### 
### Created by X-TOOL on Mon Sep 10 21:13:20 2018
### 

@<TRIPOS>MOLECULE
5e1b_ligand
  103   103     1     0     0
SMALL
GAST_HUCK


@<TRIPOS>ATOM
      1 N           6.9220   35.8220  -16.4540 N.4       1 SER         0.2396
      2 CA          6.4050   35.5960  -15.0500 C.3       1 SER         0.0886
      3 C           5.5500   34.3690  -15.0360 C.2       1 SER         0.2315
      4 O           5.0660   33.8960  -16.0950 O.2       1 SER        -0.3904
      5 CB          5.5280   36.8160  -14.6450 C.3       1 SER         0.1041
      6 OG          6.2670   38.0080  -14.6720 O.3       1 SER        -0.3870
      7 N           5.2240   33.8310  -13.8330 N.am      1 PRO        -0.2471
      8 CA          4.0910   32.9210  -13.8030 C.3       1 PRO         0.1339
      9 C           2.8790   33.6010  -14.4350 C.2       1 PRO         0.2041
     10 O           2.7560   34.8300  -14.3240 O.2       1 PRO        -0.3944
     11 CB          3.8450   32.6870  -12.2900 C.3       1 PRO        -0.0104
     12 CG          4.4670   33.8500  -11.6480 C.3       1 PRO        -0.0281
     13 CD          5.6670   34.2220  -12.4860 C.3       1 PRO         0.0371
     14 N           2.0760   32.8380  -15.1550 N.am      1 LYS        -0.2637
     15 CA          0.9870   33.4420  -15.9420 C.3       1 LYS         0.1310
     16 C          -0.1030   32.4750  -16.2980 C.2       1 LYS         0.2039
     17 O           0.1050   31.2650  -16.4150 O.2       1 LYS        -0.3944
     18 CB          1.5560   34.1150  -17.2160 C.3       1 LYS        -0.0122
     19 CG          2.1060   33.1010  -18.2080 C.3       1 LYS        -0.0440
     20 CD          2.5620   33.7380  -19.5200 C.3       1 LYS        -0.0124
     21 CE          3.7150   34.6860  -19.3620 C.3       1 LYS        -0.0354
     22 NZ          4.2970   35.0910  -20.6670 N.4       1 LYS         0.2185
     23 N          -1.2920   33.0320  -16.5260 N.am      1 ARG        -0.2637
     24 CA         -2.4710   32.2620  -16.9160 C.3       1 ARG         0.1311
     25 C          -2.2270   31.5030  -18.2210 C.2       1 ARG         0.2039
     26 O          -1.6490   32.0670  -19.1640 O.2       1 ARG        -0.3944
     27 CB         -3.6590   33.2200  -17.0910 C.3       1 ARG        -0.0092
     28 CG         -4.9960   32.5670  -17.4260 C.3       1 ARG        -0.0156
     29 CD         -6.0750   33.6260  -17.6720 C.3       1 ARG         0.0627
     30 NE         -6.3570   34.3640  -16.4390 N.pl3     1 ARG        -0.2723
     31 CZ         -7.1420   33.9170  -15.4590 C.cat     1 ARG         0.2882
     32 NH1        -7.7590   32.7400  -15.5740 N.pl3     1 ARG        -0.2849
     33 NH2        -7.3200   34.6430  -14.3680 N.pl3     1 ARG        -0.2849
     34 N          -2.6600   30.2530  -18.2690 N.am      1 ILE        -0.2635
     35 CA         -2.5890   29.4420  -19.5080 C.3       1 ILE         0.1335
     36 C          -3.4260   30.1740  -20.5560 C.2       1 ILE         0.2036
     37 O          -4.5800   30.5050  -20.3080 O.2       1 ILE        -0.3944
     38 CB         -3.0710   27.9970  -19.2960 C.3       1 ILE        -0.0037
     39 CG1        -2.1180   27.2380  -18.3640 C.3       1 ILE        -0.0491
     40 CG2        -3.2140   27.2440  -20.6150 C.3       1 ILE        -0.0582
     41 CD1        -2.6160   25.8710  -17.9500 C.3       1 ILE        -0.0648
     42 N          -2.8310   30.4960  -21.7150 N.am      1 ALA        -0.2697
     43 CA         -3.5770   31.1730  -22.7760 C.3       1 ALA         0.0916
     44 C          -4.5730   30.2200  -23.4100 C.2       1 ALA         0.0598
     45 O          -4.3420   29.0070  -23.4900 O.co2     1 ALA        -0.5666
     46 CB         -2.6290   31.7080  -23.8410 C.3       1 ALA        -0.0300
     47 OXT        -5.6320   30.6830  -23.8600 O.co2     1 ALA        -0.5666
     48 H1          7.4994   36.6481  -16.4705 H         1 SER         0.2016
     49 H2          6.1439   35.9434  -17.0831 H         1 SER         0.2016
     50 H3          7.4672   35.0252  -16.7437 H         1 SER         0.2016
     51 H4          7.2454   35.4810  -14.3497 H         1 SER         0.1122
     52 H5          5.1417   36.6572  -13.6274 H         1 SER         0.0640
     53 H6          4.6860   36.9008  -15.3478 H         1 SER         0.0640
     54 H7          6.9936   37.9427  -14.0634 H         1 SER         0.2099
     55 H8          4.3149   31.9784  -14.3240 H         1 PRO         0.0802
     56 H9          4.3217   31.7538  -11.9556 H         1 PRO         0.0313
     57 H10         2.7680   32.6479  -12.0700 H         1 PRO         0.0313
     58 H11         4.7836   33.5941  -10.6261 H         1 PRO         0.0287
     59 H12         3.7557   34.6883  -11.6124 H         1 PRO         0.0287
     60 H13         5.8761   35.3005  -12.4301 H         1 PRO         0.0524
     61 H14         6.5605   33.6589  -12.1787 H         1 PRO         0.0524
     62 H15         2.2079   31.8468  -15.1658 H         1 LYS         0.1883
     63 H16         0.5332   34.2279  -15.3205 H         1 LYS         0.0800
     64 H17         2.3664   34.7987  -16.9231 H         1 LYS         0.0312
     65 H18         0.7523   34.6865  -17.7033 H         1 LYS         0.0312
     66 H19         1.3191   32.3652  -18.4302 H         1 LYS         0.0269
     67 H20         2.9655   32.5911  -17.7483 H         1 LYS         0.0269
     68 H21         1.7143   34.2911  -19.9506 H         1 LYS         0.0317
     69 H22         2.8642   32.9356  -20.2090 H         1 LYS         0.0317
     70 H23         4.4967   34.1952  -18.7636 H         1 LYS         0.0813
     71 H24         3.3628   35.5865  -18.8375 H         1 LYS         0.0813
     72 H25         5.0648   35.7250  -20.5102 H         1 LYS         0.1994
     73 H26         3.5912   35.5489  -21.2221 H         1 LYS         0.1994
     74 H27         4.6301   34.2740  -21.1544 H         1 LYS         0.1994
     75 H28        -1.3815   34.0229  -16.4255 H         1 ARG         0.1883
     76 H29        -2.7033   31.5373  -16.1218 H         1 ARG         0.0800
     77 H30        -3.4119   33.9187  -17.9038 H         1 ARG         0.0313
     78 H31        -3.7827   33.7790  -16.1518 H         1 ARG         0.0313
     79 H32        -5.3046   31.9268  -16.5864 H         1 ARG         0.0301
     80 H33        -4.8803   31.9536  -18.3317 H         1 ARG         0.0301
     81 H34        -6.9953   33.1323  -18.0173 H         1 ARG         0.0689
     82 H35        -5.7244   34.3284  -18.4425 H         1 ARG         0.0689
     83 H36        -5.9200   35.2893  -16.3214 H         1 ARG         0.2642
     84 H37        -8.3645   32.3995  -14.8135 H         1 ARG         0.2615
     85 H38        -7.6299   32.1717  -16.4233 H         1 ARG         0.2615
     86 H39        -6.8469   35.5529  -14.2720 H         1 ARG         0.2615
     87 H40        -7.9317   34.2985  -13.6143 H         1 ARG         0.2615
     88 H41        -3.0473   29.8427  -17.4433 H         1 ILE         0.1883
     89 H42        -1.5436   29.4020  -19.8480 H         1 ILE         0.0803
     90 H43        -4.0610   28.0381  -18.8183 H         1 ILE         0.0345
     91 H44        -1.9699   27.8410  -17.4560 H         1 ILE         0.0267
     92 H45        -1.1557   27.1126  -18.8819 H         1 ILE         0.0267
     93 H46        -3.8983   27.7932  -21.2784 H         1 ILE         0.0235
     94 H47        -3.6183   26.2394  -20.4218 H         1 ILE         0.0235
     95 H48        -2.2286   27.1565  -21.0960 H         1 ILE         0.0235
     96 H49        -1.8776   25.3973  -17.2863 H         1 ILE         0.0230
     97 H50        -2.7591   25.2466  -18.8442 H         1 ILE         0.0230
     98 H51        -3.5733   25.9750  -17.4183 H         1 ILE         0.0230
     99 H52        -1.8668   30.2707  -21.8550 H         1 ALA         0.1875
    100 H53        -4.1261   32.0180  -22.3350 H         1 ALA         0.0723
    101 H54        -3.2088   32.2124  -24.6280 H         1 ALA         0.0270
    102 H55        -2.0628   30.8736  -24.2805 H         1 ALA         0.0270
    103 H56        -1.9307   32.4245  -23.3838 H         1 ALA         0.0270
@<TRIPOS>BOND
     1    1    2 1  
     2    2    3 1  
     3    2    5 1  
     4    3    4 2  
     5    3    7 am 
     6    5    6 1  
     7    7    8 1  
     8    7   13 1  
     9    8    9 1  
    10    8   11 1  
    11    9   10 2  
    12    9   14 am 
    13   11   12 1  
    14   12   13 1  
    15   14   15 1  
    16   15   16 1  
    17   15   18 1  
    18   16   17 2  
    19   16   23 am 
    20   18   19 1  
    21   19   20 1  
    22   20   21 1  
    23   21   22 1  
    24   23   24 1  
    25   24   25 1  
    26   24   27 1  
    27   25   26 2  
    28   25   34 am 
    29   27   28 1  
    30   28   29 1  
    31   29   30 1  
    32   30   31 ar 
    33   31   32 ar 
    34   31   33 ar 
    35   34   35 1  
    36   35   36 1  
    37   35   38 1  
    38   36   37 2  
    39   36   42 am 
    40   38   39 1  
    41   38   40 1  
    42   39   41 1  
    43   42   43 1  
    44   43   44 1  
    45   43   46 1  
    46   44   45 ar 
    47   44   47 ar 
    48    1   48 1  
    49    1   49 1  
    50    1   50 1  
    51    2   51 1  
    52    5   52 1  
    53    5   53 1  
    54    6   54 1  
    55    8   55 1  
    56   11   56 1  
    57   11   57 1  
    58   12   58 1  
    59   12   59 1  
    60   13   60 1  
    61   13   61 1  
    62   14   62 1  
    63   15   63 1  
    64   18   64 1  
    65   18   65 1  
    66   19   66 1  
    67   19   67 1  
    68   20   68 1  
    69   20   69 1  
    70   21   70 1  
    71   21   71 1  
    72   22   72 1  
    73   22   73 1  
    74   22   74 1  
    75   23   75 1  
    76   24   76 1  
    77   27   77 1  
    78   27   78 1  
    79   28   79 1  
    80   28   80 1  
    81   29   81 1  
    82   29   82 1  
    83   30   83 1  
    84   32   84 1  
    85   32   85 1  
    86   33   86 1  
    87   33   87 1  
    88   34   88 1  
    89   35   89 1  
    90   38   90 1  
    91   39   91 1  
    92   39   92 1  
    93   40   93 1  
    94   40   94 1  
    95   40   95 1  
    96   41   96 1  
    97   41   97 1  
    98   41   98 1  
    99   42   99 1  
   100   43  100 1  
   101   46  101 1  
   102   46  102 1  
   103   46  103 1  
@<TRIPOS>SUBSTRUCTURE
     1 SER         1

