5e1b_ligand
  -I-interpret- 

103103  0  0  0  0  0  0  0  0999 V2000
    6.9220   35.8220  -16.4540 N   0  3  0  0  0
    6.4050   35.5960  -15.0500 C   0  0  0  0  0
    5.5500   34.3690  -15.0360 C   0  0  0  0  0
    5.0660   33.8960  -16.0950 O   0  0  0  0  0
    5.5280   36.8160  -14.6450 C   0  0  0  0  0
    6.2670   38.0080  -14.6720 O   0  0  0  0  0
    5.2240   33.8310  -13.8330 N   0  0  0  0  0
    4.0910   32.9210  -13.8030 C   0  0  0  0  0
    2.8790   33.6010  -14.4350 C   0  0  0  0  0
    2.7560   34.8300  -14.3240 O   0  0  0  0  0
    3.8450   32.6870  -12.2900 C   0  0  0  0  0
    4.4670   33.8500  -11.6480 C   0  0  0  0  0
    5.6670   34.2220  -12.4860 C   0  0  0  0  0
    2.0760   32.8380  -15.1550 N   0  0  0  0  0
    0.9870   33.4420  -15.9420 C   0  0  0  0  0
   -0.1030   32.4750  -16.2980 C   0  0  0  0  0
    0.1050   31.2650  -16.4150 O   0  0  0  0  0
    1.5560   34.1150  -17.2160 C   0  0  0  0  0
    2.1060   33.1010  -18.2080 C   0  0  0  0  0
    2.5620   33.7380  -19.5200 C   0  0  0  0  0
    3.7150   34.6860  -19.3620 C   0  0  0  0  0
    4.2970   35.0910  -20.6670 N   0  3  0  0  0
   -1.2920   33.0320  -16.5260 N   0  0  0  0  0
   -2.4710   32.2620  -16.9160 C   0  0  0  0  0
   -2.2270   31.5030  -18.2210 C   0  0  0  0  0
   -1.6490   32.0670  -19.1640 O   0  0  0  0  0
   -3.6590   33.2200  -17.0910 C   0  0  0  0  0
   -4.9960   32.5670  -17.4260 C   0  0  0  0  0
   -6.0750   33.6260  -17.6720 C   0  0  0  0  0
   -6.3570   34.3640  -16.4390 N   0  0  0  0  0
   -7.1420   33.9170  -15.4590 C   0  0  0  0  0
   -7.7590   32.7400  -15.5740 N   0  0  0  0  0
   -7.3200   34.6430  -14.3680 N   0  0  0  0  0
   -2.6600   30.2530  -18.2690 N   0  0  0  0  0
   -2.5890   29.4420  -19.5080 C   0  0  0  0  0
   -3.4260   30.1740  -20.5560 C   0  0  0  0  0
   -4.5800   30.5050  -20.3080 O   0  0  0  0  0
   -3.0710   27.9970  -19.2960 C   0  0  0  0  0
   -2.1180   27.2380  -18.3640 C   0  0  0  0  0
   -3.2140   27.2440  -20.6150 C   0  0  0  0  0
   -2.6160   25.8710  -17.9500 C   0  0  0  0  0
   -2.8310   30.4960  -21.7150 N   0  0  0  0  0
   -3.5770   31.1730  -22.7760 C   0  0  0  0  0
   -4.5730   30.2200  -23.4100 C   0  0  0  0  0
   -4.3420   29.0070  -23.4900 O   0  0  0  0  0
   -2.6290   31.7080  -23.8410 C   0  0  0  0  0
   -5.6320   30.6830  -23.8600 O   0  0  0  0  0
    7.4996   35.0293  -16.7340 H   0  0  0  0  0
    6.1336   35.9130  -17.0948 H   0  0  0  0  0
    7.4800   36.6755  -16.4763 H   0  0  0  0  0
    7.2390   35.4773  -14.3583 H   0  0  0  0  0
    5.1621   36.6581  -13.6305 H   0  0  0  0  0
    4.7054   36.9022  -15.3549 H   0  0  0  0  0
    5.7004   38.7403  -14.4183 H   0  0  0  0  0
    4.2653   31.9934  -14.3482 H   0  0  0  0  0
    4.2699   31.7454  -11.9421 H   0  0  0  0  0
    2.7850   32.5999  -12.0514 H   0  0  0  0  0
    4.7659   33.6147  -10.6265 H   0  0  0  0  0
    3.7642   34.6810  -11.5876 H   0  0  0  0  0
    5.9420   35.2738  -12.4077 H   0  0  0  0  0
    6.5864   33.7284  -12.1710 H   0  0  0  0  0
    2.2106   31.8270  -15.1660 H   0  0  0  0  0
    0.5256   34.1954  -15.3036 H   0  0  0  0  0
    2.3726   34.7716  -16.9157 H   0  0  0  0  0
    0.7457   34.6584  -17.7020 H   0  0  0  0  0
    1.3076   32.3963  -18.4404 H   0  0  0  0  0
    2.9732   32.6249  -17.7505 H   0  0  0  0  0
    1.7217   34.3097  -19.9140 H   0  0  0  0  0
    2.8903   32.9323  -20.1766 H   0  0  0  0  0
    4.4917   34.1801  -18.7885 H   0  0  0  0  0
    3.3484   35.5831  -18.8630 H   0  0  0  0  0
    5.0737   35.7325  -20.5071 H   0  0  0  0  0
    4.6337   34.2635  -21.1592 H   0  0  0  0  0
    3.5819   35.5542  -21.2278 H   0  0  0  0  0
   -1.3833   34.0427  -16.4235 H   0  0  0  0  0
   -2.6862   31.5326  -16.1352 H   0  0  0  0  0
   -3.4121   33.8651  -17.9342 H   0  0  0  0  0
   -3.7934   33.7214  -16.1325 H   0  0  0  0  0
   -5.3019   31.9435  -16.5859 H   0  0  0  0  0
   -4.8778   31.9703  -18.3305 H   0  0  0  0  0
   -6.9873   33.1321  -18.0065 H   0  0  0  0  0
   -5.7206   34.3242  -18.4303 H   0  0  0  0  0
   -5.9243   35.2803  -16.3225 H   0  0  0  0  0
   -8.3633   32.4055  -14.8234 H   0  0  0  0  0
   -7.6265   32.1745  -16.4125 H   0  0  0  0  0
   -6.8562   35.5467  -14.2755 H   0  0  0  0  0
   -3.0550   29.8345  -17.4268 H   0  0  0  0  0
   -1.5541   29.3435  -19.8355 H   0  0  0  0  0
   -4.0563   28.0542  -18.8334 H   0  0  0  0  0
   -2.0147   27.8319  -17.4558 H   0  0  0  0  0
   -1.1853   27.0898  -18.9082 H   0  0  0  0  0
   -3.9389   27.7563  -21.2476 H   0  0  0  0  0
   -2.2484   27.2112  -21.1197 H   0  0  0  0  0
   -3.5565   26.2284  -20.4168 H   0  0  0  0  0
   -3.5646   25.9754  -17.4234 H   0  0  0  0  0
   -2.7574   25.2533  -18.8369 H   0  0  0  0  0
   -1.8836   25.4027  -17.2925 H   0  0  0  0  0
   -1.8476   30.2662  -21.8578 H   0  0  0  0  0
   -4.1158   32.0102  -22.3322 H   0  0  0  0  0
   -1.9376   32.4177  -23.3867 H   0  0  0  0  0
   -2.0686   30.8803  -24.2757 H   0  0  0  0  0
   -3.2047   32.2076  -24.6202 H   0  0  0  0  0
   -5.6511   31.6322  -23.7174 H   0  0  0  0  0
  1  2  1  0  0  0
  2  3  1  0  0  0
  2  5  1  0  0  0
  3  4  2  0  0  0
  3  7  1  0  0  0
  5  6  1  0  0  0
  7  8  1  0  0  0
  7 13  1  0  0  0
  8  9  1  0  0  0
  8 11  1  0  0  0
  9 10  2  0  0  0
  9 14  1  0  0  0
 11 12  1  0  0  0
 12 13  1  0  0  0
 14 15  1  0  0  0
 15 16  1  0  0  0
 15 18  1  0  0  0
 16 17  2  0  0  0
 16 23  1  0  0  0
 18 19  1  0  0  0
 19 20  1  0  0  0
 20 21  1  0  0  0
 21 22  1  0  0  0
 23 24  1  0  0  0
 24 25  1  0  0  0
 24 27  1  0  0  0
 25 26  2  0  0  0
 25 34  1  0  0  0
 27 28  1  0  0  0
 28 29  1  0  0  0
 29 30  1  0  0  0
 30 31  1  0  0  0
 31 32  1  0  0  0
 31 33  2  0  0  0
 34 35  1  0  0  0
 35 36  1  0  0  0
 35 38  1  0  0  0
 36 37  2  0  0  0
 36 42  1  0  0  0
 38 39  1  0  0  0
 38 40  1  0  0  0
 39 41  1  0  0  0
 42 43  1  0  0  0
 43 44  1  0  0  0
 43 46  1  0  0  0
 44 45  2  0  0  0
 44 47  1  0  0  0
  1 48  1  0  0  0
  1 49  1  0  0  0
  1 50  1  0  0  0
  2 51  1  0  0  0
  5 52  1  0  0  0
  5 53  1  0  0  0
  6 54  1  0  0  0
  8 55  1  0  0  0
 11 56  1  0  0  0
 11 57  1  0  0  0
 12 58  1  0  0  0
 12 59  1  0  0  0
 13 60  1  0  0  0
 13 61  1  0  0  0
 14 62  1  0  0  0
 15 63  1  0  0  0
 18 64  1  0  0  0
 18 65  1  0  0  0
 19 66  1  0  0  0
 19 67  1  0  0  0
 20 68  1  0  0  0
 20 69  1  0  0  0
 21 70  1  0  0  0
 21 71  1  0  0  0
 22 72  1  0  0  0
 22 73  1  0  0  0
 22 74  1  0  0  0
 23 75  1  0  0  0
 24 76  1  0  0  0
 27 77  1  0  0  0
 27 78  1  0  0  0
 28 79  1  0  0  0
 28 80  1  0  0  0
 29 81  1  0  0  0
 29 82  1  0  0  0
 30 83  1  0  0  0
 32 84  1  0  0  0
 32 85  1  0  0  0
 33 86  1  0  0  0
 34 87  1  0  0  0
 35 88  1  0  0  0
 38 89  1  0  0  0
 39 90  1  0  0  0
 39 91  1  0  0  0
 40 92  1  0  0  0
 40 93  1  0  0  0
 40 94  1  0  0  0
 41 95  1  0  0  0
 41 96  1  0  0  0
 41 97  1  0  0  0
 42 98  1  0  0  0
 43 99  1  0  0  0
 46100  1  0  0  0
 46101  1  0  0  0
 46102  1  0  0  0
 47103  1  0  0  0
M  END
$$$$
