6iso_ligand
  -I-interpret- 

127126  0  0  0  0  0  0  0  0999 V2000
  -20.1750  -11.3990  -28.0710 N   0  3  0  0  0
  -20.2890  -12.8900  -27.7830 C   0  0  0  0  0
  -20.1200  -13.6820  -29.0850 C   0  0  0  0  0
  -21.0940  -13.7500  -29.8450 O   0  0  0  0  0
  -21.6230  -13.2640  -27.1210 C   0  0  0  0  0
  -21.6290  -14.6840  -26.5830 C   0  0  0  0  0
  -22.3990  -14.9110  -25.2830 C   0  0  0  0  0
  -22.0200  -16.2090  -24.7060 N   0  0  0  0  0
  -22.8200  -17.2770  -24.5300 C   0  0  0  0  0
  -24.1080  -17.2430  -24.8430 N   0  0  0  0  0
  -22.3190  -18.3860  -24.0170 N   0  0  0  0  0
  -18.9380  -14.2710  -29.2970 N   0  0  0  0  0
  -18.4810  -14.8550  -30.5830 C   0  0  0  0  0
  -18.6520  -16.3730  -30.5830 C   0  0  0  0  0
  -18.9720  -16.9180  -29.5370 O   0  0  0  0  0
  -17.0030  -14.5330  -30.8400 C   0  0  0  0  0
  -16.2090  -15.1250  -29.8090 O   0  0  0  0  0
  -16.7520  -13.0480  -30.9260 C   0  0  0  0  0
  -18.4160  -17.0210  -31.7210 N   0  0  0  0  0
  -18.5790  -18.4840  -31.8840 C   0  0  0  0  0
  -17.4140  -19.2290  -31.2140 C   0  0  0  0  0
  -16.2480  -19.0850  -31.6260 O   0  0  0  0  0
  -18.7250  -18.8320  -33.3640 C   0  0  0  0  0
  -18.7210  -20.3250  -33.6580 C   0  0  0  0  0
  -19.2680  -20.7060  -35.0320 C   0  0  0  0  0
  -18.5580  -21.8980  -35.6460 C   0  0  0  0  0
  -19.2410  -22.3550  -36.8730 N   0  3  0  0  0
  -17.7240  -20.0390  -30.2140 N   0  0  0  0  0
  -16.7290  -20.8900  -29.5160 C   0  0  0  0  0
  -17.3770  -22.2320  -29.1940 C   0  0  0  0  0
  -18.6070  -22.2850  -29.1190 O   0  0  0  0  0
  -16.2770  -20.2180  -28.2180 C   0  0  0  0  0
  -15.7580  -18.7930  -28.3910 C   0  0  0  0  0
  -14.5010  -18.7180  -29.2300 C   0  0  0  0  0
  -13.7530  -19.6970  -29.3820 O   0  0  0  0  0
  -14.2680  -17.5350  -29.7810 N   0  0  0  0  0
  -16.5610  -23.2600  -28.9840 N   0  0  0  0  0
  -16.9830  -24.6240  -28.5490 C   0  0  0  0  0
  -17.5570  -24.5500  -27.1310 C   0  0  0  0  0
  -17.1670  -23.6460  -26.4010 O   0  0  0  0  0
  -15.7720  -25.5540  -28.6620 C   0  0  0  0  0
  -14.7420  -24.9380  -27.8890 O   0  0  0  0  0
  -15.2630  -25.7440  -30.0820 C   0  0  0  0  0
  -18.4660  -25.4240  -26.7210 N   0  0  0  0  0
  -19.0250  -25.3860  -25.3430 C   0  0  0  0  0
  -18.1040  -26.1610  -24.3940 C   0  0  0  0  0
  -17.4530  -27.1010  -24.8710 O   0  0  0  0  0
  -20.4250  -25.9380  -25.3310 C   0  0  0  0  0
  -18.0300  -25.7470  -23.1170 N   0  0  0  0  0
  -17.3230  -26.4240  -21.9770 C   0  0  0  0  0
  -16.1140  -27.2430  -22.4540 C   0  0  0  0  0
  -15.1130  -26.6950  -22.8810 O   0  0  0  0  0
  -18.2650  -27.3830  -21.2390 C   0  0  0  0  0
  -19.4930  -26.7120  -20.6370 C   0  0  0  0  0
  -19.2370  -25.9990  -19.3070 C   0  0  0  0  0
  -19.3390  -26.8630  -18.1290 N   0  0  0  0  0
  -20.4600  -27.1390  -17.4470 C   0  0  0  0  0
  -21.6290  -26.6220  -17.7940 N   0  0  0  0  0
  -20.4110  -27.9490  -16.4020 N   0  0  0  0  0
  -16.1260  -28.4610  -22.4170 O   0  0  0  0  0
  -19.2740  -11.2064  -28.5086 H   0  0  0  0  0
  -20.9270  -11.1169  -28.6998 H   0  0  0  0  0
  -20.2479  -10.8785  -27.1968 H   0  0  0  0  0
  -19.4964  -13.1439  -27.0792 H   0  0  0  0  0
  -22.4055  -13.1877  -27.8760 H   0  0  0  0  0
  -21.7832  -12.5865  -26.2823 H   0  0  0  0  0
  -20.5896  -14.9319  -26.3678 H   0  0  0  0  0
  -22.1234  -15.2935  -27.3394 H   0  0  0  0  0
  -23.4691  -14.9051  -25.4900 H   0  0  0  0  0
  -22.1592  -14.1165  -24.5764 H   0  0  0  0  0
  -21.0498  -16.3108  -24.4080 H   0  0  0  0  0
  -24.6927  -18.0640  -24.6865 H   0  0  0  0  0
  -24.5141  -16.3959  -25.2403 H   0  0  0  0  0
  -21.3334  -18.4282  -23.7578 H   0  0  0  0  0
  -18.2951  -14.3234  -28.5068 H   0  0  0  0  0
  -19.0933  -14.4151  -31.3702 H   0  0  0  0  0
  -16.7224  -14.9519  -31.8064 H   0  0  0  0  0
  -15.2830  -14.9261  -29.9657 H   0  0  0  0  0
  -17.3385  -12.6284  -31.7434 H   0  0  0  0  0
  -17.0445  -12.5764  -29.9878 H   0  0  0  0  0
  -15.6923  -12.8699  -31.1087 H   0  0  0  0  0
  -18.1050  -16.4791  -32.5273 H   0  0  0  0  0
  -19.4916  -18.8090  -31.3844 H   0  0  0  0  0
  -17.8683  -18.4003  -33.8816 H   0  0  0  0  0
  -19.6887  -18.4425  -33.6921 H   0  0  0  0  0
  -19.3673  -20.7960  -32.9174 H   0  0  0  0  0
  -17.6815  -20.6515  -33.6286 H   0  0  0  0  0
  -19.1191  -19.8541  -35.6955 H   0  0  0  0  0
  -20.3174  -20.9735  -34.9081 H   0  0  0  0  0
  -18.5603  -22.7137  -34.9230 H   0  0  0  0  0
  -17.5415  -21.6013  -35.9044 H   0  0  0  0  0
  -18.7412  -23.1551  -37.2610 H   0  0  0  0  0
  -20.1976  -22.6273  -36.6469 H   0  0  0  0  0
  -19.2542  -21.5972  -37.5556 H   0  0  0  0  0
  -18.6961  -20.0802  -29.9078 H   0  0  0  0  0
  -15.8590  -21.0342  -30.1566 H   0  0  0  0  0
  -15.4535  -20.8117  -27.8212 H   0  0  0  0  0
  -17.1491  -20.1632  -27.5665 H   0  0  0  0  0
  -15.5195  -18.4045  -27.4009 H   0  0  0  0  0
  -16.5314  -18.2180  -28.9002 H   0  0  0  0  0
  -13.4411  -17.3970  -30.3621 H   0  0  0  0  0
  -14.9156  -16.7628  -29.6239 H   0  0  0  0  0
  -15.5640  -23.1038  -29.1324 H   0  0  0  0  0
  -17.7735  -25.0253  -29.1831 H   0  0  0  0  0
  -16.0602  -26.5466  -28.3159 H   0  0  0  0  0
  -13.9506  -25.4804  -27.9224 H   0  0  0  0  0
  -16.0549  -26.1727  -30.6962 H   0  0  0  0  0
  -14.9655  -24.7789  -30.4921 H   0  0  0  0  0
  -14.4049  -26.4161  -30.0721 H   0  0  0  0  0
  -18.7909  -26.1422  -27.3684 H   0  0  0  0  0
  -19.0783  -24.3532  -24.9988 H   0  0  0  0  0
  -21.0559  -25.3392  -25.9879 H   0  0  0  0  0
  -20.4102  -26.9702  -25.6810 H   0  0  0  0  0
  -20.8193  -25.9030  -24.3154 H   0  0  0  0  0
  -18.5085  -24.8735  -22.8969 H   0  0  0  0  0
  -16.9874  -25.6262  -21.3144 H   0  0  0  0  0
  -17.6998  -27.8182  -20.4148 H   0  0  0  0  0
  -18.6211  -28.1096  -21.9694 H   0  0  0  0  0
  -20.2235  -27.4974  -20.4430 H   0  0  0  0  0
  -19.8235  -25.9542  -21.3473 H   0  0  0  0  0
  -20.0002  -25.2274  -19.2052 H   0  0  0  0  0
  -18.2156  -25.6197  -19.3384 H   0  0  0  0  0
  -18.4770  -27.2951  -17.7963 H   0  0  0  0  0
  -22.4668  -26.8509  -17.2592 H   0  0  0  0  0
  -21.6914  -25.9950  -18.5961 H   0  0  0  0  0
  -19.5225  -28.3613  -16.1175 H   0  0  0  0  0
  -16.9663  -28.7610  -22.0628 H   0  0  0  0  0
  1  2  1  0  0  0
  2  3  1  0  0  0
  2  5  1  0  0  0
  3  4  2  0  0  0
  3 12  1  0  0  0
  5  6  1  0  0  0
  6  7  1  0  0  0
  7  8  1  0  0  0
  8  9  1  0  0  0
  9 10  1  0  0  0
  9 11  2  0  0  0
 12 13  1  0  0  0
 13 14  1  0  0  0
 13 16  1  0  0  0
 14 15  2  0  0  0
 14 19  1  0  0  0
 16 17  1  0  0  0
 16 18  1  0  0  0
 19 20  1  0  0  0
 20 21  1  0  0  0
 20 23  1  0  0  0
 21 22  2  0  0  0
 21 28  1  0  0  0
 23 24  1  0  0  0
 24 25  1  0  0  0
 25 26  1  0  0  0
 26 27  1  0  0  0
 28 29  1  0  0  0
 29 30  1  0  0  0
 29 32  1  0  0  0
 30 31  2  0  0  0
 30 37  1  0  0  0
 32 33  1  0  0  0
 33 34  1  0  0  0
 34 35  2  0  0  0
 34 36  1  0  0  0
 37 38  1  0  0  0
 38 39  1  0  0  0
 38 41  1  0  0  0
 39 40  2  0  0  0
 39 44  1  0  0  0
 41 42  1  0  0  0
 41 43  1  0  0  0
 44 45  1  0  0  0
 45 46  1  0  0  0
 45 48  1  0  0  0
 46 47  2  0  0  0
 46 49  1  0  0  0
 49 50  1  0  0  0
 50 51  1  0  0  0
 50 53  1  0  0  0
 51 52  2  0  0  0
 51 60  1  0  0  0
 53 54  1  0  0  0
 54 55  1  0  0  0
 55 56  1  0  0  0
 56 57  1  0  0  0
 57 58  1  0  0  0
 57 59  2  0  0  0
  1 61  1  0  0  0
  1 62  1  0  0  0
  1 63  1  0  0  0
  2 64  1  0  0  0
  5 65  1  0  0  0
  5 66  1  0  0  0
  6 67  1  0  0  0
  6 68  1  0  0  0
  7 69  1  0  0  0
  7 70  1  0  0  0
  8 71  1  0  0  0
 10 72  1  0  0  0
 10 73  1  0  0  0
 11 74  1  0  0  0
 12 75  1  0  0  0
 13 76  1  0  0  0
 16 77  1  0  0  0
 17 78  1  0  0  0
 18 79  1  0  0  0
 18 80  1  0  0  0
 18 81  1  0  0  0
 19 82  1  0  0  0
 20 83  1  0  0  0
 23 84  1  0  0  0
 23 85  1  0  0  0
 24 86  1  0  0  0
 24 87  1  0  0  0
 25 88  1  0  0  0
 25 89  1  0  0  0
 26 90  1  0  0  0
 26 91  1  0  0  0
 27 92  1  0  0  0
 27 93  1  0  0  0
 27 94  1  0  0  0
 28 95  1  0  0  0
 29 96  1  0  0  0
 32 97  1  0  0  0
 32 98  1  0  0  0
 33 99  1  0  0  0
 33100  1  0  0  0
 36101  1  0  0  0
 36102  1  0  0  0
 37103  1  0  0  0
 38104  1  0  0  0
 41105  1  0  0  0
 42106  1  0  0  0
 43107  1  0  0  0
 43108  1  0  0  0
 43109  1  0  0  0
 44110  1  0  0  0
 45111  1  0  0  0
 48112  1  0  0  0
 48113  1  0  0  0
 48114  1  0  0  0
 49115  1  0  0  0
 50116  1  0  0  0
 53117  1  0  0  0
 53118  1  0  0  0
 54119  1  0  0  0
 54120  1  0  0  0
 55121  1  0  0  0
 55122  1  0  0  0
 56123  1  0  0  0
 58124  1  0  0  0
 58125  1  0  0  0
 59126  1  0  0  0
 60127  1  0  0  0
M  END
$$$$
