### 
### Created by X-TOOL on Mon Aug  2 16:14:23 2021
### 

@<TRIPOS>MOLECULE
6iso_ligand
  128   127     1     0     0
SMALL
GAST_HUCK


@<TRIPOS>ATOM
      1 N         -20.1750  -11.3990  -28.0710 N.4       1 ARG         0.2379
      2 CA        -20.2890  -12.8900  -27.7830 C.3       1 ARG         0.0651
      3 C         -20.1200  -13.6820  -29.0850 C.2       1 ARG         0.2268
      4 O         -21.0940  -13.7500  -29.8450 O.2       1 ARG        -0.3907
      5 CB        -21.6230  -13.2640  -27.1210 C.3       1 ARG         0.0110
      6 CG        -21.6290  -14.6840  -26.5830 C.3       1 ARG        -0.0125
      7 CD        -22.3990  -14.9110  -25.2830 C.3       1 ARG         0.0629
      8 NE        -22.0200  -16.2090  -24.7060 N.pl3     1 ARG        -0.2723
      9 CZ        -22.8200  -17.2770  -24.5300 C.cat     1 ARG         0.2882
     10 NH1       -24.1080  -17.2430  -24.8430 N.pl3     1 ARG        -0.2849
     11 NH2       -22.3190  -18.3860  -24.0170 N.pl3     1 ARG        -0.2849
     12 N         -18.9380  -14.2710  -29.2970 N.am      1 ARG        -0.2586
     13 CA        -18.4810  -14.8550  -30.5830 C.3       1 ARG         0.1566
     14 C         -18.6520  -16.3730  -30.5830 C.2       1 ARG         0.2065
     15 O         -18.9720  -16.9180  -29.5370 O.2       1 ARG        -0.3943
     16 CB        -17.0030  -14.5330  -30.8400 C.3       1 ARG         0.0924
     17 OG1       -16.2090  -15.1250  -29.8090 O.3       1 ARG        -0.3874
     18 CG2       -16.7520  -13.0480  -30.9260 C.3       1 ARG        -0.0346
     19 N         -18.4160  -17.0210  -31.7210 N.am      1 ARG        -0.2637
     20 CA        -18.5790  -18.4840  -31.8840 C.3       1 ARG         0.1310
     21 C         -17.4140  -19.2290  -31.2140 C.2       1 ARG         0.2039
     22 O         -16.2480  -19.0850  -31.6260 O.2       1 ARG        -0.3944
     23 CB        -18.7250  -18.8320  -33.3640 C.3       1 ARG        -0.0122
     24 CG        -18.7210  -20.3250  -33.6580 C.3       1 ARG        -0.0440
     25 CD        -19.2680  -20.7060  -35.0320 C.3       1 ARG        -0.0124
     26 CE        -18.5580  -21.8980  -35.6460 C.3       1 ARG        -0.0354
     27 NZ        -19.2410  -22.3550  -36.8730 N.4       1 ARG         0.2185
     28 N         -17.7240  -20.0390  -30.2140 N.am      1 ARG        -0.2636
     29 CA        -16.7290  -20.8900  -29.5160 C.3       1 ARG         0.1330
     30 C         -17.3770  -22.2320  -29.1940 C.2       1 ARG         0.2041
     31 O         -18.6070  -22.2850  -29.1190 O.2       1 ARG        -0.3944
     32 CB        -16.2770  -20.2180  -28.2180 C.3       1 ARG         0.0045
     33 CG        -15.7580  -18.7930  -28.3910 C.3       1 ARG         0.0412
     34 CD        -14.5010  -18.7180  -29.2300 C.2       1 ARG         0.1737
     35 OE1       -13.7530  -19.6970  -29.3820 O.2       1 ARG        -0.3973
     36 NE2       -14.2680  -17.5350  -29.7810 N.am      1 ARG        -0.3009
     37 N         -16.5610  -23.2600  -28.9840 N.am      1 ARG        -0.2613
     38 CA        -16.9830  -24.6240  -28.5490 C.3       1 ARG         0.1565
     39 C         -17.5570  -24.5500  -27.1310 C.2       1 ARG         0.2065
     40 O         -17.1670  -23.6460  -26.4010 O.2       1 ARG        -0.3943
     41 CB        -15.7720  -25.5540  -28.6620 C.3       1 ARG         0.0924
     42 OG1       -14.7420  -24.9380  -27.8890 O.3       1 ARG        -0.3874
     43 CG2       -15.2630  -25.7440  -30.0820 C.3       1 ARG        -0.0346
     44 N         -18.4660  -25.4240  -26.7210 N.am      1 ARG        -0.2639
     45 CA        -19.0250  -25.3860  -25.3430 C.3       1 ARG         0.1282
     46 C         -18.1040  -26.1610  -24.3940 C.2       1 ARG         0.2031
     47 O         -17.4530  -27.1010  -24.8710 O.2       1 ARG        -0.3944
     48 CB        -20.4250  -25.9380  -25.3310 C.3       1 ARG        -0.0244
     49 N         -18.0300  -25.7470  -23.1170 N.am      1 ARG        -0.2695
     50 CA        -17.3230  -26.4240  -21.9770 C.3       1 ARG         0.0945
     51 C         -16.1140  -27.2430  -22.4540 C.2       1 ARG         0.0601
     52 O         -15.1130  -26.6950  -22.8810 O.co2     1 ARG        -0.5666
     53 CB        -18.2650  -27.3830  -21.2390 C.3       1 ARG        -0.0148
     54 CG        -19.4930  -26.7120  -20.6370 C.3       1 ARG        -0.0162
     55 CD        -19.2370  -25.9990  -19.3070 C.3       1 ARG         0.0627
     56 NE        -19.3390  -26.8630  -18.1290 N.pl3     1 ARG        -0.2723
     57 CZ        -20.4600  -27.1390  -17.4470 C.cat     1 ARG         0.2882
     58 NH1       -21.6290  -26.6220  -17.7940 N.pl3     1 ARG        -0.2849
     59 NH2       -20.4110  -27.9490  -16.4020 N.pl3     1 ARG        -0.2849
     60 OXT       -16.1260  -28.4610  -22.4170 O.co2     1 ARG        -0.5666
     61 H1        -20.2866  -10.8816  -27.2131 H         1 ARG         0.2015
     62 H2        -20.8936  -11.1269  -28.7233 H         1 ARG         0.2015
     63 H3        -19.2694  -11.2015  -28.4671 H         1 ARG         0.2015
     64 H4        -19.4771  -13.1673  -27.0946 H         1 ARG         0.1098
     65 H5        -22.4260  -13.1661  -27.8663 H         1 ARG         0.0347
     66 H6        -21.8096  -12.5706  -26.2877 H         1 ARG         0.0347
     67 H7        -20.5842  -14.9816  -26.4102 H         1 ARG         0.0302
     68 H8        -22.0724  -15.3325  -27.3529 H         1 ARG         0.0302
     69 H9        -23.4791  -14.9043  -25.4912 H         1 ARG         0.0689
     70 H10       -22.1580  -14.1089  -24.5698 H         1 ARG         0.0689
     71 H11       -21.0403  -16.3118  -24.4051 H         1 ARG         0.2642
     72 H12       -24.6956  -18.0763  -24.6971 H         1 ARG         0.2615
     73 H13       -24.5209  -16.3833  -25.2320 H         1 ARG         0.2615
     74 H14       -21.3209  -18.4328  -23.7671 H         1 ARG         0.2615
     75 H15       -22.9264  -19.2042  -23.8667 H         1 ARG         0.2615
     76 H16       -18.3077  -14.3224  -28.5223 H         1 ARG         0.1885
     77 H17       -19.0865  -14.4265  -31.3952 H         1 ARG         0.0826
     78 H18       -16.7152  -14.9808  -31.8026 H         1 ARG         0.0639
     79 H19       -15.2927  -14.9281  -29.9641 H         1 ARG         0.2101
     80 H20       -15.6828  -12.8670  -31.1104 H         1 ARG         0.0257
     81 H21       -17.0468  -12.5709  -29.9797 H         1 ARG         0.0257
     82 H22       -17.3433  -12.6233  -31.7506 H         1 ARG         0.0257
     83 H23       -18.1111  -16.4897  -32.5114 H         1 ARG         0.1883
     84 H24       -19.5062  -18.7858  -31.3750 H         1 ARG         0.0800
     85 H25       -17.8894  -18.3707  -33.9107 H         1 ARG         0.0312
     86 H26       -19.6755  -18.4121  -33.7248 H         1 ARG         0.0312
     87 H27       -19.3336  -20.8263  -32.8943 H         1 ARG         0.0269
     88 H28       -17.6837  -20.6848  -33.5903 H         1 ARG         0.0269
     89 H29       -19.1523  -19.8444  -35.7060 H         1 ARG         0.0317
     90 H30       -20.3356  -20.9498  -34.9284 H         1 ARG         0.0317
     91 H31       -18.5430  -22.7211  -34.9164 H         1 ARG         0.0813
     92 H32       -17.5260  -21.6108  -35.8961 H         1 ARG         0.0813
     93 H33       -18.7479  -23.1457  -37.2573 H         1 ARG         0.1994
     94 H34       -19.2547  -21.6069  -37.5485 H         1 ARG         0.1994
     95 H35       -20.1866  -22.6244  -36.6508 H         1 ARG         0.1994
     96 H36       -18.6770  -20.0794  -29.9138 H         1 ARG         0.1883
     97 H37       -15.8572  -21.0467  -30.1682 H         1 ARG         0.0801
     98 H38       -15.4724  -20.8258  -27.7784 H         1 ARG         0.0337
     99 H39       -17.1339  -20.1903  -27.5288 H         1 ARG         0.0337
    100 H40       -15.5407  -18.3762  -27.3965 H         1 ARG         0.0504
    101 H41       -16.5403  -18.1919  -28.8776 H         1 ARG         0.0504
    102 H42       -13.4577  -17.3999  -30.3512 H         1 ARG         0.1814
    103 H43       -14.9026  -16.7777  -29.6264 H         1 ARG         0.1814
    104 H44       -15.5836  -23.1069  -29.1295 H         1 ARG         0.1884
    105 H45       -17.7713  -24.9929  -29.2217 H         1 ARG         0.0826
    106 H46       -16.0294  -26.5386  -28.2445 H         1 ARG         0.0639
    107 H47       -15.0314  -24.8533  -26.9881 H         1 ARG         0.2101
    108 H48       -14.3970  -26.4222  -30.0734 H         1 ARG         0.0257
    109 H49       -14.9624  -24.7707  -30.4971 H         1 ARG         0.0257
    110 H50       -16.0613  -26.1767  -30.7029 H         1 ARG         0.0257
    111 H51       -18.7845  -26.1281  -27.3557 H         1 ARG         0.1883
    112 H52       -19.0653  -24.3388  -25.0088 H         1 ARG         0.0797
    113 H53       -20.8241  -25.9032  -24.3065 H         1 ARG         0.0277
    114 H54       -20.4115  -26.9797  -25.6840 H         1 ARG         0.0277
    115 H55       -21.0628  -25.3345  -25.9936 H         1 ARG         0.0277
    116 H56       -18.4991  -24.8906  -22.9012 H         1 ARG         0.1875
    117 H57       -16.9761  -25.6491  -21.2776 H         1 ARG         0.0726
    118 H58       -17.7008  -27.8631  -20.4259 H         1 ARG         0.0307
    119 H59       -18.6050  -28.1490  -21.9515 H         1 ARG         0.0307
    120 H60       -20.2599  -27.4831  -20.4717 H         1 ARG         0.0301
    121 H61       -19.8679  -25.9706  -21.3579 H         1 ARG         0.0301
    122 H62       -19.9731  -25.1881  -19.2039 H         1 ARG         0.0689
    123 H63       -18.2233  -25.5728  -19.3345 H         1 ARG         0.0689
    124 H64       -18.4686  -27.2993  -17.7931 H         1 ARG         0.2642
    125 H65       -22.4746  -26.8510  -17.2523 H         1 ARG         0.2615
    126 H66       -21.6925  -25.9910  -18.6056 H         1 ARG         0.2615
    127 H67       -19.5133  -28.3632  -16.1131 H         1 ARG         0.2615
    128 H68       -21.2706  -28.1654  -15.8774 H         1 ARG         0.2615
@<TRIPOS>BOND
     1    1    2 1  
     2    2    3 1  
     3    2    5 1  
     4    3    4 2  
     5    3   12 am 
     6    5    6 1  
     7    6    7 1  
     8    7    8 1  
     9    8    9 ar 
    10    9   10 ar 
    11    9   11 ar 
    12   12   13 1  
    13   13   14 1  
    14   13   16 1  
    15   14   15 2  
    16   14   19 am 
    17   16   17 1  
    18   16   18 1  
    19   19   20 1  
    20   20   21 1  
    21   20   23 1  
    22   21   22 2  
    23   21   28 am 
    24   23   24 1  
    25   24   25 1  
    26   25   26 1  
    27   26   27 1  
    28   28   29 1  
    29   29   30 1  
    30   29   32 1  
    31   30   31 2  
    32   30   37 am 
    33   32   33 1  
    34   33   34 1  
    35   34   35 2  
    36   34   36 am 
    37   37   38 1  
    38   38   39 1  
    39   38   41 1  
    40   39   40 2  
    41   39   44 am 
    42   41   42 1  
    43   41   43 1  
    44   44   45 1  
    45   45   46 1  
    46   45   48 1  
    47   46   47 2  
    48   46   49 am 
    49   49   50 1  
    50   50   51 1  
    51   50   53 1  
    52   51   52 ar 
    53   51   60 ar 
    54   53   54 1  
    55   54   55 1  
    56   55   56 1  
    57   56   57 ar 
    58   57   58 ar 
    59   57   59 ar 
    60    1   61 1  
    61    1   62 1  
    62    1   63 1  
    63    2   64 1  
    64    5   65 1  
    65    5   66 1  
    66    6   67 1  
    67    6   68 1  
    68    7   69 1  
    69    7   70 1  
    70    8   71 1  
    71   10   72 1  
    72   10   73 1  
    73   11   74 1  
    74   11   75 1  
    75   12   76 1  
    76   13   77 1  
    77   16   78 1  
    78   17   79 1  
    79   18   80 1  
    80   18   81 1  
    81   18   82 1  
    82   19   83 1  
    83   20   84 1  
    84   23   85 1  
    85   23   86 1  
    86   24   87 1  
    87   24   88 1  
    88   25   89 1  
    89   25   90 1  
    90   26   91 1  
    91   26   92 1  
    92   27   93 1  
    93   27   94 1  
    94   27   95 1  
    95   28   96 1  
    96   29   97 1  
    97   32   98 1  
    98   32   99 1  
    99   33  100 1  
   100   33  101 1  
   101   36  102 1  
   102   36  103 1  
   103   37  104 1  
   104   38  105 1  
   105   41  106 1  
   106   42  107 1  
   107   43  108 1  
   108   43  109 1  
   109   43  110 1  
   110   44  111 1  
   111   45  112 1  
   112   48  113 1  
   113   48  114 1  
   114   48  115 1  
   115   49  116 1  
   116   50  117 1  
   117   53  118 1  
   118   53  119 1  
   119   54  120 1  
   120   54  121 1  
   121   55  122 1  
   122   55  123 1  
   123   56  124 1  
   124   58  125 1  
   125   58  126 1  
   126   59  127 1  
   127   59  128 1  
@<TRIPOS>SUBSTRUCTURE
     1 ARG         1

