3su4_ligand
  -I-interpret- 

106111  0  0  0  0  0  0  0  0999 V2000
   37.7570   -0.3560    3.9760 C   0  0  0  0  0
   39.6980   -1.2750    5.0960 N   0  0  0  0  0
   37.9380   -0.9490    2.9150 O   0  0  0  0  0
   38.9260   -0.0270    4.9060 C   0  0  0  0  0
   39.9090    0.9630    4.2970 C   0  0  0  0  0
   41.2380    0.5210    4.8800 C   0  0  0  0  0
   39.2540   -2.4980    5.4480 C   0  0  0  0  0
   38.0430   -2.6120    5.6780 O   0  0  0  0  0
   40.1770   -3.7260    5.6260 C   0  0  0  0  0
   39.7950   -4.3900    6.8790 N   0  0  0  0  0
   40.4480   -4.2010    8.0150 C   0  0  0  0  0
   39.9660   -4.8910    9.0860 O   0  0  0  0  0
   40.0660   -4.7130    4.4330 C   0  0  0  0  0
   41.4380   -3.4710    8.1200 O   0  0  0  0  0
   41.6720    2.0630    6.5820 C   0  0  0  0  0
   41.9590    2.9110    5.7390 O   0  0  0  0  0
   41.6830    2.4520    7.8260 N   0  0  0  0  0
   34.1770   -2.4950    2.6780 C   0  0  0  0  0
   35.1490   -3.1580    1.7020 C   0  0  0  0  0
   38.6110   -5.1260    4.2050 C   0  0  0  0  0
   36.5490   -0.0160    4.4310 N   0  0  0  0  0
   35.3230   -0.3710    3.7110 C   0  0  0  0  0
   35.0470    0.3980    2.4040 C   0  0  0  0  0
   34.9110   -1.8360    3.8450 C   0  0  0  0  0
   34.1220   -0.7460    4.5700 C   0  0  0  0  0
   41.9760    3.7880    8.3730 C   0  0  0  0  0
   41.8210    3.6520    9.8630 C   0  0  0  0  0
   41.4910    2.3300   10.1630 C   0  0  0  0  0
   41.3930    1.4980    8.8900 C   0  0  0  0  0
   41.9520    4.5900   10.8820 C   0  0  0  0  0
   41.7380    4.1860   12.1840 C   0  0  0  0  0
   41.4160    2.8560   12.4860 C   0  0  0  0  0
   41.2780    1.9150   11.4710 C   0  0  0  0  0
   40.9460    0.4910   11.8710 C   0  0  0  0  0
   35.8410    1.4370    2.1500 N   0  0  0  0  0
   34.1160    0.0580    1.6700 O   0  0  0  0  0
   35.5350    2.2460    0.7700 S   0  0  0  0  0
   36.7810    3.5550    0.6790 C   0  0  0  0  0
   35.6720    1.3470   -0.4130 O   0  0  0  0  0
   34.1890    2.8910    0.7930 O   0  0  0  0  0
   36.4480    4.6580   -0.3010 C   0  0  0  0  0
   36.2590    4.8870    1.2080 C   0  0  0  0  0
   39.5330    0.0340   11.5140 C   0  0  0  0  0
   39.3260   -1.4170   11.9600 C   0  0  0  0  0
   39.8800   -2.4180   10.9220 C   0  0  0  0  0
   39.7790   -3.8930   11.3620 C   0  0  0  0  0
   40.6020   -4.6780   10.3650 C   0  0  0  0  0
   40.4300   -4.1080   12.7380 C   0  0  0  0  0
   38.3030   -4.3770   11.3840 C   0  0  0  0  0
   40.6070   -4.0270    3.1660 C   0  0  0  0  0
   40.8530   -5.9750    4.6970 C   0  0  0  0  0
   41.1110   -0.9860    4.8150 C   0  0  0  0  0
   41.3610    0.7700    6.2830 O   0  0  0  0  0
   38.5075    0.3966    5.8190 H   0  0  0  0  0
   39.6669    1.9995    4.5320 H   0  0  0  0  0
   39.9001    0.9530    3.2071 H   0  0  0  0  0
   42.0574    1.0180    4.3608 H   0  0  0  0  0
   41.2157   -3.3972    5.6600 H   0  0  0  0  0
   38.9945   -5.0221    6.8738 H   0  0  0  0  0
   33.5144   -3.2625    3.0780 H   0  0  0  0  0
   33.6229   -1.7248    2.1414 H   0  0  0  0  0
   35.8283   -2.4060    1.3006 H   0  0  0  0  0
   35.7212   -3.9241    2.2252 H   0  0  0  0  0
   34.5881   -3.6150    0.8867 H   0  0  0  0  0
   38.2280   -5.6127    5.1019 H   0  0  0  0  0
   38.0133   -4.2409    3.9870 H   0  0  0  0  0
   38.5585   -5.8176    3.3642 H   0  0  0  0  0
   36.4773    0.5057    5.3046 H   0  0  0  0  0
   35.4439   -2.7457    4.1215 H   0  0  0  0  0
   33.0844   -0.4393    4.7019 H   0  0  0  0  0
   33.7377   -0.5437    5.5697 H   0  0  0  0  0
   42.2475    4.6848    7.8162 H   0  0  0  0  0
   41.1604    0.4372    8.7966 H   0  0  0  0  0
   42.2182    5.6227   10.6566 H   0  0  0  0  0
   41.8208    4.9137   12.9912 H   0  0  0  0  0
   41.2726    2.5566   13.5242 H   0  0  0  0  0
   41.0282    0.4415   12.9568 H   0  0  0  0  0
   41.6335   -0.1573   11.3276 H   0  0  0  0  0
   36.5946    1.7093    2.7812 H   0  0  0  0  0
   37.6611    2.9366    0.8554 H   0  0  0  0  0
   35.8840    4.7882   -1.2246 H   0  0  0  0  0
   36.9060    5.1603   -1.1531 H   0  0  0  0  0
   36.5102    5.6278    1.9671 H   0  0  0  0  0
   35.5009    5.2603    1.8964 H   0  0  0  0  0
   39.3952    0.1016   10.4349 H   0  0  0  0  0
   38.8097    0.6726   12.0211 H   0  0  0  0  0
   38.2560   -1.5932   12.0701 H   0  0  0  0  0
   39.8578   -1.5668   12.8996 H   0  0  0  0  0
   40.9375   -2.1918   10.7852 H   0  0  0  0  0
   39.2848   -2.3082   10.0155 H   0  0  0  0  0
   41.5056   -4.0985   10.1757 H   0  0  0  0  0
   40.7716   -5.6625   10.8011 H   0  0  0  0  0
   41.4829   -3.8306   12.6877 H   0  0  0  0  0
   39.9246   -3.4880   13.4785 H   0  0  0  0  0
   40.3424   -5.1572   13.0200 H   0  0  0  0  0
   37.7321   -3.7664   12.0836 H   0  0  0  0  0
   37.8762   -4.2828   10.3855 H   0  0  0  0  0
   38.2687   -5.4201   11.6983 H   0  0  0  0  0
   40.0200   -3.1319    2.9602 H   0  0  0  0  0
   41.6501   -3.7513    3.3209 H   0  0  0  0  0
   40.5327   -4.7136    2.3227 H   0  0  0  0  0
   41.9030   -5.7226    4.8452 H   0  0  0  0  0
   40.4655   -6.4629    5.5914 H   0  0  0  0  0
   40.7564   -6.6470    3.8442 H   0  0  0  0  0
   41.4102   -1.3697    3.8396 H   0  0  0  0  0
   41.7685   -1.4730    5.5351 H   0  0  0  0  0
  1  3  2  0  0  0
  1  4  1  0  0  0
 21  1  1  0  0  0
  4  2  1  0  0  0
  2  7  1  0  0  0
  2 52  1  0  0  0
  4  5  1  0  0  0
  5  6  1  0  0  0
  6 52  1  0  0  0
  6 53  1  0  0  0
  7  8  2  0  0  0
  7  9  1  0  0  0
  9 10  1  0  0  0
  9 13  1  0  0  0
 10 11  1  0  0  0
 11 12  1  0  0  0
 11 14  2  0  0  0
 12 47  1  0  0  0
 13 20  1  0  0  0
 13 50  1  0  0  0
 13 51  1  0  0  0
 15 16  2  0  0  0
 15 17  1  0  0  0
 53 15  1  0  0  0
 17 26  4  0  0  0
 17 29  4  0  0  0
 18 19  1  0  0  0
 24 18  1  0  0  0
 22 21  1  0  0  0
 22 23  1  0  0  0
 22 24  1  0  0  0
 22 25  1  0  0  0
 23 35  1  0  0  0
 23 36  2  0  0  0
 24 25  1  0  0  0
 26 27  4  0  0  0
 27 28  4  0  0  0
 27 30  4  0  0  0
 28 29  4  0  0  0
 28 33  4  0  0  0
 30 31  4  0  0  0
 31 32  4  0  0  0
 32 33  4  0  0  0
 33 34  1  0  0  0
 34 43  1  0  0  0
 35 37  1  0  0  0
 37 38  1  0  0  0
 37 39  2  0  0  0
 37 40  2  0  0  0
 38 41  1  0  0  0
 38 42  1  0  0  0
 41 42  1  0  0  0
 43 44  1  0  0  0
 44 45  1  0  0  0
 45 46  1  0  0  0
 46 47  1  0  0  0
 46 48  1  0  0  0
 46 49  1  0  0  0
  4 54  1  0  0  0
  5 55  1  0  0  0
  5 56  1  0  0  0
  6 57  1  0  0  0
  9 58  1  0  0  0
 10 59  1  0  0  0
 18 60  1  0  0  0
 18 61  1  0  0  0
 19 62  1  0  0  0
 19 63  1  0  0  0
 19 64  1  0  0  0
 20 65  1  0  0  0
 20 66  1  0  0  0
 20 67  1  0  0  0
 21 68  1  0  0  0
 24 69  1  0  0  0
 25 70  1  0  0  0
 25 71  1  0  0  0
 26 72  1  0  0  0
 29 73  1  0  0  0
 30 74  1  0  0  0
 31 75  1  0  0  0
 32 76  1  0  0  0
 34 77  1  0  0  0
 34 78  1  0  0  0
 35 79  1  0  0  0
 38 80  1  0  0  0
 41 81  1  0  0  0
 41 82  1  0  0  0
 42 83  1  0  0  0
 42 84  1  0  0  0
 43 85  1  0  0  0
 43 86  1  0  0  0
 44 87  1  0  0  0
 44 88  1  0  0  0
 45 89  1  0  0  0
 45 90  1  0  0  0
 47 91  1  0  0  0
 47 92  1  0  0  0
 48 93  1  0  0  0
 48 94  1  0  0  0
 48 95  1  0  0  0
 49 96  1  0  0  0
 49 97  1  0  0  0
 49 98  1  0  0  0
 50 99  1  0  0  0
 50100  1  0  0  0
 50101  1  0  0  0
 51102  1  0  0  0
 51103  1  0  0  0
 51104  1  0  0  0
 52105  1  0  0  0
 52106  1  0  0  0
M  END
$$$$
