2zbk_ligand
  -I-interpret- 

 42 44  0  0  0  0  0  0  0  0999 V2000
  -61.9170   83.8600  -11.6370 C   0  0  0  0  0
  -61.3450   82.5000  -11.8850 C   0  0  0  0  0
  -61.8130   81.3490  -11.0760 C   0  0  0  0  0
  -61.3060   80.0740  -11.2810 C   0  0  0  0  0
  -60.3400   79.8190  -12.2390 C   0  0  0  0  0
  -59.8030   80.9020  -13.1020 C   0  0  0  0  0
  -60.3100   82.2880  -12.9200 C   0  0  0  0  0
  -59.8450   83.4590  -13.7550 C   0  0  0  0  0
  -58.3580   83.4740  -13.9770 C   0  0  0  0  0
  -57.4850   84.2580  -13.0900 C   0  0  0  0  0
  -57.8260   84.6240  -11.8520 C   0  0  0  0  0
  -56.8440   85.4060  -11.0920 C   0  0  0  0  0
  -57.1310   86.1380  -10.0120 C   0  0  0  0  0
  -58.5220   86.2300   -9.4320 C   0  0  0  0  0
  -59.4510   87.0280  -10.3380 C   0  0  0  0  0
  -60.9090   86.7220  -10.0080 C   0  0  0  0  0
  -61.7000   86.1940  -11.1990 C   0  0  0  0  0
  -61.8330   87.2710  -12.2670 C   0  0  0  0  0
  -61.0700   85.0360  -11.7510 O   0  0  0  0  0
  -63.0940   83.9980  -11.3290 O   0  0  0  0  0
  -62.7560   81.5510  -10.1190 O   0  0  0  0  0
  -59.8880   78.5440  -12.3830 O   0  0  0  0  0
  -58.7560   80.5650  -14.1280 Cl  0  0  0  0  0
  -57.8600   82.8610  -14.9040 O   0  0  0  0  0
  -58.8320   87.5970   -9.1870 O   0  0  0  0  0
  -61.6784   79.2509  -10.6712 H   0  0  0  0  0
  -60.1086   84.3716  -13.2203 H   0  0  0  0  0
  -60.3241   83.3800  -14.7309 H   0  0  0  0  0
  -56.5057   84.5567  -13.4639 H   0  0  0  0  0
  -58.7916   84.3537  -11.4246 H   0  0  0  0  0
  -55.8086   85.3884  -11.4323 H   0  0  0  0  0
  -56.3266   86.6926   -9.5288 H   0  0  0  0  0
  -58.5842   85.2832   -8.8955 H   0  0  0  0  0
  -59.5094   87.2424  -11.4051 H   0  0  0  0  0
  -61.3767   87.6536   -9.6894 H   0  0  0  0  0
  -60.9171   85.9494   -9.2391 H   0  0  0  0  0
  -62.6946   85.9164  -10.8499 H   0  0  0  0  0
  -62.3526   88.1332  -11.8490 H   0  0  0  0  0
  -60.8408   87.5713  -12.6039 H   0  0  0  0  0
  -62.4005   86.8768  -13.1100 H   0  0  0  0  0
  -62.9534   80.7178   -9.6849 H   0  0  0  0  0
  -59.2263   78.5168  -13.0780 H   0  0  0  0  0
  1  2  1  0  0  0
  1 19  1  0  0  0
  1 20  2  0  0  0
  2  3  4  0  0  0
  2  7  4  0  0  0
  3  4  4  0  0  0
  3 21  1  0  0  0
  4  5  4  0  0  0
  5  6  4  0  0  0
  5 22  1  0  0  0
  6  7  4  0  0  0
  6 23  1  0  0  0
  7  8  1  0  0  0
  8  9  1  0  0  0
  9 10  1  0  0  0
  9 24  2  0  0  0
 10 11  2  0  0  0
 11 12  1  0  0  0
 12 13  2  0  0  0
 13 14  1  0  0  0
 14 15  1  0  0  0
 14 25  1  0  0  0
 15 16  1  0  0  0
 15 25  1  0  0  0
 16 17  1  0  0  0
 17 18  1  0  0  0
 17 19  1  0  0  0
  4 26  1  0  0  0
  8 27  1  0  0  0
  8 28  1  0  0  0
 10 29  1  0  0  0
 11 30  1  0  0  0
 12 31  1  0  0  0
 13 32  1  0  0  0
 14 33  1  0  0  0
 15 34  1  0  0  0
 16 35  1  0  0  0
 16 36  1  0  0  0
 17 37  1  0  0  0
 18 38  1  0  0  0
 18 39  1  0  0  0
 18 40  1  0  0  0
 21 41  1  0  0  0
 22 42  1  0  0  0
M  END
$$$$
