2wei_ligand
  -I-interpret- 

 43 45  0  0  0  0  0  0  0  0999 V2000
   20.1730  -16.2770  -10.7080 C   0  0  0  0  0
   19.9250  -17.2040   -9.5440 C   0  0  0  0  0
   18.5170  -16.9590   -9.0050 C   0  0  0  0  0
   20.9850  -16.9620   -8.4570 C   0  0  0  0  0
   19.9440  -18.6620   -9.9230 N   0  0  0  0  0
   20.6290  -19.5190   -9.3130 N   0  0  0  0  0
   19.2200  -19.2070  -10.9090 C   0  0  0  0  0
   18.3490  -18.7150  -11.8430 N   0  0  0  0  0
   17.7950  -19.5470  -12.7050 C   0  0  0  0  0
   18.0240  -20.8500  -12.7190 N   0  0  0  0  0
   18.8890  -21.3940  -11.8250 C   0  0  0  0  0
   19.0900  -22.7070  -11.8580 N   0  0  0  0  0
   19.5080  -20.5710  -10.9160 C   0  0  0  0  0
   20.4170  -20.7340   -9.8550 C   0  0  0  0  0
   21.0920  -21.9890   -9.2910 C   0  0  0  0  0
   22.1760  -22.6030  -10.1230 C   0  0  0  0  0
   22.9900  -23.5580   -9.5050 C   0  0  0  0  0
   22.3930  -22.2890  -11.4710 C   0  0  0  0  0
   23.4250  -22.9060  -12.1730 C   0  0  0  0  0
   24.2310  -23.8550  -11.5270 C   0  0  0  0  0
   23.9970  -24.1760  -10.1930 C   0  0  0  0  0
   24.8940  -25.2290   -9.4710 C   0  0  0  0  0
   21.1513  -16.4904  -11.1387 H   0  0  0  0  0
   19.4013  -16.4290  -11.4627 H   0  0  0  0  0
   20.1449  -15.2442  -10.3607 H   0  0  0  0  0
   17.7873  -17.1842   -9.7828 H   0  0  0  0  0
   18.3420  -17.6032   -8.1433 H   0  0  0  0  0
   18.4204  -15.9154   -8.7056 H   0  0  0  0  0
   20.7557  -17.5744   -7.5849 H   0  0  0  0  0
   21.9679  -17.2314   -8.8434 H   0  0  0  0  0
   20.9803  -15.9092   -8.1747 H   0  0  0  0  0
   17.1100  -19.1374  -13.4474 H   0  0  0  0  0
   18.5996  -23.2809  -12.5439 H   0  0  0  0  0
   19.7347  -23.1410  -11.1974 H   0  0  0  0  0
   20.3083  -22.7429   -9.2159 H   0  0  0  0  0
   21.5671  -21.6810   -8.3596 H   0  0  0  0  0
   22.8189  -23.8133   -8.4592 H   0  0  0  0  0
   21.7535  -21.5612  -11.9705 H   0  0  0  0  0
   23.6054  -22.6532  -13.2178 H   0  0  0  0  0
   25.0412  -24.3415  -12.0701 H   0  0  0  0  0
   25.3974  -24.7578   -8.6268 H   0  0  0  0  0
   24.2723  -26.0497   -9.1131 H   0  0  0  0  0
   25.6367  -25.6125  -10.1706 H   0  0  0  0  0
  1  2  1  0  0  0
  2  3  1  0  0  0
  2  4  1  0  0  0
  2  5  1  0  0  0
  5  6  4  0  0  0
  5  7  4  0  0  0
  6 14  4  0  0  0
  7  8  4  0  0  0
  7 13  4  0  0  0
  8  9  4  0  0  0
  9 10  4  0  0  0
 10 11  4  0  0  0
 11 12  1  0  0  0
 11 13  4  0  0  0
 13 14  4  0  0  0
 14 15  1  0  0  0
 15 16  1  0  0  0
 16 17  4  0  0  0
 16 18  4  0  0  0
 17 21  4  0  0  0
 18 19  4  0  0  0
 19 20  4  0  0  0
 20 21  4  0  0  0
 21 22  1  0  0  0
  1 23  1  0  0  0
  1 24  1  0  0  0
  1 25  1  0  0  0
  3 26  1  0  0  0
  3 27  1  0  0  0
  3 28  1  0  0  0
  4 29  1  0  0  0
  4 30  1  0  0  0
  4 31  1  0  0  0
  9 32  1  0  0  0
 12 33  1  0  0  0
 12 34  1  0  0  0
 15 35  1  0  0  0
 15 36  1  0  0  0
 17 37  1  0  0  0
 18 38  1  0  0  0
 19 39  1  0  0  0
 20 40  1  0  0  0
 22 41  1  0  0  0
 22 42  1  0  0  0
 22 43  1  0  0  0
M  END
$$$$
