4bgg_ligand
  -I-interpret- 

 58 61  0  0  0  0  0  0  0  0999 V2000
   48.7640  -44.9100   53.8720 C   0  0  0  0  0
   48.5480  -45.1860   52.5500 O   0  0  0  0  0
   47.2160  -45.1100   52.1800 C   0  0  0  0  0
   46.8960  -45.5740   50.8790 C   0  0  0  0  0
   47.9320  -46.0770   50.0840 O   0  0  0  0  0
   48.8960  -45.1250   49.7160 C   0  0  0  0  0
   45.5910  -45.4800   50.4130 C   0  0  0  0  0
   44.5520  -44.9780   51.2910 C   0  0  0  0  0
   44.8850  -44.5110   52.5800 C   0  0  0  0  0
   46.2490  -44.5720   53.0290 C   0  0  0  0  0
   43.7840  -43.9640   53.5110 C   0  0  0  0  0
   42.5690  -44.6870   53.5970 C   0  0  0  0  0
   41.5590  -44.2090   54.4030 C   0  0  0  0  0
   41.7640  -43.0430   55.1480 C   0  0  0  0  0
   42.9630  -42.3930   55.0360 N   0  0  0  0  0
   43.9550  -42.8040   54.2660 C   0  0  0  0  0
   40.3100  -44.9680   54.5020 C   0  0  0  0  0
   39.5830  -44.9610   55.6780 C   0  0  0  0  0
   38.3460  -45.7290   55.7470 C   0  0  0  0  0
   37.9070  -46.5230   54.6410 C   0  0  0  0  0
   38.6530  -46.5440   53.5260 C   0  0  0  0  0
   39.8740  -45.7510   53.4380 C   0  0  0  0  0
   36.7330  -47.2890   54.7110 N   0  0  0  0  0
   36.1410  -48.0890   53.6590 C   0  0  0  0  0
   35.4740  -49.4080   54.0910 C   0  0  0  0  0
   34.6690  -49.2970   55.2660 N   0  3  0  0  0
   34.7490  -48.0140   55.9040 C   0  0  0  0  0
   36.2040  -47.5700   55.9990 C   0  0  0  0  0
   45.3480  -45.9770   49.1200 O   0  0  0  0  0
   44.2050  -45.6620   48.4590 C   0  0  0  0  0
   48.4210  -43.8989   54.0915 H   0  0  0  0  0
   48.2132  -45.6231   54.4854 H   0  0  0  0  0
   49.8293  -44.9888   54.0890 H   0  0  0  0  0
   48.4181  -44.3266   49.1484 H   0  0  0  0  0
   49.3558  -44.7099   50.6129 H   0  0  0  0  0
   49.6599  -45.6020   49.1020 H   0  0  0  0  0
   43.5150  -44.9614   50.9556 H   0  0  0  0  0
   46.5234  -44.2036   54.0175 H   0  0  0  0  0
   42.4348  -45.6098   53.0327 H   0  0  0  0  0
   40.9836  -42.6594   55.8052 H   0  0  0  0  0
   44.8904  -42.2463   54.2217 H   0  0  0  0  0
   39.9293  -44.3903   56.5397 H   0  0  0  0  0
   37.7457  -45.6978   56.6562 H   0  0  0  0  0
   38.3444  -47.1580   52.6799 H   0  0  0  0  0
   40.4580  -45.7724   52.5179 H   0  0  0  0  0
   36.9594  -48.3680   52.9953 H   0  0  0  0  0
   35.3491  -47.4785   53.2251 H   0  0  0  0  0
   36.2727  -50.1157   54.3130 H   0  0  0  0  0
   34.8173  -49.7186   53.2783 H   0  0  0  0  0
   35.0077  -49.9901   55.9333 H   0  0  0  0  0
   33.6987  -49.4365   54.9842 H   0  0  0  0  0
   34.3292  -48.0853   56.9074 H   0  0  0  0  0
   34.1891  -47.2858   55.3173 H   0  0  0  0  0
   36.2556  -46.6650   56.6044 H   0  0  0  0  0
   36.7869  -48.3731   56.4499 H   0  0  0  0  0
   43.3467  -46.0105   49.0335 H   0  0  0  0  0
   44.1453  -44.5808   48.3339 H   0  0  0  0  0
   44.2083  -46.1426   47.4807 H   0  0  0  0  0
  1  2  1  0  0  0
  2  3  1  0  0  0
  3  4  4  0  0  0
  3 10  4  0  0  0
  4  5  1  0  0  0
  4  7  4  0  0  0
  5  6  1  0  0  0
  7  8  4  0  0  0
  7 29  1  0  0  0
  8  9  4  0  0  0
  9 10  4  0  0  0
  9 11  1  0  0  0
 11 12  4  0  0  0
 11 16  4  0  0  0
 12 13  4  0  0  0
 13 14  4  0  0  0
 13 17  1  0  0  0
 14 15  4  0  0  0
 15 16  4  0  0  0
 17 18  4  0  0  0
 17 22  4  0  0  0
 18 19  4  0  0  0
 19 20  4  0  0  0
 20 21  4  0  0  0
 20 23  1  0  0  0
 21 22  4  0  0  0
 23 24  1  0  0  0
 23 28  1  0  0  0
 24 25  1  0  0  0
 25 26  1  0  0  0
 26 27  1  0  0  0
 27 28  1  0  0  0
 29 30  1  0  0  0
  1 31  1  0  0  0
  1 32  1  0  0  0
  1 33  1  0  0  0
  6 34  1  0  0  0
  6 35  1  0  0  0
  6 36  1  0  0  0
  8 37  1  0  0  0
 10 38  1  0  0  0
 12 39  1  0  0  0
 14 40  1  0  0  0
 16 41  1  0  0  0
 18 42  1  0  0  0
 19 43  1  0  0  0
 21 44  1  0  0  0
 22 45  1  0  0  0
 24 46  1  0  0  0
 24 47  1  0  0  0
 25 48  1  0  0  0
 25 49  1  0  0  0
 26 50  1  0  0  0
 26 51  1  0  0  0
 27 52  1  0  0  0
 27 53  1  0  0  0
 28 54  1  0  0  0
 28 55  1  0  0  0
 30 56  1  0  0  0
 30 57  1  0  0  0
 30 58  1  0  0  0
M  END
$$$$
