1gmy_ligand
  -I-interpret- 

 58 60  0  0  0  0  0  0  0  0999 V2000
   38.6710   76.7990   32.0070 C   0  0  0  0  0
   37.8370   75.8750   31.9770 N   0  0  0  0  0
   38.4630   78.0320   32.8860 C   0  0  0  0  0
   39.3510   79.1340   32.5100 N   0  0  0  0  0
   40.5360   79.3780   33.0770 C   0  0  0  0  0
   41.0480   78.6400   33.9090 O   0  0  0  0  0
   41.2490   80.6560   32.6540 C   0  0  0  0  0
   41.8270   81.2870   33.8310 N   0  0  0  0  0
   42.3590   80.3400   31.6480 C   0  0  0  0  0
   43.0200   81.5940   31.1300 C   0  0  0  0  0
   44.1350   82.1320   31.7730 C   0  0  0  0  0
   42.4960   82.2690   30.0230 C   0  0  0  0  0
   44.7170   83.3090   31.3370 C   0  0  0  0  0
   43.0730   83.4630   29.5670 C   0  0  0  0  0
   44.1840   83.9680   30.2400 C   0  0  0  0  0
   42.5040   84.1800   28.3650 C   0  0  0  0  0
   41.4250   82.4670   34.2940 C   0  0  0  0  0
   40.4960   83.1100   33.8020 O   0  0  0  0  0
   41.7480   81.9070   39.1190 C   0  0  0  0  0
   42.3290   82.2630   37.9130 C   0  0  0  0  0
   41.5480   82.6280   36.8160 C   0  0  0  0  0
   40.1630   82.6270   36.9680 C   0  0  0  0  0
   39.5730   82.2720   38.1750 C   0  0  0  0  0
   40.3680   81.9120   39.2490 C   0  0  0  0  0
   42.4350   84.4890   35.3520 C   0  0  0  0  0
   43.5780   84.9680   34.7060 C   0  0  0  0  0
   43.8270   86.3340   34.5990 C   0  0  0  0  0
   42.9260   87.2400   35.1380 C   0  0  0  0  0
   41.7780   86.7820   35.7830 C   0  0  0  0  0
   41.5390   85.4190   35.8860 C   0  0  0  0  0
   42.1920   83.0000   35.4910 C   0  0  0  0  0
   39.5688   76.7271   31.3932 H   0  0  0  0  0
   36.9930   75.9311   32.5470 H   0  0  0  0  0
   38.6832   77.7551   33.9170 H   0  0  0  0  0
   37.4335   78.3679   32.7617 H   0  0  0  0  0
   39.0438   79.7582   31.7640 H   0  0  0  0  0
   40.5311   81.3273   32.1827 H   0  0  0  0  0
   42.5760   80.8011   34.3243 H   0  0  0  0  0
   41.9157   79.8125   30.8034 H   0  0  0  0  0
   43.1151   79.7368   32.1505 H   0  0  0  0  0
   44.5558   81.6151   32.6355 H   0  0  0  0  0
   41.6266   81.8612   29.5072 H   0  0  0  0  0
   45.5877   83.7149   31.8520 H   0  0  0  0  0
   44.6414   84.8965   29.8982 H   0  0  0  0  0
   42.5486   83.5226   27.4967 H   0  0  0  0  0
   41.4674   84.4525   28.5632 H   0  0  0  0  0
   43.0869   85.0804   28.1710 H   0  0  0  0  0
   42.3749   81.6234   39.9644 H   0  0  0  0  0
   43.4150   82.2579   37.8194 H   0  0  0  0  0
   39.5315   82.9095   36.1257 H   0  0  0  0  0
   38.4877   82.2771   38.2755 H   0  0  0  0  0
   39.9089   81.6324   40.1972 H   0  0  0  0  0
   44.2874   84.2596   34.2782 H   0  0  0  0  0
   44.7254   86.6892   34.0942 H   0  0  0  0  0
   43.1154   88.3104   35.0574 H   0  0  0  0  0
   41.0690   87.4938   36.2059 H   0  0  0  0  0
   40.6389   85.0685   36.3910 H   0  0  0  0  0
   43.1656   82.5099   35.5013 H   0  0  0  0  0
  1  2  2  0  0  0
  3  1  1  0  0  0
  4  3  1  0  0  0
  5  4  1  0  0  0
  5  6  2  0  0  0
  7  5  1  0  0  0
  8  7  1  0  0  0
  7  9  1  0  0  0
 17  8  1  0  0  0
  9 10  1  0  0  0
 10 11  4  0  0  0
 10 12  4  0  0  0
 11 13  4  0  0  0
 12 14  4  0  0  0
 13 15  4  0  0  0
 14 15  4  0  0  0
 14 16  1  0  0  0
 17 18  2  0  0  0
 31 17  1  0  0  0
 20 19  4  0  0  0
 19 24  4  0  0  0
 21 20  4  0  0  0
 21 22  4  0  0  0
 31 21  1  0  0  0
 22 23  4  0  0  0
 23 24  4  0  0  0
 25 26  4  0  0  0
 25 30  4  0  0  0
 25 31  1  0  0  0
 26 27  4  0  0  0
 27 28  4  0  0  0
 28 29  4  0  0  0
 29 30  4  0  0  0
  1 32  1  0  0  0
  2 33  1  0  0  0
  3 34  1  0  0  0
  3 35  1  0  0  0
  4 36  1  0  0  0
  7 37  1  0  0  0
  8 38  1  0  0  0
  9 39  1  0  0  0
  9 40  1  0  0  0
 11 41  1  0  0  0
 12 42  1  0  0  0
 13 43  1  0  0  0
 15 44  1  0  0  0
 16 45  1  0  0  0
 16 46  1  0  0  0
 16 47  1  0  0  0
 19 48  1  0  0  0
 20 49  1  0  0  0
 22 50  1  0  0  0
 23 51  1  0  0  0
 24 52  1  0  0  0
 26 53  1  0  0  0
 27 54  1  0  0  0
 28 55  1  0  0  0
 29 56  1  0  0  0
 30 57  1  0  0  0
 31 58  1  0  0  0
M  END
$$$$
