### 
### Created by X-TOOL on Sun Sep  9 21:50:03 2018
### 

@<TRIPOS>MOLECULE
1gmy_ligand
   58    60     1     0     0
SMALL
GAST_HUCK


@<TRIPOS>ATOM
      1 C1         38.6710   76.7990   32.0070 C.2       1 NON         0.0176
      2 N1         37.8370   75.8750   31.9770 N.2       1 NON        -0.3621
      3 C2         38.4630   78.0320   32.8860 C.3       1 NON         0.0897
      4 N2         39.3510   79.1340   32.5100 N.am      1 NON        -0.2650
      5 C          40.5360   79.3780   33.0770 C.2       1 NON         0.2066
      6 O          41.0480   78.6400   33.9090 O.2       1 NON        -0.3941
      7 CA         41.2490   80.6560   32.6540 C.3       1 NON         0.1406
      8 N          41.8270   81.2870   33.8310 N.am      1 NON        -0.2604
      9 CB         42.3590   80.3400   31.6480 C.3       1 NON         0.0199
     10 CG         43.0200   81.5940   31.1300 C.ar      1 NON        -0.0454
     11 CD1        44.1350   82.1320   31.7730 C.ar      1 NON        -0.0670
     12 CD2        42.4960   82.2690   30.0230 C.ar      1 NON        -0.0592
     13 CE1        44.7170   83.3090   31.3370 C.ar      1 NON        -0.0752
     14 CE2        43.0730   83.4630   29.5670 C.ar      1 NON        -0.0529
     15 CZ         44.1840   83.9680   30.2400 C.ar      1 NON        -0.0675
     16 C5         42.5040   84.1800   28.3650 C.3       1 NON        -0.0327
     17 C8         41.4250   82.4670   34.2940 C.2       1 NON         0.2042
     18 O11        40.4960   83.1100   33.8020 O.2       1 NON        -0.3906
     19 C5         41.7480   81.9070   39.1190 C.ar      1 NON        -0.0678
     20 C4         42.3290   82.2630   37.9130 C.ar      1 NON        -0.0558
     21 C3         41.5480   82.6280   36.8160 C.ar      1 NON        -0.0105
     22 C2         40.1630   82.6270   36.9680 C.ar      1 NON        -0.0558
     23 C1         39.5730   82.2720   38.1750 C.ar      1 NON        -0.0678
     24 C6         40.3680   81.9120   39.2490 C.ar      1 NON        -0.0682
     25 C10        42.4350   84.4890   35.3520 C.ar      1 NON        -0.0105
     26 C16        43.5780   84.9680   34.7060 C.ar      1 NON        -0.0558
     27 C15        43.8270   86.3340   34.5990 C.ar      1 NON        -0.0678
     28 C14        42.9260   87.2400   35.1380 C.ar      1 NON        -0.0682
     29 C13        41.7780   86.7820   35.7830 C.ar      1 NON        -0.0678
     30 C12        41.5390   85.4190   35.8860 C.ar      1 NON        -0.0558
     31 C11        42.1920   83.0000   35.4910 C.3       1 NON         0.1141
     32 H1         39.5680   76.7271   31.3937 H         1 NON         0.1222
     33 H2         37.9959   75.0715   31.3894 H         1 NON         0.1054
     34 H3         38.6611   77.7586   33.9329 H         1 NON         0.0803
     35 H4         37.4201   78.3671   32.7856 H         1 NON         0.0803
     36 H5         39.0499   79.7459   31.7787 H         1 NON         0.1894
     37 H6         40.5238   81.3403   32.1895 H         1 NON         0.0824
     38 H7         42.5613   80.8107   34.3146 H         1 NON         0.1887
     39 H8         41.9249   79.7901   30.8000 H         1 NON         0.0473
     40 H9         43.1183   79.7148   32.1404 H         1 NON         0.0473
     41 H10        44.5535   81.6180   32.6308 H         1 NON         0.0499
     42 H11        41.6314   81.8634   29.5101 H         1 NON         0.0494
     43 H12        45.5829   83.7127   31.8491 H         1 NON         0.0582
     44 H13        44.6389   84.8913   29.9001 H         1 NON         0.0499
     45 H14        41.6362   83.6227   27.9825 H         1 NON         0.0390
     46 H15        43.2719   84.2465   27.5802 H         1 NON         0.0390
     47 H16        42.1895   85.1928   28.6571 H         1 NON         0.0390
     48 H17        42.3715   81.6250   39.9597 H         1 NON         0.0601
     49 H18        43.4090   82.2579   37.8199 H         1 NON         0.0565
     50 H19        39.5350   82.9080   36.1303 H         1 NON         0.0565
     51 H20        38.4936   82.2770   38.2750 H         1 NON         0.0601
     52 H21        39.9115   81.6339   40.1920 H         1 NON         0.0563
     53 H22        44.2835   84.2635   34.2805 H         1 NON         0.0565
     54 H23        44.7205   86.6872   34.0970 H         1 NON         0.0601
     55 H24        43.1144   88.3045   35.0578 H         1 NON         0.0563
     56 H25        41.0729   87.4898   36.2036 H         1 NON         0.0601
     57 H26        40.6438   85.0704   36.3882 H         1 NON         0.0565
     58 H27        43.1789   82.5144   35.4784 H         1 NON         0.0848
@<TRIPOS>BOND
     1    1    2 2  
     2    3    1 1  
     3    4    3 1  
     4    5    4 am 
     5    5    6 2  
     6    7    5 1  
     7    8    7 1  
     8    7    9 1  
     9   17    8 am 
    10    9   10 1  
    11   10   11 ar 
    12   10   12 ar 
    13   11   13 ar 
    14   12   14 ar 
    15   13   15 ar 
    16   14   15 ar 
    17   14   16 1  
    18   17   18 2  
    19   31   17 1  
    20   20   19 ar 
    21   19   24 ar 
    22   21   20 ar 
    23   21   22 ar 
    24   31   21 1  
    25   22   23 ar 
    26   23   24 ar 
    27   25   26 ar 
    28   25   30 ar 
    29   25   31 1  
    30   26   27 ar 
    31   27   28 ar 
    32   28   29 ar 
    33   29   30 ar 
    34    1   32 1  
    35    2   33 1  
    36    3   34 1  
    37    3   35 1  
    38    4   36 1  
    39    7   37 1  
    40    8   38 1  
    41    9   39 1  
    42    9   40 1  
    43   11   41 1  
    44   12   42 1  
    45   13   43 1  
    46   15   44 1  
    47   16   45 1  
    48   16   46 1  
    49   16   47 1  
    50   19   48 1  
    51   20   49 1  
    52   22   50 1  
    53   23   51 1  
    54   24   52 1  
    55   26   53 1  
    56   27   54 1  
    57   28   55 1  
    58   29   56 1  
    59   30   57 1  
    60   31   58 1  
@<TRIPOS>SUBSTRUCTURE
     1 NON         1

