3jxw_ligand
  -I-interpret- 

 43 46  0  0  0  0  0  0  0  0999 V2000
  -23.8040  -30.7810   -2.2150 C   0  0  0  0  0
  -22.3860  -30.7450   -2.6910 N   0  3  0  0  0
  -22.1930  -31.5690    2.5440 O   0  0  0  0  0
  -23.1440  -34.5910    2.5860 S   0  0  0  0  0
  -21.8330  -29.4130   -3.0940 C   0  0  0  0  0
  -22.1860  -33.5700   -1.0310 N   0  0  0  0  0
  -21.3750  -31.6060   -2.0380 C   0  0  0  0  0
  -21.7900  -31.6270    0.2900 N   0  0  0  0  0
  -21.8280  -32.3440   -0.8610 C   0  0  0  0  0
  -22.5990  -34.2130    0.1530 C   0  0  0  0  0
  -23.0350  -35.5720    0.2340 C   0  0  0  0  0
  -23.1460  -36.5070   -0.7790 C   0  0  0  0  0
  -23.6160  -37.7740   -0.4540 C   0  0  0  0  0
  -23.7640  -38.8040   -1.5420 C   0  0  0  0  0
  -24.1970  -38.3980   -2.7600 C   0  0  0  0  0
  -24.4620  -39.0820   -4.0390 C   0  0  0  0  0
  -25.2410  -38.3800   -5.1440 C   0  0  0  0  0
  -23.7730  -38.6160   -5.2980 C   0  0  0  0  0
  -23.9480  -38.0730    0.8640 C   0  0  0  0  0
  -23.8420  -37.1700    1.9080 C   0  0  0  0  0
  -23.3810  -35.9290    1.5360 C   0  0  0  0  0
  -22.5960  -33.5390    1.3380 C   0  0  0  0  0
  -22.1910  -32.1800    1.4910 C   0  0  0  0  0
  -24.1982  -31.7910   -2.3276 H   0  0  0  0  0
  -23.8410  -30.4901   -1.1652 H   0  0  0  0  0
  -24.4022  -30.0881   -2.8067 H   0  0  0  0  0
  -22.5715  -31.2472   -3.5592 H   0  0  0  0  0
  -21.4675  -28.8903   -2.2101 H   0  0  0  0  0
  -21.0125  -29.5592   -3.7965 H   0  0  0  0  0
  -22.6179  -28.8234   -3.5677 H   0  0  0  0  0
  -20.5811  -30.9417   -1.6965 H   0  0  0  0  0
  -21.0863  -32.3540   -2.7765 H   0  0  0  0  0
  -21.4594  -30.6623    0.2684 H   0  0  0  0  0
  -22.8724  -36.2572   -1.8041 H   0  0  0  0  0
  -23.5284  -39.8516   -1.3543 H   0  0  0  0  0
  -24.3932  -37.3267   -2.8042 H   0  0  0  0  0
  -24.5579  -40.0289   -3.5076 H   0  0  0  0  0
  -25.9530  -37.5614   -5.2492 H   0  0  0  0  0
  -26.1569  -38.5242   -5.7171 H   0  0  0  0  0
  -23.0923  -39.0221   -6.0462 H   0  0  0  0  0
  -22.8855  -38.0453   -5.5715 H   0  0  0  0  0
  -24.3124  -39.0758    1.0871 H   0  0  0  0  0
  -24.1016  -37.4211    2.9364 H   0  0  0  0  0
  2  1  1  0  0  0
  2  5  1  0  0  0
  7  2  1  0  0  0
 23  3  2  0  0  0
  4 21  4  0  0  0
 22  4  4  0  0  0
  6  9  2  0  0  0
 10  6  1  0  0  0
  9  7  1  0  0  0
  9  8  1  0  0  0
  8 23  1  0  0  0
 10 11  4  0  0  0
 10 22  4  0  0  0
 11 12  4  0  0  0
 11 21  4  0  0  0
 12 13  4  0  0  0
 13 14  1  0  0  0
 13 19  4  0  0  0
 14 15  2  0  0  0
 15 16  1  0  0  0
 16 17  1  0  0  0
 16 18  1  0  0  0
 17 18  1  0  0  0
 19 20  4  0  0  0
 20 21  4  0  0  0
 22 23  1  0  0  0
  1 24  1  0  0  0
  1 25  1  0  0  0
  1 26  1  0  0  0
  2 27  1  0  0  0
  5 28  1  0  0  0
  5 29  1  0  0  0
  5 30  1  0  0  0
  7 31  1  0  0  0
  7 32  1  0  0  0
  8 33  1  0  0  0
 12 34  1  0  0  0
 14 35  1  0  0  0
 15 36  1  0  0  0
 16 37  1  0  0  0
 17 38  1  0  0  0
 17 39  1  0  0  0
 18 40  1  0  0  0
 18 41  1  0  0  0
 19 42  1  0  0  0
 20 43  1  0  0  0
M  END
$$$$
