3hjo_ligand
  -I-interpret- 

 31 31  0  0  0  0  0  0  0  0999 V2000
    8.7300    3.4890   31.5240 C   0  0  0  0  0
    8.3210    3.4020   32.8350 O   0  0  0  0  0
    9.3440    2.3060   30.8770 C   0  0  0  0  0
    9.5760    0.7520   31.7470 Cl  0  0  0  0  0
    9.7780    2.4150   29.4690 C   0  0  0  0  0
   10.5200    0.9610   28.7560 Cl  0  0  0  0  0
    9.5920    3.6940   28.7250 C   0  0  0  0  0
    8.9980    4.7460   29.4300 C   0  0  0  0  0
    8.5810    4.6550   30.7690 C   0  0  0  0  0
    9.9990    3.9080   27.2730 C   0  0  0  0  0
    9.5400    4.8630   26.6660 O   0  0  0  0  0
   10.9280    3.0550   26.5200 C   0  0  0  0  0
   11.0190    3.1740   25.0050 C   0  0  0  0  0
   12.1810    2.3660   24.4430 C   0  0  0  0  0
   11.7120    2.1930   27.1420 C   0  0  0  0  0
    8.3060    4.5530   33.6850 C   0  0  0  0  0
    6.8900    4.9940   33.9570 C   0  0  0  0  0
    6.0190    4.8080   33.0780 O   0  0  0  0  0
    6.6390    5.5310   35.0560 O   0  0  0  0  0
    8.8498    5.6924   28.9100 H   0  0  0  0  0
    8.1240    5.5273   31.2362 H   0  0  0  0  0
   11.1771    4.2225   24.7526 H   0  0  0  0  0
   10.0944    2.7890   24.5750 H   0  0  0  0  0
   13.1151    2.7286   24.8721 H   0  0  0  0  0
   12.0471    1.3145   24.6969 H   0  0  0  0  0
   12.2096    2.4787   23.3592 H   0  0  0  0  0
   11.6748    2.1078   28.2280 H   0  0  0  0  0
   12.3961    1.5669   26.5693 H   0  0  0  0  0
    8.8395    5.3644   33.1900 H   0  0  0  0  0
    8.7847    4.2996   34.6309 H   0  0  0  0  0
    6.4204    4.3840   32.3160 H   0  0  0  0  0
  1  2  1  0  0  0
  1  3  4  0  0  0
  1  9  4  0  0  0
  2 16  1  0  0  0
  3  4  1  0  0  0
  3  5  4  0  0  0
  5  6  1  0  0  0
  5  7  4  0  0  0
  7  8  4  0  0  0
  7 10  1  0  0  0
  8  9  4  0  0  0
 10 11  2  0  0  0
 10 12  1  0  0  0
 12 13  1  0  0  0
 12 15  2  0  0  0
 13 14  1  0  0  0
 16 17  1  0  0  0
 17 18  1  0  0  0
 17 19  2  0  0  0
  8 20  1  0  0  0
  9 21  1  0  0  0
 13 22  1  0  0  0
 13 23  1  0  0  0
 14 24  1  0  0  0
 14 25  1  0  0  0
 14 26  1  0  0  0
 15 27  1  0  0  0
 15 28  1  0  0  0
 16 29  1  0  0  0
 16 30  1  0  0  0
 18 31  1  0  0  0
M  END
$$$$
