### 
### Created by X-TOOL on Mon Sep 10 21:12:53 2018
### 

@<TRIPOS>MOLECULE
2ggd_ligand
   16    15     1     0     0
SMALL
GAST_HUCK


@<TRIPOS>ATOM
      1 P1       -130.2710   27.3180  126.5450 P.3       1 GPJ         0.1070
      2 O1       -129.7830   27.9450  127.7940 O.co2     1 GPJ        -0.5587
      3 O2       -129.2150   26.9300  125.6130 O.co2     1 GPJ        -0.5587
      4 O3       -131.2390   26.1710  126.8280 O.co2     1 GPJ        -0.5587
      5 O4       -133.5020   31.0980  127.9580 O.co2     1 GPJ        -0.5645
      6 O5       -134.5540   31.9150  126.2030 O.co2     1 GPJ        -0.5645
      7 C1       -131.2080   28.4840  125.6420 C.3       1 GPJ         0.0369
      8 C2       -132.9200   30.3070  125.7970 C.3       1 GPJ         0.0207
      9 C3       -133.7100   31.1740  126.7310 C.2       1 GPJ         0.0813
     10 N1       -132.0020   29.3620  126.4970 N.4       1 GPJ         0.2507
     11 H1       -131.8880   27.9416  124.9687 H         1 GPJ         0.1013
     12 H2       -130.5195   29.1024  125.0475 H         1 GPJ         0.1013
     13 H3       -132.3192   30.9563  125.1432 H         1 GPJ         0.0989
     14 H4       -133.6232   29.7216  125.1864 H         1 GPJ         0.0989
     15 H5       -131.3639   29.9086  127.0539 H         1 GPJ         0.2042
     16 H6       -132.5614   28.7801  127.1008 H         1 GPJ         0.2042
@<TRIPOS>BOND
     1    1    2 ar 
     2    1    3 ar 
     3    1    4 ar 
     4    7    1 1  
     5    9    5 ar 
     6    9    6 ar 
     7   10    7 1  
     8    8    9 1  
     9    8   10 1  
    10    7   11 1  
    11    7   12 1  
    12    8   13 1  
    13    8   14 1  
    14   10   15 1  
    15   10   16 1  
@<TRIPOS>SUBSTRUCTURE
     1 GPJ         1

