2ggd_ligand
  -I-interpret- 

 19 18  0  0  0  0  0  0  0  0999 V2000
 -130.2710   27.3180  126.5450 P   0  0  0  0  0
 -129.7830   27.9450  127.7940 O   0  0  0  0  0
 -129.2150   26.9300  125.6130 O   0  0  0  0  0
 -131.2390   26.1710  126.8280 O   0  0  0  0  0
 -133.5020   31.0980  127.9580 O   0  0  0  0  0
 -134.5540   31.9150  126.2030 O   0  0  0  0  0
 -131.2080   28.4840  125.6420 C   0  0  0  0  0
 -132.9200   30.3070  125.7970 C   0  0  0  0  0
 -133.7100   31.1740  126.7310 C   0  0  0  0  0
 -132.0020   29.3620  126.4970 N   0  3  0  0  0
 -130.5315   28.1704  128.3512 H   0  0  0  0  0
 -131.9142   26.4678  127.4425 H   0  0  0  0  0
 -132.8047   30.4595  128.1243 H   0  0  0  0  0
 -131.8963   27.9327  125.0013 H   0  0  0  0  0
 -130.5116   29.1073  125.0811 H   0  0  0  0  0
 -132.3066   30.9635  125.1799 H   0  0  0  0  0
 -133.6298   29.7106  125.2237 H   0  0  0  0  0
 -131.3357   29.9391  127.0103 H   0  0  0  0  0
 -132.5953   28.7521  127.0596 H   0  0  0  0  0
  1  2  1  0  0  0
  1  3  2  0  0  0
  1  4  1  0  0  0
  7  1  1  0  0  0
  9  5  1  0  0  0
  9  6  2  0  0  0
 10  7  1  0  0  0
  8  9  1  0  0  0
  8 10  1  0  0  0
  2 11  1  0  0  0
  4 12  1  0  0  0
  5 13  1  0  0  0
  7 14  1  0  0  0
  7 15  1  0  0  0
  8 16  1  0  0  0
  8 17  1  0  0  0
 10 18  1  0  0  0
 10 19  1  0  0  0
M  END
$$$$
