### 
### Created by X-TOOL on Mon Sep 10 21:13:14 2018
### 

@<TRIPOS>MOLECULE
4k5o_ligand
   28    29     1     0     0
SMALL
GAST_HUCK


@<TRIPOS>ATOM
      1 O1         12.2640   10.5840   10.9180 O.co2     1 1OT        -0.5572
      2 P          13.1540   11.7860   11.4150 P.3       1 1OT         0.1220
      3 O2         14.6180   11.6250   12.0770 O.co2     1 1OT        -0.5572
      4 O3         13.2590   12.6460   10.0520 O.co2     1 1OT        -0.5572
      5 C1         12.2200   12.8660   12.4690 C.3       1 1OT         0.0749
      6 N1         10.7940   12.5890   12.1240 N.4       1 1OT         0.2443
      7 C2         12.4180   12.6540   13.9250 C.ar      1 1OT         0.0153
      8 C10        11.6870   11.6240   14.4540 C.ar      1 1OT        -0.0565
      9 C9         11.6580   11.3610   15.8050 C.ar      1 1OT        -0.0308
     10 C5         12.3790   12.0620   16.7380 C.ar      1 1OT         0.1059
     11 C4         13.1050   13.1360   16.1670 C.ar      1 1OT        -0.0308
     12 C3         13.1340   13.4630   14.8070 C.ar      1 1OT        -0.0565
     13 N2         12.2390   11.6750   18.0520 N.pl3     1 1OT        -0.1679
     14 N3         12.7130   12.3920   19.1620 N.2       1 1OT        -0.2076
     15 C8         12.2350   11.6870   20.2240 C.2       1 1OT        -0.0061
     16 C7         11.4670   10.5970   19.7820 C.2       1 1OT        -0.0478
     17 C6         11.4550   10.6400   18.4010 C.2       1 1OT         0.0629
     18 H1         12.4758   13.9097   12.2341 H         1 1OT         0.1205
     19 H2         10.1931   13.1704   12.6870 H         1 1OT         0.2024
     20 H3         10.5872   11.6189   12.3035 H         1 1OT         0.2024
     21 H4         10.6390   12.7907   11.1487 H         1 1OT         0.2024
     22 H5         11.1112   10.9939   13.7858 H         1 1OT         0.0545
     23 H6         11.0272   10.5509   16.1526 H         1 1OT         0.0574
     24 H7         13.6864   13.7561   16.8397 H         1 1OT         0.0574
     25 H8         13.6956   14.3187   14.4499 H         1 1OT         0.0545
     26 H9         12.4216   11.9332   21.2683 H         1 1OT         0.0654
     27 H10        10.9735    9.8568   20.4101 H         1 1OT         0.0343
     28 H11        10.9186    9.9704   17.7303 H         1 1OT         0.0991
@<TRIPOS>BOND
     1    1    2 ar 
     2    2    3 ar 
     3    2    4 ar 
     4    2    5 1  
     5    5    6 1  
     6    5    7 1  
     7    7    8 ar 
     8    7   12 ar 
     9    8    9 ar 
    10    9   10 ar 
    11   10   11 ar 
    12   10   13 1  
    13   11   12 ar 
    14   13   14 1  
    15   13   17 1  
    16   14   15 2  
    17   15   16 1  
    18   16   17 2  
    19    5   18 1  
    20    6   19 1  
    21    6   20 1  
    22    6   21 1  
    23    8   22 1  
    24    9   23 1  
    25   11   24 1  
    26   12   25 1  
    27   15   26 1  
    28   16   27 1  
    29   17   28 1  
@<TRIPOS>SUBSTRUCTURE
     1 1OT         1

