4k5o_ligand
  -I-interpret- 

 30 31  0  0  0  0  0  0  0  0999 V2000
   12.2640   10.5840   10.9180 O   0  0  0  0  0
   13.1540   11.7860   11.4150 P   0  0  0  0  0
   14.6180   11.6250   12.0770 O   0  0  0  0  0
   13.2590   12.6460   10.0520 O   0  0  0  0  0
   12.2200   12.8660   12.4690 C   0  0  0  0  0
   10.7940   12.5890   12.1240 N   0  3  0  0  0
   12.4180   12.6540   13.9250 C   0  0  0  0  0
   11.6870   11.6240   14.4540 C   0  0  0  0  0
   11.6580   11.3610   15.8050 C   0  0  0  0  0
   12.3790   12.0620   16.7380 C   0  0  0  0  0
   13.1050   13.1360   16.1670 C   0  0  0  0  0
   13.1340   13.4630   14.8070 C   0  0  0  0  0
   12.2390   11.6750   18.0520 N   0  0  0  0  0
   12.7130   12.3920   19.1620 N   0  0  0  0  0
   12.2350   11.6870   20.2240 C   0  0  0  0  0
   11.4670   10.5970   19.7820 C   0  0  0  0  0
   11.4550   10.6400   18.4010 C   0  0  0  0  0
   14.9645   12.4922   12.2995 H   0  0  0  0  0
   13.7887   13.4309   10.2102 H   0  0  0  0  0
   12.5438   13.8927   12.2983 H   0  0  0  0  0
   10.6531   12.7334   11.1242 H   0  0  0  0  0
   10.5686   11.6237   12.3644 H   0  0  0  0  0
   10.1895   13.2213   12.6486 H   0  0  0  0  0
   11.1080   10.9904   13.7821 H   0  0  0  0  0
   11.0237   10.5464   16.1545 H   0  0  0  0  0
   13.6896   13.7595   16.8434 H   0  0  0  0  0
   13.6987   14.3234   14.4479 H   0  0  0  0  0
   12.4218   11.9334   21.2692 H   0  0  0  0  0
   10.9731    9.8561   20.4107 H   0  0  0  0  0
   10.9181    9.9698   17.7297 H   0  0  0  0  0
  1  2  2  0  0  0
  2  3  1  0  0  0
  2  4  1  0  0  0
  2  5  1  0  0  0
  5  6  1  0  0  0
  5  7  1  0  0  0
  7  8  4  0  0  0
  7 12  4  0  0  0
  8  9  4  0  0  0
  9 10  4  0  0  0
 10 11  4  0  0  0
 10 13  1  0  0  0
 11 12  4  0  0  0
 13 14  4  0  0  0
 13 17  4  0  0  0
 14 15  4  0  0  0
 15 16  4  0  0  0
 16 17  4  0  0  0
  3 18  1  0  0  0
  4 19  1  0  0  0
  5 20  1  0  0  0
  6 21  1  0  0  0
  6 22  1  0  0  0
  6 23  1  0  0  0
  8 24  1  0  0  0
  9 25  1  0  0  0
 11 26  1  0  0  0
 12 27  1  0  0  0
 15 28  1  0  0  0
 16 29  1  0  0  0
 17 30  1  0  0  0
M  END
$$$$
