2hxl_ligand
  -I-interpret- 

 53 57  0  0  0  0  0  0  0  0999 V2000
   22.3830   -2.6350    8.8100 C   0  0  0  0  0
   21.1090   -3.0570    9.4290 C   0  0  0  0  0
   19.9420   -2.2050    9.2660 C   0  0  0  0  0
   20.0600   -0.9410    8.5040 C   0  0  0  0  0
   21.3280   -0.5220    7.8880 C   0  0  0  0  0
   22.5200   -1.3850    8.0400 C   0  0  0  0  0
   18.5830   -2.3730    9.7440 C   0  0  0  0  0
   17.9370   -1.1780    9.2580 C   0  0  0  0  0
   18.7690   -0.3610    8.5810 N   0  0  0  0  0
   16.4780   -0.7740    9.4700 C   0  0  0  0  0
   15.4320   -1.4030   10.2560 C   0  0  0  0  0
   14.2660   -0.5370   10.1570 C   0  0  0  0  0
   14.6020    0.4960    9.3680 N   0  0  0  0  0
   15.9110    0.4000    8.9840 N   0  0  0  0  0
   15.3090   -2.6190   11.1160 C   0  0  0  0  0
   14.0440   -2.9120   11.8440 C   0  0  0  0  0
   12.9160   -1.9550   11.7090 C   0  0  0  0  0
   12.9960   -0.7510   10.8540 C   0  0  0  0  0
   11.7150   -2.2030   12.4790 C   0  0  0  0  0
   23.6430   -3.4950    8.9560 C   0  0  0  0  0
   23.6910   -4.7480    8.1560 N   0  3  0  0  0
   22.7910   -4.8670    6.9890 C   0  0  0  0  0
   25.0750   -5.1650    7.7760 C   0  0  0  0  0
   25.0580   -6.6090    7.2790 C   0  0  0  0  0
   22.7700   -6.3180    6.5220 C   0  0  0  0  0
   24.1380   -6.8350    6.0790 C   0  0  0  0  0
   24.0680   -8.3270    5.7370 C   0  0  0  0  0
   23.1190   -8.4950    4.6220 N   0  3  0  0  0
   10.7350   -2.4220   13.0660 N   0  0  0  0  0
   21.0456   -3.9863    9.9951 H   0  0  0  0  0
   21.3887    0.4109    7.3275 H   0  0  0  0  0
   23.4744   -1.1042    7.5945 H   0  0  0  0  0
   18.1581   -3.1930   10.3228 H   0  0  0  0  0
   16.1553   -3.2992   11.2113 H   0  0  0  0  0
   13.9479   -3.8059   12.4603 H   0  0  0  0  0
   12.1577   -0.0623   10.7487 H   0  0  0  0  0
   23.6771   -3.8037   10.0008 H   0  0  0  0  0
   24.4699   -2.8798    8.6013 H   0  0  0  0  0
   23.3060   -5.4003    8.8391 H   0  0  0  0  0
   23.1493   -4.2272    6.1826 H   0  0  0  0  0
   21.7842   -4.5571    7.2690 H   0  0  0  0  0
   25.7273   -5.0895    8.6460 H   0  0  0  0  0
   25.4442   -4.5140    6.9836 H   0  0  0  0  0
   24.6882   -7.2302    8.0948 H   0  0  0  0  0
   26.0715   -6.8573    6.9640 H   0  0  0  0  0
   22.1034   -6.3758    5.6616 H   0  0  0  0  0
   22.4458   -6.9289    7.3645 H   0  0  0  0  0
   24.4941   -6.3232    5.1850 H   0  0  0  0  0
   23.7345   -8.8968    6.6043 H   0  0  0  0  0
   25.0536   -8.6943    5.4511 H   0  0  0  0  0
   23.0561   -9.4830    4.3766 H   0  0  0  0  0
   22.2001   -8.1546    4.9050 H   0  0  0  0  0
   23.4463   -7.9633    3.8155 H   0  0  0  0  0
  1  2  4  0  0  0
  1  6  4  0  0  0
  1 20  1  0  0  0
  2  3  4  0  0  0
  3  4  4  0  0  0
  3  7  4  0  0  0
  4  5  4  0  0  0
  4  9  4  0  0  0
  5  6  4  0  0  0
  7  8  4  0  0  0
  8  9  4  0  0  0
  8 10  1  0  0  0
 10 11  4  0  0  0
 10 14  4  0  0  0
 11 12  4  0  0  0
 11 15  4  0  0  0
 12 13  4  0  0  0
 12 18  4  0  0  0
 13 14  4  0  0  0
 15 16  4  0  0  0
 16 17  4  0  0  0
 17 18  4  0  0  0
 17 19  1  0  0  0
 19 29  3  0  0  0
 20 21  1  0  0  0
 21 22  1  0  0  0
 21 23  1  0  0  0
 22 25  1  0  0  0
 23 24  1  0  0  0
 24 26  1  0  0  0
 25 26  1  0  0  0
 26 27  1  0  0  0
 27 28  1  0  0  0
  2 30  1  0  0  0
  5 31  1  0  0  0
  6 32  1  0  0  0
  7 33  1  0  0  0
 15 34  1  0  0  0
 16 35  1  0  0  0
 18 36  1  0  0  0
 20 37  1  0  0  0
 20 38  1  0  0  0
 21 39  1  0  0  0
 22 40  1  0  0  0
 22 41  1  0  0  0
 23 42  1  0  0  0
 23 43  1  0  0  0
 24 44  1  0  0  0
 24 45  1  0  0  0
 25 46  1  0  0  0
 25 47  1  0  0  0
 26 48  1  0  0  0
 27 49  1  0  0  0
 27 50  1  0  0  0
 28 51  1  0  0  0
 28 52  1  0  0  0
 28 53  1  0  0  0
M  END
$$$$
