5q0g_ligand
  -I-interpret- 

 72 76  0  0  0  0  0  0  0  0999 V2000
   46.7490  -20.9280   31.0340 C   0  0  0  0  0
   48.8900  -22.0050   32.9840 C   0  0  0  0  0
   44.3820  -22.5010   31.0080 C   0  0  0  0  0
   45.4290  -22.8390   31.8650 C   0  0  0  0  0
   50.8210  -22.3080   34.4890 C   0  0  0  0  0
   41.4170  -24.8260   29.8620 C   0  0  0  0  0
   42.7780  -24.0300   29.8700 C   0  0  0  0  0
   44.5280  -21.3240   30.1470 C   0  0  0  0  0
   45.7050  -20.5850   30.1900 C   0  0  0  0  0
   40.4990  -27.0620   29.0700 C   0  0  0  0  0
   36.8380  -13.6550   26.8840 C   0  0  0  0  0
   39.9210  -20.9440   28.6280 C   0  0  0  0  0
   39.4980  -22.1000   27.7150 C   0  0  0  0  0
   40.2390  -23.4330   27.9890 C   0  0  0  0  0
   40.1970  -23.9890   29.4380 C   0  0  0  0  0
   39.1450  -19.7060   28.3840 N   0  0  0  0  0
   41.4310  -20.7300   28.5630 C   0  0  0  0  0
   42.2440  -20.4640   27.4580 N   0  0  0  0  0
   43.5610  -20.5630   27.8900 C   0  0  0  0  0
   43.4930  -20.8970   29.2370 C   0  0  0  0  0
   42.1820  -20.9550   29.6480 N   0  0  0  0  0
   46.6200  -22.0440   31.9030 C   0  0  0  0  0
   47.5930  -22.4670   32.8550 N   0  0  0  0  0
   49.5090  -21.2610   32.2440 O   0  0  0  0  0
   49.4720  -22.6000   34.0980 O   0  0  0  0  0
   43.1920  -23.2740   30.9630 N   0  0  0  0  0
   43.5070  -24.0620   28.8860 O   0  0  0  0  0
   41.6120  -26.0650   28.9710 C   0  0  0  0  0
   39.1490  -18.6990   29.3840 C   0  0  0  0  0
   38.3980  -17.4260   29.2120 C   0  0  0  0  0
   37.8590  -17.0760   28.0550 C   0  0  0  0  0
   37.1350  -15.8240   27.9010 C   0  0  0  0  0
   37.5420  -14.8650   26.9910 C   0  0  0  0  0
   39.7640  -18.8880   30.4470 O   0  0  0  0  0
   35.7150  -13.4240   27.6710 C   0  0  0  0  0
   35.3030  -14.4050   28.5660 C   0  0  0  0  0
   35.9960  -15.6030   28.6850 C   0  0  0  0  0
   38.6340  -15.1280   26.0770 N   0  0  0  0  0
   38.6320  -15.0260   24.6800 C   0  0  0  0  0
   39.8990  -15.2670   24.2450 N   0  0  0  0  0
   40.6470  -15.5120   25.3330 N   0  0  0  0  0
   39.9430  -15.4460   26.4270 N   0  0  0  0  0
   33.8990  -14.1170   29.5410 Cl  0  0  0  0  0
   47.6681  -20.3421   31.0310 H   0  0  0  0  0
   45.3405  -23.7134   32.5098 H   0  0  0  0  0
   51.4993  -22.5800   33.6803 H   0  0  0  0  0
   50.9142  -21.2427   34.7003 H   0  0  0  0  0
   51.0709  -22.8801   35.3825 H   0  0  0  0  0
   41.1795  -25.1190   30.8847 H   0  0  0  0  0
   45.8091  -19.7137   29.5434 H   0  0  0  0  0
   40.4172  -27.4123   30.0989 H   0  0  0  0  0
   39.5631  -26.5908   28.7697 H   0  0  0  0  0
   40.7095  -27.9060   28.4132 H   0  0  0  0  0
   37.1733  -12.8929   26.1806 H   0  0  0  0  0
   39.6794  -21.2268   29.6526 H   0  0  0  0  0
   39.7359  -21.8050   26.6930 H   0  0  0  0  0
   38.4380  -22.2794   27.8949 H   0  0  0  0  0
   41.2902  -23.2335   27.7808 H   0  0  0  0  0
   39.7386  -24.1799   27.3727 H   0  0  0  0  0
   40.1678  -23.1246   30.1014 H   0  0  0  0  0
   39.3327  -24.6509   29.4916 H   0  0  0  0  0
   38.6205  -19.5804   27.5182 H   0  0  0  0  0
   44.4614  -20.4102   27.2951 H   0  0  0  0  0
   47.3006  -23.1894   33.5130 H   0  0  0  0  0
   42.5973  -23.2755   31.7917 H   0  0  0  0  0
   42.5241  -26.5623   29.3010 H   0  0  0  0  0
   41.6482  -25.7198   27.9377 H   0  0  0  0  0
   38.2881  -16.7595   30.0674 H   0  0  0  0  0
   37.9600  -17.7415   27.1977 H   0  0  0  0  0
   35.1652  -12.4865   27.5873 H   0  0  0  0  0
   35.6552  -16.3664   29.3844 H   0  0  0  0  0
   37.7704  -14.7951   24.0536 H   0  0  0  0  0
  9  1  4  0  0  0
  1 22  4  0  0  0
 23  2  1  0  0  0
  2 24  2  0  0  0
  2 25  1  0  0  0
  3  4  4  0  0  0
  8  3  4  0  0  0
  3 26  1  0  0  0
  4 22  4  0  0  0
 25  5  1  0  0  0
  6  7  1  0  0  0
 15  6  1  0  0  0
  6 28  1  0  0  0
  7 26  1  0  0  0
  7 27  2  0  0  0
  8  9  4  0  0  0
 20  8  1  0  0  0
 28 10  1  0  0  0
 33 11  4  0  0  0
 11 35  4  0  0  0
 12 13  1  0  0  0
 16 12  1  0  0  0
 12 17  1  0  0  0
 13 14  1  0  0  0
 14 15  1  0  0  0
 29 16  1  0  0  0
 17 18  4  0  0  0
 17 21  4  0  0  0
 18 19  4  0  0  0
 20 19  4  0  0  0
 21 20  4  0  0  0
 22 23  1  0  0  0
 30 29  1  0  0  0
 29 34  2  0  0  0
 31 30  2  0  0  0
 32 31  1  0  0  0
 32 33  4  0  0  0
 32 37  4  0  0  0
 33 38  1  0  0  0
 35 36  4  0  0  0
 36 37  4  0  0  0
 36 43  1  0  0  0
 38 39  4  0  0  0
 38 42  4  0  0  0
 39 40  4  0  0  0
 40 41  4  0  0  0
 41 42  4  0  0  0
  1 44  1  0  0  0
  4 45  1  0  0  0
  5 46  1  0  0  0
  5 47  1  0  0  0
  5 48  1  0  0  0
  6 49  1  0  0  0
  9 50  1  0  0  0
 10 51  1  0  0  0
 10 52  1  0  0  0
 10 53  1  0  0  0
 11 54  1  0  0  0
 12 55  1  0  0  0
 13 56  1  0  0  0
 13 57  1  0  0  0
 14 58  1  0  0  0
 14 59  1  0  0  0
 15 60  1  0  0  0
 15 61  1  0  0  0
 16 62  1  0  0  0
 19 63  1  0  0  0
 23 64  1  0  0  0
 26 65  1  0  0  0
 28 66  1  0  0  0
 28 67  1  0  0  0
 30 68  1  0  0  0
 31 69  1  0  0  0
 35 70  1  0  0  0
 37 71  1  0  0  0
 39 72  1  0  0  0
M  END
$$$$
