4ehr_ligand
  -I-interpret- 

 91 95  0  0  0  0  0  0  0  0999 V2000
   12.2080   29.5750   10.3470 O   0  0  0  0  0
   13.1510   29.4840    9.5860 C   0  0  0  0  0
   13.6110   28.3000    9.1280 N   0  0  0  0  0
   14.9900   28.1950    8.6750 C   0  0  0  0  0
   14.9880   27.9420    7.1890 C   0  0  0  0  0
   14.1280   26.7540    6.8610 C   0  0  0  0  0
   14.2960   26.0990    5.6400 C   0  0  0  0  0
   13.4180   25.1050    5.2430 C   0  0  0  0  0
   12.3770   24.7330    6.0690 C   0  0  0  0  0
   12.2090   25.3520    7.3010 C   0  0  0  0  0
   13.0700   26.3640    7.7160 C   0  0  0  0  0
   12.8560   27.0370    9.0660 C   0  0  0  0  0
   13.6690   30.7450    8.9360 C   0  0  0  0  0
   12.9130   31.4690    7.9910 C   0  0  0  0  0
   11.5630   31.0640    7.5710 C   0  0  0  0  0
   11.2280   30.1730    6.5800 C   0  0  0  0  0
   12.1270   29.4700    5.6150 C   0  0  0  0  0
   11.8290   29.6730    4.1450 C   0  0  0  0  0
   12.7970   28.8970    3.2820 C   0  0  0  0  0
   12.6080   29.1250    1.8360 C   0  0  0  0  0
    9.8290   29.9810    6.6830 N   0  0  0  0  0
    8.9730   29.0220    6.0580 C   0  0  0  0  0
    7.9260   29.4440    5.2420 C   0  0  0  0  0
    7.1540   28.5010    4.5700 C   0  0  0  0  0
    7.4220   27.1510    4.7060 C   0  0  0  0  0
    8.4640   26.7310    5.5160 C   0  0  0  0  0
    9.2340   27.6560    6.2060 C   0  0  0  0  0
    9.3180   30.7810    7.6910 N   0  0  0  0  0
   10.3360   31.4180    8.2210 C   0  0  0  0  0
   10.1550   32.4030    9.3310 C   0  0  0  0  0
    9.7180   33.5750    8.6640 O   0  0  0  0  0
   13.4580   32.6220    7.4240 C   0  0  0  0  0
   14.7310   33.0500    7.7700 C   0  0  0  0  0
   15.4870   32.3420    8.7040 C   0  0  0  0  0
   14.9500   31.1970    9.2820 C   0  0  0  0  0
   16.8180   32.8330    9.1730 C   0  0  0  0  0
   17.6700   32.0730    9.6450 O   0  0  0  0  0
   17.0050   34.2050    9.1390 N   0  0  0  0  0
   18.4390   34.8220    9.6370 S   0  0  0  0  0
   18.3120   36.2480    9.6220 O   0  0  0  0  0
   18.8230   34.1660   10.8480 O   0  0  0  0  0
   19.4480   34.3260    8.3240 C   0  0  0  0  0
   20.9000   34.7070    8.6040 C   0  0  0  0  0
   22.1080   34.2450    7.2210 Si  0  0  0  0  0
   21.5670   35.0350    5.5950 C   0  0  0  0  0
   22.1760   32.3700    7.0230 C   0  0  0  0  0
   23.8220   34.8850    7.6970 C   0  0  0  0  0
   15.4895   27.3751    9.1911 H   0  0  0  0  0
   15.5248   29.1192    8.8941 H   0  0  0  0  0
   16.0084   27.7429    6.8614 H   0  0  0  0  0
   14.5899   28.8198    6.6800 H   0  0  0  0  0
   15.1281   26.3733    4.9916 H   0  0  0  0  0
   13.5490   24.6160    4.2777 H   0  0  0  0  0
   11.6852   23.9518    5.7540 H   0  0  0  0  0
   11.3918   25.0411    7.9518 H   0  0  0  0  0
   11.7946   27.2483    9.1958 H   0  0  0  0  0
   13.2055   26.3724    9.8561 H   0  0  0  0  0
   11.9996   28.4042    5.8048 H   0  0  0  0  0
   13.1247   29.8769    5.7801 H   0  0  0  0  0
   11.9267   30.7334    3.9123 H   0  0  0  0  0
   10.8185   29.3185    3.9415 H   0  0  0  0  0
   12.6285   27.8369    3.4717 H   0  0  0  0  0
   13.8032   29.2290    3.5377 H   0  0  0  0  0
   11.6003   28.8231    1.5505 H   0  0  0  0  0
   12.7480   30.1831    1.6150 H   0  0  0  0  0
   13.3366   28.5365    1.2784 H   0  0  0  0  0
    7.7125   30.5070    5.1304 H   0  0  0  0  0
    6.3328   28.8285    3.9324 H   0  0  0  0  0
    6.8136   26.4181    4.1761 H   0  0  0  0  0
    8.6804   25.6670    5.6119 H   0  0  0  0  0
   10.0384   27.3198    6.8602 H   0  0  0  0  0
   11.0699   32.5630    9.9014 H   0  0  0  0  0
    9.4441   32.0600   10.0827 H   0  0  0  0  0
    9.5738   34.2729    9.3072 H   0  0  0  0  0
   12.8761   33.1930    6.7005 H   0  0  0  0  0
   15.1440   33.9469    7.3083 H   0  0  0  0  0
   15.5345   30.6421   10.0158 H   0  0  0  0  0
   16.2621   34.8213    8.8093 H   0  0  0  0  0
   19.1176   34.8229    7.4118 H   0  0  0  0  0
   19.3782   33.2444    8.2084 H   0  0  0  0  0
   21.2087   34.1604    9.4951 H   0  0  0  0  0
   20.9323   35.7915    8.7089 H   0  0  0  0  0
   20.5705   34.6792    5.3335 H   0  0  0  0  0
   21.5492   36.1190    5.7074 H   0  0  0  0  0
   22.2699   34.7615    4.8081 H   0  0  0  0  0
   22.5103   31.9191    7.9574 H   0  0  0  0  0
   21.1832   31.9961    6.7725 H   0  0  0  0  0
   22.8736   32.1152    6.2251 H   0  0  0  0  0
   23.7839   35.9678    7.8161 H   0  0  0  0  0
   24.1322   34.4256    8.6355 H   0  0  0  0  0
   24.5346   34.6293    6.9128 H   0  0  0  0  0
  1  2  2  0  0  0
  2  3  1  0  0  0
  2 13  1  0  0  0
  3  4  1  0  0  0
  3 12  1  0  0  0
  4  5  1  0  0  0
  5  6  1  0  0  0
  6  7  4  0  0  0
  6 11  4  0  0  0
  7  8  4  0  0  0
  8  9  4  0  0  0
  9 10  4  0  0  0
 10 11  4  0  0  0
 11 12  1  0  0  0
 13 14  4  0  0  0
 13 35  4  0  0  0
 14 15  1  0  0  0
 14 32  4  0  0  0
 15 16  4  0  0  0
 15 29  4  0  0  0
 16 17  1  0  0  0
 16 21  4  0  0  0
 17 18  1  0  0  0
 18 19  1  0  0  0
 19 20  1  0  0  0
 21 22  1  0  0  0
 21 28  4  0  0  0
 22 23  4  0  0  0
 22 27  4  0  0  0
 23 24  4  0  0  0
 24 25  4  0  0  0
 25 26  4  0  0  0
 26 27  4  0  0  0
 28 29  4  0  0  0
 29 30  1  0  0  0
 30 31  1  0  0  0
 32 33  4  0  0  0
 33 34  4  0  0  0
 34 35  4  0  0  0
 34 36  1  0  0  0
 36 37  2  0  0  0
 36 38  1  0  0  0
 38 39  1  0  0  0
 39 40  2  0  0  0
 39 41  2  0  0  0
 39 42  1  0  0  0
 42 43  1  0  0  0
 43 44  1  0  0  0
 44 45  1  0  0  0
 44 46  1  0  0  0
 44 47  1  0  0  0
  4 48  1  0  0  0
  4 49  1  0  0  0
  5 50  1  0  0  0
  5 51  1  0  0  0
  7 52  1  0  0  0
  8 53  1  0  0  0
  9 54  1  0  0  0
 10 55  1  0  0  0
 12 56  1  0  0  0
 12 57  1  0  0  0
 17 58  1  0  0  0
 17 59  1  0  0  0
 18 60  1  0  0  0
 18 61  1  0  0  0
 19 62  1  0  0  0
 19 63  1  0  0  0
 20 64  1  0  0  0
 20 65  1  0  0  0
 20 66  1  0  0  0
 23 67  1  0  0  0
 24 68  1  0  0  0
 25 69  1  0  0  0
 26 70  1  0  0  0
 27 71  1  0  0  0
 30 72  1  0  0  0
 30 73  1  0  0  0
 31 74  1  0  0  0
 32 75  1  0  0  0
 33 76  1  0  0  0
 35 77  1  0  0  0
 38 78  1  0  0  0
 42 79  1  0  0  0
 42 80  1  0  0  0
 43 81  1  0  0  0
 43 82  1  0  0  0
 45 83  1  0  0  0
 45 84  1  0  0  0
 45 85  1  0  0  0
 46 86  1  0  0  0
 46 87  1  0  0  0
 46 88  1  0  0  0
 47 89  1  0  0  0
 47 90  1  0  0  0
 47 91  1  0  0  0
M  END
$$$$
