### 
### Created by X-TOOL on Mon Sep 10 21:13:11 2018
### 

@<TRIPOS>MOLECULE
4ehr_ligand
   91    95     1     0     0
SMALL
GAST_HUCK


@<TRIPOS>ATOM
      1 O4         12.2080   29.5750   10.3470 O.2       1 0Q5        -0.3890
      2 C27        13.1510   29.4840    9.5860 C.2       1 0Q5         0.2034
      3 N3         13.6110   28.3000    9.1280 N.am      1 0Q5        -0.2619
      4 C36        14.9900   28.1950    8.6750 C.3       1 0Q5         0.0437
      5 C35        14.9880   27.9420    7.1890 C.3       1 0Q5        -0.0010
      6 C30        14.1280   26.7540    6.8610 C.ar      1 0Q5        -0.0372
      7 C31        14.2960   26.0990    5.6400 C.ar      1 0Q5        -0.0667
      8 C32        13.4180   25.1050    5.2430 C.ar      1 0Q5        -0.0755
      9 C33        12.3770   24.7330    6.0690 C.ar      1 0Q5        -0.0754
     10 C34        12.2090   25.3520    7.3010 C.ar      1 0Q5        -0.0649
     11 C29        13.0700   26.3640    7.7160 C.ar      1 0Q5        -0.0188
     12 C28        12.8560   27.0370    9.0660 C.3       1 0Q5         0.0645
     13 C          13.6690   30.7450    8.9360 C.ar      1 0Q5         0.0498
     14 C5         12.9130   31.4690    7.9910 C.ar      1 0Q5        -0.0182
     15 C6         11.5630   31.0640    7.5710 C.2       1 0Q5         0.0194
     16 C8         11.2280   30.1730    6.5800 C.2       1 0Q5         0.1015
     17 C9         12.1270   29.4700    5.6150 C.3       1 0Q5         0.0174
     18 C10        11.8290   29.6730    4.1450 C.3       1 0Q5        -0.0381
     19 C11        12.7970   28.8970    3.2820 C.3       1 0Q5        -0.0535
     20 C12        12.6080   29.1250    1.8360 C.3       1 0Q5        -0.0651
     21 N1          9.8290   29.9810    6.6830 N.pl3     1 0Q5        -0.1611
     22 C13         8.9730   29.0220    6.0580 C.ar      1 0Q5         0.1092
     23 C18         7.9260   29.4440    5.2420 C.ar      1 0Q5        -0.0264
     24 C17         7.1540   28.5010    4.5700 C.ar      1 0Q5        -0.0663
     25 C16         7.4220   27.1510    4.7060 C.ar      1 0Q5        -0.0691
     26 C15         8.4640   26.7310    5.5160 C.ar      1 0Q5        -0.0663
     27 C14         9.2340   27.6560    6.2060 C.ar      1 0Q5        -0.0264
     28 N           9.3180   30.7810    7.6910 N.2       1 0Q5        -0.2173
     29 C7         10.3360   31.4180    8.2210 C.2       1 0Q5         0.0406
     30 C19        10.1550   32.4030    9.3310 C.3       1 0Q5         0.0821
     31 O           9.7180   33.5750    8.6640 O.3       1 0Q5        -0.3828
     32 C4         13.4580   32.6220    7.4240 C.ar      1 0Q5        -0.0557
     33 C3         14.7310   33.0500    7.7700 C.ar      1 0Q5        -0.0463
     34 C2         15.4870   32.3420    8.7040 C.ar      1 0Q5         0.0483
     35 C1         14.9500   31.1970    9.2820 C.ar      1 0Q5        -0.0306
     36 C20        16.8180   32.8330    9.1730 C.2       1 0Q5         0.2195
     37 O1         17.6700   32.0730    9.6450 O.2       1 0Q5        -0.3870
     38 N2         17.0050   34.2050    9.1390 N.am      1 0Q5        -0.1588
     39 S          18.4390   34.8220    9.6370 S.o2      1 0Q5         0.0609
     40 O2         18.3120   36.2480    9.6220 O.2       1 0Q5        -0.1508
     41 O3         18.8230   34.1660   10.8480 O.2       1 0Q5        -0.1508
     42 C21        19.4480   34.3260    8.3240 C.3       1 0Q5         0.0892
     43 C22        20.9000   34.7070    8.6040 C.3       1 0Q5        -0.0299
     44 SI1        22.1080   34.2450    7.2210 Si        1 0Q5         0.0000
     45 C26        21.5670   35.0350    5.5950 C.3       1 0Q5        -0.0681
     46 C25        22.1760   32.3700    7.0230 C.3       1 0Q5        -0.0681
     47 C24        23.8220   34.8850    7.6970 C.3       1 0Q5        -0.0681
     48 H          15.4895   27.3751    9.1911 H         1 0Q5         0.0544
     49 H          15.5248   29.1192    8.8941 H         1 0Q5         0.0544
     50 H          16.0084   27.7429    6.8614 H         1 0Q5         0.0431
     51 H          14.5899   28.8198    6.6800 H         1 0Q5         0.0431
     52 H          15.1281   26.3733    4.9916 H         1 0Q5         0.0537
     53 H          13.5490   24.6160    4.2777 H         1 0Q5         0.0541
     54 H          11.6852   23.9518    5.7540 H         1 0Q5         0.0541
     55 H          11.3918   25.0411    7.9518 H         1 0Q5         0.0538
     56 H          11.7946   27.2483    9.1958 H         1 0Q5         0.0670
     57 H          13.2055   26.3724    9.8561 H         1 0Q5         0.0670
     58 H          11.9996   28.4042    5.8048 H         1 0Q5         0.0499
     59 H          13.1247   29.8769    5.7801 H         1 0Q5         0.0499
     60 H          11.9267   30.7334    3.9123 H         1 0Q5         0.0294
     61 H          10.8185   29.3185    3.9415 H         1 0Q5         0.0294
     62 H          12.6285   27.8369    3.4717 H         1 0Q5         0.0265
     63 H          13.8032   29.2290    3.5377 H         1 0Q5         0.0265
     64 H          11.6003   28.8231    1.5505 H         1 0Q5         0.0230
     65 H          12.7480   30.1831    1.6150 H         1 0Q5         0.0230
     66 H          13.3366   28.5365    1.2784 H         1 0Q5         0.0230
     67 H           7.7125   30.5070    5.1304 H         1 0Q5         0.0582
     68 H           6.3328   28.8285    3.9324 H         1 0Q5         0.0599
     69 H           6.8136   26.4181    4.1761 H         1 0Q5         0.0554
     70 H           8.6804   25.6670    5.6119 H         1 0Q5         0.0599
     71 H          10.0384   27.3198    6.8602 H         1 0Q5         0.0582
     72 H          11.0699   32.5630    9.9014 H         1 0Q5         0.0716
     73 H           9.4441   32.0600   10.0827 H         1 0Q5         0.0716
     74 H           8.8978   33.3910    8.2004 H         1 0Q5         0.2125
     75 H          12.8761   33.1930    6.7005 H         1 0Q5         0.0572
     76 H          15.1440   33.9469    7.3083 H         1 0Q5         0.0679
     77 H          15.5345   30.6421   10.0158 H         1 0Q5         0.0701
     78 H          16.2621   34.8213    8.8093 H         1 0Q5         0.2132
     79 H          19.1176   34.8229    7.4118 H         1 0Q5         0.0522
     80 H          19.3782   33.2444    8.2084 H         1 0Q5         0.0522
     81 H          21.2087   34.1604    9.4951 H         1 0Q5         0.0282
     82 H          20.9323   35.7915    8.7089 H         1 0Q5         0.0282
     83 H          20.5705   34.6792    5.3335 H         1 0Q5         0.0227
     84 H          21.5492   36.1190    5.7074 H         1 0Q5         0.0227
     85 H          22.2699   34.7615    4.8081 H         1 0Q5         0.0227
     86 H          22.5103   31.9191    7.9574 H         1 0Q5         0.0227
     87 H          21.1832   31.9961    6.7725 H         1 0Q5         0.0227
     88 H          22.8736   32.1152    6.2251 H         1 0Q5         0.0227
     89 H          23.7839   35.9678    7.8161 H         1 0Q5         0.0227
     90 H          24.1322   34.4256    8.6355 H         1 0Q5         0.0227
     91 H          24.5346   34.6293    6.9128 H         1 0Q5         0.0227
@<TRIPOS>BOND
     1    1    2 2  
     2    2    3 am 
     3    2   13 1  
     4    3    4 1  
     5    3   12 1  
     6    4    5 1  
     7    5    6 1  
     8    6    7 ar 
     9    6   11 ar 
    10    7    8 ar 
    11    8    9 ar 
    12    9   10 ar 
    13   10   11 ar 
    14   11   12 1  
    15   13   14 ar 
    16   13   35 ar 
    17   14   15 1  
    18   14   32 ar 
    19   15   16 2  
    20   15   29 1  
    21   16   17 1  
    22   16   21 1  
    23   17   18 1  
    24   18   19 1  
    25   19   20 1  
    26   21   22 1  
    27   21   28 1  
    28   22   23 ar 
    29   22   27 ar 
    30   23   24 ar 
    31   24   25 ar 
    32   25   26 ar 
    33   26   27 ar 
    34   28   29 2  
    35   29   30 1  
    36   30   31 1  
    37   32   33 ar 
    38   33   34 ar 
    39   34   35 ar 
    40   34   36 1  
    41   36   37 2  
    42   36   38 am 
    43   38   39 am 
    44   39   40 2  
    45   39   41 2  
    46   39   42 1  
    47   42   43 1  
    48   43   44 1  
    49   44   45 1  
    50   44   46 1  
    51   44   47 1  
    52    4   48 1  
    53    4   49 1  
    54    5   50 1  
    55    5   51 1  
    56    7   52 1  
    57    8   53 1  
    58    9   54 1  
    59   10   55 1  
    60   12   56 1  
    61   12   57 1  
    62   17   58 1  
    63   17   59 1  
    64   18   60 1  
    65   18   61 1  
    66   19   62 1  
    67   19   63 1  
    68   20   64 1  
    69   20   65 1  
    70   20   66 1  
    71   23   67 1  
    72   24   68 1  
    73   25   69 1  
    74   26   70 1  
    75   27   71 1  
    76   30   72 1  
    77   30   73 1  
    78   31   74 1  
    79   32   75 1  
    80   33   76 1  
    81   35   77 1  
    82   38   78 1  
    83   42   79 1  
    84   42   80 1  
    85   43   81 1  
    86   43   82 1  
    87   45   83 1  
    88   45   84 1  
    89   45   85 1  
    90   46   86 1  
    91   46   87 1  
    92   46   88 1  
    93   47   89 1  
    94   47   90 1  
    95   47   91 1  
@<TRIPOS>SUBSTRUCTURE
     1 0Q5         1

