3o75_ligand
  -I-interpret- 

 29 29  0  0  0  0  0  0  0  0999 V2000
   -0.8220    4.1160    4.3120 C   0  0  0  0  0
   -1.1880    3.6710    3.0150 O   0  0  0  0  0
   -0.7150    4.5260    1.7380 P   0  0  0  0  0
   -2.0280    4.7660    4.9670 C   0  0  0  0  0
   -2.7270    5.5740    4.0110 O   0  0  0  0  0
   -1.5940    5.6210    6.1490 C   0  0  0  0  0
   -1.1390    6.9090    5.7410 O   0  0  0  0  0
   -2.8640    5.6650    6.9610 C   0  0  0  0  0
   -2.6680    6.0550    8.3230 O   0  0  0  0  0
   -3.2400    4.2010    6.8430 C   0  0  0  0  0
   -2.9360    3.8020    5.5010 O   0  0  0  0  0
   -4.6840    3.9860    7.2240 C   0  0  0  0  0
   -4.6470    3.7460    8.6250 O   0  0  0  0  0
   -1.3060    5.8940    1.9590 O   0  0  0  0  0
    0.7880    4.4910    1.8050 O   0  0  0  0  0
   -1.3190    3.7870    0.5700 O   0  0  0  0  0
   -0.0088    4.8380    4.2382 H   0  0  0  0  0
   -0.4885    3.2692    4.9118 H   0  0  0  0  0
   -2.1257    6.2267    3.6448 H   0  0  0  0  0
   -0.7407    5.2294    6.7027 H   0  0  0  0  0
   -0.3314    6.8150    5.2306 H   0  0  0  0  0
   -3.6011    6.3930    6.6223 H   0  0  0  0  0
   -2.4321    6.9849    8.3576 H   0  0  0  0  0
   -2.6726    3.5791    7.5354 H   0  0  0  0  0
   -5.1329    3.1564    6.6778 H   0  0  0  0  0
   -5.3067    4.8443    6.9715 H   0  0  0  0  0
   -5.5393    3.5981    8.9469 H   0  0  0  0  0
   -2.2629    5.8409    1.9026 H   0  0  0  0  0
   -2.2755    3.8611    0.6059 H   0  0  0  0  0
  1  2  1  0  0  0
  1  4  1  0  0  0
  2  3  1  0  0  0
  3 14  1  0  0  0
  3 15  2  0  0  0
  3 16  1  0  0  0
  4  5  1  0  0  0
  4  6  1  0  0  0
  4 11  1  0  0  0
  6  7  1  0  0  0
  6  8  1  0  0  0
  8  9  1  0  0  0
  8 10  1  0  0  0
 10 11  1  0  0  0
 10 12  1  0  0  0
 12 13  1  0  0  0
  1 17  1  0  0  0
  1 18  1  0  0  0
  5 19  1  0  0  0
  6 20  1  0  0  0
  7 21  1  0  0  0
  8 22  1  0  0  0
  9 23  1  0  0  0
 10 24  1  0  0  0
 12 25  1  0  0  0
 12 26  1  0  0  0
 13 27  1  0  0  0
 14 28  1  0  0  0
 16 29  1  0  0  0
M  END
$$$$
