1kyv_ligand
  -I-interpret- 

 47 49  0  0  0  0  0  0  0  0999 V2000
   74.5700   22.3310   38.8900 N   0  0  0  0  0
   73.8280   21.4480   38.1240 C   0  0  0  0  0
   74.4390   20.7110   37.3880 O   0  0  0  0  0
   72.4750   21.5180   38.2990 N   0  0  0  0  0
   71.7250   22.3700   39.1500 C   0  0  0  0  0
   70.5180   22.3150   39.1990 O   0  0  0  0  0
   72.5970   23.3300   39.9600 C   0  0  0  0  0
   72.0180   24.1870   40.7890 N   0  0  0  0  0
   72.8360   25.0830   41.5410 C   0  0  0  0  0
   72.1220   26.0120   42.4220 C   0  0  0  0  0
   72.9300   26.9010   43.1470 C   0  0  0  0  0
   72.3350   27.9590   44.1100 C   0  0  0  0  0
   74.4120   26.8550   42.9980 C   0  0  0  0  0
   75.2830   27.8710   43.8150 C   0  0  0  0  0
   75.1280   25.9750   42.1730 C   0  0  0  0  0
   74.2780   25.0680   41.4240 C   0  0  0  0  0
   74.8500   24.0780   40.4860 N   0  0  0  0  0
   74.0160   23.2490   39.7840 C   0  0  0  0  0
   76.3210   24.0370   40.3540 C   0  0  0  0  0
   76.9750   24.8080   39.2120 C   0  0  0  0  0
   76.7450   23.9880   38.0350 O   0  0  0  0  0
   78.4230   25.0100   39.5410 C   0  0  0  0  0
   79.1610   23.8820   39.9930 O   0  0  0  0  0
   78.7760   25.9980   40.6030 C   0  0  0  0  0
   77.9650   27.1870   40.5430 O   0  0  0  0  0
   80.1530   26.7590   40.6850 C   0  0  0  0  0
   80.5280   27.0140   39.3200 O   0  0  0  0  0
   71.9266   20.8656   37.7387 H   0  0  0  0  0
   71.0354   26.0121   42.5082 H   0  0  0  0  0
   71.6789   28.6276   43.5526 H   0  0  0  0  0
   71.7651   27.4570   44.8919 H   0  0  0  0  0
   73.1439   28.5341   44.5606 H   0  0  0  0  0
   75.0082   28.8886   43.5374 H   0  0  0  0  0
   75.1071   27.7237   44.8806 H   0  0  0  0  0
   76.3371   27.7046   43.5930 H   0  0  0  0  0
   76.2157   25.9726   42.1015 H   0  0  0  0  0
   76.5595   22.9907   40.1629 H   0  0  0  0  0
   76.7004   24.5020   41.2639 H   0  0  0  0  0
   76.5704   25.8060   39.0433 H   0  0  0  0  0
   77.1334   24.4151   37.2680 H   0  0  0  0  0
   78.6845   25.3406   38.5358 H   0  0  0  0  0
   80.0680   24.1436   40.1679 H   0  0  0  0  0
   78.6910   25.2612   41.4017 H   0  0  0  0  0
   78.2290   27.7887   41.2429 H   0  0  0  0  0
   80.9074   26.1682   41.2045 H   0  0  0  0  0
   80.0671   27.6831   41.2566 H   0  0  0  0  0
   81.3671   27.4801   39.3016 H   0  0  0  0  0
 18  1  2  0  0  0
  1  2  1  0  0  0
  2  4  1  0  0  0
  2  3  2  0  0  0
  4  5  1  0  0  0
  5  7  1  0  0  0
  5  6  2  0  0  0
 18  7  1  0  0  0
  7  8  2  0  0  0
  8  9  1  0  0  0
  9 16  4  0  0  0
  9 10  4  0  0  0
 10 11  4  0  0  0
 11 13  4  0  0  0
 11 12  1  0  0  0
 13 15  4  0  0  0
 13 14  1  0  0  0
 16 15  4  0  0  0
 16 17  1  0  0  0
 17 19  1  0  0  0
 17 18  1  0  0  0
 19 20  1  0  0  0
 20 22  1  0  0  0
 20 21  1  0  0  0
 22 24  1  0  0  0
 22 23  1  0  0  0
 24 26  1  0  0  0
 24 25  1  0  0  0
 26 27  1  0  0  0
  4 28  1  0  0  0
 10 29  1  0  0  0
 12 30  1  0  0  0
 12 31  1  0  0  0
 12 32  1  0  0  0
 14 33  1  0  0  0
 14 34  1  0  0  0
 14 35  1  0  0  0
 15 36  1  0  0  0
 19 37  1  0  0  0
 19 38  1  0  0  0
 20 39  1  0  0  0
 21 40  1  0  0  0
 22 41  1  0  0  0
 23 42  1  0  0  0
 24 43  1  0  0  0
 25 44  1  0  0  0
 26 45  1  0  0  0
 26 46  1  0  0  0
 27 47  1  0  0  0
M  END
$$$$
