4mvh_ligand
  -I-interpret- 

 48 52  0  0  0  0  0  0  0  0999 V2000
  -14.4200   45.0050   86.6820 O   0  0  0  0  0
  -15.1930   44.2400   87.2380 C   0  0  0  0  0
  -16.6080   44.7030   87.4830 C   0  0  0  0  0
  -17.6910   43.9210   87.6340 N   0  0  0  0  0
  -18.8050   44.7350   87.8450 C   0  0  0  0  0
  -20.1790   44.4410   88.0690 C   0  0  0  0  0
  -21.0970   45.4920   88.2510 C   0  0  0  0  0
  -20.6560   46.8310   88.2150 C   0  0  0  0  0
  -19.3100   47.1210   87.9980 C   0  0  0  0  0
  -18.3680   46.0460   87.8130 C   0  0  0  0  0
  -17.0010   46.0080   87.5860 N   0  0  0  0  0
  -14.6970   42.8700   87.6740 C   0  0  0  0  0
  -15.5740   41.9320   88.2670 C   0  0  0  0  0
  -15.1070   40.6800   88.6630 C   0  0  0  0  0
  -13.7710   40.3440   88.4690 C   0  0  0  0  0
  -13.3370   39.1020   88.8920 O   0  0  0  0  0
  -12.9630   38.2090   87.9070 C   0  0  0  0  0
  -13.6950   38.0730   86.7760 N   0  0  0  0  0
  -13.3250   37.1830   85.8270 C   0  0  0  0  0
  -12.1900   36.4020   86.0270 C   0  0  0  0  0
  -11.4570   36.5320   87.1700 N   0  0  0  0  0
  -11.8200   37.4160   88.1220 C   0  0  0  0  0
  -11.0310   37.5650   89.3590 N   0  0  0  0  0
  -10.9010   36.3450   89.9070 C   0  0  0  0  0
  -10.6060   36.4750   91.3780 C   0  0  0  0  0
   -9.6300   37.5340   91.6740 O   0  0  0  0  0
  -10.0310   38.8090   91.0620 C   0  0  0  0  0
  -10.2730   38.6580   89.5840 C   0  0  0  0  0
  -12.8890   41.2720   87.8940 C   0  0  0  0  0
  -13.3630   42.5320   87.4940 C   0  0  0  0  0
  -20.5192   43.4059   88.0995 H   0  0  0  0  0
  -22.1508   45.2707   88.4201 H   0  0  0  0  0
  -21.3702   47.6420   88.3574 H   0  0  0  0  0
  -18.9712   48.1566   87.9683 H   0  0  0  0  0
  -16.6225   42.1902   88.4153 H   0  0  0  0  0
  -15.7879   39.9647   89.1243 H   0  0  0  0  0
  -13.9104   37.0782   84.9136 H   0  0  0  0  0
  -11.8856   35.6830   85.2664 H   0  0  0  0  0
  -10.0809   35.8170   89.4204 H   0  0  0  0  0
  -11.8291   35.7893   89.7734 H   0  0  0  0  0
  -10.1845   35.5291   91.7180 H   0  0  0  0  0
  -11.5376   36.7299   91.8833 H   0  0  0  0  0
   -9.2275   39.5308   91.2088 H   0  0  0  0  0
  -10.9566   39.1419   91.5316 H   0  0  0  0  0
  -10.7907   39.5411   89.2096 H   0  0  0  0  0
   -9.3181   38.5487   89.0699 H   0  0  0  0  0
  -11.8384   41.0153   87.7582 H   0  0  0  0  0
  -12.6791   43.2488   87.0395 H   0  0  0  0  0
  1  2  2  0  0  0
  2  3  1  0  0  0
  2 12  1  0  0  0
  3  4  4  0  0  0
  3 11  4  0  0  0
  4  5  4  0  0  0
  5  6  4  0  0  0
  5 10  4  0  0  0
  6  7  4  0  0  0
  7  8  4  0  0  0
  8  9  4  0  0  0
  9 10  4  0  0  0
 10 11  4  0  0  0
 12 13  4  0  0  0
 12 30  4  0  0  0
 13 14  4  0  0  0
 14 15  4  0  0  0
 15 16  1  0  0  0
 15 29  4  0  0  0
 16 17  1  0  0  0
 17 18  4  0  0  0
 17 22  4  0  0  0
 18 19  4  0  0  0
 19 20  4  0  0  0
 20 21  4  0  0  0
 21 22  4  0  0  0
 22 23  1  0  0  0
 23 24  1  0  0  0
 23 28  1  0  0  0
 24 25  1  0  0  0
 25 26  1  0  0  0
 26 27  1  0  0  0
 27 28  1  0  0  0
 29 30  4  0  0  0
  6 31  1  0  0  0
  7 32  1  0  0  0
  8 33  1  0  0  0
  9 34  1  0  0  0
 13 35  1  0  0  0
 14 36  1  0  0  0
 19 37  1  0  0  0
 20 38  1  0  0  0
 24 39  1  0  0  0
 24 40  1  0  0  0
 25 41  1  0  0  0
 25 42  1  0  0  0
 27 43  1  0  0  0
 27 44  1  0  0  0
 28 45  1  0  0  0
 28 46  1  0  0  0
 29 47  1  0  0  0
 30 48  1  0  0  0
M  END
$$$$
