### 
### Created by X-TOOL on Mon Sep 10 21:13:30 2018
### 

@<TRIPOS>MOLECULE
5m9w_ligand
   52    52     1     0     0
SMALL
GAST_HUCK


@<TRIPOS>ATOM
      1 C2         56.4840   41.7320    3.5150 C.3       1 7GR         0.1120
      2 C9         54.2500   38.7250    4.1620 C.3       1 7GR         0.0946
      3 C10        54.5800   37.7100    5.2140 C.2       1 7GR         0.0601
      4 C14        53.7340   38.1700    2.8480 C.3       1 7GR        -0.0156
      5 C19        55.6040   38.2120    1.1270 C.3       1 7GR        -0.0625
      6 C31        58.2440   40.0770    6.6710 C.3       1 7GR         0.1132
      7 N1         57.5630   41.2150    4.3150 N.am      1 7GR        -0.2767
      8 C5         55.2020   40.9360    3.6060 C.2       1 7GR         0.1963
      9 O6         54.1040   41.4120    3.3610 O.2       1 7GR        -0.3952
     10 N7         55.3520   39.6240    4.0140 N.am      1 7GR        -0.2700
     11 O11        55.7260   37.6700    5.7250 O.co2     1 7GR        -0.5666
     12 O12        53.6470   36.9430    5.5570 O.co2     1 7GR        -0.5666
     13 C17        54.7640   37.3480    2.0720 C.3       1 7GR        -0.0431
     14 C23        54.0440   36.2810    1.2280 C.3       1 7GR        -0.0625
     15 P28        57.7590   41.6420    5.9050 P.3       1 7GR         0.0868
     16 O29        58.8120   42.6700    6.1250 O.co2     1 7GR        -0.6057
     17 O30        56.3890   42.1060    6.4410 O.co2     1 7GR        -0.6057
     18 C39        59.9790   38.7380   10.9340 C.3       1 7GR         0.1113
     19 C42        61.3950   39.1100   11.3880 C.ar      1 7GR        -0.0130
     20 C43        62.4870   38.8520   10.5800 C.ar      1 7GR        -0.0578
     21 C45        63.7680   39.1470   11.0300 C.ar      1 7GR        -0.0685
     22 C47        63.9640   39.7610   12.2560 C.ar      1 7GR        -0.0687
     23 C49        62.8470   40.0150   13.0410 C.ar      1 7GR        -0.0685
     24 C51        61.5740   39.6790   12.6200 C.ar      1 7GR        -0.0578
     25 N34        58.9830   40.3390    7.8960 N.am      1 7GR        -0.2448
     26 C36        58.9270   39.4290    8.9510 C.2       1 7GR         0.3229
     27 O37        58.3890   38.3650    8.9030 O.2       1 7GR        -0.3774
     28 O38        59.5900   39.8390   10.0830 O.3       1 7GR        -0.2506
     29 H1         56.8089   41.7418    2.4641 H         1 7GR         0.0717
     30 H2         56.2743   42.7606    3.8436 H         1 7GR         0.0717
     31 H3         53.4181   39.3198    4.5671 H         1 7GR         0.0726
     32 H4         53.4181   39.0135    2.2166 H         1 7GR         0.0308
     33 H5         52.8675   37.5266    3.0608 H         1 7GR         0.0308
     34 H6         56.3268   37.5765    0.5944 H         1 7GR         0.0232
     35 H7         56.1442   38.9733    1.7089 H         1 7GR         0.0232
     36 H8         54.9445   38.7067    0.3988 H         1 7GR         0.0232
     37 H9         58.8797   39.5106    5.9746 H         1 7GR         0.0743
     38 H10        57.3437   39.4902    6.9056 H         1 7GR         0.0743
     39 H11        58.2137   40.5794    3.8995 H         1 7GR         0.1665
     40 H12        56.2724   39.2885    4.2147 H         1 7GR         0.1875
     41 H13        55.4330   36.8544    2.7923 H         1 7GR         0.0297
     42 H14        53.4321   35.6454    1.8849 H         1 7GR         0.0232
     43 H15        54.7889   35.6608    0.7079 H         1 7GR         0.0232
     44 H16        53.3965   36.7742    0.4881 H         1 7GR         0.0232
     45 H17        59.3013   38.6505   11.7960 H         1 7GR         0.0776
     46 H18        59.9831   37.7917   10.3732 H         1 7GR         0.0776
     47 H19        62.3438   38.4199    9.5962 H         1 7GR         0.0557
     48 H20        64.6237   38.8938   10.4146 H         1 7GR         0.0599
     49 H21        64.9576   40.0345   12.5920 H         1 7GR         0.0559
     50 H22        62.9765   40.4883   14.0076 H         1 7GR         0.0599
     51 H23        60.7212   39.8653   13.2627 H         1 7GR         0.0557
     52 H24        59.5309   41.1712    7.9816 H         1 7GR         0.1884
@<TRIPOS>BOND
     1    7    1 1  
     2    1    8 1  
     3    2    3 1  
     4    2    4 1  
     5   10    2 1  
     6    3   11 ar 
     7    3   12 ar 
     8    4   13 1  
     9   13    5 1  
    10    6   15 1  
    11   25    6 1  
    12   15    7 am 
    13    8    9 2  
    14    8   10 am 
    15   13   14 1  
    16   15   16 ar 
    17   15   17 ar 
    18   18   19 1  
    19   28   18 1  
    20   19   20 ar 
    21   19   24 ar 
    22   20   21 ar 
    23   21   22 ar 
    24   23   22 ar 
    25   24   23 ar 
    26   26   25 am 
    27   26   27 2  
    28   26   28 1  
    29    1   29 1  
    30    1   30 1  
    31    2   31 1  
    32    4   32 1  
    33    4   33 1  
    34    5   34 1  
    35    5   35 1  
    36    5   36 1  
    37    6   37 1  
    38    6   38 1  
    39    7   39 1  
    40   10   40 1  
    41   13   41 1  
    42   14   42 1  
    43   14   43 1  
    44   14   44 1  
    45   18   45 1  
    46   18   46 1  
    47   20   47 1  
    48   21   48 1  
    49   22   49 1  
    50   23   50 1  
    51   24   51 1  
    52   25   52 1  
@<TRIPOS>SUBSTRUCTURE
     1 7GR         1

