5m9w_ligand
  -I-interpret- 

 54 54  0  0  0  0  0  0  0  0999 V2000
   56.4840   41.7320    3.5150 C   0  0  0  0  0
   54.2500   38.7250    4.1620 C   0  0  0  0  0
   54.5800   37.7100    5.2140 C   0  0  0  0  0
   53.7340   38.1700    2.8480 C   0  0  0  0  0
   55.6040   38.2120    1.1270 C   0  0  0  0  0
   58.2440   40.0770    6.6710 C   0  0  0  0  0
   57.5630   41.2150    4.3150 N   0  0  0  0  0
   55.2020   40.9360    3.6060 C   0  0  0  0  0
   54.1040   41.4120    3.3610 O   0  0  0  0  0
   55.3520   39.6240    4.0140 N   0  0  0  0  0
   55.7260   37.6700    5.7250 O   0  0  0  0  0
   53.6470   36.9430    5.5570 O   0  0  0  0  0
   54.7640   37.3480    2.0720 C   0  0  0  0  0
   54.0440   36.2810    1.2280 C   0  0  0  0  0
   57.7590   41.6420    5.9050 P   0  0  0  0  0
   58.8120   42.6700    6.1250 O   0  0  0  0  0
   56.3890   42.1060    6.4410 O   0  0  0  0  0
   59.9790   38.7380   10.9340 C   0  0  0  0  0
   61.3950   39.1100   11.3880 C   0  0  0  0  0
   62.4870   38.8520   10.5800 C   0  0  0  0  0
   63.7680   39.1470   11.0300 C   0  0  0  0  0
   63.9640   39.7610   12.2560 C   0  0  0  0  0
   62.8470   40.0150   13.0410 C   0  0  0  0  0
   61.5740   39.6790   12.6200 C   0  0  0  0  0
   58.9830   40.3390    7.8960 N   0  0  0  0  0
   58.9270   39.4290    8.9510 C   0  0  0  0  0
   58.3890   38.3650    8.9030 O   0  0  0  0  0
   59.5900   39.8390   10.0830 O   0  0  0  0  0
   56.8103   41.6951    2.4756 H   0  0  0  0  0
   56.2649   42.7344    3.8829 H   0  0  0  0  0
   53.3815   39.2782    4.5194 H   0  0  0  0  0
   53.4618   39.0203    2.2227 H   0  0  0  0  0
   52.9013   37.5067    3.0821 H   0  0  0  0  0
   56.3316   37.5840    0.6129 H   0  0  0  0  0
   54.9513   38.6878    0.3951 H   0  0  0  0  0
   56.1249   38.9770    1.7028 H   0  0  0  0  0
   58.8754   39.5173    5.9809 H   0  0  0  0  0
   57.3511   39.4971    6.9047 H   0  0  0  0  0
   58.2267   40.5667    3.8912 H   0  0  0  0  0
   56.2908   39.2818    4.2187 H   0  0  0  0  0
   52.8626   37.1448    5.0417 H   0  0  0  0  0
   55.4265   36.8915    2.8074 H   0  0  0  0  0
   53.4028   36.7710    0.4953 H   0  0  0  0  0
   54.7831   35.6672    0.7131 H   0  0  0  0  0
   53.4380   35.6519    1.8800 H   0  0  0  0  0
   55.7358   41.4205    6.2827 H   0  0  0  0  0
   59.2967   38.6005   11.7729 H   0  0  0  0  0
   59.9478   37.7804   10.4143 H   0  0  0  0  0
   62.3430   38.4175    9.5908 H   0  0  0  0  0
   64.6284   38.8924   10.4112 H   0  0  0  0  0
   64.9631   40.0360   12.5939 H   0  0  0  0  0
   62.9773   40.4910   14.0129 H   0  0  0  0  0
   60.7165   39.8663   13.2662 H   0  0  0  0  0
   59.5418   41.1878    7.9833 H   0  0  0  0  0
  7  1  1  0  0  0
  1  8  1  0  0  0
  2  3  1  0  0  0
  2  4  1  0  0  0
 10  2  1  0  0  0
  3 11  2  0  0  0
  3 12  1  0  0  0
  4 13  1  0  0  0
 13  5  1  0  0  0
  6 15  1  0  0  0
 25  6  1  0  0  0
 15  7  1  0  0  0
  8  9  2  0  0  0
  8 10  1  0  0  0
 13 14  1  0  0  0
 15 16  2  0  0  0
 15 17  1  0  0  0
 18 19  1  0  0  0
 28 18  1  0  0  0
 19 20  4  0  0  0
 19 24  4  0  0  0
 20 21  4  0  0  0
 21 22  4  0  0  0
 23 22  4  0  0  0
 24 23  4  0  0  0
 26 25  1  0  0  0
 26 27  2  0  0  0
 26 28  1  0  0  0
  1 29  1  0  0  0
  1 30  1  0  0  0
  2 31  1  0  0  0
  4 32  1  0  0  0
  4 33  1  0  0  0
  5 34  1  0  0  0
  5 35  1  0  0  0
  5 36  1  0  0  0
  6 37  1  0  0  0
  6 38  1  0  0  0
  7 39  1  0  0  0
 10 40  1  0  0  0
 12 41  1  0  0  0
 13 42  1  0  0  0
 14 43  1  0  0  0
 14 44  1  0  0  0
 14 45  1  0  0  0
 17 46  1  0  0  0
 18 47  1  0  0  0
 18 48  1  0  0  0
 20 49  1  0  0  0
 21 50  1  0  0  0
 22 51  1  0  0  0
 23 52  1  0  0  0
 24 53  1  0  0  0
 25 54  1  0  0  0
M  END
$$$$
