4qw5_ligand
  -I-interpret- 

114116  0  0  0  0  0  0  0  0999 V2000
   58.8590 -135.3360   31.5730 C   0  0  0  0  0
   59.4700 -134.3520   31.1540 O   0  0  0  0  0
   58.5540 -136.5580   30.6950 C   0  0  0  0  0
   58.0650 -136.2170   29.3410 N   0  3  0  0  0
   57.5810 -134.5690   27.2600 O   0  0  0  0  0
   59.1550 -135.7150   28.4600 C   0  0  0  0  0
   56.8920 -135.3020   29.3720 C   0  0  0  0  0
   58.5920 -135.5590   27.0930 C   0  0  0  0  0
   56.4470 -135.0980   28.0050 C   0  0  0  0  0
   58.4030 -135.4560   32.8180 N   0  0  0  0  0
   58.6290 -134.4340   33.8300 C   0  0  0  0  0
   59.8290 -134.9030   34.6240 C   0  0  0  0  0
   60.0660 -136.1060   34.7320 O   0  0  0  0  0
   57.4560 -134.4140   34.7690 C   0  0  0  0  0
   56.6570 -133.1730   34.4270 C   0  0  0  0  0
   55.4000 -133.2350   35.0820 C   0  0  0  0  0
   55.2640 -133.6900   36.4020 C   0  0  0  0  0
   54.2520 -132.8070   34.4100 C   0  0  0  0  0
   54.0200 -133.7330   37.0230 C   0  0  0  0  0
   53.0070 -132.8470   35.0310 C   0  0  0  0  0
   52.8880 -133.3110   36.3380 C   0  0  0  0  0
   60.5510 -133.9480   35.2070 N   0  0  0  0  0
   61.6840 -134.3270   36.0440 C   0  0  0  0  0
   61.1490 -134.4910   37.4560 C   0  0  0  0  0
   60.4450 -133.6160   37.9590 O   0  0  0  0  0
   62.7390 -133.2580   36.0720 C   0  0  0  0  0
   63.3240 -133.1590   34.6550 C   0  0  0  0  0
   64.3140 -131.9850   34.6060 C   0  0  0  0  0
   64.0460 -134.4590   34.2520 C   0  0  0  0  0
   61.4840 -135.6440   38.0490 N   0  0  0  0  0
   61.0940 -135.9360   39.4290 C   0  0  0  0  0
   62.3720 -135.8970   40.2460 C   0  0  0  0  0
   63.4690 -135.8130   39.6920 O   0  0  0  0  0
   60.4300 -137.2700   39.5530 C   0  0  0  0  0
   59.1440 -137.0560   39.0670 C   0  0  0  0  0
   58.1610 -136.5230   39.9000 C   0  0  0  0  0
   58.8390 -137.3640   37.7440 C   0  0  0  0  0
   56.8780 -136.3050   39.4090 C   0  0  0  0  0
   57.5550 -137.1490   37.2550 C   0  0  0  0  0
   56.5740 -136.6190   38.0870 C   0  0  0  0  0
   62.1870 -135.9520   41.5690 N   0  0  0  0  0
   63.2920 -135.7650   42.4970 C   0  0  0  0  0
   63.0040 -134.3610   42.9990 C   0  0  0  0  0
   64.1320 -133.3710   42.6400 C   0  0  0  0  0
   63.6580 -131.9630   43.0340 C   0  0  0  0  0
   64.4790 -133.3730   41.1430 C   0  0  0  0  0
   63.2670 -136.7260   43.7060 C   0  0  0  0  0
   63.8050 -138.2020   43.4720 C   0  0  0  0  0
   65.0980 -138.1670   42.6170 C   0  0  0  0  0
   62.7510 -139.0730   42.7690 C   0  0  0  0  0
   62.2590 -138.5060   41.5800 O   0  0  0  0  0
   61.9340 -136.7800   44.2110 O   0  0  0  0  0
   57.7659 -137.1246   31.1909 H   0  0  0  0  0
   59.4859 -137.1102   30.5733 H   0  0  0  0  0
   57.7339 -137.0878   28.9256 H   0  0  0  0  0
   59.9892 -136.4164   28.4499 H   0  0  0  0  0
   59.5316 -134.7604   28.8274 H   0  0  0  0  0
   57.1686 -134.3497   29.8244 H   0  0  0  0  0
   56.0902 -135.7372   29.9685 H   0  0  0  0  0
   59.3457 -135.2669   26.3618 H   0  0  0  0  0
   58.1989 -136.4941   26.6941 H   0  0  0  0  0
   56.1034 -136.0357   27.5682 H   0  0  0  0  0
   55.6078 -134.4031   27.9732 H   0  0  0  0  0
   57.8773 -136.2925   33.0715 H   0  0  0  0  0
   58.7698 -133.4502   33.3823 H   0  0  0  0  0
   57.7861 -134.3933   35.8076 H   0  0  0  0  0
   56.8498 -135.3130   34.6576 H   0  0  0  0  0
   56.5064 -133.1195   33.3488 H   0  0  0  0  0
   57.1985 -132.2861   34.7560 H   0  0  0  0  0
   56.1481 -134.0154   36.9503 H   0  0  0  0  0
   54.3324 -132.4376   33.3877 H   0  0  0  0  0
   53.9337 -134.0977   38.0466 H   0  0  0  0  0
   52.1208 -132.5133   34.4912 H   0  0  0  0  0
   51.9115 -133.3430   36.8213 H   0  0  0  0  0
   60.3151 -132.9651   35.0702 H   0  0  0  0  0
   62.1340 -135.2378   35.6490 H   0  0  0  0  0
   63.5183 -133.5069   36.7922 H   0  0  0  0  0
   62.3101 -132.3036   36.3775 H   0  0  0  0  0
   62.5063 -132.9980   33.9525 H   0  0  0  0  0
   63.7924 -131.0609   34.8553 H   0  0  0  0  0
   65.1152 -132.1568   35.3248 H   0  0  0  0  0
   64.7342 -131.9074   33.6033 H   0  0  0  0  0
   64.8605 -134.6521   34.9501 H   0  0  0  0  0
   63.3393 -135.2885   34.2777 H   0  0  0  0  0
   64.4472 -134.3528   33.2441 H   0  0  0  0  0
   62.0234 -136.3346   37.5269 H   0  0  0  0  0
   60.3658 -135.2054   39.7813 H   0  0  0  0  0
   60.4267 -137.6346   40.5802 H   0  0  0  0  0
   60.9567 -138.0455   38.9969 H   0  0  0  0  0
   58.3978 -136.2774   40.9352 H   0  0  0  0  0
   59.6083 -137.7746   37.0900 H   0  0  0  0  0
   56.1096 -135.8879   40.0599 H   0  0  0  0  0
   57.3173 -137.3956   36.2202 H   0  0  0  0  0
   55.5676 -136.4496   37.7040 H   0  0  0  0  0
   61.2517 -136.1288   41.9355 H   0  0  0  0  0
   64.2573 -135.9389   42.0215 H   0  0  0  0  0
   62.9196 -134.3997   44.0850 H   0  0  0  0  0
   62.0850 -134.0138   42.5269 H   0  0  0  0  0
   65.0315 -133.6731   43.1764 H   0  0  0  0  0
   62.7490 -131.7198   42.4838 H   0  0  0  0  0
   63.4545 -131.9358   44.1045 H   0  0  0  0  0
   64.4355 -131.2384   42.7922 H   0  0  0  0  0
   64.8067 -134.3700   40.8486 H   0  0  0  0  0
   63.5970 -133.0940   40.5665 H   0  0  0  0  0
   65.2786 -132.6563   40.9557 H   0  0  0  0  0
   63.9792 -136.3021   44.4139 H   0  0  0  0  0
   64.0205 -138.6383   44.4473 H   0  0  0  0  0
   64.8821 -137.7067   41.6528 H   0  0  0  0  0
   65.8598 -137.5855   43.1363 H   0  0  0  0  0
   65.4578 -139.1843   42.4630 H   0  0  0  0  0
   61.9090 -139.1846   43.4522 H   0  0  0  0  0
   63.2271 -140.0184   42.5091 H   0  0  0  0  0
   61.6082 -139.0951   41.1913 H   0  0  0  0  0
   61.9022 -137.3744   44.9642 H   0  0  0  0  0
  1  2  2  0  0  0
  3  1  1  0  0  0
  1 10  1  0  0  0
  4  3  1  0  0  0
  6  4  1  0  0  0
  4  7  1  0  0  0
  8  5  1  0  0  0
  5  9  1  0  0  0
  6  8  1  0  0  0
  7  9  1  0  0  0
 10 11  1  0  0  0
 11 12  1  0  0  0
 11 14  1  0  0  0
 12 13  2  0  0  0
 12 22  1  0  0  0
 14 15  1  0  0  0
 15 16  1  0  0  0
 16 17  4  0  0  0
 16 18  4  0  0  0
 17 19  4  0  0  0
 18 20  4  0  0  0
 19 21  4  0  0  0
 20 21  4  0  0  0
 22 23  1  0  0  0
 23 24  1  0  0  0
 23 26  1  0  0  0
 24 25  2  0  0  0
 24 30  1  0  0  0
 26 27  1  0  0  0
 27 28  1  0  0  0
 27 29  1  0  0  0
 30 31  1  0  0  0
 31 32  1  0  0  0
 31 34  1  0  0  0
 32 33  2  0  0  0
 32 41  1  0  0  0
 34 35  1  0  0  0
 35 36  4  0  0  0
 35 37  4  0  0  0
 36 38  4  0  0  0
 37 39  4  0  0  0
 38 40  4  0  0  0
 39 40  4  0  0  0
 41 42  1  0  0  0
 42 43  1  0  0  0
 42 47  1  0  0  0
 43 44  1  0  0  0
 44 45  1  0  0  0
 44 46  1  0  0  0
 47 48  1  0  0  0
 47 52  1  0  0  0
 48 49  1  0  0  0
 48 50  1  0  0  0
 50 51  1  0  0  0
  3 53  1  0  0  0
  3 54  1  0  0  0
  4 55  1  0  0  0
  6 56  1  0  0  0
  6 57  1  0  0  0
  7 58  1  0  0  0
  7 59  1  0  0  0
  8 60  1  0  0  0
  8 61  1  0  0  0
  9 62  1  0  0  0
  9 63  1  0  0  0
 10 64  1  0  0  0
 11 65  1  0  0  0
 14 66  1  0  0  0
 14 67  1  0  0  0
 15 68  1  0  0  0
 15 69  1  0  0  0
 17 70  1  0  0  0
 18 71  1  0  0  0
 19 72  1  0  0  0
 20 73  1  0  0  0
 21 74  1  0  0  0
 22 75  1  0  0  0
 23 76  1  0  0  0
 26 77  1  0  0  0
 26 78  1  0  0  0
 27 79  1  0  0  0
 28 80  1  0  0  0
 28 81  1  0  0  0
 28 82  1  0  0  0
 29 83  1  0  0  0
 29 84  1  0  0  0
 29 85  1  0  0  0
 30 86  1  0  0  0
 31 87  1  0  0  0
 34 88  1  0  0  0
 34 89  1  0  0  0
 36 90  1  0  0  0
 37 91  1  0  0  0
 38 92  1  0  0  0
 39 93  1  0  0  0
 40 94  1  0  0  0
 41 95  1  0  0  0
 42 96  1  0  0  0
 43 97  1  0  0  0
 43 98  1  0  0  0
 44 99  1  0  0  0
 45100  1  0  0  0
 45101  1  0  0  0
 45102  1  0  0  0
 46103  1  0  0  0
 46104  1  0  0  0
 46105  1  0  0  0
 47106  1  0  0  0
 48107  1  0  0  0
 49108  1  0  0  0
 49109  1  0  0  0
 49110  1  0  0  0
 50111  1  0  0  0
 50112  1  0  0  0
 51113  1  0  0  0
 52114  1  0  0  0
M  END
$$$$
