### 
### Created by X-TOOL on Mon Sep 10 21:13:22 2018
### 

@<TRIPOS>MOLECULE
4qw5_ligand
  114   116     1     0     0
SMALL
GAST_HUCK


@<TRIPOS>ATOM
      1 C8         58.8590 -135.3360   31.5730 C.2       1 3BV         0.2238
      2 O9         59.4700 -134.3520   31.1540 O.2       1 3BV        -0.3910
      3 C7         58.5540 -136.5580   30.6950 C.3       1 3BV         0.0582
      4 N4         58.0650 -136.2170   29.3410 N.4       1 3BV         0.2552
      5 O1         57.5810 -134.5690   27.2600 O.3       1 3BV        -0.3693
      6 C5         59.1550 -135.7150   28.4600 C.3       1 3BV        -0.0060
      7 C3         56.8920 -135.3020   29.3720 C.3       1 3BV        -0.0060
      8 C6         58.5920 -135.5590   27.0930 C.3       1 3BV         0.0878
      9 C2         56.4470 -135.0980   28.0050 C.3       1 3BV         0.0878
     10 N10        58.4030 -135.4560   32.8180 N.am      1 3BV        -0.2611
     11 C11        58.6290 -134.4340   33.8300 C.3       1 3BV         0.1328
     12 C20        59.8290 -134.9030   34.6240 C.2       1 3BV         0.2041
     13 O21        60.0660 -136.1060   34.7320 O.2       1 3BV        -0.3944
     14 C12        57.4560 -134.4140   34.7690 C.3       1 3BV        -0.0027
     15 C13        56.6570 -133.1730   34.4270 C.3       1 3BV        -0.0149
     16 C14        55.4000 -133.2350   35.0820 C.ar      1 3BV        -0.0428
     17 C19        55.2640 -133.6900   36.4020 C.ar      1 3BV        -0.0603
     18 C15        54.2520 -132.8070   34.4100 C.ar      1 3BV        -0.0603
     19 C18        54.0200 -133.7330   37.0230 C.ar      1 3BV        -0.0686
     20 C16        53.0070 -132.8470   35.0310 C.ar      1 3BV        -0.0686
     21 C17        52.8880 -133.3110   36.3380 C.ar      1 3BV        -0.0687
     22 N22        60.5510 -133.9480   35.2070 N.am      1 3BV        -0.2637
     23 C23        61.6840 -134.3270   36.0440 C.3       1 3BV         0.1312
     24 C28        61.1490 -134.4910   37.4560 C.2       1 3BV         0.2040
     25 O29        60.4450 -133.6160   37.9590 O.2       1 3BV        -0.3944
     26 C24        62.7390 -133.2580   36.0720 C.3       1 3BV        -0.0101
     27 C25        63.3240 -133.1590   34.6550 C.3       1 3BV        -0.0425
     28 C26        64.3140 -131.9850   34.6060 C.3       1 3BV        -0.0625
     29 C27        64.0460 -134.4590   34.2520 C.3       1 3BV        -0.0625
     30 N30        61.4840 -135.6440   38.0490 N.am      1 3BV        -0.2619
     31 C31        61.0940 -135.9360   39.4290 C.3       1 3BV         0.1403
     32 C39        62.3720 -135.8970   40.2460 C.2       1 3BV         0.2040
     33 O40        63.4690 -135.8130   39.6920 O.2       1 3BV        -0.3943
     34 C32        60.4300 -137.2700   39.5530 C.3       1 3BV         0.0214
     35 C33        59.1440 -137.0560   39.0670 C.ar      1 3BV        -0.0386
     36 C34        58.1610 -136.5230   39.9000 C.ar      1 3BV        -0.0601
     37 C38        58.8390 -137.3640   37.7440 C.ar      1 3BV        -0.0601
     38 C35        56.8780 -136.3050   39.4090 C.ar      1 3BV        -0.0686
     39 C37        57.5550 -137.1490   37.2550 C.ar      1 3BV        -0.0686
     40 C36        56.5740 -136.6190   38.0870 C.ar      1 3BV        -0.0687
     41 N41        62.1870 -135.9520   41.5690 N.am      1 3BV        -0.2794
     42 C42        63.2920 -135.7650   42.4970 C.3       1 3BV         0.0685
     43 C43        63.0040 -134.3610   42.9990 C.3       1 3BV        -0.0251
     44 C44        64.1320 -133.3710   42.6400 C.3       1 3BV        -0.0446
     45 C45        63.6580 -131.9630   43.0340 C.3       1 3BV        -0.0626
     46 C46        64.4790 -133.3730   41.1430 C.3       1 3BV        -0.0626
     47 C47        63.2670 -136.7260   43.7060 C.3       1 3BV         0.0827
     48 C51        63.8050 -138.2020   43.4720 C.3       1 3BV         0.0075
     49 C58        65.0980 -138.1670   42.6170 C.3       1 3BV        -0.0579
     50 C59        62.7510 -139.0730   42.7690 C.3       1 3BV         0.0492
     51 O60        62.2590 -138.5060   41.5800 O.3       1 3BV        -0.3947
     52 O48        61.9340 -136.7800   44.2110 O.3       1 3BV        -0.3892
     53 H1         57.7855 -137.1629   31.1984 H         1 3BV         0.1063
     54 H2         59.4761 -137.1488   30.5914 H         1 3BV         0.1063
     55 H3         57.7413 -137.0787   28.9302 H         1 3BV         0.2054
     56 H4         59.9859 -136.4357   28.4434 H         1 3BV         0.0837
     57 H5         59.5186 -134.7446   28.8289 H         1 3BV         0.0837
     58 H6         57.1812 -134.3391   29.8182 H         1 3BV         0.0837
     59 H7         56.0824 -135.7526   29.9649 H         1 3BV         0.0837
     60 H8         59.3633 -135.2179   26.3868 H         1 3BV         0.0613
     61 H9         58.1602 -136.5054   26.7354 H         1 3BV         0.0613
     62 H10        56.1209 -136.0533   27.5679 H         1 3BV         0.0613
     63 H11        55.6132 -134.3809   27.9827 H         1 3BV         0.0613
     64 H12        57.8876 -136.2761   33.0666 H         1 3BV         0.1884
     65 H13        58.7959 -133.4454   33.3775 H         1 3BV         0.0801
     66 H14        57.8037 -134.3675   35.8116 H         1 3BV         0.0334
     67 H15        56.8399 -135.3142   34.6277 H         1 3BV         0.0334
     68 H16        56.5032 -133.1221   33.3390 H         1 3BV         0.0428
     69 H17        57.2033 -132.2791   34.7623 H         1 3BV         0.0428
     70 H18        56.1432 -134.0136   36.9473 H         1 3BV         0.0557
     71 H19        54.3320 -132.4396   33.3933 H         1 3BV         0.0557
     72 H20        53.9342 -134.0957   38.0409 H         1 3BV         0.0599
     73 H21        52.1257 -132.5152   34.4942 H         1 3BV         0.0599
     74 H22        51.9169 -133.3428   36.8186 H         1 3BV         0.0559
     75 H23        60.3197 -132.9844   35.0729 H         1 3BV         0.1883
     76 H24        62.1201 -135.2693   35.6808 H         1 3BV         0.0800
     77 H25        63.5295 -133.5274   36.7879 H         1 3BV         0.0315
     78 H26        62.2927 -132.2958   36.3634 H         1 3BV         0.0315
     79 H27        62.5055 -132.9737   33.9438 H         1 3BV         0.0298
     80 H28        64.7388 -131.9056   33.5945 H         1 3BV         0.0232
     81 H29        65.1231 -132.1572   35.3310 H         1 3BV         0.0232
     82 H30        63.7888 -131.0517   34.8574 H         1 3BV         0.0232
     83 H31        63.3363 -135.2987   34.2875 H         1 3BV         0.0232
     84 H32        64.8747 -134.6497   34.9498 H         1 3BV         0.0232
     85 H33        64.4424 -134.3569   33.2310 H         1 3BV         0.0232
     86 H34        62.0128 -136.3210   37.5371 H         1 3BV         0.1885
     87 H35        60.3988 -135.1622   39.7866 H         1 3BV         0.0823
     88 H36        60.4012 -137.5956   40.6033 H         1 3BV         0.0474
     89 H37        60.9548 -138.0250   38.9492 H         1 3BV         0.0474
     90 H38        58.3965 -136.2787   40.9295 H         1 3BV         0.0557
     91 H39        59.6041 -137.7723   37.0936 H         1 3BV         0.0557
     92 H40        56.1139 -135.8901   40.0563 H         1 3BV         0.0599
     93 H41        57.3186 -137.3943   36.2259 H         1 3BV         0.0599
     94 H42        55.5732 -136.4505   37.7061 H         1 3BV         0.0559
     95 H43        61.2700 -136.1253   41.9283 H         1 3BV         0.1856
     96 H44        64.2617 -135.8377   41.9829 H         1 3BV         0.0582
     97 H45        62.8943 -134.3915   44.0931 H         1 3BV         0.0291
     98 H46        62.0657 -134.0083   42.5461 H         1 3BV         0.0291
     99 H47        65.0339 -133.6345   43.2120 H         1 3BV         0.0296
    100 H48        64.4419 -131.2307   42.7904 H         1 3BV         0.0232
    101 H49        63.4523 -131.9342   44.1142 H         1 3BV         0.0232
    102 H50        62.7407 -131.7163   42.4793 H         1 3BV         0.0232
    103 H51        64.8202 -134.3760   40.8471 H         1 3BV         0.0232
    104 H52        65.2785 -132.6423   40.9509 H         1 3BV         0.0232
    105 H53        63.5868 -133.1022   40.5594 H         1 3BV         0.0232
    106 H54        63.9098 -136.2785   44.4784 H         1 3BV         0.0620
    107 H55        64.0363 -138.6494   44.4499 H         1 3BV         0.0346
    108 H56        65.4622 -139.1932   42.4608 H         1 3BV         0.0234
    109 H57        65.8677 -137.5804   43.1400 H         1 3BV         0.0234
    110 H58        64.8815 -137.7027   41.6436 H         1 3BV         0.0234
    111 H59        61.9072 -139.2234   43.4584 H         1 3BV         0.0560
    112 H60        63.2062 -140.0452   42.5290 H         1 3BV         0.0560
    113 H61        62.9765 -138.3787   40.9706 H         1 3BV         0.2094
    114 H62        61.9274 -137.2542   45.0342 H         1 3BV         0.2099
@<TRIPOS>BOND
     1    1    2 2  
     2    3    1 1  
     3    1   10 am 
     4    4    3 1  
     5    6    4 1  
     6    4    7 1  
     7    8    5 1  
     8    5    9 1  
     9    6    8 1  
    10    7    9 1  
    11   10   11 1  
    12   11   12 1  
    13   11   14 1  
    14   12   13 2  
    15   12   22 am 
    16   14   15 1  
    17   15   16 1  
    18   16   17 ar 
    19   16   18 ar 
    20   17   19 ar 
    21   18   20 ar 
    22   19   21 ar 
    23   20   21 ar 
    24   22   23 1  
    25   23   24 1  
    26   23   26 1  
    27   24   25 2  
    28   24   30 am 
    29   26   27 1  
    30   27   28 1  
    31   27   29 1  
    32   30   31 1  
    33   31   32 1  
    34   31   34 1  
    35   32   33 2  
    36   32   41 am 
    37   34   35 1  
    38   35   36 ar 
    39   35   37 ar 
    40   36   38 ar 
    41   37   39 ar 
    42   38   40 ar 
    43   39   40 ar 
    44   41   42 1  
    45   42   43 1  
    46   42   47 1  
    47   43   44 1  
    48   44   45 1  
    49   44   46 1  
    50   47   48 1  
    51   47   52 1  
    52   48   49 1  
    53   48   50 1  
    54   50   51 1  
    55    3   53 1  
    56    3   54 1  
    57    4   55 1  
    58    6   56 1  
    59    6   57 1  
    60    7   58 1  
    61    7   59 1  
    62    8   60 1  
    63    8   61 1  
    64    9   62 1  
    65    9   63 1  
    66   10   64 1  
    67   11   65 1  
    68   14   66 1  
    69   14   67 1  
    70   15   68 1  
    71   15   69 1  
    72   17   70 1  
    73   18   71 1  
    74   19   72 1  
    75   20   73 1  
    76   21   74 1  
    77   22   75 1  
    78   23   76 1  
    79   26   77 1  
    80   26   78 1  
    81   27   79 1  
    82   28   80 1  
    83   28   81 1  
    84   28   82 1  
    85   29   83 1  
    86   29   84 1  
    87   29   85 1  
    88   30   86 1  
    89   31   87 1  
    90   34   88 1  
    91   34   89 1  
    92   36   90 1  
    93   37   91 1  
    94   38   92 1  
    95   39   93 1  
    96   40   94 1  
    97   41   95 1  
    98   42   96 1  
    99   43   97 1  
   100   43   98 1  
   101   44   99 1  
   102   45  100 1  
   103   45  101 1  
   104   45  102 1  
   105   46  103 1  
   106   46  104 1  
   107   46  105 1  
   108   47  106 1  
   109   48  107 1  
   110   49  108 1  
   111   49  109 1  
   112   49  110 1  
   113   50  111 1  
   114   50  112 1  
   115   51  113 1  
   116   52  114 1  
@<TRIPOS>SUBSTRUCTURE
     1 3BV         1

