### 
### Created by X-TOOL on Mon Sep 10 21:12:46 2018
### 

@<TRIPOS>MOLECULE
1jmi_ligand
   31    32     1     0     0
SMALL
GAST_HUCK


@<TRIPOS>ATOM
      1 N1         14.8600   48.3380  -53.4820 N.am      1 UMP        -0.1618
      2 C2         14.0410   47.2650  -53.1280 C.2       1 UMP         0.3327
      3 N3         13.1860   47.4460  -52.0390 N.am      1 UMP        -0.1865
      4 C4         13.0820   48.6310  -51.2710 C.2       1 UMP         0.1822
      5 C5         13.9870   49.7100  -51.7270 C.2       1 UMP         0.0062
      6 C6         14.8520   49.5050  -52.8300 C.2       1 UMP         0.0590
      7 O2         14.0330   46.1960  -53.7230 O.2       1 UMP        -0.3815
      8 O4         12.2980   48.6870  -50.3110 O.2       1 UMP        -0.4124
      9 C1         15.7730   48.1980  -54.6410 C.3       1 UMP         0.1800
     10 C2         15.0830   47.9110  -55.9750 C.3       1 UMP         0.0316
     11 C3         16.2260   48.0430  -56.9720 C.3       1 UMP         0.0890
     12 C4         16.9760   49.3170  -56.5820 C.3       1 UMP         0.1156
     13 O3         17.1100   46.9480  -56.7710 O.3       1 UMP        -0.3890
     14 O4         16.7550   49.2890  -55.0750 O.3       1 UMP        -0.3387
     15 C5         16.3040   50.5400  -57.2200 C.3       1 UMP         0.1071
     16 O5         16.6210   50.4450  -58.6500 O.3       1 UMP        -0.2734
     17 P          15.8220   51.0300  -59.8540 P.3       1 UMP         0.2008
     18 O1P        16.6910   51.4420  -60.9390 O.co2     1 UMP        -0.5537
     19 O2P        15.0160   49.9170  -60.3630 O.co2     1 UMP        -0.5537
     20 O3P        15.0070   52.2210  -59.4490 O.co2     1 UMP        -0.5537
     21 H1         12.6005   46.6775  -51.7809 H         1 UMP         0.2259
     22 H2         13.9878   50.6688  -51.2106 H         1 UMP         0.0258
     23 H3         15.5169   50.3059  -53.1499 H         1 UMP         0.1178
     24 H4         16.3847   47.3216  -54.3807 H         1 UMP         0.0970
     25 H5         14.2906   48.6462  -56.1790 H         1 UMP         0.0345
     26 H6         14.6560   46.8974  -55.9918 H         1 UMP         0.0345
     27 H7         15.8618   48.0821  -58.0092 H         1 UMP         0.0622
     28 H8         18.0420   49.2816  -56.8511 H         1 UMP         0.0649
     29 H9         16.6696   46.1397  -57.0060 H         1 UMP         0.2099
     30 H10        16.7100   51.4698  -56.7950 H         1 UMP         0.0639
     31 H11        15.2158   50.5093  -57.0624 H         1 UMP         0.0639
@<TRIPOS>BOND
     1    1    2 am 
     2    1    6 1  
     3    1    9 1  
     4    2    3 am 
     5    2    7 2  
     6    3    4 am 
     7    4    5 1  
     8    4    8 2  
     9    5    6 2  
    10    9   10 1  
    11    9   14 1  
    12   10   11 1  
    13   11   12 1  
    14   11   13 1  
    15   12   14 1  
    16   12   15 1  
    17   15   16 1  
    18   16   17 1  
    19   17   18 ar 
    20   17   19 ar 
    21   17   20 ar 
    22    3   21 1  
    23    5   22 1  
    24    6   23 1  
    25    9   24 1  
    26   10   25 1  
    27   10   26 1  
    28   11   27 1  
    29   12   28 1  
    30   13   29 1  
    31   15   30 1  
    32   15   31 1  
@<TRIPOS>SUBSTRUCTURE
     1 UMP         1

