5ah2_ligand
  -I-interpret- 

176180  0  0  0  0  0  0  0  0999 V2000
   -9.9350   19.9930  -29.2280 C   0  0  0  0  0
   -9.5850   19.0760  -29.9350 O   0  0  0  0  0
   -9.0610   20.4810  -28.1010 C   0  0  0  0  0
  -11.1920   20.5530  -29.4340 N   0  0  0  0  0
  -11.1830   21.9990  -29.1290 C   0  0  0  0  0
  -11.7580   20.1920  -30.7720 C   0  0  0  0  0
  -12.9300   19.1960  -30.5690 C   0  0  0  0  0
  -13.1460   18.8560  -29.0900 C   0  0  0  0  0
  -14.2670   19.4930  -31.2280 C   0  0  0  0  0
  -11.9840   21.4150  -31.6440 C   0  0  0  0  0
  -13.0440   22.0300  -31.6310 O   0  0  0  0  0
  -12.2530   22.4890  -34.4530 C   0  0  0  0  0
  -10.8910   21.8840  -32.3630 N   0  0  0  0  0
  -12.6140   21.3310  -34.6600 O   0  0  0  0  0
  -11.1030   22.7970  -33.5200 C   0  0  0  0  0
   -9.7770   22.7030  -34.2810 C   0  0  0  0  0
   -9.8690   20.8550  -32.7130 C   0  0  0  0  0
   -7.7100   21.2730  -34.0380 C   0  0  0  0  0
   -9.2390   21.3000  -34.0410 C   0  0  0  0  0
  -12.9370   23.5670  -35.0290 N   0  0  0  0  0
  -11.7930   23.8460  -37.6430 O   0  0  0  0  0
  -14.6070   25.4230  -36.6470 O   0  0  0  0  0
  -12.8810   23.2960  -37.5740 C   0  0  0  0  0
  -13.6720   23.2160  -36.2920 C   0  0  0  0  0
  -14.9500   24.0660  -36.4190 C   0  0  0  0  0
  -15.7430   24.0370  -35.1220 C   0  0  0  0  0
  -12.1830   24.8610  -35.0240 C   0  0  0  0  0
  -13.4530   22.7190  -38.6390 N   0  0  0  0  0
  -13.0770   23.0590  -40.0190 C   0  0  0  0  0
  -12.8930   24.5390  -40.2170 C   0  0  0  0  0
  -13.5600   25.3300  -39.5850 O   0  0  0  0  0
  -14.2080   22.6590  -40.9570 C   0  0  0  0  0
  -14.0110   21.3880  -41.7830 C   0  0  0  0  0
  -15.3140   20.5810  -41.8650 C   0  0  0  0  0
  -12.8260   20.5480  -41.3290 C   0  0  0  0  0
  -12.8040   27.2240  -41.8460 C   0  0  0  0  0
  -12.0330   25.0570  -41.1580 N   0  0  0  0  0
  -12.4520   27.8710  -42.8170 O   0  0  0  0  0
  -11.8080   26.5170  -40.9710 C   0  0  0  0  0
  -10.3900   26.7710  -41.4660 C   0  0  0  0  0
  -10.7190   24.4080  -41.2730 C   0  0  0  0  0
   -8.5200   25.2020  -42.2930 C   0  0  0  0  0
  -10.0160   25.4470  -42.1420 C   0  0  0  0  0
  -14.0800   27.0610  -41.5280 N   0  0  0  0  0
  -15.1100   27.7810  -42.2390 C   0  0  0  0  0
  -14.9750   29.2460  -41.9380 C   0  0  0  0  0
  -14.9510   29.6020  -40.7660 O   0  0  0  0  0
  -16.4660   27.2920  -41.7560 C   0  0  0  0  0
  -17.1570   26.3110  -42.6970 C   0  0  0  0  0
  -17.5000   25.0130  -41.9840 C   0  0  0  0  0
  -16.3630   26.0530  -43.9710 C   0  0  0  0  0
  -14.8440   30.1720  -42.9660 N   0  0  0  0  0
  -15.6680   29.8030  -44.1440 C   0  0  0  0  0
  -15.0740   31.5680  -42.4850 C   0  0  0  0  0
  -13.9160   32.3930  -43.0310 C   0  0  0  0  0
  -12.5810   31.7520  -42.6480 C   0  0  0  0  0
  -13.9890   33.8490  -42.5800 C   0  0  0  0  0
  -16.3680   32.1930  -42.9400 C   0  0  0  0  0
  -16.4480   32.7280  -44.0350 O   0  0  0  0  0
  -17.5090   32.1690  -42.1670 N   0  0  0  0  0
  -17.2800   32.3010  -40.7100 C   0  0  0  0  0
  -17.7300   31.0060  -40.1100 C   0  0  0  0  0
  -17.9800   30.0810  -40.8620 O   0  0  0  0  0
  -18.2150   33.4020  -40.2270 C   0  0  0  0  0
  -19.2260   33.5930  -41.3410 C   0  0  0  0  0
  -18.4570   33.2170  -42.5970 C   0  0  0  0  0
  -17.9230   30.8600  -38.7440 N   0  0  0  0  0
  -16.7350   31.2480  -37.9490 C   0  0  0  0  0
  -18.4190   29.4910  -38.4590 C   0  0  0  0  0
  -17.4140   28.5760  -37.8220 C   0  0  0  0  0
  -17.6730   28.0870  -36.7310 O   0  0  0  0  0
  -19.5570   29.6070  -37.4600 C   0  0  0  0  0
  -20.9150   29.6740  -38.1340 C   0  0  0  0  0
  -21.9510   30.0930  -37.0970 C   0  0  0  0  0
  -21.2880   28.3410  -38.7770 C   0  0  0  0  0
  -16.2850   28.2960  -38.4550 N   0  0  0  0  0
  -15.2410   27.6260  -37.7040 C   0  0  0  0  0
  -15.5390   26.1570  -37.4540 C   0  0  0  0  0
  -16.5150   25.5700  -37.9150 O   0  0  0  0  0
  -14.8310   25.4240  -36.7680 O   0  0  0  0  0
   -8.8908   19.6670  -27.3963 H   0  0  0  0  0
   -8.1066   20.8202  -28.5038 H   0  0  0  0  0
   -9.5558   21.3074  -27.5909 H   0  0  0  0  0
  -10.5835   22.5224  -29.8738 H   0  0  0  0  0
  -12.2041   22.3798  -29.1498 H   0  0  0  0  0
  -10.7548   22.1576  -28.1393 H   0  0  0  0  0
  -11.0430   19.6425  -31.3843 H   0  0  0  0  0
  -12.5599   18.3366  -31.1280 H   0  0  0  0  0
  -13.6161   19.7022  -28.5889 H   0  0  0  0  0
  -13.7908   17.9808  -29.0101 H   0  0  0  0  0
  -12.1842   18.6441  -28.6230 H   0  0  0  0  0
  -14.9121   18.6180  -31.1486 H   0  0  0  0  0
  -14.7373   20.3393  -30.7274 H   0  0  0  0  0
  -14.1071   19.7339  -32.2789 H   0  0  0  0  0
  -11.3807   23.7812  -33.1427 H   0  0  0  0  0
   -9.0717   23.4565  -33.9303 H   0  0  0  0  0
   -9.9240   22.8876  -35.3451 H   0  0  0  0  0
  -10.3244   19.8693  -32.8081 H   0  0  0  0  0
   -9.1141   20.7731  -31.9311 H   0  0  0  0  0
   -7.3398   21.6227  -35.0017 H   0  0  0  0  0
   -7.3380   21.9237  -33.2466 H   0  0  0  0  0
   -7.3662   20.2534  -33.8635 H   0  0  0  0  0
   -9.5049   20.6076  -34.8397 H   0  0  0  0  0
  -13.9038   22.1573  -36.1760 H   0  0  0  0  0
  -15.1264   24.4262  -34.3118 H   0  0  0  0  0
  -16.6355   24.6535  -35.2294 H   0  0  0  0  0
  -16.0337   23.0106  -34.8982 H   0  0  0  0  0
  -11.9561   25.1439  -33.9961 H   0  0  0  0  0
  -11.2547   24.7413  -35.5826 H   0  0  0  0  0
  -12.7913   25.6363  -35.4897 H   0  0  0  0  0
  -14.1771   22.0169  -38.4867 H   0  0  0  0  0
  -12.1424   22.5365  -40.2229 H   0  0  0  0  0
  -14.2963   23.4711  -41.6786 H   0  0  0  0  0
  -15.0697   22.4669  -40.3178 H   0  0  0  0  0
  -13.7546   21.7050  -42.7939 H   0  0  0  0  0
  -15.6304   20.3012  -40.8602 H   0  0  0  0  0
  -16.0873   21.1887  -42.3348 H   0  0  0  0  0
  -15.1463   19.6820  -42.4580 H   0  0  0  0  0
  -11.9123   21.1367  -41.4110 H   0  0  0  0  0
  -12.9729   20.2452  -40.2922 H   0  0  0  0  0
  -12.7471   19.6625  -41.9597 H   0  0  0  0  0
  -11.9244   26.8587  -39.9425 H   0  0  0  0  0
   -9.7052   27.0423  -40.6625 H   0  0  0  0  0
  -10.3260   27.6229  -42.1430 H   0  0  0  0  0
  -10.7385   23.3996  -41.6864 H   0  0  0  0  0
  -10.2274   24.1931  -40.3242 H   0  0  0  0  0
   -8.0821   25.9967  -42.8971 H   0  0  0  0  0
   -8.0533   25.1935  -41.3080 H   0  0  0  0  0
   -8.3580   24.2412  -42.7816 H   0  0  0  0  0
  -10.3333   25.4218  -43.1845 H   0  0  0  0  0
  -14.3365   26.4222  -40.7754 H   0  0  0  0  0
  -15.0158   27.6161  -43.3123 H   0  0  0  0  0
  -17.1112   28.1671  -41.6779 H   0  0  0  0  0
  -16.2991   26.7675  -40.8152 H   0  0  0  0  0
  -18.0887   26.7837  -43.0077 H   0  0  0  0  0
  -16.5853   24.5521  -41.6111 H   0  0  0  0  0
  -18.1684   25.2241  -41.1493 H   0  0  0  0  0
  -17.9914   24.3353  -42.6822 H   0  0  0  0  0
  -16.2273   26.9911  -44.5093 H   0  0  0  0  0
  -15.3893   25.6367  -43.7127 H   0  0  0  0  0
  -16.9062   25.3473  -44.5995 H   0  0  0  0  0
  -15.3517   28.8286  -44.5162 H   0  0  0  0  0
  -16.7173   29.7588  -43.8523 H   0  0  0  0  0
  -15.5380   30.5516  -44.9256 H   0  0  0  0  0
  -15.1358   31.5435  -41.3970 H   0  0  0  0  0
  -13.9937   32.4009  -44.1182 H   0  0  0  0  0
  -12.5020   31.7015  -41.5620 H   0  0  0  0  0
  -12.5297   30.7460  -43.0645 H   0  0  0  0  0
  -11.7634   32.3533  -43.0455 H   0  0  0  0  0
  -14.9199   34.2916  -42.9344 H   0  0  0  0  0
  -13.9556   33.8929  -41.4914 H   0  0  0  0  0
  -13.1434   34.3989  -42.9932 H   0  0  0  0  0
  -16.2448   32.5252  -40.4526 H   0  0  0  0  0
  -17.6721   34.3238  -40.0181 H   0  0  0  0  0
  -18.7004   33.1309  -39.2895 H   0  0  0  0  0
  -19.6126   34.6114  -41.3804 H   0  0  0  0  0
  -20.1175   32.9816  -41.2016 H   0  0  0  0  0
  -19.1207   32.8619  -43.3853 H   0  0  0  0  0
  -17.9414   34.0758  -43.0267 H   0  0  0  0  0
  -15.8887   30.6229  -38.2340 H   0  0  0  0  0
  -16.4966   32.2941  -38.1412 H   0  0  0  0  0
  -16.9485   31.1115  -36.8889 H   0  0  0  0  0
  -18.6952   29.0683  -39.4250 H   0  0  0  0  0
  -19.4160   30.5278  -36.8940 H   0  0  0  0  0
  -19.5394   28.7213  -36.8249 H   0  0  0  0  0
  -20.8818   30.4091  -38.9381 H   0  0  0  0  0
  -21.9719   29.3609  -36.2898 H   0  0  0  0  0
  -21.6862   31.0711  -36.6954 H   0  0  0  0  0
  -22.9330   30.1456  -37.5671 H   0  0  0  0  0
  -20.5424   28.0801  -39.5281 H   0  0  0  0  0
  -21.3206   27.5661  -38.0111 H   0  0  0  0  0
  -22.2664   28.4281  -39.2494 H   0  0  0  0  0
  -16.1544   28.5429  -39.4360 H   0  0  0  0  0
  -15.1610   28.1183  -36.7348 H   0  0  0  0  0
  -14.3225   27.6838  -38.2880 H   0  0  0  0  0
  -17.0435   26.1849  -38.4289 H   0  0  0  0  0
  1  2  2  0  0  0
  1  3  1  0  0  0
  4  1  1  0  0  0
  4  5  1  0  0  0
  6  4  1  0  0  0
  6  7  1  0  0  0
 10  6  1  0  0  0
  7  8  1  0  0  0
  7  9  1  0  0  0
 10 11  2  0  0  0
 13 10  1  0  0  0
 12 14  2  0  0  0
 12 15  1  0  0  0
 20 12  1  0  0  0
 15 13  1  0  0  0
 13 17  1  0  0  0
 15 16  1  0  0  0
 16 19  1  0  0  0
 19 17  1  0  0  0
 19 18  1  0  0  0
 24 20  1  0  0  0
 20 27  1  0  0  0
 23 21  2  0  0  0
 25 22  1  0  0  0
 22 78  1  0  0  0
 23 24  1  0  0  0
 28 23  1  0  0  0
 24 25  1  0  0  0
 25 26  1  0  0  0
 25 80  1  0  0  0
 29 28  1  0  0  0
 30 29  1  0  0  0
 29 32  1  0  0  0
 30 31  2  0  0  0
 37 30  1  0  0  0
 32 33  1  0  0  0
 33 34  1  0  0  0
 33 35  1  0  0  0
 36 38  2  0  0  0
 39 36  1  0  0  0
 36 44  1  0  0  0
 37 39  1  0  0  0
 37 41  1  0  0  0
 39 40  1  0  0  0
 40 43  1  0  0  0
 41 43  1  0  0  0
 43 42  1  0  0  0
 44 45  1  0  0  0
 45 46  1  0  0  0
 45 48  1  0  0  0
 46 47  2  0  0  0
 46 52  1  0  0  0
 48 49  1  0  0  0
 49 50  1  0  0  0
 49 51  1  0  0  0
 52 53  1  0  0  0
 52 54  1  0  0  0
 54 55  1  0  0  0
 54 58  1  0  0  0
 55 56  1  0  0  0
 55 57  1  0  0  0
 58 59  2  0  0  0
 58 60  1  0  0  0
 60 61  1  0  0  0
 60 66  1  0  0  0
 61 62  1  0  0  0
 61 64  1  0  0  0
 62 63  2  0  0  0
 62 67  1  0  0  0
 64 65  1  0  0  0
 65 66  1  0  0  0
 67 68  1  0  0  0
 67 69  1  0  0  0
 69 70  1  0  0  0
 69 72  1  0  0  0
 70 71  2  0  0  0
 70 76  1  0  0  0
 72 73  1  0  0  0
 73 74  1  0  0  0
 73 75  1  0  0  0
 76 77  1  0  0  0
 77 78  1  0  0  0
 78 79  1  0  0  0
 78 80  1  0  0  0
  3 81  1  0  0  0
  3 82  1  0  0  0
  3 83  1  0  0  0
  5 84  1  0  0  0
  5 85  1  0  0  0
  5 86  1  0  0  0
  6 87  1  0  0  0
  7 88  1  0  0  0
  8 89  1  0  0  0
  8 90  1  0  0  0
  8 91  1  0  0  0
  9 92  1  0  0  0
  9 93  1  0  0  0
  9 94  1  0  0  0
 15 95  1  0  0  0
 16 96  1  0  0  0
 16 97  1  0  0  0
 17 98  1  0  0  0
 17 99  1  0  0  0
 18100  1  0  0  0
 18101  1  0  0  0
 18102  1  0  0  0
 19103  1  0  0  0
 24104  1  0  0  0
 26105  1  0  0  0
 26106  1  0  0  0
 26107  1  0  0  0
 27108  1  0  0  0
 27109  1  0  0  0
 27110  1  0  0  0
 28111  1  0  0  0
 29112  1  0  0  0
 32113  1  0  0  0
 32114  1  0  0  0
 33115  1  0  0  0
 34116  1  0  0  0
 34117  1  0  0  0
 34118  1  0  0  0
 35119  1  0  0  0
 35120  1  0  0  0
 35121  1  0  0  0
 39122  1  0  0  0
 40123  1  0  0  0
 40124  1  0  0  0
 41125  1  0  0  0
 41126  1  0  0  0
 42127  1  0  0  0
 42128  1  0  0  0
 42129  1  0  0  0
 43130  1  0  0  0
 44131  1  0  0  0
 45132  1  0  0  0
 48133  1  0  0  0
 48134  1  0  0  0
 49135  1  0  0  0
 50136  1  0  0  0
 50137  1  0  0  0
 50138  1  0  0  0
 51139  1  0  0  0
 51140  1  0  0  0
 51141  1  0  0  0
 53142  1  0  0  0
 53143  1  0  0  0
 53144  1  0  0  0
 54145  1  0  0  0
 55146  1  0  0  0
 56147  1  0  0  0
 56148  1  0  0  0
 56149  1  0  0  0
 57150  1  0  0  0
 57151  1  0  0  0
 57152  1  0  0  0
 61153  1  0  0  0
 64154  1  0  0  0
 64155  1  0  0  0
 65156  1  0  0  0
 65157  1  0  0  0
 66158  1  0  0  0
 66159  1  0  0  0
 68160  1  0  0  0
 68161  1  0  0  0
 68162  1  0  0  0
 69163  1  0  0  0
 72164  1  0  0  0
 72165  1  0  0  0
 73166  1  0  0  0
 74167  1  0  0  0
 74168  1  0  0  0
 74169  1  0  0  0
 75170  1  0  0  0
 75171  1  0  0  0
 75172  1  0  0  0
 76173  1  0  0  0
 77174  1  0  0  0
 77175  1  0  0  0
 79176  1  0  0  0
M  END
$$$$
