### 
### Created by X-TOOL on Mon Sep 10 21:13:23 2018
### 

@<TRIPOS>MOLECULE
5ah2_ligand
  176   180     1     0     0
SMALL
GAST_HUCK


@<TRIPOS>ATOM
      1 C          -9.9350   19.9930  -29.2280 C.2       1 ACE         0.1774
      2 O          -9.5850   19.0760  -29.9350 O.2       1 ACE        -0.3970
      3 CH3        -9.0610   20.4810  -28.1010 C.3       1 ACE         0.0260
      4 N         -11.1920   20.5530  -29.4340 N.am      1 MVA        -0.2547
      5 CN        -11.1830   21.9990  -29.1290 C.3       1 MVA         0.0254
      6 CA        -11.7580   20.1920  -30.7720 C.3       1 MVA         0.1358
      7 CB        -12.9300   19.1960  -30.5690 C.3       1 MVA        -0.0061
      8 CG1       -13.1460   18.8560  -29.0900 C.3       1 MVA        -0.0584
      9 CG2       -14.2670   19.4930  -31.2280 C.3       1 MVA        -0.0584
     10 C         -11.9840   21.4150  -31.6440 C.2       1 MVA         0.2069
     11 O         -13.0440   22.0300  -31.6310 O.2       1 MVA        -0.3942
     12 C         -12.2530   22.4890  -34.4530 C.2       1 MP8         0.2065
     13 N         -10.8910   21.8840  -32.3630 N.am      1 MP8        -0.2495
     14 O         -12.6140   21.3310  -34.6600 O.2       1 MP8        -0.3942
     15 CA        -11.1030   22.7970  -33.5200 C.3       1 MP8         0.1342
     16 CB         -9.7770   22.7030  -34.2810 C.3       1 MP8        -0.0078
     17 CD         -9.8690   20.8550  -32.7130 C.3       1 MP8         0.0395
     18 CE         -7.7100   21.2730  -34.0380 C.3       1 MP8        -0.0604
     19 CG         -9.2390   21.3000  -34.0410 C.3       1 MP8        -0.0190
     20 N         -12.9370   23.5670  -35.0290 N.am      1 NZC        -0.2480
     21 O         -11.7930   23.8460  -37.6430 O.2       1 NZC        -0.3942
     22 OG1       -14.6070   25.4230  -36.6470 O.3       1 NZC        -0.2882
     23 C         -12.8810   23.2960  -37.5740 C.2       1 NZC         0.2095
     24 CA        -13.6720   23.2160  -36.2920 C.3       1 NZC         0.1872
     25 CB        -14.9500   24.0660  -36.4190 C.3       1 NZC         0.2182
     26 CG2       -15.7430   24.0370  -35.1220 C.3       1 NZC        -0.0055
     27 C40       -12.1830   24.8610  -35.0240 C.3       1 NZC         0.0256
     28 N         -13.4530   22.7190  -38.6390 N.am      1 LEU        -0.2635
     29 CA        -13.0770   23.0590  -40.0190 C.3       1 LEU         0.1314
     30 C         -12.8930   24.5390  -40.2170 C.2       1 LEU         0.2064
     31 O         -13.5600   25.3300  -39.5850 O.2       1 LEU        -0.3942
     32 CB        -14.2080   22.6590  -40.9570 C.3       1 LEU        -0.0101
     33 CG        -14.0110   21.3880  -41.7830 C.3       1 LEU        -0.0425
     34 CD1       -15.3140   20.5810  -41.8650 C.3       1 LEU        -0.0625
     35 CD2       -12.8260   20.5480  -41.3290 C.3       1 LEU        -0.0625
     36 C         -12.8040   27.2240  -41.8460 C.2       1 MP8         0.2041
     37 N         -12.0330   25.0570  -41.1580 N.am      1 MP8        -0.2496
     38 O         -12.4520   27.8710  -42.8170 O.2       1 MP8        -0.3944
     39 CA        -11.8080   26.5170  -40.9710 C.3       1 MP8         0.1340
     40 CB        -10.3900   26.7710  -41.4660 C.3       1 MP8        -0.0078
     41 CD        -10.7190   24.4080  -41.2730 C.3       1 MP8         0.0395
     42 CE         -8.5200   25.2020  -42.2930 C.3       1 MP8        -0.0604
     43 CG        -10.0160   25.4470  -42.1420 C.3       1 MP8        -0.0190
     44 N         -14.0800   27.0610  -41.5280 N.am      1 LEU        -0.2637
     45 CA        -15.1100   27.7810  -42.2390 C.3       1 LEU         0.1314
     46 C         -14.9750   29.2460  -41.9380 C.2       1 LEU         0.2062
     47 O         -14.9510   29.6020  -40.7660 O.2       1 LEU        -0.3942
     48 CB        -16.4660   27.2920  -41.7560 C.3       1 LEU        -0.0101
     49 CG        -17.1570   26.3110  -42.6970 C.3       1 LEU        -0.0425
     50 CD1       -17.5000   25.0130  -41.9840 C.3       1 LEU        -0.0625
     51 CD2       -16.3630   26.0530  -43.9710 C.3       1 LEU        -0.0625
     52 N         -14.8440   30.1720  -42.9660 N.am      1 MVA        -0.2526
     53 CN        -15.6680   29.8030  -44.1440 C.3       1 MVA         0.0254
     54 CA        -15.0740   31.5680  -42.4850 C.3       1 MVA         0.1359
     55 CB        -13.9160   32.3930  -43.0310 C.3       1 MVA        -0.0061
     56 CG1       -12.5810   31.7520  -42.6480 C.3       1 MVA        -0.0584
     57 CG2       -13.9890   33.8490  -42.5800 C.3       1 MVA        -0.0584
     58 C         -16.3680   32.1930  -42.9400 C.2       1 MVA         0.2068
     59 O         -16.4480   32.7280  -44.0350 O.2       1 MVA        -0.3942
     60 N         -17.5090   32.1690  -42.1670 N.am      1 PRO        -0.2498
     61 CA        -17.2800   32.3010  -40.7100 C.3       1 PRO         0.1340
     62 C         -17.7300   31.0060  -40.1100 C.2       1 PRO         0.2064
     63 O         -17.9800   30.0810  -40.8620 O.2       1 PRO        -0.3942
     64 CB        -18.2150   33.4020  -40.2270 C.3       1 PRO        -0.0104
     65 CG        -19.2260   33.5930  -41.3410 C.3       1 PRO        -0.0281
     66 CD        -18.4570   33.2170  -42.5970 C.3       1 PRO         0.0369
     67 N         -17.9230   30.8600  -38.7440 N.am      1 MLU        -0.2529
     68 CN        -16.7350   31.2480  -37.9490 C.3       1 MLU         0.0254
     69 CA        -18.4190   29.4910  -38.4590 C.3       1 MLU         0.1335
     70 C         -17.4140   28.5760  -37.8220 C.2       1 MLU         0.2021
     71 O         -17.6730   28.0870  -36.7310 O.2       1 MLU        -0.3945
     72 CB        -19.5570   29.6070  -37.4600 C.3       1 MLU        -0.0099
     73 CG        -20.9150   29.6740  -38.1340 C.3       1 MLU        -0.0425
     74 CD1       -21.9510   30.0930  -37.0970 C.3       1 MLU        -0.0625
     75 CD2       -21.2880   28.3410  -38.7770 C.3       1 MLU        -0.0625
     76 N         -16.2850   28.2960  -38.4550 N.am      1 GLY        -0.2773
     77 CA        -15.2410   27.6260  -37.7040 C.3       1 GLY         0.1126
     78 C         -15.5390   26.1570  -37.4540 C.3       1 GLY         0.3092
     79 O         -16.5150   25.5700  -37.9150 O.3       1 GLY        -0.3410
     80 OXT       -14.8310   25.4240  -36.7680 O.3       1 GLY        -0.2882
     81 H1         -9.5593   21.3151  -27.5853 H         1 ACE         0.0467
     82 H2         -8.0975   20.8236  -28.5062 H         1 ACE         0.0467
     83 H3         -8.8885   19.6604  -27.3890 H         1 ACE         0.0467
     84 H4        -10.7510   22.1604  -28.1303 H         1 MVA         0.0488
     85 H5        -12.2130   22.3845  -29.1496 H         1 MVA         0.0488
     86 H6        -10.5782   22.5284  -29.8800 H         1 MVA         0.0488
     87 H7        -10.9797   19.6181  -31.2962 H         1 MVA         0.0804
     88 H8        -12.5832   18.2680  -31.0471 H         1 MVA         0.0343
     89 H9        -13.9837   18.1495  -28.9948 H         1 MVA         0.0234
     90 H10       -13.3767   19.7756  -28.5322 H         1 MVA         0.0234
     91 H11       -12.2326   18.3989  -28.6816 H         1 MVA         0.0234
     92 H12       -14.1069   19.7363  -32.2887 H         1 MVA         0.0234
     93 H13       -14.7427   20.3470  -30.7237 H         1 MVA         0.0234
     94 H14       -14.9190   18.6106  -31.1486 H         1 MVA         0.0234
     95 H15       -11.2528   23.8182  -33.1397 H         1 MP8         0.0802
     96 H16        -9.0669   23.4523  -33.9010 H         1 MP8         0.0316
     97 H17        -9.9433   22.8673  -35.3558 H         1 MP8         0.0316
     98 H18       -10.3455   19.8704  -32.8296 H         1 MP8         0.0527
     99 H19        -9.1008   20.7999  -31.9276 H         1 MP8         0.0527
    100 H20        -7.3356   21.6030  -35.0182 H         1 MP8         0.0233
    101 H21        -7.3617   20.2489  -33.8383 H         1 MP8         0.0233
    102 H22        -7.3329   21.9477  -33.2554 H         1 MP8         0.0233
    103 H23        -9.5845   20.6323  -34.8440 H         1 MP8         0.0320
    104 H24       -13.9815   22.1659  -36.1850 H         1 NZC         0.0857
    105 H25       -16.0369   23.0016  -34.8951 H         1 NZC         0.0284
    106 H26       -16.6440   24.6588  -35.2291 H         1 NZC         0.0284
    107 H27       -15.1218   24.4295  -34.3035 H         1 NZC         0.0284
    108 H28       -11.6939   24.9966  -34.0481 H         1 NZC         0.0488
    109 H29       -12.8805   25.6925  -35.2032 H         1 NZC         0.0488
    110 H30       -11.4208   24.8443  -35.8169 H         1 NZC         0.0488
    111 H31       -14.1629   22.0307  -38.4897 H         1 LEU         0.1883
    112 H32       -12.1503   22.5282  -40.2825 H         1 LEU         0.0800
    113 H33       -14.3649   23.4902  -41.6602 H         1 LEU         0.0315
    114 H34       -15.1120   22.5201  -40.3458 H         1 LEU         0.0315
    115 H35       -13.7787   21.7147  -42.8073 H         1 LEU         0.0298
    116 H36       -15.1461   19.6733  -42.4633 H         1 LEU         0.0232
    117 H37       -16.0953   21.1932  -42.3390 H         1 LEU         0.0232
    118 H38       -15.6344   20.2980  -40.8515 H         1 LEU         0.0232
    119 H39       -11.9245   21.1770  -41.2893 H         1 LEU         0.0232
    120 H40       -12.6670   19.7238  -42.0399 H         1 LEU         0.0232
    121 H41       -13.0299   20.1361  -40.3296 H         1 LEU         0.0232
    122 H42       -11.9232   26.8203  -39.9199 H         1 MP8         0.0802
    123 H43        -9.7126   26.9917  -40.6279 H         1 MP8         0.0316
    124 H44       -10.3659   27.6025  -42.1857 H         1 MP8         0.0316
    125 H45       -10.7843   23.4295  -41.7712 H         1 MP8         0.0527
    126 H46       -10.2302   24.2895  -40.2947 H         1 MP8         0.0527
    127 H47        -8.0824   25.9858  -42.9287 H         1 MP8         0.0233
    128 H48        -8.3545   24.2186  -42.7572 H         1 MP8         0.0233
    129 H49        -8.0428   25.2247  -41.3022 H         1 MP8         0.0233
    130 H50       -10.4480   25.4270  -43.1534 H         1 MP8         0.0320
    131 H51       -14.3315   26.4347  -40.7901 H         1 LEU         0.1883
    132 H52       -15.0121   27.6097  -43.3211 H         1 LEU         0.0800
    133 H53       -17.1214   28.1663  -41.6297 H         1 LEU         0.0315
    134 H54       -16.3260   26.7953  -40.7846 H         1 LEU         0.0315
    135 H55       -18.1066   26.7752  -43.0016 H         1 LEU         0.0298
    136 H56       -17.9960   24.3282  -42.6876 H         1 LEU         0.0232
    137 H57       -18.1746   25.2247  -41.1413 H         1 LEU         0.0232
    138 H58       -16.5777   24.5468  -41.6072 H         1 LEU         0.0232
    139 H59       -16.1326   27.0111  -44.4598 H         1 LEU         0.0232
    140 H60       -16.9572   25.4270  -44.6530 H         1 LEU         0.0232
    141 H61       -15.4257   25.5346  -43.7203 H         1 LEU         0.0232
    142 H62       -15.4442   28.7669  -44.4379 H         1 MVA         0.0488
    143 H63       -15.4363   30.4794  -44.9799 H         1 MVA         0.0488
    144 H64       -16.7341   29.8891  -43.8872 H         1 MVA         0.0488
    145 H65       -15.0564   31.5721  -41.3852 H         1 MVA         0.0805
    146 H66       -13.9890   32.3847  -44.1285 H         1 MVA         0.0343
    147 H67       -11.7550   32.3580  -43.0486 H         1 MVA         0.0234
    148 H68       -12.5279   30.7367  -43.0678 H         1 MVA         0.0234
    149 H69       -12.5000   31.7005  -41.5522 H         1 MVA         0.0234
    150 H70       -14.9602   34.2750  -42.8720 H         1 MVA         0.0234
    151 H71       -13.1794   34.4215  -43.0563 H         1 MVA         0.0234
    152 H72       -13.8801   33.9001  -41.4866 H         1 MVA         0.0234
    153 H73       -16.2296   32.5223  -40.4701 H         1 PRO         0.0802
    154 H74       -17.6551   34.3326  -40.0524 H         1 PRO         0.0313
    155 H75       -18.7195   33.0978  -39.2981 H         1 PRO         0.0313
    156 H76       -19.5651   34.6384  -41.3874 H         1 PRO         0.0287
    157 H77       -20.0938   32.9319  -41.2002 H         1 PRO         0.0287
    158 H78       -19.1402   32.8280  -43.3664 H         1 PRO         0.0524
    159 H79       -17.9157   34.0884  -42.9940 H         1 PRO         0.0524
    160 H80       -16.4318   32.2706  -38.2181 H         1 MLU         0.0488
    161 H81       -15.9091   30.5530  -38.1607 H         1 MLU         0.0488
    162 H82       -16.9818   31.2087  -36.8778 H         1 MLU         0.0488
    163 H83       -18.7729   29.0408  -39.3982 H         1 MLU         0.0802
    164 H84       -19.4127   30.5208  -36.8649 H         1 MLU         0.0315
    165 H85       -19.5351   28.7300  -36.7964 H         1 MLU         0.0315
    166 H86       -20.8780   30.4374  -38.9251 H         1 MLU         0.0298
    167 H87       -22.9426   30.1464  -37.5702 H         1 MLU         0.0232
    168 H88       -21.6849   31.0800  -36.6909 H         1 MLU         0.0232
    169 H89       -21.9731   29.3549  -36.2817 H         1 MLU         0.0232
    170 H90       -20.5241   28.0653  -39.5189 H         1 MLU         0.0232
    171 H91       -22.2649   28.4342  -39.2740 H         1 MLU         0.0232
    172 H92       -21.3438   27.5627  -38.0016 H         1 MLU         0.0232
    173 H93       -16.1569   28.5380  -39.4168 H         1 GLY         0.1854
    174 H94       -15.1283   28.1309  -36.7333 H         1 GLY         0.0600
    175 H95       -14.2997   27.7016  -38.2681 H         1 GLY         0.0600
    176 H96       -17.0376   25.2195  -37.2033 H         1 GLY         0.2152
@<TRIPOS>BOND
     1    1    2 2  
     2    1    3 1  
     3    4    1 am 
     4    4    5 1  
     5    6    4 1  
     6    6    7 1  
     7   10    6 1  
     8    7    8 1  
     9    7    9 1  
    10   10   11 2  
    11   13   10 am 
    12   12   14 2  
    13   12   15 1  
    14   20   12 am 
    15   15   13 1  
    16   13   17 1  
    17   15   16 1  
    18   16   19 1  
    19   19   17 1  
    20   19   18 1  
    21   24   20 1  
    22   20   27 1  
    23   23   21 2  
    24   25   22 1  
    25   22   78 1  
    26   23   24 1  
    27   28   23 am 
    28   24   25 1  
    29   25   26 1  
    30   25   80 1  
    31   29   28 1  
    32   30   29 1  
    33   29   32 1  
    34   30   31 2  
    35   37   30 am 
    36   32   33 1  
    37   33   34 1  
    38   33   35 1  
    39   36   38 2  
    40   39   36 1  
    41   36   44 am 
    42   37   39 1  
    43   37   41 1  
    44   39   40 1  
    45   40   43 1  
    46   41   43 1  
    47   43   42 1  
    48   44   45 1  
    49   45   46 1  
    50   45   48 1  
    51   46   47 2  
    52   46   52 am 
    53   48   49 1  
    54   49   50 1  
    55   49   51 1  
    56   52   53 1  
    57   52   54 1  
    58   54   55 1  
    59   54   58 1  
    60   55   56 1  
    61   55   57 1  
    62   58   59 2  
    63   58   60 am 
    64   60   61 1  
    65   60   66 1  
    66   61   62 1  
    67   61   64 1  
    68   62   63 2  
    69   62   67 am 
    70   64   65 1  
    71   65   66 1  
    72   67   68 1  
    73   67   69 1  
    74   69   70 1  
    75   69   72 1  
    76   70   71 2  
    77   70   76 am 
    78   72   73 1  
    79   73   74 1  
    80   73   75 1  
    81   76   77 1  
    82   77   78 1  
    83   78   79 1  
    84   78   80 1  
    85    3   81 1  
    86    3   82 1  
    87    3   83 1  
    88    5   84 1  
    89    5   85 1  
    90    5   86 1  
    91    6   87 1  
    92    7   88 1  
    93    8   89 1  
    94    8   90 1  
    95    8   91 1  
    96    9   92 1  
    97    9   93 1  
    98    9   94 1  
    99   15   95 1  
   100   16   96 1  
   101   16   97 1  
   102   17   98 1  
   103   17   99 1  
   104   18  100 1  
   105   18  101 1  
   106   18  102 1  
   107   19  103 1  
   108   24  104 1  
   109   26  105 1  
   110   26  106 1  
   111   26  107 1  
   112   27  108 1  
   113   27  109 1  
   114   27  110 1  
   115   28  111 1  
   116   29  112 1  
   117   32  113 1  
   118   32  114 1  
   119   33  115 1  
   120   34  116 1  
   121   34  117 1  
   122   34  118 1  
   123   35  119 1  
   124   35  120 1  
   125   35  121 1  
   126   39  122 1  
   127   40  123 1  
   128   40  124 1  
   129   41  125 1  
   130   41  126 1  
   131   42  127 1  
   132   42  128 1  
   133   42  129 1  
   134   43  130 1  
   135   44  131 1  
   136   45  132 1  
   137   48  133 1  
   138   48  134 1  
   139   49  135 1  
   140   50  136 1  
   141   50  137 1  
   142   50  138 1  
   143   51  139 1  
   144   51  140 1  
   145   51  141 1  
   146   53  142 1  
   147   53  143 1  
   148   53  144 1  
   149   54  145 1  
   150   55  146 1  
   151   56  147 1  
   152   56  148 1  
   153   56  149 1  
   154   57  150 1  
   155   57  151 1  
   156   57  152 1  
   157   61  153 1  
   158   64  154 1  
   159   64  155 1  
   160   65  156 1  
   161   65  157 1  
   162   66  158 1  
   163   66  159 1  
   164   68  160 1  
   165   68  161 1  
   166   68  162 1  
   167   69  163 1  
   168   72  164 1  
   169   72  165 1  
   170   73  166 1  
   171   74  167 1  
   172   74  168 1  
   173   74  169 1  
   174   75  170 1  
   175   75  171 1  
   176   75  172 1  
   177   76  173 1  
   178   77  174 1  
   179   77  175 1  
   180   79  176 1  
@<TRIPOS>SUBSTRUCTURE
     1 ACE         1

