5k8o_ligand
  -I-interpret- 

 18 18  0  0  0  0  0  0  0  0999 V2000
   34.2360   77.4270 -100.9100 O   0  0  0  0  0
   34.3540   78.5150 -100.3070 C   0  0  0  0  0
   33.5750   79.4680 -100.5430 O   0  0  0  0  0
   35.3690   78.6580  -99.3800 C   0  0  0  0  0
   35.5220   79.8540  -98.7090 C   0  0  0  0  0
   36.5470   79.9940  -97.7940 C   0  0  0  0  0
   36.6750   81.1540  -97.1540 N   0  0  0  0  0
   37.6980   81.3330  -96.3550 O   0  0  0  0  0
   35.8070   82.1340  -97.4180 O   0  0  0  0  0
   37.4090   78.9300  -97.5450 C   0  0  0  0  0
   37.2580   77.7200  -98.2110 C   0  0  0  0  0
   36.2290   77.5990  -99.1280 C   0  0  0  0  0
   36.0050   76.4530  -99.8260 O   0  0  0  0  0
   33.8123   80.2177  -99.9924 H   0  0  0  0  0
   34.8391   80.6819  -98.8996 H   0  0  0  0  0
   38.2128   79.0475  -96.8182 H   0  0  0  0  0
   37.9333   76.8869  -98.0160 H   0  0  0  0  0
   36.6549   75.7933  -99.5730 H   0  0  0  0  0
  1  2  2  0  0  0
  2  3  1  0  0  0
  2  4  1  0  0  0
  4  5  4  0  0  0
  4 12  4  0  0  0
  5  6  4  0  0  0
  6  7  1  0  0  0
  6 10  4  0  0  0
  7  8  2  0  0  0
  7  9  2  0  0  0
 10 11  4  0  0  0
 11 12  4  0  0  0
 12 13  1  0  0  0
  3 14  1  0  0  0
  5 15  1  0  0  0
 10 16  1  0  0  0
 11 17  1  0  0  0
 13 18  1  0  0  0
M  END
$$$$
