2lyb_ligand
  -I-interpret- 

 77 76  0  0  0  0  0  0  0  0999 V2000
   -7.4820  -26.7810    4.6500 N   0  3  0  0  0
   -2.9070  -25.8420    6.6510 P   0  0  0  0  0
   -4.4770  -25.5660    6.5340 O   0  0  0  0  0
   -2.1470  -30.2100    2.3250 C   0  0  0  0  0
   -3.2990  -30.2450    2.8220 O   0  0  0  0  0
    0.4360  -25.5330    2.3230 C   0  0  0  0  0
    0.5250  -25.7250    1.0870 O   0  0  0  0  0
   -5.2840  -26.4550    5.7310 C   0  0  0  0  0
   -2.0130  -27.7170    2.1720 C   0  0  0  0  0
   -1.6450  -29.0530    1.8090 O   0  0  0  0  0
   -1.2700  -31.4000    2.2920 C   0  0  0  0  0
    1.5200  -24.8820    3.0910 C   0  0  0  0  0
   -6.5300  -25.7600    5.1250 C   0  0  0  0  0
   -1.1470  -27.2100    3.3510 C   0  0  0  0  0
   -0.6930  -25.8890    3.0040 O   0  0  0  0  0
   -2.1950  -24.8080    7.4050 O   0  0  0  0  0
   -1.6550  -32.5460    3.2680 C   0  0  0  0  0
    2.1650  -23.6390    2.4130 C   0  0  0  0  0
   -6.2060  -24.8570    4.0040 C   0  0  0  0  0
   -5.1190  -24.2380    3.9620 O   0  0  0  0  0
   -7.0680  -24.7130    2.9680 O   0  0  0  0  0
   -1.8910  -27.2520    4.7150 C   0  0  0  0  0
   -2.3180  -25.9420    5.1640 O   0  0  0  0  0
   -2.6960  -27.2510    7.3400 O   0  0  0  0  0
   -0.6930  -33.7600    3.1620 C   0  0  0  0  0
    3.7120  -23.6040    2.5610 C   0  0  0  0  0
   -0.8950  -34.7880    4.3060 C   0  0  0  0  0
    4.3120  -22.2100    2.2340 C   0  0  0  0  0
   -0.0370  -34.4630    5.5590 C   0  0  0  0  0
    4.9740  -22.1490    0.8310 C   0  0  0  0  0
   -0.7680  -34.8040    6.8860 C   0  0  0  0  0
    4.2220  -21.2010   -0.1420 C   0  0  0  0  0
    0.0430  -34.3970    8.1360 C   0  0  0  0  0
    5.1630  -20.2210   -0.8800 C   0  0  0  0  0
   -8.3009  -26.3215    4.2517 H   0  0  0  0  0
   -7.0336  -27.3569    3.9374 H   0  0  0  0  0
   -7.7677  -27.3684    5.4334 H   0  0  0  0  0
   -5.6340  -27.2603    6.3768 H   0  0  0  0  0
   -4.6668  -26.8093    4.9054 H   0  0  0  0  0
   -3.0596  -27.7109    2.4763 H   0  0  0  0  0
   -1.8561  -27.0635    1.3139 H   0  0  0  0  0
   -0.2776  -31.0611    2.5892 H   0  0  0  0  0
   -1.3458  -31.8122    1.2858 H   0  0  0  0  0
    2.3120  -25.6228    3.2004 H   0  0  0  0  0
    1.0747  -24.5324    4.0225 H   0  0  0  0  0
   -6.9642  -25.1524    5.9190 H   0  0  0  0  0
   -0.2953  -27.8740    3.4984 H   0  0  0  0  0
   -2.6579  -32.8863    3.0104 H   0  0  0  0  0
   -1.5975  -32.1573    4.2847 H   0  0  0  0  0
    1.7639  -22.7493    2.8984 H   0  0  0  0  0
    1.9332  -23.6824    1.3488 H   0  0  0  0  0
   -7.8539  -25.2396    3.1315 H   0  0  0  0  0
   -1.2011  -27.6507    5.4588 H   0  0  0  0  0
   -2.7815  -27.8681    4.5901 H   0  0  0  0  0
   -3.1651  -27.9235    6.8408 H   0  0  0  0  0
    0.3279  -33.3838    3.2274 H   0  0  0  0  0
   -0.8966  -34.2661    2.2183 H   0  0  0  0  0
    4.1324  -24.3232    1.8581 H   0  0  0  0  0
    3.9551  -23.8390    3.5972 H   0  0  0  0  0
   -0.5902  -35.7667    3.9353 H   0  0  0  0  0
   -1.9439  -34.7598    4.6011 H   0  0  0  0  0
    5.0831  -21.9982    2.9747 H   0  0  0  0  0
    3.4974  -21.4859    2.2487 H   0  0  0  0  0
    0.1712  -33.3931    5.5554 H   0  0  0  0  0
    0.8701  -35.0655    5.5106 H   0  0  0  0  0
    4.9528  -23.1524    0.4057 H   0  0  0  0  0
    5.9879  -21.7683    0.9543 H   0  0  0  0  0
   -0.9143  -35.8836    6.9193 H   0  0  0  0  0
   -1.7071  -34.2509    6.9021 H   0  0  0  0  0
    3.5219  -20.6085    0.4470 H   0  0  0  0  0
    3.7308  -21.8189   -0.8937 H   0  0  0  0  0
    0.9975  -34.9233    8.1355 H   0  0  0  0  0
    0.2197  -33.3216    8.1186 H   0  0  0  0  0
   -0.5179  -34.6599    9.0329 H   0  0  0  0  0
    5.6846  -19.6013   -0.1506 H   0  0  0  0  0
    5.8893  -20.7867   -1.4636 H   0  0  0  0  0
    4.5762  -19.5865   -1.5442 H   0  0  0  0  0
 13  1  1  0  0  0
  2  3  1  0  0  0
  2 16  2  0  0  0
 23  2  1  0  0  0
  2 24  1  0  0  0
  3  8  1  0  0  0
  4  5  2  0  0  0
 10  4  1  0  0  0
  4 11  1  0  0  0
  6  7  2  0  0  0
  6 12  1  0  0  0
 15  6  1  0  0  0
  8 13  1  0  0  0
  9 10  1  0  0  0
 14  9  1  0  0  0
 11 17  1  0  0  0
 12 18  1  0  0  0
 13 19  1  0  0  0
 14 15  1  0  0  0
 22 14  1  0  0  0
 17 25  1  0  0  0
 18 26  1  0  0  0
 19 20  2  0  0  0
 19 21  1  0  0  0
 22 23  1  0  0  0
 25 27  1  0  0  0
 26 28  1  0  0  0
 27 29  1  0  0  0
 28 30  1  0  0  0
 29 31  1  0  0  0
 30 32  1  0  0  0
 31 33  1  0  0  0
 32 34  1  0  0  0
  1 35  1  0  0  0
  1 36  1  0  0  0
  1 37  1  0  0  0
  8 38  1  0  0  0
  8 39  1  0  0  0
  9 40  1  0  0  0
  9 41  1  0  0  0
 11 42  1  0  0  0
 11 43  1  0  0  0
 12 44  1  0  0  0
 12 45  1  0  0  0
 13 46  1  0  0  0
 14 47  1  0  0  0
 17 48  1  0  0  0
 17 49  1  0  0  0
 18 50  1  0  0  0
 18 51  1  0  0  0
 21 52  1  0  0  0
 22 53  1  0  0  0
 22 54  1  0  0  0
 24 55  1  0  0  0
 25 56  1  0  0  0
 25 57  1  0  0  0
 26 58  1  0  0  0
 26 59  1  0  0  0
 27 60  1  0  0  0
 27 61  1  0  0  0
 28 62  1  0  0  0
 28 63  1  0  0  0
 29 64  1  0  0  0
 29 65  1  0  0  0
 30 66  1  0  0  0
 30 67  1  0  0  0
 31 68  1  0  0  0
 31 69  1  0  0  0
 32 70  1  0  0  0
 32 71  1  0  0  0
 33 72  1  0  0  0
 33 73  1  0  0  0
 33 74  1  0  0  0
 34 75  1  0  0  0
 34 76  1  0  0  0
 34 77  1  0  0  0
M  END
$$$$
