### 
### Created by X-TOOL on Mon Sep 10 21:13:16 2018
### 

@<TRIPOS>MOLECULE
2lyb_ligand
   75    74     1     0     0
SMALL
GAST_HUCK


@<TRIPOS>ATOM
      1 N          -7.4820  -26.7810    4.6500 N.4       1 8SP         0.2346
      2 P          -2.9070  -25.8420    6.6510 P.3       1 8SP         0.2556
      3 OG         -4.4770  -25.5660    6.5340 O.3       1 8SP        -0.2466
      4 C1A        -2.1470  -30.2100    2.3250 C.2       1 8SP         0.2338
      5 O1A        -3.2990  -30.2450    2.8220 O.2       1 8SP        -0.3704
      6 C1B         0.4360  -25.5330    2.3230 C.2       1 8SP         0.2341
      7 O1B         0.5250  -25.7250    1.0870 O.2       1 8SP        -0.3704
      8 CB         -5.2840  -26.4550    5.7310 C.3       1 8SP         0.1379
      9 C1G        -2.0130  -27.7170    2.1720 C.3       1 8SP         0.1098
     10 O1G        -1.6450  -29.0530    1.8090 O.3       1 8SP        -0.2738
     11 C2A        -1.2700  -31.4000    2.2920 C.3       1 8SP         0.0487
     12 C2B         1.5200  -24.8820    3.0910 C.3       1 8SP         0.0487
     13 CA         -6.5300  -25.7600    5.1250 C.3       1 8SP         0.0573
     14 C2G        -1.1470  -27.2100    3.3510 C.3       1 8SP         0.1433
     15 O2G        -0.6930  -25.8890    3.0040 O.3       1 8SP        -0.2681
     16 O2P        -2.1950  -24.8080    7.4050 O.co2     1 8SP        -0.6177
     17 C3A        -1.6550  -32.5460    3.2680 C.3       1 8SP        -0.0348
     18 C3B         2.1650  -23.6390    2.4130 C.3       1 8SP        -0.0348
     19 C          -6.2060  -24.8570    4.0040 C.2       1 8SP         0.0871
     20 O          -5.1190  -24.2380    3.9620 O.co2     1 8SP        -0.5642
     21 OXT        -7.0680  -24.7130    2.9680 O.co2     1 8SP        -0.5642
     22 C3G        -1.8910  -27.2520    4.7150 C.3       1 8SP         0.1167
     23 O3G        -2.3180  -25.9420    5.1640 O.3       1 8SP        -0.2511
     24 O3P        -2.6960  -27.2510    7.3400 O.co2     1 8SP        -0.6177
     25 C4A        -0.6930  -33.7600    3.1620 C.3       1 8SP        -0.0509
     26 C4B         3.7120  -23.6040    2.5610 C.3       1 8SP        -0.0509
     27 C5A        -0.8950  -34.7880    4.3060 C.3       1 8SP        -0.0529
     28 C5B         4.3120  -22.2100    2.2340 C.3       1 8SP        -0.0529
     29 C6A        -0.0370  -34.4630    5.5590 C.3       1 8SP        -0.0533
     30 C6B         4.9740  -22.1490    0.8310 C.3       1 8SP        -0.0533
     31 C7A        -0.7680  -34.8040    6.8860 C.3       1 8SP        -0.0559
     32 C7B         4.2220  -21.2010   -0.1420 C.3       1 8SP        -0.0559
     33 C8A         0.0430  -34.3970    8.1360 C.3       1 8SP        -0.0653
     34 C8B         5.1630  -20.2210   -0.8800 C.3       1 8SP        -0.0653
     35 H1         -7.7114  -27.4048    5.4078 H         1 8SP         0.2011
     36 H2         -7.0642  -27.3058    3.8976 H         1 8SP         0.2011
     37 H3         -8.3211  -26.3304    4.3200 H         1 8SP         0.2011
     38 H4         -5.6210  -27.2898    6.3631 H         1 8SP         0.0697
     39 H5         -4.6651  -26.8440    4.9090 H         1 8SP         0.0697
     40 H6         -3.0718  -27.7028    2.4699 H         1 8SP         0.0644
     41 H7         -1.8668  -27.0546    1.3061 H         1 8SP         0.0644
     42 H8         -0.2487  -31.0745    2.5387 H         1 8SP         0.0518
     43 H9         -1.2887  -31.8058    1.2698 H         1 8SP         0.0518
     44 H10         2.3122  -25.6267    3.2578 H         1 8SP         0.0518
     45 H11         1.1061  -24.5638    4.0592 H         1 8SP         0.0518
     46 H12        -7.0085  -25.1662    5.9177 H         1 8SP         0.1051
     47 H13        -0.2682  -27.8655    3.4404 H         1 8SP         0.0704
     48 H14        -2.6757  -32.8823    3.0333 H         1 8SP         0.0291
     49 H15        -1.6239  -32.1592    4.2973 H         1 8SP         0.0291
     50 H16         1.7477  -22.7316    2.8740 H         1 8SP         0.0291
     51 H17         1.9152  -23.6542    1.3419 H         1 8SP         0.0291
     52 H18        -1.2153  -27.6791    5.4706 H         1 8SP         0.0651
     53 H19        -2.7781  -27.8941    4.6115 H         1 8SP         0.0651
     54 H20         0.3429  -33.3920    3.1990 H         1 8SP         0.0267
     55 H21        -0.8687  -34.2649    2.2006 H         1 8SP         0.0267
     56 H22         4.1483  -24.3449    1.8750 H         1 8SP         0.0267
     57 H23         3.9727  -23.8654    3.5972 H         1 8SP         0.0267
     58 H24        -0.6154  -35.7857    3.9367 H         1 8SP         0.0265
     59 H25        -1.9561  -34.7885    4.5960 H         1 8SP         0.0265
     60 H26         5.0726  -21.9692    2.9913 H         1 8SP         0.0265
     61 H27         3.5055  -21.4630    2.2739 H         1 8SP         0.0265
     62 H28         0.2020  -33.3893    5.5540 H         1 8SP         0.0265
     63 H29         0.8944  -35.0462    5.5096 H         1 8SP         0.0265
     64 H30         4.9823  -23.1613    0.4008 H         1 8SP         0.0265
     65 H31         6.0076  -21.7902    0.9442 H         1 8SP         0.0265
     66 H32        -0.9466  -35.8888    6.9205 H         1 8SP         0.0263
     67 H33        -1.7312  -34.2731    6.9035 H         1 8SP         0.0263
     68 H34         3.4897  -20.6165    0.4343 H         1 8SP         0.0263
     69 H35         3.6962  -21.8122   -0.8902 H         1 8SP         0.0263
     70 H36        -0.5220  -34.6618    9.0419 H         1 8SP         0.0230
     71 H37         0.2219  -33.3118    8.1197 H         1 8SP         0.0230
     72 H38         1.0066  -34.9276    8.1367 H         1 8SP         0.0230
     73 H39         4.5719  -19.5801   -1.5507 H         1 8SP         0.0230
     74 H40         5.8965  -20.7907   -1.4695 H         1 8SP         0.0230
     75 H41         5.6900  -19.5950   -0.1449 H         1 8SP         0.0230
@<TRIPOS>BOND
     1   13    1 1  
     2    2    3 1  
     3    2   16 ar 
     4   23    2 1  
     5    2   24 ar 
     6    3    8 1  
     7    4    5 2  
     8   10    4 1  
     9    4   11 1  
    10    6    7 2  
    11    6   12 1  
    12   15    6 1  
    13    8   13 1  
    14    9   10 1  
    15   14    9 1  
    16   11   17 1  
    17   12   18 1  
    18   13   19 1  
    19   14   15 1  
    20   22   14 1  
    21   17   25 1  
    22   18   26 1  
    23   19   20 ar 
    24   19   21 ar 
    25   22   23 1  
    26   25   27 1  
    27   26   28 1  
    28   27   29 1  
    29   28   30 1  
    30   29   31 1  
    31   30   32 1  
    32   31   33 1  
    33   32   34 1  
    34    1   35 1  
    35    1   36 1  
    36    1   37 1  
    37    8   38 1  
    38    8   39 1  
    39    9   40 1  
    40    9   41 1  
    41   11   42 1  
    42   11   43 1  
    43   12   44 1  
    44   12   45 1  
    45   13   46 1  
    46   14   47 1  
    47   17   48 1  
    48   17   49 1  
    49   18   50 1  
    50   18   51 1  
    51   22   52 1  
    52   22   53 1  
    53   25   54 1  
    54   25   55 1  
    55   26   56 1  
    56   26   57 1  
    57   27   58 1  
    58   27   59 1  
    59   28   60 1  
    60   28   61 1  
    61   29   62 1  
    62   29   63 1  
    63   30   64 1  
    64   30   65 1  
    65   31   66 1  
    66   31   67 1  
    67   32   68 1  
    68   32   69 1  
    69   33   70 1  
    70   33   71 1  
    71   33   72 1  
    72   34   73 1  
    73   34   74 1  
    74   34   75 1  
@<TRIPOS>SUBSTRUCTURE
     1 8SP         1

