2tmn_ligand
  -I-interpret- 

 28 27  0  0  0  0  0  0  0  0999 V2000
   51.7110   18.9570   -6.2940 P   0  0  0  0  0
   51.6950   20.5290   -6.1650 O   0  0  0  0  0
   53.1510   18.5470   -6.8250 O   0  0  0  0  0
   50.5590   18.3330   -7.0080 O   0  0  0  0  0
   51.6470   18.3580   -4.5460 N   0  0  0  0  0
   52.8450   18.2740   -3.7280 C   0  0  0  0  0
   53.6540   17.0160   -4.0170 C   0  0  0  0  0
   54.8770   17.0990   -3.8570 O   0  0  0  0  0
   52.5110   18.2580   -2.2300 C   0  0  0  0  0
   53.6580   18.2450   -1.2680 C   0  0  0  0  0
   54.5690   19.4580   -1.5220 C   0  0  0  0  0
   52.8570   18.1860    0.0450 C   0  0  0  0  0
   53.0330   15.9300   -4.3380 N   0  0  0  0  0
   52.4784   20.8181   -5.6914 H   0  0  0  0  0
   53.8221   18.9965   -6.3062 H   0  0  0  0  0
   50.7504   18.0802   -4.1468 H   0  0  0  0  0
   53.4267   19.1601   -3.9822 H   0  0  0  0  0
   51.9730   17.3256   -2.0587 H   0  0  0  0  0
   51.9767   19.1885   -2.0379 H   0  0  0  0  0
   54.3930   17.4415   -1.3160 H   0  0  0  0  0
   54.9535   19.4150   -2.5410 H   0  0  0  0  0
   53.9963   20.3755   -1.3868 H   0  0  0  0  0
   55.4006   19.4401   -0.8175 H   0  0  0  0  0
   52.2142   19.0634    0.1167 H   0  0  0  0  0
   52.2452   17.2839    0.0557 H   0  0  0  0  0
   53.5463   18.1691    0.8892 H   0  0  0  0  0
   53.5560   15.0653   -4.4763 H   0  0  0  0  0
   52.0195   15.9370   -4.4532 H   0  0  0  0  0
  5  6  1  0  0  0
  6  9  1  0  0  0
  6  7  1  0  0  0
  7  8  2  0  0  0
  9 10  1  0  0  0
 10 11  1  0  0  0
 10 12  1  0  0  0
  1  2  1  0  0  0
  1  3  1  0  0  0
  1  4  2  0  0  0
  1  5  1  0  0  0
  7 13  1  0  0  0
  2 14  1  0  0  0
  3 15  1  0  0  0
  5 16  1  0  0  0
  6 17  1  0  0  0
  9 18  1  0  0  0
  9 19  1  0  0  0
 10 20  1  0  0  0
 11 21  1  0  0  0
 11 22  1  0  0  0
 11 23  1  0  0  0
 12 24  1  0  0  0
 12 25  1  0  0  0
 12 26  1  0  0  0
 13 27  1  0  0  0
 13 28  1  0  0  0
M  END
$$$$
