6dvn_ligand
  -I-interpret- 

 62 64  0  0  0  0  0  0  0  0999 V2000
  -37.2170   -5.9660   28.4980 C   0  0  0  0  0
  -35.3090   -7.2780   27.7360 C   0  0  0  0  0
  -33.2160   -8.5710   27.0330 C   0  0  0  0  0
  -33.7510   -6.3980   25.9760 C   0  0  0  0  0
  -36.0730   -6.1000   27.7110 C   0  0  0  0  0
  -37.6610   -7.0120   29.3330 C   0  0  0  0  0
  -38.8880   -6.8600   30.2010 C   0  0  0  0  0
  -44.2520   -9.5400   25.4990 C   0  0  0  0  0
  -43.2960   -8.6610   26.2250 C   0  0  0  0  0
  -42.1650   -9.1860   26.8180 C   0  0  0  0  0
  -41.2760   -8.3690   27.4960 C   0  0  0  0  0
  -41.4620   -7.0050   27.6080 C   0  0  0  0  0
  -40.4980   -6.1430   28.3580 C   0  0  0  0  0
  -35.7500   -8.3020   28.5800 C   0  0  0  0  0
  -36.8920   -8.1650   29.3590 C   0  0  0  0  0
  -41.2820   -6.3610   30.8050 C   0  0  0  0  0
  -41.1130   -5.3280   31.9440 C   0  0  0  0  0
  -40.0610   -3.1480   32.7120 C   0  0  0  0  0
  -38.8150   -3.4290   33.5290 C   0  0  0  0  0
  -38.2540   -4.7150   33.5820 C   0  0  0  0  0
  -37.1100   -4.9730   34.3340 C   0  0  0  0  0
  -36.4960   -3.9550   35.0510 C   0  0  0  0  0
  -37.0460   -2.6790   35.0050 C   0  0  0  0  0
  -38.1890   -2.4240   34.2530 C   0  0  0  0  0
  -42.6190   -6.4720   27.0180 C   0  0  0  0  0
  -43.5230   -7.2870   26.3300 C   0  0  0  0  0
  -44.0890  -10.9430   25.7820 N   0  0  0  0  0
  -40.2350   -6.4380   29.7640 N   0  0  0  0  0
  -34.1280   -7.4270   26.9420 N   0  0  0  0  0
  -40.3100   -4.1970   31.7000 N   0  0  0  0  0
  -45.0980   -9.1480   24.7310 O   0  0  0  0  0
  -44.9920  -11.6870   25.0820 O   0  0  0  0  0
  -38.7500   -7.0960   31.3820 O   0  0  0  0  0
  -41.6410   -5.4880   33.0360 O   0  0  0  0  0
  -37.7796   -5.0329   28.4668 H   0  0  0  0  0
  -33.1572   -9.0652   26.0633 H   0  0  0  0  0
  -32.2255   -8.2221   27.3250 H   0  0  0  0  0
  -33.5895   -9.2734   27.7782 H   0  0  0  0  0
  -32.7742   -5.9933   26.2408 H   0  0  0  0  0
  -33.7059   -6.8364   24.9791 H   0  0  0  0  0
  -34.4926   -5.5993   25.9899 H   0  0  0  0  0
  -35.7670   -5.2765   27.0658 H   0  0  0  0  0
  -41.9696  -10.2563   26.7517 H   0  0  0  0  0
  -40.3973   -8.8188   27.9582 H   0  0  0  0  0
  -40.9481   -5.1503   28.3576 H   0  0  0  0  0
  -39.5413   -6.2871   27.8559 H   0  0  0  0  0
  -35.1830   -9.2317   28.6279 H   0  0  0  0  0
  -37.1917   -8.9872   30.0089 H   0  0  0  0  0
  -42.1872   -6.0596   30.2780 H   0  0  0  0  0
  -41.2678   -7.3336   31.2970 H   0  0  0  0  0
  -39.9205   -2.2003   32.1922 H   0  0  0  0  0
  -40.9137   -3.1205   33.3904 H   0  0  0  0  0
  -38.7221   -5.5263   33.0246 H   0  0  0  0  0
  -36.6944   -5.9803   34.3596 H   0  0  0  0  0
  -35.5996   -4.1524   35.6389 H   0  0  0  0  0
  -36.5769   -1.8694   35.5640 H   0  0  0  0  0
  -38.6007   -1.4149   34.2323 H   0  0  0  0  0
  -42.8162   -5.4030   27.0978 H   0  0  0  0  0
  -44.4097   -6.8476   25.8731 H   0  0  0  0  0
  -43.3922  -11.3278   26.4198 H   0  0  0  0  0
  -39.8794   -4.0966   30.7808 H   0  0  0  0  0
  -44.8653  -12.6166   25.2855 H   0  0  0  0  0
  1  5  4  0  0  0
  6  1  4  0  0  0
  5  2  4  0  0  0
 14  2  4  0  0  0
  2 29  1  0  0  0
 29  3  1  0  0  0
 29  4  1  0  0  0
  7  6  1  0  0  0
  6 15  4  0  0  0
 28  7  1  0  0  0
  7 33  2  0  0  0
  9  8  1  0  0  0
  8 27  1  0  0  0
  8 31  2  0  0  0
 10  9  4  0  0  0
  9 26  4  0  0  0
 11 10  4  0  0  0
 12 11  4  0  0  0
 13 12  1  0  0  0
 12 25  4  0  0  0
 28 13  1  0  0  0
 15 14  4  0  0  0
 17 16  1  0  0  0
 16 28  1  0  0  0
 30 17  1  0  0  0
 17 34  2  0  0  0
 18 19  1  0  0  0
 18 30  1  0  0  0
 19 20  4  0  0  0
 19 24  4  0  0  0
 20 21  4  0  0  0
 21 22  4  0  0  0
 22 23  4  0  0  0
 23 24  4  0  0  0
 25 26  4  0  0  0
 27 32  1  0  0  0
  1 35  1  0  0  0
  3 36  1  0  0  0
  3 37  1  0  0  0
  3 38  1  0  0  0
  4 39  1  0  0  0
  4 40  1  0  0  0
  4 41  1  0  0  0
  5 42  1  0  0  0
 10 43  1  0  0  0
 11 44  1  0  0  0
 13 45  1  0  0  0
 13 46  1  0  0  0
 14 47  1  0  0  0
 15 48  1  0  0  0
 16 49  1  0  0  0
 16 50  1  0  0  0
 18 51  1  0  0  0
 18 52  1  0  0  0
 20 53  1  0  0  0
 21 54  1  0  0  0
 22 55  1  0  0  0
 23 56  1  0  0  0
 24 57  1  0  0  0
 25 58  1  0  0  0
 26 59  1  0  0  0
 27 60  1  0  0  0
 30 61  1  0  0  0
 32 62  1  0  0  0
M  END
$$$$
