6hah_ligand
  -I-interpret- 

108114  0  0  0  0  0  0  0  0999 V2000
   19.1880    5.6910   31.4620 C   0  0  0  0  0
   18.7540    6.3040   30.2940 C   0  0  0  0  0
   18.5550    5.5130   29.1490 C   0  0  0  0  0
   18.8170    4.1500   29.1390 C   0  0  0  0  0
   19.2220    3.5400   30.3410 C   0  0  0  0  0
   19.3960    4.3160   31.5040 C   0  0  0  0  0
   18.3030    7.7500   30.3500 C   0  0  0  0  0
   19.3540    8.6950   29.8130 C   0  0  0  0  0
   20.2130    9.3530   30.7040 C   0  0  0  0  0
   21.1250   10.2900   30.2020 C   0  0  0  0  0
   21.2230   10.4740   28.8230 C   0  0  0  0  0
   20.3380    9.8490   27.9480 C   0  0  0  0  0
   20.4840   10.0180   26.4450 C   0  0  0  0  0
   18.4350    3.3150   27.9190 C   0  0  0  0  0
   19.4520    3.3000   26.7990 C   0  0  0  0  0
   20.1850    2.1320   26.6330 C   0  0  0  0  0
   21.0270    2.8870   24.4940 C   0  0  0  0  0
   19.4650    4.2340   25.7570 C   0  0  0  0  0
   20.9520    1.9090   25.4960 C   0  0  0  0  0
   20.2170    4.0280   24.6050 C   0  0  0  0  0
   19.1120    5.3570   22.6590 C   0  0  0  0  0
   18.0180    4.5040   22.6210 C   0  0  0  0  0
   19.4500    8.9040   28.4460 C   0  0  0  0  0
   20.3030    5.1730   23.6010 C   0  0  0  0  0
   16.9670    4.6930   21.7110 C   0  0  0  0  0
   17.0340    5.7820   20.8430 C   0  0  0  0  0
   18.0880    6.6920   20.9150 C   0  0  0  0  0
   19.1550    6.4330   21.7700 C   0  0  0  0  0
   18.1620    7.8150   19.9010 C   0  0  0  0  0
   19.5410   11.0350   25.8000 C   0  0  0  0  0
   19.6160   11.2010   24.4210 C   0  0  0  0  0
   18.7360   12.0640   23.7590 C   0  0  0  0  0
   17.9140   12.9020   24.5250 C   0  0  0  0  0
   17.8150   12.7560   25.9150 C   0  0  0  0  0
   18.7060   11.8780   26.5550 C   0  0  0  0  0
   17.6410    9.1420   20.4340 C   0  0  0  0  0
   16.3600    9.5280   20.0340 C   0  0  0  0  0
   15.8420   10.7670   20.4150 C   0  0  0  0  0
   16.6400   11.6430   21.1420 C   0  0  0  0  0
   17.9340   11.2890   21.5010 C   0  0  0  0  0
   18.4550   10.0540   21.1080 C   0  0  0  0  0
   20.5310   10.4310   23.7610 O   0  0  0  0  0
   18.5270    8.4080   27.6050 O   0  0  0  0  0
   17.9940    6.0520   28.0480 O   0  0  0  0  0
   18.6990    5.3440   25.7960 O   0  0  0  0  0
   20.1850    7.2920   21.9010 O   0  0  0  0  0
   19.7440    9.7780   21.4110 O   0  0  0  0  0
   16.8730   13.7610   26.7740 S   0  0  0  0  0
   22.0430   11.1430   31.2000 S   0  0  0  0  0
   19.8190    3.6430   32.8990 S   0  0  0  0  0
   21.8550    0.5770   25.4330 S   0  0  0  0  0
   15.7660    3.6240   21.5990 S   0  0  0  0  0
   14.3250   11.1580   20.0820 S   0  0  0  0  0
   18.7920   12.2780   22.2540 C   0  0  0  0  0
   17.7500   14.8260   27.2910 O   0  0  0  0  0
   16.2910   13.0370   27.9240 O   0  0  0  0  0
   15.7910   14.2710   25.9220 O   0  0  0  0  0
   23.1680   11.7480   30.4590 O   0  0  0  0  0
   21.2230   12.2010   31.8330 O   0  0  0  0  0
   22.5770   10.2890   32.2780 O   0  0  0  0  0
   21.2390    3.9020   33.1480 O   0  0  0  0  0
   18.9950    4.1490   34.0470 O   0  0  0  0  0
   19.6600    2.1710   32.7700 O   0  0  0  0  0
   23.2700    0.9750   25.3990 O   0  0  0  0  0
   21.5570   -0.0850   24.1530 O   0  0  0  0  0
   21.6170   -0.2660   26.6240 O   0  0  0  0  0
   16.2760    2.4760   20.8180 O   0  0  0  0  0
   14.6080    4.1760   20.8740 O   0  0  0  0  0
   15.3560    3.1890   22.9440 O   0  0  0  0  0
   13.8430   12.1630   21.0570 O   0  0  0  0  0
   13.4740    9.9530   20.1700 O   0  0  0  0  0
   14.2590   11.7110   18.7090 O   0  0  0  0  0
   19.3672    6.2921   32.3534 H   0  0  0  0  0
   19.4014    2.4653   30.3722 H   0  0  0  0  0
   18.1152    8.0074   31.3924 H   0  0  0  0  0
   17.4088    7.8512   29.7350 H   0  0  0  0  0
   20.1718    9.1386   31.7719 H   0  0  0  0  0
   22.0060   11.1183   28.4231 H   0  0  0  0  0
   20.2478    9.0513   26.0003 H   0  0  0  0  0
   21.4969   10.3812   26.2712 H   0  0  0  0  0
   17.5276    3.7589   27.5096 H   0  0  0  0  0
   18.3370    2.2858   28.2644 H   0  0  0  0  0
   20.1579    1.3718   27.4137 H   0  0  0  0  0
   21.7007    2.7637   23.6460 H   0  0  0  0  0
   17.9741    3.6655   23.3161 H   0  0  0  0  0
   21.1569    4.9469   22.9624 H   0  0  0  0  0
   20.3593    6.0862   24.1934 H   0  0  0  0  0
   16.2515    5.9240   20.0976 H   0  0  0  0  0
   17.5395    7.5337   19.0516 H   0  0  0  0  0
   19.2109    7.9540   19.6390 H   0  0  0  0  0
   17.3394   13.6841   24.0287 H   0  0  0  0  0
   18.7503   11.8501   27.6437 H   0  0  0  0  0
   15.7600    8.8567   19.4196 H   0  0  0  0  0
   16.2463   12.6169   21.4330 H   0  0  0  0  0
   20.4954   10.6278   22.8221 H   0  0  0  0  0
   18.7538    8.6498   26.7041 H   0  0  0  0  0
   17.9304    5.3830   27.3624 H   0  0  0  0  0
   18.8427    5.8588   24.9985 H   0  0  0  0  0
   20.1085    7.9847   21.2407 H   0  0  0  0  0
   20.1307   10.5265   21.8713 H   0  0  0  0  0
   19.8246   12.1433   21.9319 H   0  0  0  0  0
   18.4188   13.2797   22.0411 H   0  0  0  0  0
   15.7159   12.3385   27.6031 H   0  0  0  0  0
   20.4954   11.7970   32.3115 H   0  0  0  0  0
   18.0668    3.9748   33.8745 H   0  0  0  0  0
   20.6938   -0.5281   26.6499 H   0  0  0  0  0
   17.0335    2.0953   21.2684 H   0  0  0  0  0
   14.5732   11.0529   18.0847 H   0  0  0  0  0
  2  1  4  0  0  0
  6  1  4  0  0  0
  3  2  4  0  0  0
  2  7  1  0  0  0
  4  3  4  0  0  0
  3 44  1  0  0  0
  4  5  4  0  0  0
 14  4  1  0  0  0
  5  6  4  0  0  0
  6 50  1  0  0  0
  7  8  1  0  0  0
  8  9  4  0  0  0
  8 23  4  0  0  0
  9 10  4  0  0  0
 10 11  4  0  0  0
 10 49  1  0  0  0
 12 11  4  0  0  0
 12 13  1  0  0  0
 23 12  4  0  0  0
 13 30  1  0  0  0
 15 14  1  0  0  0
 15 16  4  0  0  0
 18 15  4  0  0  0
 19 16  4  0  0  0
 17 19  4  0  0  0
 20 17  4  0  0  0
 20 18  4  0  0  0
 18 45  1  0  0  0
 19 51  1  0  0  0
 24 20  1  0  0  0
 21 22  4  0  0  0
 21 24  1  0  0  0
 21 28  4  0  0  0
 22 25  4  0  0  0
 23 43  1  0  0  0
 25 26  4  0  0  0
 25 52  1  0  0  0
 26 27  4  0  0  0
 27 28  4  0  0  0
 27 29  1  0  0  0
 28 46  1  0  0  0
 29 36  1  0  0  0
 30 31  4  0  0  0
 30 35  4  0  0  0
 31 32  4  0  0  0
 31 42  1  0  0  0
 32 33  4  0  0  0
 32 54  1  0  0  0
 33 34  4  0  0  0
 34 35  4  0  0  0
 34 48  1  0  0  0
 36 37  4  0  0  0
 36 41  4  0  0  0
 37 38  4  0  0  0
 38 39  4  0  0  0
 38 53  1  0  0  0
 39 40  4  0  0  0
 40 41  4  0  0  0
 40 54  1  0  0  0
 41 47  1  0  0  0
 48 55  2  0  0  0
 48 56  1  0  0  0
 48 57  2  0  0  0
 49 58  2  0  0  0
 49 59  1  0  0  0
 49 60  2  0  0  0
 50 61  2  0  0  0
 50 62  1  0  0  0
 50 63  2  0  0  0
 51 64  2  0  0  0
 51 65  2  0  0  0
 51 66  1  0  0  0
 52 67  1  0  0  0
 52 68  2  0  0  0
 52 69  2  0  0  0
 53 70  2  0  0  0
 53 71  2  0  0  0
 53 72  1  0  0  0
  1 73  1  0  0  0
  5 74  1  0  0  0
  7 75  1  0  0  0
  7 76  1  0  0  0
  9 77  1  0  0  0
 11 78  1  0  0  0
 13 79  1  0  0  0
 13 80  1  0  0  0
 14 81  1  0  0  0
 14 82  1  0  0  0
 16 83  1  0  0  0
 17 84  1  0  0  0
 22 85  1  0  0  0
 24 86  1  0  0  0
 24 87  1  0  0  0
 26 88  1  0  0  0
 29 89  1  0  0  0
 29 90  1  0  0  0
 33 91  1  0  0  0
 35 92  1  0  0  0
 37 93  1  0  0  0
 39 94  1  0  0  0
 42 95  1  0  0  0
 43 96  1  0  0  0
 44 97  1  0  0  0
 45 98  1  0  0  0
 46 99  1  0  0  0
 47100  1  0  0  0
 54101  1  0  0  0
 54102  1  0  0  0
 56103  1  0  0  0
 59104  1  0  0  0
 62105  1  0  0  0
 66106  1  0  0  0
 67107  1  0  0  0
 72108  1  0  0  0
M  END
$$$$
