### 
### Created by X-TOOL on Mon Aug  2 16:12:00 2021
### 

@<TRIPOS>MOLECULE
6hah_ligand
  102   108     1     0     0
SMALL
GAST_HUCK


@<TRIPOS>ATOM
      1 C1         19.1880    5.6910   31.4620 C.ar      1 FWQ        -0.0521
      2 C2         18.7540    6.3040   30.2940 C.ar      1 FWQ        -0.0093
      3 C3         18.5550    5.5130   29.1490 C.ar      1 FWQ         0.0941
      4 C4         18.8170    4.1500   29.1390 C.ar      1 FWQ        -0.0093
      5 C5         19.2220    3.5400   30.3410 C.ar      1 FWQ        -0.0521
      6 C6         19.3960    4.3160   31.5040 C.ar      1 FWQ         0.0277
      7 C7         18.3030    7.7500   30.3500 C.3       1 FWQ         0.0073
      8 C8         19.3540    8.6950   29.8130 C.ar      1 FWQ        -0.0093
      9 C9         20.2130    9.3530   30.7040 C.ar      1 FWQ        -0.0521
     10 C10        21.1250   10.2900   30.2020 C.ar      1 FWQ         0.0277
     11 C11        21.2230   10.4740   28.8230 C.ar      1 FWQ        -0.0521
     12 C12        20.3380    9.8490   27.9480 C.ar      1 FWQ        -0.0093
     13 C14        20.4840   10.0180   26.4450 C.3       1 FWQ         0.0073
     14 C15        18.4350    3.3150   27.9190 C.3       1 FWQ         0.0073
     15 C16        19.4520    3.3000   26.7990 C.ar      1 FWQ        -0.0093
     16 C17        20.1850    2.1320   26.6330 C.ar      1 FWQ        -0.0521
     17 C19        21.0270    2.8870   24.4940 C.ar      1 FWQ        -0.0521
     18 C21        19.4650    4.2340   25.7570 C.ar      1 FWQ         0.0941
     19 C18        20.9520    1.9090   25.4960 C.ar      1 FWQ         0.0277
     20 C20        20.2170    4.0280   24.6050 C.ar      1 FWQ        -0.0093
     21 C36        19.1120    5.3570   22.6590 C.ar      1 FWQ        -0.0093
     22 C37        18.0180    4.5040   22.6210 C.ar      1 FWQ        -0.0521
     23 C13        19.4500    8.9040   28.4460 C.ar      1 FWQ         0.0941
     24 C29        20.3030    5.1730   23.6010 C.3       1 FWQ         0.0073
     25 C38        16.9670    4.6930   21.7110 C.ar      1 FWQ         0.0277
     26 C39        17.0340    5.7820   20.8430 C.ar      1 FWQ        -0.0521
     27 C40        18.0880    6.6920   20.9150 C.ar      1 FWQ        -0.0093
     28 C41        19.1550    6.4330   21.7700 C.ar      1 FWQ         0.0941
     29 C43        18.1620    7.8150   19.9010 C.3       1 FWQ         0.0073
     30 C44        19.5410   11.0350   25.8000 C.ar      1 FWQ        -0.0093
     31 C45        19.6160   11.2010   24.4210 C.ar      1 FWQ         0.0941
     32 C46        18.7360   12.0640   23.7590 C.ar      1 FWQ        -0.0093
     33 C47        17.9140   12.9020   24.5250 C.ar      1 FWQ        -0.0521
     34 C48        17.8150   12.7560   25.9150 C.ar      1 FWQ         0.0277
     35 C49        18.7060   11.8780   26.5550 C.ar      1 FWQ        -0.0521
     36 C50        17.6410    9.1420   20.4340 C.ar      1 FWQ        -0.0093
     37 C51        16.3600    9.5280   20.0340 C.ar      1 FWQ        -0.0521
     38 C52        15.8420   10.7670   20.4150 C.ar      1 FWQ         0.0277
     39 C53        16.6400   11.6430   21.1420 C.ar      1 FWQ        -0.0521
     40 C54        17.9340   11.2890   21.5010 C.ar      1 FWQ        -0.0093
     41 C55        18.4550   10.0540   21.1080 C.ar      1 FWQ         0.0941
     42 O1         20.5310   10.4310   23.7610 O.3       1 FWQ        -0.3403
     43 O2         18.5270    8.4080   27.6050 O.3       1 FWQ        -0.3403
     44 O3         17.9940    6.0520   28.0480 O.3       1 FWQ        -0.3403
     45 O4         18.6990    5.3440   25.7960 O.3       1 FWQ        -0.3403
     46 O5         20.1850    7.2920   21.9010 O.3       1 FWQ        -0.3403
     47 O6         19.7440    9.7780   21.4110 O.3       1 FWQ        -0.3403
     48 S64        16.8730   13.7610   26.7740 S.o2      1 FWQ        -0.1710
     49 S67        22.0430   11.1430   31.2000 S.o2      1 FWQ        -0.1710
     50 S68        19.8190    3.6430   32.8990 S.o2      1 FWQ        -0.1710
     51 S69        21.8550    0.5770   25.4330 S.o2      1 FWQ        -0.1710
     52 S70        15.7660    3.6240   21.5990 S.o2      1 FWQ        -0.1710
     53 S71        14.3250   11.1580   20.0820 S.o2      1 FWQ        -0.1710
     54 C72        18.7920   12.2780   22.2540 C.3       1 FWQ         0.0073
     55 O7         17.7500   14.8260   27.2910 O.co2     1 FWQ        -0.4813
     56 O8         16.2910   13.0370   27.9240 O.co2     1 FWQ        -0.4813
     57 O9         15.7910   14.2710   25.9220 O.co2     1 FWQ        -0.4813
     58 O10        23.1680   11.7480   30.4590 O.co2     1 FWQ        -0.4813
     59 O11        21.2230   12.2010   31.8330 O.co2     1 FWQ        -0.4813
     60 O12        22.5770   10.2890   32.2780 O.co2     1 FWQ        -0.4813
     61 O13        21.2390    3.9020   33.1480 O.co2     1 FWQ        -0.4813
     62 O14        18.9950    4.1490   34.0470 O.co2     1 FWQ        -0.4813
     63 O15        19.6600    2.1710   32.7700 O.co2     1 FWQ        -0.4813
     64 O16        23.2700    0.9750   25.3990 O.co2     1 FWQ        -0.4813
     65 O17        21.5570   -0.0850   24.1530 O.co2     1 FWQ        -0.4813
     66 O18        21.6170   -0.2660   26.6240 O.co2     1 FWQ        -0.4813
     67 O19        16.2760    2.4760   20.8180 O.co2     1 FWQ        -0.4813
     68 O20        14.6080    4.1760   20.8740 O.co2     1 FWQ        -0.4813
     69 O21        15.3560    3.1890   22.9440 O.co2     1 FWQ        -0.4813
     70 O22        13.8430   12.1630   21.0570 O.co2     1 FWQ        -0.4813
     71 O23        13.4740    9.9530   20.1700 O.co2     1 FWQ        -0.4813
     72 O24        14.2590   11.7110   18.7090 O.co2     1 FWQ        -0.4813
     73 H1         19.3662    6.2888   32.3485 H         1 FWQ         0.0493
     74 H2         19.4004    2.4712   30.3720 H         1 FWQ         0.0493
     75 H3         18.0894    8.0146   31.3961 H         1 FWQ         0.0535
     76 H4         17.3877    7.8596   29.7498 H         1 FWQ         0.0535
     77 H5         20.1721    9.1398   31.7660 H         1 FWQ         0.0493
     78 H6         22.0017   11.1147   28.4253 H         1 FWQ         0.0493
     79 H7         20.3003    9.0406   25.9750 H         1 FWQ         0.0535
     80 H8         21.5167   10.3358   26.2388 H         1 FWQ         0.0535
     81 H9         17.4924    3.7140   27.5162 H         1 FWQ         0.0535
     82 H10        18.2816    2.2779   28.2520 H         1 FWQ         0.0535
     83 H11        20.1581    1.3760   27.4094 H         1 FWQ         0.0493
     84 H12        21.6970    2.7644   23.6507 H         1 FWQ         0.0493
     85 H13        17.9744    3.6701   23.3123 H         1 FWQ         0.0493
     86 H14        21.1951    5.0044   22.9800 H         1 FWQ         0.0535
     87 H15        20.4237    6.1063   24.1705 H         1 FWQ         0.0535
     88 H16        16.2558    5.9232   20.1017 H         1 FWQ         0.0493
     89 H17        17.5634    7.5323   19.0225 H         1 FWQ         0.0535
     90 H18        19.2123    7.9470   19.6020 H         1 FWQ         0.0535
     91 H19        17.3426   13.6798   24.0314 H         1 FWQ         0.0493
     92 H20        18.7501   11.8502   27.6378 H         1 FWQ         0.0493
     93 H21        15.7633    8.8604   19.4230 H         1 FWQ         0.0493
     94 H22        16.2485   12.6115   21.4314 H         1 FWQ         0.0493
     95 H23        20.0793    9.8467   23.1634 H         1 FWQ         0.2433
     96 H24        17.9870    7.7768   28.0658 H         1 FWQ         0.2433
     97 H25        18.5658    5.9131   27.3022 H         1 FWQ         0.2433
     98 H26        18.2349    5.3782   26.6242 H         1 FWQ         0.2433
     99 H27        19.8602    8.1292   22.2110 H         1 FWQ         0.2433
    100 H28        19.8592    9.8044   22.3537 H         1 FWQ         0.2433
    101 H29        19.8342   12.1681   21.9198 H         1 FWQ         0.0535
    102 H30        18.4398   13.2953   22.0282 H         1 FWQ         0.0535
@<TRIPOS>BOND
     1    2    1 ar 
     2    6    1 ar 
     3    3    2 ar 
     4    2    7 1  
     5    4    3 ar 
     6    3   44 1  
     7    4    5 ar 
     8   14    4 1  
     9    5    6 ar 
    10    6   50 1  
    11    7    8 1  
    12    8    9 ar 
    13    8   23 ar 
    14    9   10 ar 
    15   10   11 ar 
    16   10   49 1  
    17   12   11 ar 
    18   12   13 1  
    19   23   12 ar 
    20   13   30 1  
    21   15   14 1  
    22   15   16 ar 
    23   18   15 ar 
    24   19   16 ar 
    25   17   19 ar 
    26   20   17 ar 
    27   20   18 ar 
    28   18   45 1  
    29   19   51 1  
    30   24   20 1  
    31   21   22 ar 
    32   21   24 1  
    33   21   28 ar 
    34   22   25 ar 
    35   23   43 1  
    36   25   26 ar 
    37   25   52 1  
    38   26   27 ar 
    39   27   28 ar 
    40   27   29 1  
    41   28   46 1  
    42   29   36 1  
    43   30   31 ar 
    44   30   35 ar 
    45   31   32 ar 
    46   31   42 1  
    47   32   33 ar 
    48   32   54 1  
    49   33   34 ar 
    50   34   35 ar 
    51   34   48 1  
    52   36   37 ar 
    53   36   41 ar 
    54   37   38 ar 
    55   38   39 ar 
    56   38   53 1  
    57   39   40 ar 
    58   40   41 ar 
    59   40   54 1  
    60   41   47 1  
    61   48   55 ar 
    62   48   56 ar 
    63   48   57 ar 
    64   49   58 ar 
    65   49   59 ar 
    66   49   60 ar 
    67   50   61 ar 
    68   50   62 ar 
    69   50   63 ar 
    70   51   64 ar 
    71   51   65 ar 
    72   51   66 ar 
    73   52   67 ar 
    74   52   68 ar 
    75   52   69 ar 
    76   53   70 ar 
    77   53   71 ar 
    78   53   72 ar 
    79    1   73 1  
    80    5   74 1  
    81    7   75 1  
    82    7   76 1  
    83    9   77 1  
    84   11   78 1  
    85   13   79 1  
    86   13   80 1  
    87   14   81 1  
    88   14   82 1  
    89   16   83 1  
    90   17   84 1  
    91   22   85 1  
    92   24   86 1  
    93   24   87 1  
    94   26   88 1  
    95   29   89 1  
    96   29   90 1  
    97   33   91 1  
    98   35   92 1  
    99   37   93 1  
   100   39   94 1  
   101   42   95 1  
   102   43   96 1  
   103   44   97 1  
   104   45   98 1  
   105   46   99 1  
   106   47  100 1  
   107   54  101 1  
   108   54  102 1  
@<TRIPOS>SUBSTRUCTURE
     1 FWQ         1

