2qcn_ligand
  -I-interpret- 

 34 35  0  0  0  0  0  0  0  0999 V2000
   20.8460   -2.6770   14.1220 N   0  0  0  0  0
   20.6240   -3.5730   13.0610 C   0  0  0  0  0
   19.7790   -3.2400   12.0770 N   0  0  0  0  0
   19.1780   -2.0480   12.0540 C   0  0  0  0  0
   19.3610   -1.1440   13.0930 C   0  0  0  0  0
   20.2430   -1.4770   14.1230 C   0  0  0  0  0
   21.1920   -4.6780   13.0440 O   0  0  0  0  0
   18.4440   -1.7910   11.0980 O   0  0  0  0  0
   21.8570   -2.9920   15.1440 C   0  0  0  0  0
   21.6970   -4.2560   15.9460 C   0  0  0  0  0
   21.1550   -3.8280   17.1850 O   0  0  0  0  0
   23.1330   -4.7380   16.1050 C   0  0  0  0  0
   23.8090   -4.2950   14.8160 C   0  0  0  0  0
   23.7730   -4.1530   17.2540 O   0  0  0  0  0
   23.0530   -3.1480   14.3440 O   0  0  0  0  0
   23.8530   -5.5010   13.8410 C   0  0  0  0  0
   24.8250   -6.4010   14.3950 O   0  0  0  0  0
   25.1390   -7.7850   13.6000 P   0  0  0  0  0
   26.1310   -7.5440   12.4980 O   0  0  0  0  0
   23.8540   -8.3360   13.0260 O   0  0  0  0  0
   25.6850   -8.6740   14.6760 O   0  0  0  0  0
   19.5909   -3.9097   11.3309 H   0  0  0  0  0
   18.8268   -0.1939   13.1039 H   0  0  0  0  0
   20.4413   -0.7657   14.9248 H   0  0  0  0  0
   21.8218   -2.2117   15.9042 H   0  0  0  0  0
   21.0650   -5.0375   15.5242 H   0  0  0  0  0
   21.0240   -4.5888   17.7556 H   0  0  0  0  0
   23.1902   -5.8143   16.2678 H   0  0  0  0  0
   24.8475   -3.9857   14.9337 H   0  0  0  0  0
   24.6730   -4.4807   17.3191 H   0  0  0  0  0
   24.1228   -5.1910   12.8314 H   0  0  0  0  0
   22.8762   -5.9751   13.7450 H   0  0  0  0  0
   25.7381   -6.9718   11.8348 H   0  0  0  0  0
   23.5313   -7.7452   12.3416 H   0  0  0  0  0
  1  2  1  0  0  0
  1  6  1  0  0  0
  1  9  1  0  0  0
  2  3  1  0  0  0
  2  7  2  0  0  0
  3  4  1  0  0  0
  4  5  1  0  0  0
  4  8  2  0  0  0
  5  6  2  0  0  0
  9 10  1  0  0  0
  9 15  1  0  0  0
 10 11  1  0  0  0
 10 12  1  0  0  0
 12 13  1  0  0  0
 12 14  1  0  0  0
 13 15  1  0  0  0
 13 16  1  0  0  0
 16 17  1  0  0  0
 17 18  1  0  0  0
 18 19  1  0  0  0
 18 20  1  0  0  0
 18 21  2  0  0  0
  3 22  1  0  0  0
  5 23  1  0  0  0
  6 24  1  0  0  0
  9 25  1  0  0  0
 10 26  1  0  0  0
 11 27  1  0  0  0
 12 28  1  0  0  0
 13 29  1  0  0  0
 14 30  1  0  0  0
 16 31  1  0  0  0
 16 32  1  0  0  0
 19 33  1  0  0  0
 20 34  1  0  0  0
M  END
$$$$
