### 
### Created by X-TOOL on Sun Sep  9 21:50:32 2018
### 

@<TRIPOS>MOLECULE
2qcn_ligand
   32    33     1     0     0
SMALL
GAST_HUCK


@<TRIPOS>ATOM
      1 N1         20.8460   -2.6770   14.1220 N.am      1 NON        -0.1592
      2 C2         20.6240   -3.5730   13.0610 C.2       1 NON         0.3328
      3 N3         19.7790   -3.2400   12.0770 N.am      1 NON        -0.1865
      4 C4         19.1780   -2.0480   12.0540 C.2       1 NON         0.1822
      5 C5         19.3610   -1.1440   13.0930 C.2       1 NON         0.0062
      6 C6         20.2430   -1.4770   14.1230 C.2       1 NON         0.0591
      7 O2         21.1920   -4.6780   13.0440 O.2       1 NON        -0.3815
      8 O4         18.4440   -1.7910   11.0980 O.2       1 NON        -0.4124
      9 C1'        21.8570   -2.9920   15.1440 C.3       1 NON         0.2059
     10 C2'        21.6970   -4.2560   15.9460 C.3       1 NON         0.1387
     11 O2'        21.1550   -3.8280   17.1850 O.3       1 NON        -0.3836
     12 C3'        23.1330   -4.7380   16.1050 C.3       1 NON         0.1149
     13 C4'        23.8090   -4.2950   14.8160 C.3       1 NON         0.1182
     14 O3'        23.7730   -4.1530   17.2540 O.3       1 NON        -0.3864
     15 O4'        23.0530   -3.1480   14.3440 O.3       1 NON        -0.3363
     16 C5'        23.8530   -5.5010   13.8410 C.3       1 NON         0.1072
     17 O5'        24.8250   -6.4010   14.3950 O.3       1 NON        -0.2734
     18 P          25.1390   -7.7850   13.6000 P.3       1 NON         0.2008
     19 O1P        26.1310   -7.5440   12.4980 O.co2     1 NON        -0.5537
     20 O2P        23.8540   -8.3360   13.0260 O.co2     1 NON        -0.5537
     21 O3P        25.6850   -8.6740   14.6760 O.co2     1 NON        -0.5537
     22 H1         19.5946   -3.8965   11.3456 H         1 NON         0.2259
     23 H2         18.8273   -0.1948   13.1039 H         1 NON         0.0258
     24 H3         20.4412   -0.7664   14.9240 H         1 NON         0.1178
     25 H4         21.9424   -2.1470   15.8430 H         1 NON         0.0997
     26 H5         21.0587   -5.0080   15.4592 H         1 NON         0.0676
     27 H6         20.3219   -3.3975   17.0331 H         1 NON         0.2101
     28 H7         23.1614   -5.8336   16.1995 H         1 NON         0.0648
     29 H8         24.8425   -3.9785   15.0200 H         1 NON         0.0650
     30 H9         24.6834   -4.4230   17.2796 H         1 NON         0.2100
     31 H10        24.1596   -5.1735   12.8367 H         1 NON         0.0639
     32 H11        22.8675   -5.9862   13.7835 H         1 NON         0.0639
@<TRIPOS>BOND
     1    1    2 am 
     2    1    6 1  
     3    1    9 1  
     4    2    3 am 
     5    2    7 2  
     6    3    4 am 
     7    4    5 1  
     8    4    8 2  
     9    5    6 2  
    10    9   10 1  
    11    9   15 1  
    12   10   11 1  
    13   10   12 1  
    14   12   13 1  
    15   12   14 1  
    16   13   15 1  
    17   13   16 1  
    18   16   17 1  
    19   17   18 1  
    20   18   19 ar 
    21   18   20 ar 
    22   18   21 ar 
    23    3   22 1  
    24    5   23 1  
    25    6   24 1  
    26    9   25 1  
    27   10   26 1  
    28   11   27 1  
    29   12   28 1  
    30   13   29 1  
    31   14   30 1  
    32   16   31 1  
    33   16   32 1  
@<TRIPOS>SUBSTRUCTURE
     1 NON         1

