1nkm_ligand
  -I-interpret- 

115115  0  0  0  0  0  0  0  0999 V2000
   64.8230    5.5390   33.1510 C   0  0  0  0  0
   64.0580    5.2070   31.8720 C   0  0  0  0  0
   64.6360    5.1070   30.7830 O   0  0  0  0  0
   63.9980    5.1450   34.3880 C   0  0  0  0  0
   64.7130    5.4330   35.7160 C   0  0  0  0  0
   63.9690    4.8890   36.9300 C   0  0  0  0  0
   64.8550    4.9550   38.1730 C   0  0  0  0  0
   66.1580    4.2420   37.9760 N   0  3  0  0  0
   62.7520    5.0340   32.0150 N   0  0  0  0  0
   61.9040    4.7180   30.8790 C   0  0  0  0  0
   61.4610    3.2270   30.8970 C   0  0  0  0  0
   60.4490    2.9930   32.0260 C   0  0  0  0  0
   60.8300    2.8640   29.5480 C   0  0  0  0  0
   62.6790    2.3380   31.1440 C   0  0  0  0  0
   60.6690    5.5960   30.9390 C   0  0  0  0  0
   60.2490    6.0170   32.0200 O   0  0  0  0  0
   60.0980    5.8790   29.7750 N   0  0  0  0  0
   58.8940    6.6990   29.7040 C   0  0  0  0  0
   59.2280    8.1720   29.2760 C   0  0  0  0  0
   60.1060    8.1660   28.0130 C   0  0  0  0  0
   57.9310    8.9380   28.9930 C   0  0  0  0  0
   59.9670    8.8790   30.4130 C   0  0  0  0  0
   57.8760    6.0730   28.7430 C   0  0  0  0  0
   58.2030    5.7360   27.5980 O   0  0  0  0  0
   56.6490    5.9080   29.2300 N   0  0  0  0  0
   55.5820    5.3220   28.4320 C   0  0  0  0  0
   54.9760    4.1060   29.1410 C   0  0  0  0  0
   55.9550    2.9570   29.3030 C   0  0  0  0  0
   56.9390    2.8410   28.5620 O   0  0  0  0  0
   55.6690    2.0740   30.2660 N   0  0  0  0  0
   54.5050    2.1910   31.1220 C   0  0  0  0  0
   56.5360    0.9310   30.4580 C   0  0  0  0  0
   54.4480    6.2960   28.1270 C   0  0  0  0  0
   53.8580    6.8880   29.0310 O   0  0  0  0  0
   54.1410    6.4470   26.8440 N   0  0  0  0  0
   53.0490    7.3140   26.4100 C   0  0  0  0  0
   51.9510    6.4650   25.8000 C   0  0  0  0  0
   51.1620    7.2770   25.0060 O   0  0  0  0  0
   53.5430    8.3070   25.3760 C   0  0  0  0  0
   51.1160    5.8180   26.9300 C   0  0  0  0  0
   51.6630    5.4090   27.9640 O   0  0  0  0  0
   49.8010    5.7320   26.7420 N   0  0  0  0  0
   48.8760    5.1400   27.7160 C   0  0  0  0  0
   47.8410    4.2320   27.0490 C   0  0  0  0  0
   47.0540    3.4500   28.1000 C   0  0  0  0  0
   48.1400    6.2090   28.4860 C   0  0  0  0  0
   48.5200    6.5280   29.7930 C   0  0  0  0  0
   47.8100    7.4790   30.5430 C   0  0  0  0  0
   46.7090    8.1200   29.9780 C   0  0  0  0  0
   46.3220    7.8100   28.6680 C   0  0  0  0  0
   47.0390    6.8600   27.9320 C   0  0  0  0  0
   65.0163    6.6113   33.1804 H   0  0  0  0  0
   65.7604    4.9829   33.1581 H   0  0  0  0  0
   63.8217    4.0706   34.3364 H   0  0  0  0  0
   63.0821    5.7358   34.3735 H   0  0  0  0  0
   64.7791    6.5153   35.8272 H   0  0  0  0  0
   65.6865    4.9442   35.6793 H   0  0  0  0  0
   63.6973    3.8501   36.7431 H   0  0  0  0  0
   63.0766    5.4918   37.0983 H   0  0  0  0  0
   64.3247    4.4727   38.9941 H   0  0  0  0  0
   65.0695    6.0031   38.3820 H   0  0  0  0  0
   66.7146    4.3119   38.8279 H   0  0  0  0  0
   65.9785    3.2603   37.7652 H   0  0  0  0  0
   66.6648    4.6702   37.2012 H   0  0  0  0  0
   62.3341    5.1245   32.9410 H   0  0  0  0  0
   62.4696    4.8958   29.9644 H   0  0  0  0  0
   60.9092    3.2423   32.9821 H   0  0  0  0  0
   59.5755    3.6250   31.8660 H   0  0  0  0  0
   60.1458    1.9460   32.0292 H   0  0  0  0  0
   59.9619    3.4991   29.3718 H   0  0  0  0  0
   61.5607    3.0166   28.7537 H   0  0  0  0  0
   60.5203    1.8190   29.5626 H   0  0  0  0  0
   63.4072    2.4922   30.3478 H   0  0  0  0  0
   63.1274    2.5965   32.1033 H   0  0  0  0  0
   62.3682    1.2933   31.1565 H   0  0  0  0  0
   60.5085    5.5165   28.9145 H   0  0  0  0  0
   58.4551    6.7367   30.7010 H   0  0  0  0  0
   61.0338    7.6326   28.2196 H   0  0  0  0  0
   59.5721    7.6687   27.2032 H   0  0  0  0  0
   60.3321    9.1925   27.7243 H   0  0  0  0  0
   57.3865    8.4433   28.1887 H   0  0  0  0  0
   57.3165    8.9544   29.8931 H   0  0  0  0  0
   58.1709    9.9591   28.6966 H   0  0  0  0  0
   59.3359    8.8927   31.3016 H   0  0  0  0  0
   60.8919    8.3450   30.6309 H   0  0  0  0  0
   60.1980    9.9014   30.1141 H   0  0  0  0  0
   56.4509    6.1996   30.1871 H   0  0  0  0  0
   56.0524    5.0350   27.4916 H   0  0  0  0  0
   54.1460    3.7486   28.5315 H   0  0  0  0  0
   54.6721    4.4234   30.1385 H   0  0  0  0  0
   54.5531    3.1308   31.6721 H   0  0  0  0  0
   53.6027    2.1721   30.5108 H   0  0  0  0  0
   54.4870    1.3578   31.8245 H   0  0  0  0  0
   56.5605    0.3376   29.5440 H   0  0  0  0  0
   57.5423    1.2758   30.6959 H   0  0  0  0  0
   56.1558    0.3219   31.2781 H   0  0  0  0  0
   54.6831    5.9433   26.1420 H   0  0  0  0  0
   52.6664    7.8604   27.2721 H   0  0  0  0  0
   52.3735    5.6675   25.1887 H   0  0  0  0  0
   50.4607    6.7532   24.6118 H   0  0  0  0  0
   54.3327    8.9197   25.8108 H   0  0  0  0  0
   53.9334    7.7673   24.5133 H   0  0  0  0  0
   52.7167    8.9454   25.0633 H   0  0  0  0  0
   49.4143    6.0981   25.8720 H   0  0  0  0  0
   49.4893    4.5450   28.3927 H   0  0  0  0  0
   48.3575    3.5269   26.3978 H   0  0  0  0  0
   47.1484    4.8480   26.4754 H   0  0  0  0  0
   47.7400    2.8355   28.6830 H   0  0  0  0  0
   46.5390    4.1479   28.7601 H   0  0  0  0  0
   46.3237    2.8108   27.6039 H   0  0  0  0  0
   49.3819    6.0301   30.2372 H   0  0  0  0  0
   48.1182    7.7147   31.5616 H   0  0  0  0  0
   46.1515    8.8593   30.5530 H   0  0  0  0  0
   45.4619    8.3090   28.2216 H   0  0  0  0  0
   46.7326    6.6261   26.9124 H   0  0  0  0  0
  1  2  1  0  0  0
  1  4  1  0  0  0
  2  3  2  0  0  0
  2  9  1  0  0  0
  4  5  1  0  0  0
  5  6  1  0  0  0
  6  7  1  0  0  0
  7  8  1  0  0  0
  9 10  1  0  0  0
 10 11  1  0  0  0
 10 15  1  0  0  0
 11 12  1  0  0  0
 11 13  1  0  0  0
 11 14  1  0  0  0
 15 16  2  0  0  0
 15 17  1  0  0  0
 17 18  1  0  0  0
 18 19  1  0  0  0
 18 23  1  0  0  0
 19 20  1  0  0  0
 19 21  1  0  0  0
 19 22  1  0  0  0
 23 24  2  0  0  0
 23 25  1  0  0  0
 25 26  1  0  0  0
 26 27  1  0  0  0
 26 33  1  0  0  0
 27 28  1  0  0  0
 28 29  2  0  0  0
 28 30  1  0  0  0
 30 31  1  0  0  0
 30 32  1  0  0  0
 33 34  2  0  0  0
 33 35  1  0  0  0
 35 36  1  0  0  0
 36 37  1  0  0  0
 36 39  1  0  0  0
 37 38  1  0  0  0
 37 40  1  0  0  0
 40 41  2  0  0  0
 40 42  1  0  0  0
 42 43  1  0  0  0
 43 44  1  0  0  0
 43 46  1  0  0  0
 44 45  1  0  0  0
 46 47  4  0  0  0
 46 51  4  0  0  0
 47 48  4  0  0  0
 48 49  4  0  0  0
 49 50  4  0  0  0
 50 51  4  0  0  0
  1 52  1  0  0  0
  1 53  1  0  0  0
  4 54  1  0  0  0
  4 55  1  0  0  0
  5 56  1  0  0  0
  5 57  1  0  0  0
  6 58  1  0  0  0
  6 59  1  0  0  0
  7 60  1  0  0  0
  7 61  1  0  0  0
  8 62  1  0  0  0
  8 63  1  0  0  0
  8 64  1  0  0  0
  9 65  1  0  0  0
 10 66  1  0  0  0
 12 67  1  0  0  0
 12 68  1  0  0  0
 12 69  1  0  0  0
 13 70  1  0  0  0
 13 71  1  0  0  0
 13 72  1  0  0  0
 14 73  1  0  0  0
 14 74  1  0  0  0
 14 75  1  0  0  0
 17 76  1  0  0  0
 18 77  1  0  0  0
 20 78  1  0  0  0
 20 79  1  0  0  0
 20 80  1  0  0  0
 21 81  1  0  0  0
 21 82  1  0  0  0
 21 83  1  0  0  0
 22 84  1  0  0  0
 22 85  1  0  0  0
 22 86  1  0  0  0
 25 87  1  0  0  0
 26 88  1  0  0  0
 27 89  1  0  0  0
 27 90  1  0  0  0
 31 91  1  0  0  0
 31 92  1  0  0  0
 31 93  1  0  0  0
 32 94  1  0  0  0
 32 95  1  0  0  0
 32 96  1  0  0  0
 35 97  1  0  0  0
 36 98  1  0  0  0
 37 99  1  0  0  0
 38100  1  0  0  0
 39101  1  0  0  0
 39102  1  0  0  0
 39103  1  0  0  0
 42104  1  0  0  0
 43105  1  0  0  0
 44106  1  0  0  0
 44107  1  0  0  0
 45108  1  0  0  0
 45109  1  0  0  0
 45110  1  0  0  0
 47111  1  0  0  0
 48112  1  0  0  0
 49113  1  0  0  0
 50114  1  0  0  0
 51115  1  0  0  0
M  END
$$$$
