6r4k_ligand
  -I-interpret- 

 55 57  0  0  0  0  0  0  0  0999 V2000
   -1.0620  -39.2830   60.7900 C   0  0  0  0  0
   -5.3260  -37.1590   57.4830 C   0  0  0  0  0
   -0.8490  -37.8200   64.1000 C   0  0  0  0  0
   -1.1180  -39.3310   64.5990 C   0  0  0  0  0
   -1.3600  -40.1890   63.3340 C   0  0  0  0  0
   -3.6100  -35.4730   56.7630 C   0  0  0  0  0
   -4.0080  -36.5820   57.6080 C   0  0  0  0  0
   -2.9840  -37.0230   58.4090 C   0  0  0  0  0
   -2.9950  -38.3040   59.2820 C   0  0  0  0  0
   -6.2330  -36.5740   56.5340 C   0  0  0  0  0
   -5.8020  -35.4650   55.7460 C   0  0  0  0  0
   -4.5110  -34.9160   55.8500 C   0  0  0  0  0
   -7.7500  -35.5970   54.2980 C   0  0  0  0  0
   -8.3570  -34.5350   53.3630 C   0  0  0  0  0
   -9.6860  -34.0000   51.4650 C   0  0  0  0  0
  -10.9590  -33.3880   52.1730 C   0  0  0  0  0
   -1.5800  -39.1520   62.2360 C   0  0  0  0  0
   -0.5400  -38.1560   62.7190 N   0  3  0  0  0
   -1.5830  -38.2050   59.8160 N   0  3  0  0  0
   -1.0740  -37.1180   59.2880 N   0  0  0  0  0
   -1.8070  -36.4410   58.4710 N   0  0  0  0  0
  -11.3750  -32.1590   51.3090 N   0  0  0  0  0
  -11.3680  -31.9310   50.0090 N   0  0  0  0  0
  -12.1780  -32.3680   49.1090 N   0  0  0  0  0
   -2.4190  -41.1950   63.5810 O   0  0  0  0  0
   -2.1130  -39.4990   65.6240 O   0  0  0  0  0
   -6.6480  -34.8100   54.7940 O   0  0  0  0  0
   -9.0380  -35.0210   52.2270 O   0  0  0  0  0
   -1.4117  -40.2446   60.4144 H   0  0  0  0  0
    0.0219  -39.1753   60.8310 H   0  0  0  0  0
   -5.6242  -38.0133   58.0907 H   0  0  0  0  0
   -0.0881  -37.2596   64.6432 H   0  0  0  0  0
   -1.6598  -37.1081   64.2547 H   0  0  0  0  0
   -0.2340  -39.6748   65.1360 H   0  0  0  0  0
   -0.5396  -40.8367   63.0249 H   0  0  0  0  0
   -2.6001  -35.0701   56.8400 H   0  0  0  0  0
   -3.2348  -39.2284   58.7566 H   0  0  0  0  0
   -3.7803  -38.3516   60.0364 H   0  0  0  0  0
   -7.2404  -36.9735   56.4172 H   0  0  0  0  0
   -4.2176  -34.0698   55.2287 H   0  0  0  0  0
   -7.4807  -36.5423   53.8269 H   0  0  0  0  0
   -8.4225  -35.9983   55.0562 H   0  0  0  0  0
   -7.5201  -33.9463   52.9873 H   0  0  0  0  0
   -9.0975  -33.9964   53.9544 H   0  0  0  0  0
   -8.9686  -33.1906   51.3292 H   0  0  0  0  0
  -10.0193  -34.4530   50.5313 H   0  0  0  0  0
  -10.7396  -33.0951   53.1997 H   0  0  0  0  0
  -11.7658  -34.1180   52.2388 H   0  0  0  0  0
   -2.6614  -39.0511   62.1437 H   0  0  0  0  0
    0.3937  -38.5616   62.6549 H   0  0  0  0  0
   -0.5586  -37.3171   62.1390 H   0  0  0  0  0
  -11.7224  -31.3732   51.8587 H   0  0  0  0  0
  -12.9519  -32.9781   49.3723 H   0  0  0  0  0
   -2.1458  -41.7772   64.2937 H   0  0  0  0  0
   -1.8972  -38.9385   66.3729 H   0  0  0  0  0
  1 17  1  0  0  0
 19  1  1  0  0  0
  2  7  4  0  0  0
 10  2  4  0  0  0
  4  3  1  0  0  0
  3 18  1  0  0  0
  5  4  1  0  0  0
  4 26  1  0  0  0
 17  5  1  0  0  0
  5 25  1  0  0  0
  6  7  4  0  0  0
 12  6  4  0  0  0
  7  8  1  0  0  0
  8  9  1  0  0  0
  8 21  2  0  0  0
  9 19  1  0  0  0
 11 10  4  0  0  0
 11 12  4  0  0  0
 27 11  1  0  0  0
 14 13  1  0  0  0
 13 27  1  0  0  0
 28 14  1  0  0  0
 15 16  1  0  0  0
 15 28  1  0  0  0
 16 22  1  0  0  0
 17 18  1  0  0  0
 19 20  2  0  0  0
 20 21  1  0  0  0
 22 23  1  0  0  0
 23 24  2  0  0  0
  1 29  1  0  0  0
  1 30  1  0  0  0
  2 31  1  0  0  0
  3 32  1  0  0  0
  3 33  1  0  0  0
  4 34  1  0  0  0
  5 35  1  0  0  0
  6 36  1  0  0  0
  9 37  1  0  0  0
  9 38  1  0  0  0
 10 39  1  0  0  0
 12 40  1  0  0  0
 13 41  1  0  0  0
 13 42  1  0  0  0
 14 43  1  0  0  0
 14 44  1  0  0  0
 15 45  1  0  0  0
 15 46  1  0  0  0
 16 47  1  0  0  0
 16 48  1  0  0  0
 17 49  1  0  0  0
 18 50  1  0  0  0
 18 51  1  0  0  0
 22 52  1  0  0  0
 24 53  1  0  0  0
 25 54  1  0  0  0
 26 55  1  0  0  0
M  END
$$$$
