### 
### Created by X-TOOL on Mon Aug  2 16:16:43 2021
### 

@<TRIPOS>MOLECULE
6r4k_ligand
   55    57     1     0     0
SMALL
GAST_HUCK


@<TRIPOS>ATOM
      1 C01        -1.0620  -39.2830   60.7900 C.3       1 JSK         0.0947
      2 C02        -5.3260  -37.1590   57.4830 C.ar      1 JSK         0.0073
      3 C03        -0.8490  -37.8200   64.1000 C.3       1 JSK        -0.0039
      4 C04        -1.1180  -39.3310   64.5990 C.3       1 JSK         0.1258
      5 C05        -1.3600  -40.1890   63.3340 C.3       1 JSK         0.1301
      6 C06        -3.6100  -35.4730   56.7630 C.ar      1 JSK         0.0073
      7 C07        -4.0080  -36.5820   57.6080 C.ar      1 JSK         0.0910
      8 C08        -2.9840  -37.0230   58.4090 C.2       1 JSK         0.1799
      9 C09        -2.9950  -38.3040   59.2820 C.3       1 JSK         0.1336
     10 C10        -6.2330  -36.5740   56.5340 C.ar      1 JSK         0.0338
     11 C11        -5.8020  -35.4650   55.7460 C.ar      1 JSK         0.1706
     12 C12        -4.5110  -34.9160   55.8500 C.ar      1 JSK         0.0338
     13 C13        -7.7500  -35.5970   54.2980 C.3       1 JSK         0.1149
     14 C14        -8.3570  -34.5350   53.3630 C.3       1 JSK         0.0795
     15 C15        -9.6860  -34.0000   51.4650 C.3       1 JSK         0.0706
     16 C16       -10.9590  -33.3880   52.1730 C.3       1 JSK         0.0734
     17 C17        -1.5800  -39.1520   62.2360 C.3       1 JSK         0.0284
     18 N01        -0.5400  -38.1560   62.7190 N.4       1 JSK         0.2344
     19 N02        -1.5830  -38.2050   59.8160 N.2       1 JSK        -0.2349
     20 N03        -1.0740  -37.1180   59.2880 N.2       1 JSK        -0.0400
     21 N04        -1.8070  -36.4410   58.4710 N.2       1 JSK        -0.0753
     22 N05       -11.3750  -32.1590   51.3090 N.pl3     1 JSK        -0.2177
     23 N06       -11.3680  -31.9310   50.0090 N.2       1 JSK        -0.0825
     24 N07       -12.1780  -32.3680   49.1090 N.2       1 JSK        -0.2458
     25 O01        -2.4190  -41.1950   63.5810 O.3       1 JSK        -0.3834
     26 O02        -2.1130  -39.4990   65.6240 O.3       1 JSK        -0.3837
     27 O03        -6.6480  -34.8100   54.7940 O.3       1 JSK        -0.2625
     28 O04        -9.0380  -35.0210   52.2270 O.3       1 JSK        -0.3746
     29 H1         -1.3663  -40.2676   60.4053 H         1 JSK         0.0589
     30 H2          0.0360  -39.2216   60.8129 H         1 JSK         0.0589
     31 H3         -5.6225  -38.0086   58.0874 H         1 JSK         0.0903
     32 H4         -0.0027  -37.3472   64.6198 H         1 JSK         0.0840
     33 H5         -1.7389  -37.1798   64.1906 H         1 JSK         0.0840
     34 H6         -0.1786  -39.6829   65.0504 H         1 JSK         0.0675
     35 H7         -0.4459  -40.7501   63.0900 H         1 JSK         0.0679
     36 H8         -2.6057  -35.0723   56.8396 H         1 JSK         0.0903
     37 H9         -3.1519  -39.2143   58.6847 H         1 JSK         0.0862
     38 H10        -3.7478  -38.2565   60.0827 H         1 JSK         0.0862
     39 H11        -7.2349  -36.9713   56.4179 H         1 JSK         0.0808
     40 H12        -4.2192  -34.0745   55.2322 H         1 JSK         0.0808
     41 H13        -7.4131  -36.4908   53.7524 H         1 JSK         0.0687
     42 H14        -8.4438  -35.8954   55.0978 H         1 JSK         0.0687
     43 H15        -7.5384  -33.8891   53.0126 H         1 JSK         0.0590
     44 H16        -9.0693  -33.9378   53.9512 H         1 JSK         0.0590
     45 H17        -8.9644  -33.1891   51.2872 H         1 JSK         0.0582
     46 H18        -9.9980  -34.4309   50.5022 H         1 JSK         0.0582
     47 H19       -10.7125  -33.0706   53.1970 H         1 JSK         0.0575
     48 H20       -11.7728  -34.1275   52.2041 H         1 JSK         0.0575
     49 H21        -2.6252  -38.8091   62.2373 H         1 JSK         0.0897
     50 H22         0.3788  -38.5668   62.6640 H         1 JSK         0.2019
     51 H23        -0.5713  -37.3251   62.1493 H         1 JSK         0.2019
     52 H24       -11.7258  -31.3655   51.8641 H         1 JSK         0.2134
     53 H25       -12.0475  -32.1073   48.1441 H         1 JSK         0.1451
     54 H26        -2.5610  -41.7040   62.7916 H         1 JSK         0.2102
     55 H27        -1.8994  -38.9443   66.3651 H         1 JSK         0.2101
@<TRIPOS>BOND
     1    1   17 1  
     2   19    1 1  
     3    2    7 ar 
     4   10    2 ar 
     5    4    3 1  
     6    3   18 1  
     7    5    4 1  
     8    4   26 1  
     9   17    5 1  
    10    5   25 1  
    11    6    7 ar 
    12   12    6 ar 
    13    7    8 1  
    14    8    9 1  
    15    8   21 2  
    16    9   19 1  
    17   11   10 ar 
    18   11   12 ar 
    19   27   11 1  
    20   14   13 1  
    21   13   27 1  
    22   28   14 1  
    23   15   16 1  
    24   15   28 1  
    25   16   22 1  
    26   17   18 1  
    27   19   20 2  
    28   20   21 1  
    29   22   23 1  
    30   23   24 2  
    31    1   29 1  
    32    1   30 1  
    33    2   31 1  
    34    3   32 1  
    35    3   33 1  
    36    4   34 1  
    37    5   35 1  
    38    6   36 1  
    39    9   37 1  
    40    9   38 1  
    41   10   39 1  
    42   12   40 1  
    43   13   41 1  
    44   13   42 1  
    45   14   43 1  
    46   14   44 1  
    47   15   45 1  
    48   15   46 1  
    49   16   47 1  
    50   16   48 1  
    51   17   49 1  
    52   18   50 1  
    53   18   51 1  
    54   22   52 1  
    55   24   53 1  
    56   25   54 1  
    57   26   55 1  
@<TRIPOS>SUBSTRUCTURE
     1 JSK         1

