4i06_ligand

Created by X-TOOL on Fri Nov 18 17:24:16 2016
 56 56  0  0  0  0  0  0  0  0999 V2000
   35.0850   88.5980   72.4880  O 0  0  0  1  0  1
   34.0430   88.2660   71.8710  C 0  5  0  1  0  3
   33.2270   89.1210   71.4570  O 0  0  0  1  0  1
   33.7410   86.7990   71.6080  C 0  0  0  1  0  4
   32.4130   86.6810   71.0000  N 0  3  0  3  0  4
   31.9740   85.4610   70.3200  C 0  0  0  4  0  4
   34.8190   86.1780   70.7200  C 0  0  0  3  0  4
   35.2400   86.9990   69.5010  C 0  0  0  3  0  4
   36.2500   86.2560   68.6150  C 0  0  0  3  0  4
   36.7270   87.1900   67.4890  C 0  0  0  4  0  5
   37.1350   86.5070   66.1140  B 0  0  0  1  0  4
   36.1400   85.6150   65.4260  O 0  0  0  3  0  3
   37.8820   87.3910   65.1520  O 0  0  0  3  0  3
   38.2230   85.4940   66.5200  O 0  0  0  2  0  2
   33.8200   86.0150   72.9270  C 0  0  0  3  0  4
   32.7060   86.3040   73.9220  C 0  0  0  3  0  4
   32.6190   85.1980   74.8950  N 0  3  0  2  0  4
   33.9250   85.0030   75.5460  C 0  0  0  3  0  4
   33.8470   83.8480   76.5390  C 0  0  0  3  0  4
   32.7900   84.1360   77.5970  C 0  0  0  3  0  4
   31.4530   84.3840   76.9100  C 0  0  0  3  0  4
   31.5910   85.5220   75.8970  C 0  0  0  3  0  4
   32.3480   87.4217   70.3194  H 0  0  0  1  0  1
   31.7487   86.8454   71.7401  H 0  0  0  1  0  1
   30.9496   85.5992   69.9440  H 0  0  0  1  0  1
   31.9943   84.6192   71.0277  H 0  0  0  1  0  1
   32.6482   85.2480   69.4774  H 0  0  0  1  0  1
   34.4410   85.2100   70.3592  H 0  0  0  1  0  1
   35.7126   86.0146   71.3402  H 0  0  0  1  0  1
   35.6977   87.9372   69.8479  H 0  0  0  1  0  1
   34.3456   87.2267   68.9025  H 0  0  0  1  0  1
   35.7704   85.3683   68.1768  H 0  0  0  1  0  1
   37.1120   85.9445   69.2231  H 0  0  0  1  0  1
   37.5164   86.6906   66.9082  H 0  0  0  1  0  1
   37.1246   88.1179   67.9260  H 0  0  0  1  0  1
   35.8810   87.4292   66.8279  H 0  0  0  1  0  1
   35.5035   86.1488   64.9651  H 0  0  0  1  0  1
   35.5035   86.1488   64.9651  H 0  0  0  1  0  1
   37.2650   87.9447   64.6880  H 0  0  0  1  0  1
   37.2650   87.9447   64.6880  H 0  0  0  1  0  1
   38.7873   84.8296   66.0299  H 0  0  0  1  0  1
   34.7782   86.2574   73.4097  H 0  0  0  1  0  1
   33.7914   84.9419   72.6869  H 0  0  0  1  0  1
   31.7500   86.3972   73.3859  H 0  0  0  1  0  1
   32.9221   87.2432   74.4523  H 0  0  0  1  0  1
   32.3599   84.3502   74.4152  H 0  0  0  1  0  1
   34.2070   85.9229   76.0791  H 0  0  0  1  0  1
   34.6825   84.7753   74.7816  H 0  0  0  1  0  1
   34.8247   83.7214   77.0269  H 0  0  0  1  0  1
   33.5825   82.9247   76.0028  H 0  0  0  1  0  1
   33.0789   85.0271   78.1736  H 0  0  0  1  0  1
   32.7019   83.2737   78.2742  H 0  0  0  1  0  1
   30.7003   84.6567   77.6644  H 0  0  0  1  0  1
   31.1353   83.4687   76.3891  H 0  0  0  1  0  1
   30.6267   85.6744   75.3902  H 0  0  0  1  0  1
   31.8776   86.4436   76.4247  H 0  0  0  1  0  1
  1  2  2  0  0  2
  2  3  2  0  0  2
  2  4  1  0  0  2
  4  5  1  0  0  2
  4  7  1  0  0  2
  4 15  1  0  0  2
  5  6  1  0  0  2
  7  8  1  0  0  2
  8  9  1  0  0  2
  9 10  1  0  0  2
 10 11  1  0  0  2
 11 12  1  0  0  2
 11 13  1  0  0  2
 15 16  1  0  0  2
 16 17  1  0  0  2
 17 18  1  0  0  1
 17 22  1  0  0  1
 18 19  1  0  0  1
 19 20  1  0  0  1
 20 21  1  0  0  1
 21 22  1  0  0  1
 14 11  2  0  0  2
  5 23  1  0  0  2
  5 24  1  0  0  2
  6 25  1  0  0  2
  6 26  1  0  0  2
  6 27  1  0  0  2
  7 28  1  0  0  2
  7 29  1  0  0  2
  8 30  1  0  0  2
  8 31  1  0  0  2
  9 32  1  0  0  2
  9 33  1  0  0  2
 10 34  1  0  0  2
 10 35  1  0  0  2
 10 36  1  0  0  2
 12 37  1  0  0  2
 12 38  1  0  0  2
 13 39  1  0  0  2
 13 40  1  0  0  2
 14 41  1  0  0  2
 15 42  1  0  0  2
 15 43  1  0  0  2
 16 44  1  0  0  2
 16 45  1  0  0  2
 17 46  1  0  0  2
 18 47  1  0  0  2
 18 48  1  0  0  2
 19 49  1  0  0  2
 19 50  1  0  0  2
 20 51  1  0  0  2
 20 52  1  0  0  2
 21 53  1  0  0  2
 21 54  1  0  0  2
 22 55  1  0  0  2
 22 56  1  0  0  2
M  END
> <MOLECULAR_FORMULA>
C14H34N2O5B

> <MOLECULAR_WEIGHT>
321.0

> <NUM_HB_ATOMS>
6  

> <NUM_ROTOR>
9  

> <XLOGP2>
-1.93

$$$$
