#	Name:			4i06_ligand
#	Creating user name:	wangrx
#	Creation time:		Wed Aug  4 17:15:12 2021

#	Modifying user name:	wangrx
#	Modification time:	Wed Aug  4 17:15:36 2021

@<TRIPOS>MOLECULE
4i06_ligand
   55    55     1     0     0
SMALL
GAST_HUCK


@<TRIPOS>ATOM
      1 O9         35.0850   88.5980   72.4880 O.co2     1 X8A        -0.5422 
      2 C7         34.0430   88.2660   71.8710 C.2       1 X8A         0.0962 
      3 O8         33.2270   89.1210   71.4570 O.co2     1 X8A        -0.5422 
      4 C1         33.7410   86.7990   71.6080 C.3       1 X8A         0.0387 
      5 N6         32.4130   86.6810   71.0000 N.4       1 X8A         0.2293 
      6 C18        31.9740   85.4610   70.3200 C.3       1 X8A        -0.0445 
      7 C2         34.8190   86.1780   70.7200 C.3       1 X8A        -0.0037 
      8 C3         35.2400   86.9990   69.5010 C.3       1 X8A        -0.0753 
      9 C4         36.2500   86.2560   68.6150 C.3       1 X8A        -0.1826 
     10 C5         36.7270   87.1900   67.4890 C.3       1 X8A        -0.3457 
     11 B19        37.1350   86.5070   66.1140 B         1 X8A         3.0000 
     12 O22        36.1400   85.6150   65.4260 O.3       1 X8A        -0.4105 
     13 O21        37.8820   87.3910   65.1520 O.3       1 X8A        -0.4105 
     14 O20        38.2230   85.4940   66.5200 O.3       1 X8A        -0.8710 
     15 C10        33.8200   86.0150   72.9270 C.3       1 X8A         0.0385 
     16 C11        32.7060   86.3040   73.9220 C.3       1 X8A        -0.0269 
     17 N12        32.6190   85.1980   74.8950 N.4       1 X8A         0.2353 
     18 C17        33.9250   85.0030   75.5460 C.3       1 X8A        -0.0319 
     19 C16        33.8470   83.8480   76.5390 C.3       1 X8A        -0.0123 
     20 C15        32.7900   84.1360   77.5970 C.3       1 X8A        -0.0434 
     21 C14        31.4530   84.3840   76.9100 C.3       1 X8A        -0.0123 
     22 C13        31.5910   85.5220   75.8970 C.3       1 X8A        -0.0319 
     23 H1         32.3480   87.4217   70.3194 H         1 X8A         0.2016 
     24 H2         31.7487   86.8454   71.7401 H         1 X8A         0.2016 
     25 H3         30.9496   85.5992   69.9440 H         1 X8A         0.0777 
     26 H4         31.9943   84.6192   71.0277 H         1 X8A         0.0777 
     27 H5         32.6482   85.2480   69.4774 H         1 X8A         0.0777 
     28 H6         34.4410   85.2100   70.3592 H         1 X8A         0.0315 
     29 H7         35.7126   86.0146   71.3402 H         1 X8A         0.0315 
     30 H8         35.6977   87.9372   69.8479 H         1 X8A         0.0242 
     31 H9         34.3456   87.2267   68.9025 H         1 X8A         0.0242 
     32 H10        35.7704   85.3683   68.1768 H         1 X8A        -0.0084 
     33 H11        37.1120   85.9445   69.2231 H         1 X8A        -0.0084 
     34 H13        37.1246   88.1179   67.9260 H         1 X8A        -0.2101 
     35 H14        35.8810   87.4292   66.8279 H         1 X8A        -0.2101 
     36 H15        35.5035   86.1488   64.9651 H         1 X8A         0.2052 
     37 H16        35.5035   86.1488   64.9651 H         1 X8A         0.2052 
     38 H17        37.2650   87.9447   64.6880 H         1 X8A         0.2052 
     39 H18        37.2650   87.9447   64.6880 H         1 X8A         0.2052 
     40 H19        38.7873   84.8296   66.0299 H         1 X8A        -0.1290 
     41 H20        34.7782   86.2574   73.4097 H         1 X8A         0.0368 
     42 H21        33.7914   84.9419   72.6869 H         1 X8A         0.0368 
     43 H22        31.7500   86.3972   73.3859 H         1 X8A         0.0815 
     44 H23        32.9221   87.2432   74.4523 H         1 X8A         0.0815 
     45 H24        32.3599   84.3502   74.4152 H         1 X8A         0.2033 
     46 H25        34.2070   85.9229   76.0791 H         1 X8A         0.0814 
     47 H26        34.6825   84.7753   74.7816 H         1 X8A         0.0814 
     48 H27        34.8247   83.7214   77.0269 H         1 X8A         0.0317 
     49 H28        33.5825   82.9247   76.0028 H         1 X8A         0.0317 
     50 H29        33.0789   85.0271   78.1736 H         1 X8A         0.0269 
     51 H30        32.7019   83.2737   78.2742 H         1 X8A         0.0269 
     52 H31        30.7003   84.6567   77.6644 H         1 X8A         0.0317 
     53 H32        31.1353   83.4687   76.3891 H         1 X8A         0.0317 
     54 H33        30.6267   85.6744   75.3902 H         1 X8A         0.0814 
     55 H34        31.8776   86.4436   76.4247 H         1 X8A         0.0814 
@<TRIPOS>BOND
     1    1    2 ar   
     2    2    3 ar   
     3    2    4 1    
     4    4    5 1    
     5    4    7 1    
     6    4   15 1    
     7    5    6 1    
     8    7    8 1    
     9    8    9 1    
    10    9   10 1    
    11   10   11 1    
    12   11   12 1    
    13   11   13 1    
    14   15   16 1    
    15   16   17 1    
    16   17   18 1    
    17   17   22 1    
    18   18   19 1    
    19   19   20 1    
    20   20   21 1    
    21   21   22 1    
    22   11   14 1    
    23    5   23 1    
    24    5   24 1    
    25    6   25 1    
    26    6   26 1    
    27    6   27 1    
    28    7   28 1    
    29    7   29 1    
    30    8   30 1    
    31    8   31 1    
    32    9   32 1    
    33    9   33 1    
    34   10   34 1    
    35   10   35 1    
    36   12   36 1    
    37   12   37 1    
    38   13   38 1    
    39   13   39 1    
    40   14   40 1    
    41   15   41 1    
    42   15   42 1    
    43   16   43 1    
    44   16   44 1    
    45   17   45 1    
    46   18   46 1    
    47   18   47 1    
    48   19   48 1    
    49   19   49 1    
    50   20   50 1    
    51   20   51 1    
    52   21   52 1    
    53   21   53 1    
    54   22   54 1    
    55   22   55 1    
@<TRIPOS>SUBSTRUCTURE
     1 X8A         1 PERM              0 ****  ****    0 ROOT 
