6nwc_ligand
  -I-interpret- 

 46 48  0  0  0  0  0  0  0  0999 V2000
   20.9000   32.2060  -10.0020 C   0  0  0  0  0
   20.2170   32.7910   -8.9410 C   0  0  0  0  0
   19.1390   32.1310   -8.3630 C   0  0  0  0  0
   18.7340   30.8880   -8.8520 C   0  0  0  0  0
   19.4120   30.2920   -9.9120 C   0  0  0  0  0
   20.4900   30.9660  -10.4920 C   0  0  0  0  0
   20.6500   34.0790   -8.4550 C   0  0  0  0  0
   21.9740   32.8950  -10.5830 C   0  0  0  0  0
   22.7170   32.1710  -11.6990 C   0  0  0  0  0
   23.3750   32.3560  -10.3330 C   0  0  0  0  0
   19.0010   29.0430  -10.4060 C   0  0  0  0  0
   19.7500   27.8570   -9.7490 C   0  0  0  0  0
   22.0030   26.8890   -9.2040 C   0  0  0  0  0
   23.6470   28.3550   -7.2960 C   0  0  0  0  0
   22.2070   27.9650   -6.9750 C   0  0  0  0  0
   21.8400   26.6830   -7.6860 C   0  0  0  0  0
   23.4580   27.2740   -9.5080 C   0  0  0  0  0
   23.8000   28.5680   -8.7950 C   0  0  0  0  0
   21.6950   25.5860   -9.9650 C   0  0  0  0  0
   21.0180   35.1140   -8.0810 N   0  0  0  0  0
   21.0980   27.9470   -9.7150 N   0  0  0  0  0
   19.1170   26.9020   -9.2970 O   0  0  0  0  0
   21.3560   25.7000  -11.1670 O   0  0  0  0  0
   21.7970   24.5070   -9.3360 O   0  0  0  0  0
   18.6087   32.5851   -7.5260 H   0  0  0  0  0
   17.8813   30.3805   -8.4010 H   0  0  0  0  0
   21.0156   30.5184  -11.3355 H   0  0  0  0  0
   21.4999   33.8699  -10.4695 H   0  0  0  0  0
   22.9594   32.3186  -12.7514 H   0  0  0  0  0
   22.5366   31.3734  -12.4197 H   0  0  0  0  0
   23.8997   31.7555   -9.5899 H   0  0  0  0  0
   24.3233   32.7025   -9.9222 H   0  0  0  0  0
   19.2160   29.0210  -11.4744 H   0  0  0  0  0
   17.9400   28.9303  -10.1833 H   0  0  0  0  0
   24.3170   27.5576   -6.9746 H   0  0  0  0  0
   23.8959   29.2784   -6.7730 H   0  0  0  0  0
   21.5402   28.7602   -7.3083 H   0  0  0  0  0
   22.1100   27.8159   -5.8996 H   0  0  0  0  0
   22.4928   25.8767   -7.3517 H   0  0  0  0  0
   20.8071   26.4189   -7.4591 H   0  0  0  0  0
   23.5805   27.4087  -10.5827 H   0  0  0  0  0
   24.1225   26.4825   -9.1616 H   0  0  0  0  0
   24.8254   28.8573   -9.0249 H   0  0  0  0  0
   23.1300   29.3613   -9.1263 H   0  0  0  0  0
   21.5238   28.8047  -10.0662 H   0  0  0  0  0
   21.3541   26.6284  -11.4111 H   0  0  0  0  0
  1  2  4  0  0  0
  6  1  4  0  0  0
  1  8  1  0  0  0
  3  2  4  0  0  0
  2  7  1  0  0  0
  4  3  4  0  0  0
  5  4  4  0  0  0
  5  6  4  0  0  0
 11  5  1  0  0  0
  7 20  3  0  0  0
  8  9  1  0  0  0
  8 10  1  0  0  0
 10  9  1  0  0  0
 12 11  1  0  0  0
 21 12  1  0  0  0
 12 22  2  0  0  0
 16 13  1  0  0  0
 13 17  1  0  0  0
 13 19  1  0  0  0
 13 21  1  0  0  0
 15 14  1  0  0  0
 14 18  1  0  0  0
 15 16  1  0  0  0
 17 18  1  0  0  0
 19 23  1  0  0  0
 19 24  2  0  0  0
  3 25  1  0  0  0
  4 26  1  0  0  0
  6 27  1  0  0  0
  8 28  1  0  0  0
  9 29  1  0  0  0
  9 30  1  0  0  0
 10 31  1  0  0  0
 10 32  1  0  0  0
 11 33  1  0  0  0
 11 34  1  0  0  0
 14 35  1  0  0  0
 14 36  1  0  0  0
 15 37  1  0  0  0
 15 38  1  0  0  0
 16 39  1  0  0  0
 16 40  1  0  0  0
 17 41  1  0  0  0
 17 42  1  0  0  0
 18 43  1  0  0  0
 18 44  1  0  0  0
 21 45  1  0  0  0
 23 46  1  0  0  0
M  END
$$$$
