3fmz_ligand
  -I-interpret- 

 47 49  0  0  0  0  0  0  0  0999 V2000
   11.1400  -20.3900    3.3340 N   0  0  0  0  0
    9.9020  -18.9950    1.9970 N   0  0  0  0  0
   13.8960  -24.8360    3.0400 C   0  0  0  0  0
   14.0900  -26.0940    2.4800 C   0  0  0  0  0
   13.3850  -26.4850    1.3470 C   0  0  0  0  0
   12.7650  -22.6200    3.0230 C   0  0  0  0  0
   12.6340  -21.5770    1.9180 C   0  0  0  0  0
   11.2730  -21.2750    4.4790 C   0  0  0  0  0
    8.7200  -18.3300    1.6170 C   0  0  0  0  0
    8.7750  -17.1760    0.8480 C   0  0  0  0  0
    7.4780  -18.8400    1.9860 C   0  0  0  0  0
   10.0830  -16.5860    0.4170 C   0  0  0  0  0
   11.1540  -17.1040    0.8100 O   0  0  0  0  0
   10.0560  -15.5810   -0.3290 O   0  0  0  0  0
    7.6050  -16.5340    0.4670 C   0  0  0  0  0
    6.3720  -17.0450    0.8460 C   0  0  0  0  0
    6.3070  -18.2000    1.6090 C   0  0  0  0  0
    9.9830  -19.8010    3.0580 C   0  0  0  0  0
    9.0330  -20.0010    3.7880 O   0  0  0  0  0
   11.4870  -22.6410    3.8510 C   0  0  0  0  0
   12.3410  -20.2100    2.5250 C   0  0  0  0  0
   12.9900  -23.9630    2.4490 C   0  0  0  0  0
   12.2840  -24.3500    1.3140 C   0  0  0  0  0
   12.4820  -25.6100    0.7620 C   0  0  0  0  0
   14.6930  -24.4550    4.2640 C   0  0  0  0  0
   15.9570  -24.3490    3.9010 F   0  0  0  0  0
   14.5860  -25.3880    5.1910 F   0  0  0  0  0
   14.2970  -23.3040    4.7810 F   0  0  0  0  0
   10.7395  -18.8534    1.4322 H   0  0  0  0  0
   14.8031  -26.7817    2.9346 H   0  0  0  0  0
   13.5415  -27.4757    0.9202 H   0  0  0  0  0
   13.6167  -22.3569    3.6503 H   0  0  0  0  0
   11.8162  -21.8579    1.2544 H   0  0  0  0  0
   13.5677  -21.5283    1.3578 H   0  0  0  0  0
   10.3997  -21.2478    5.1307 H   0  0  0  0  0
   12.0925  -20.9855    5.1369 H   0  0  0  0  0
    7.4256  -19.7534    2.5784 H   0  0  0  0  0
   10.9567  -17.8592    1.3688 H   0  0  0  0  0
    7.6550  -15.6249   -0.1323 H   0  0  0  0  0
    5.4553  -16.5385    0.5439 H   0  0  0  0  0
    5.3405  -18.6033    1.9112 H   0  0  0  0  0
   11.5726  -23.3935    4.6349 H   0  0  0  0  0
   10.6403  -22.8840    3.2090 H   0  0  0  0  0
   13.1771  -19.8533    3.1264 H   0  0  0  0  0
   12.1925  -19.4546    1.7533 H   0  0  0  0  0
   11.5730  -23.6623    0.8561 H   0  0  0  0  0
   11.9291  -25.9097   -0.1283 H   0  0  0  0  0
  1  8  1  0  0  0
  1 18  1  0  0  0
 21  1  1  0  0  0
  2  9  1  0  0  0
 18  2  1  0  0  0
  3  4  4  0  0  0
 22  3  4  0  0  0
  3 25  1  0  0  0
  4  5  4  0  0  0
  5 24  4  0  0  0
  7  6  1  0  0  0
  6 20  1  0  0  0
  6 22  1  0  0  0
  7 21  1  0  0  0
  8 20  1  0  0  0
  9 10  4  0  0  0
  9 11  4  0  0  0
 10 12  1  0  0  0
 10 15  4  0  0  0
 11 17  4  0  0  0
 12 13  1  0  0  0
 12 14  2  0  0  0
 15 16  4  0  0  0
 16 17  4  0  0  0
 18 19  2  0  0  0
 22 23  4  0  0  0
 23 24  4  0  0  0
 25 26  1  0  0  0
 25 27  1  0  0  0
 25 28  1  0  0  0
  2 29  1  0  0  0
  4 30  1  0  0  0
  5 31  1  0  0  0
  6 32  1  0  0  0
  7 33  1  0  0  0
  7 34  1  0  0  0
  8 35  1  0  0  0
  8 36  1  0  0  0
 11 37  1  0  0  0
 13 38  1  0  0  0
 15 39  1  0  0  0
 16 40  1  0  0  0
 17 41  1  0  0  0
 20 42  1  0  0  0
 20 43  1  0  0  0
 21 44  1  0  0  0
 21 45  1  0  0  0
 23 46  1  0  0  0
 24 47  1  0  0  0
M  END
$$$$
