3zrk_ligand
  -I-interpret- 

 24 26  0  0  0  0  0  0  0  0999 V2000
  105.1820   21.9270  -10.2670 C   0  0  0  0  0
  105.2610   23.0400  -11.0100 C   0  0  0  0  0
  104.0910   23.8060  -11.0360 C   0  0  0  0  0
  102.9370   23.4740  -10.3700 C   0  0  0  0  0
  102.8510   22.2840   -9.5800 C   0  0  0  0  0
  101.8240   21.9760   -8.9870 O   0  0  0  0  0
  103.8940   24.9830  -11.7020 O   0  0  0  0  0
  102.6150   25.3850  -11.4500 C   0  0  0  0  0
  102.2020   26.6240  -12.0500 C   0  0  0  0  0
  103.0810   27.3790  -12.7980 C   0  0  0  0  0
  102.6320   28.5640  -13.3410 C   0  0  0  0  0
  101.9760   24.4800  -10.6270 C   0  0  0  0  0
  101.3890   29.0400  -13.1950 N   0  0  0  0  0
  100.5630   28.2830  -12.4640 C   0  0  0  0  0
  104.0400   21.5640   -9.5840 N   0  0  0  0  0
  100.9150   27.0860  -11.8770 C   0  0  0  0  0
  106.0576   21.2813  -10.1997 H   0  0  0  0  0
  106.1639   23.3250  -11.5501 H   0  0  0  0  0
  104.1069   27.0465  -12.9562 H   0  0  0  0  0
  103.3362   29.1530  -13.9286 H   0  0  0  0  0
  100.9525   24.5296  -10.2554 H   0  0  0  0  0
   99.5417   28.6367  -12.3227 H   0  0  0  0  0
  104.0703   20.7015   -9.0404 H   0  0  0  0  0
  100.1927   26.5186  -11.2901 H   0  0  0  0  0
  1  2  2  0  0  0
  1 15  1  0  0  0
  2  3  1  0  0  0
  3  4  4  0  0  0
  3  7  4  0  0  0
  4  5  1  0  0  0
  4 12  4  0  0  0
  5  6  2  0  0  0
  5 15  1  0  0  0
  7  8  4  0  0  0
  8  9  1  0  0  0
  8 12  4  0  0  0
  9 10  4  0  0  0
  9 16  4  0  0  0
 10 11  4  0  0  0
 11 13  4  0  0  0
 13 14  4  0  0  0
 14 16  4  0  0  0
  1 17  1  0  0  0
  2 18  1  0  0  0
 10 19  1  0  0  0
 11 20  1  0  0  0
 12 21  1  0  0  0
 14 22  1  0  0  0
 15 23  1  0  0  0
 16 24  1  0  0  0
M  END
$$$$
