3d9n_ligand
  -I-interpret- 

 94 96  0  0  0  0  0  0  0  0999 V2000
   31.9680    3.4790   11.5130 N   0  3  0  0  0
   32.8830    2.5000   12.0650 C   0  0  0  0  0
   32.5180    2.1630   13.5000 C   0  0  0  0  0
   32.1940    3.0480   14.3060 O   0  0  0  0  0
   34.3340    2.9990   12.0300 C   0  0  0  0  0
   35.3070    1.9900   12.6000 C   0  0  0  0  0
   35.7410    0.9110   11.8320 C   0  0  0  0  0
   35.7740    2.0970   13.9170 C   0  0  0  0  0
   36.6250   -0.0310   12.3580 C   0  0  0  0  0
   36.6540    1.1630   14.4520 C   0  0  0  0  0
   37.0770    0.1060   13.6630 C   0  0  0  0  0
   37.9540   -0.8180   14.1700 O   0  0  0  0  0
   32.5840    0.8690   13.7940 N   0  0  0  0  0
   32.4870    0.3520   15.1520 C   0  0  0  0  0
   31.1930   -0.4460   15.3240 C   0  0  0  0  0
   31.2050   -1.1440   16.5540 O   0  0  0  0  0
   33.7060   -0.5410   15.4100 C   0  0  0  0  0
   34.1670   -1.2290   14.4880 O   0  0  0  0  0
   29.8350   -0.9690   17.3750 P   0  0  0  0  0
   30.1770   -0.9910   18.9520 O   0  0  0  0  0
   29.1070    0.4220   16.9960 O   0  0  0  0  0
   28.8510   -2.1890   17.0060 O   0  0  0  0  0
   34.2430   -0.5230   16.6530 N   0  0  0  0  0
   35.3700   -1.3910   17.0300 C   0  0  0  0  0
   35.0340   -2.8900   17.0190 C   0  0  0  0  0
   35.0390   -3.5250   18.0700 O   0  0  0  0  0
   35.7080   -0.9310   18.4660 C   0  0  0  0  0
   34.4610   -0.3010   18.9690 C   0  0  0  0  0
   33.8350    0.3540   17.7690 C   0  0  0  0  0
   34.7790   -3.4410   15.8320 N   0  0  0  0  0
   34.3610   -4.8450   15.6890 C   0  0  0  0  0
   35.4240   -5.6820   14.9760 C   0  0  0  0  0
   36.3470   -5.1340   14.3630 O   0  0  0  0  0
   33.0260   -4.9820   14.9080 C   0  0  0  0  0
   33.1710   -4.3990   13.6080 O   0  0  0  0  0
   31.8740   -4.3090   15.6470 C   0  0  0  0  0
   35.2790   -7.0060   15.0510 N   0  0  0  0  0
   36.2210   -7.9310   14.4210 C   0  0  0  0  0
   36.1490   -7.8810   12.8880 C   0  0  0  0  0
   35.0510   -7.8600   12.3200 O   0  0  0  0  0
   35.9880   -9.3620   14.9260 C   0  0  0  0  0
   36.8870  -10.2750   14.3220 O   0  0  0  0  0
   37.3200   -7.8570   12.2150 N   0  0  0  0  0
   37.3630   -7.8670   10.7530 C   0  0  0  0  0
   37.2410   -9.2740   10.1590 C   0  0  0  0  0
   36.8492  -10.2296   10.8808 O   0  0  0  0  0
   38.7480   -7.2950   10.4550 C   0  0  0  0  0
   39.5840   -7.7770   11.5830 C   0  0  0  0  0
   38.6780   -7.8020   12.7940 C   0  0  0  0  0
   37.5322   -9.4753    8.9498 O   0  0  0  0  0
   31.0165    3.1137   11.5528 H   0  0  0  0  0
   32.0257    4.3406   12.0559 H   0  0  0  0  0
   32.2201    3.6693   10.5431 H   0  0  0  0  0
   32.7986    1.6077   11.4447 H   0  0  0  0  0
   34.3936    3.9033   12.6357 H   0  0  0  0  0
   34.6040    3.1759   10.9889 H   0  0  0  0  0
   35.3852    0.8019   10.8075 H   0  0  0  0  0
   35.4401    2.9304   14.5352 H   0  0  0  0  0
   36.9589   -0.8700   11.7476 H   0  0  0  0  0
   37.0064    1.2612   15.4788 H   0  0  0  0  0
   38.1710   -0.5878   15.0764 H   0  0  0  0  0
   32.7089    0.2044   13.0304 H   0  0  0  0  0
   32.4694    1.1742   15.8674 H   0  0  0  0  0
   31.1075   -1.1643   14.5086 H   0  0  0  0  0
   30.3474    0.2417   15.3139 H   0  0  0  0  0
   30.7636   -0.2604   19.1613 H   0  0  0  0  0
   29.6875    1.1552   17.2131 H   0  0  0  0  0
   36.1894   -1.2966   16.3174 H   0  0  0  0  0
   36.5473   -0.2357   18.4812 H   0  0  0  0  0
   36.0224   -1.7642   19.0944 H   0  0  0  0  0
   34.6670    0.4217   19.7585 H   0  0  0  0  0
   33.7934   -1.0361   19.4186 H   0  0  0  0  0
   32.7524    0.4453   17.8573 H   0  0  0  0  0
   34.1627    1.3848   17.6345 H   0  0  0  0  0
   34.8771   -2.8692   14.9931 H   0  0  0  0  0
   34.2221   -5.2158   16.7045 H   0  0  0  0  0
   32.7930   -6.0430   14.8176 H   0  0  0  0  0
   32.3450   -4.4844   13.1263 H   0  0  0  0  0
   31.7510   -4.7734   16.6254 H   0  0  0  0  0
   32.0940   -3.2487   15.7717 H   0  0  0  0  0
   30.9565   -4.4256   15.0702 H   0  0  0  0  0
   34.4843   -7.3863   15.5651 H   0  0  0  0  0
   37.2241   -7.6129   14.7052 H   0  0  0  0  0
   34.9703   -9.6579   14.6713 H   0  0  0  0  0
   36.1485   -9.3795   16.0040 H   0  0  0  0  0
   36.7171  -11.1585   14.6568 H   0  0  0  0  0
   36.5335   -7.3083   10.3195 H   0  0  0  0  0
   36.6711   -9.9074   11.7674 H   0  0  0  0  0
   38.7395   -6.2075   10.3814 H   0  0  0  0  0
   39.1308   -7.6205    9.4877 H   0  0  0  0  0
   40.4415   -7.1240   11.7455 H   0  0  0  0  0
   39.9932   -8.7659   11.3762 H   0  0  0  0  0
   38.8846   -8.6475   13.4502 H   0  0  0  0  0
   38.8205   -6.9340   13.4377 H   0  0  0  0  0
  1  2  1  0  0  0
  2  3  1  0  0  0
  2  5  1  0  0  0
  3  4  2  0  0  0
  3 13  1  0  0  0
  5  6  1  0  0  0
  6  7  4  0  0  0
  6  8  4  0  0  0
  7  9  4  0  0  0
  8 10  4  0  0  0
  9 11  4  0  0  0
 10 11  4  0  0  0
 11 12  1  0  0  0
 13 14  1  0  0  0
 14 15  1  0  0  0
 14 17  1  0  0  0
 15 16  1  0  0  0
 16 19  1  0  0  0
 17 18  2  0  0  0
 17 23  1  0  0  0
 19 20  1  0  0  0
 19 21  1  0  0  0
 19 22  2  0  0  0
 23 24  1  0  0  0
 23 29  1  0  0  0
 24 25  1  0  0  0
 24 27  1  0  0  0
 25 26  2  0  0  0
 25 30  1  0  0  0
 27 28  1  0  0  0
 28 29  1  0  0  0
 30 31  1  0  0  0
 31 32  1  0  0  0
 31 34  1  0  0  0
 32 33  2  0  0  0
 32 37  1  0  0  0
 34 35  1  0  0  0
 34 36  1  0  0  0
 37 38  1  0  0  0
 38 39  1  0  0  0
 38 41  1  0  0  0
 39 40  2  0  0  0
 39 43  1  0  0  0
 41 42  1  0  0  0
 43 44  1  0  0  0
 43 49  1  0  0  0
 44 45  1  0  0  0
 44 47  1  0  0  0
 45 46  1  0  0  0
 47 48  1  0  0  0
 48 49  1  0  0  0
 45 50  2  0  0  0
  1 51  1  0  0  0
  1 52  1  0  0  0
  1 53  1  0  0  0
  2 54  1  0  0  0
  5 55  1  0  0  0
  5 56  1  0  0  0
  7 57  1  0  0  0
  8 58  1  0  0  0
  9 59  1  0  0  0
 10 60  1  0  0  0
 12 61  1  0  0  0
 13 62  1  0  0  0
 14 63  1  0  0  0
 15 64  1  0  0  0
 15 65  1  0  0  0
 20 66  1  0  0  0
 21 67  1  0  0  0
 24 68  1  0  0  0
 27 69  1  0  0  0
 27 70  1  0  0  0
 28 71  1  0  0  0
 28 72  1  0  0  0
 29 73  1  0  0  0
 29 74  1  0  0  0
 30 75  1  0  0  0
 31 76  1  0  0  0
 34 77  1  0  0  0
 35 78  1  0  0  0
 36 79  1  0  0  0
 36 80  1  0  0  0
 36 81  1  0  0  0
 37 82  1  0  0  0
 38 83  1  0  0  0
 41 84  1  0  0  0
 41 85  1  0  0  0
 42 86  1  0  0  0
 44 87  1  0  0  0
 46 88  1  0  0  0
 47 89  1  0  0  0
 47 90  1  0  0  0
 48 91  1  0  0  0
 48 92  1  0  0  0
 49 93  1  0  0  0
 49 94  1  0  0  0
M  END
$$$$
