### 
### Created by X-TOOL on Mon Sep 10 21:12:57 2018
### 

@<TRIPOS>MOLECULE
3d9n_ligand
   91    93     1     0     0
SMALL
GAST_HUCK


@<TRIPOS>ATOM
      1 N          31.9680    3.4790   11.5130 N.4       1 TYR         0.2392
      2 CA         32.8830    2.5000   12.0650 C.3       1 TYR         0.0730
      3 C          32.5180    2.1630   13.5000 C.2       1 TYR         0.2286
      4 O          32.1940    3.0480   14.3060 O.2       1 TYR        -0.3905
      5 CB         34.3340    2.9990   12.0300 C.3       1 TYR         0.0365
      6 CG         35.3070    1.9900   12.6000 C.ar      1 TYR        -0.0460
      7 CD1        35.7410    0.9110   11.8320 C.ar      1 TYR        -0.0684
      8 CD2        35.7740    2.0970   13.9170 C.ar      1 TYR        -0.0684
      9 CE1        36.6250   -0.0310   12.3580 C.ar      1 TYR        -0.0398
     10 CE2        36.6540    1.1630   14.4520 C.ar      1 TYR        -0.0398
     11 CZ         37.0770    0.1060   13.6630 C.ar      1 TYR         0.0805
     12 OH         37.9540   -0.8180   14.1700 O.3       1 TYR        -0.3376
     13 N          32.5840    0.8690   13.7940 N.am      1 SEP        -0.2584
     14 CA         32.4870    0.3520   15.1520 C.3       1 SEP         0.1589
     15 CB         31.1930   -0.4460   15.3240 C.3       1 SEP         0.1184
     16 OG         31.2050   -1.1440   16.5540 O.3       1 SEP        -0.2714
     17 C          33.7060   -0.5410   15.4100 C.2       1 SEP         0.2090
     18 O          34.1670   -1.2290   14.4880 O.2       1 SEP        -0.3941
     19 P          29.8350   -0.9690   17.3750 P.3       1 SEP         0.2010
     20 O1P        30.1770   -0.9910   18.9520 O.co2     1 SEP        -0.5537
     21 O2P        29.1070    0.4220   16.9960 O.co2     1 SEP        -0.5537
     22 O3P        28.8510   -2.1890   17.0060 O.co2     1 SEP        -0.5537
     23 N          34.2430   -0.5230   16.6530 N.am      1 PRO        -0.2498
     24 CA         35.3700   -1.3910   17.0300 C.3       1 PRO         0.1338
     25 C          35.0340   -2.8900   17.0190 C.2       1 PRO         0.2042
     26 O          35.0390   -3.5250   18.0700 O.2       1 PRO        -0.3944
     27 CB         35.7080   -0.9310   18.4660 C.3       1 PRO        -0.0104
     28 CG         34.4610   -0.3010   18.9690 C.3       1 PRO        -0.0281
     29 CD         33.8350    0.3540   17.7690 C.3       1 PRO         0.0369
     30 N          34.7790   -3.4410   15.8320 N.am      1 THR        -0.2613
     31 CA         34.3610   -4.8450   15.6890 C.3       1 THR         0.1565
     32 C          35.4240   -5.6820   14.9760 C.2       1 THR         0.2065
     33 O          36.3470   -5.1340   14.3630 O.2       1 THR        -0.3943
     34 CB         33.0260   -4.9820   14.9080 C.3       1 THR         0.0924
     35 OG1        33.1710   -4.3990   13.6080 O.3       1 THR        -0.3874
     36 CG2        31.8740   -4.3090   15.6470 C.3       1 THR        -0.0346
     37 N          35.2790   -7.0060   15.0510 N.am      1 SER        -0.2615
     38 CA         36.2210   -7.9310   14.4210 C.3       1 SER         0.1541
     39 C          36.1490   -7.8810   12.8880 C.2       1 SER         0.2081
     40 O          35.0510   -7.8600   12.3200 O.2       1 SER        -0.3941
     41 CB         35.9880   -9.3620   14.9260 C.3       1 SER         0.0843
     42 OG         36.8870  -10.2750   14.3220 O.3       1 SER        -0.3903
     43 N          37.3200   -7.8570   12.2150 N.am      1 PRO        -0.2555
     44 CA         37.3630   -7.8670   10.7530 C.3       1 PRO         0.0972
     45 C          37.2410   -9.2740   10.1590 C.2       1 PRO         0.0603
     46 O          36.8492  -10.2296   10.8808 O.co2     1 PRO        -0.5666
     47 CB         38.7480   -7.2950   10.4550 C.3       1 PRO        -0.0159
     48 CG         39.5840   -7.7770   11.5830 C.3       1 PRO        -0.0288
     49 CD         38.6780   -7.8020   12.7940 C.3       1 PRO         0.0362
     50 O36        37.5322   -9.4753    8.9498 O.co2     1 PRO        -0.5666
     51 H1         32.2307    3.6856   10.5620 H         1 TYR         0.2017
     52 H2         32.0067    4.3228   12.0631 H         1 TYR         0.2017
     53 H3         31.0303    3.1095   11.5299 H         1 TYR         0.2017
     54 H4         32.8123    1.5850   11.4586 H         1 TYR         0.1120
     55 H5         34.4026    3.9263   12.6177 H         1 TYR         0.0486
     56 H6         34.6111    3.2054   10.9857 H         1 TYR         0.0486
     57 H7         35.3871    0.8025   10.8131 H         1 TYR         0.0530
     58 H8         35.4420    2.9258   14.5318 H         1 TYR         0.0530
     59 H9         36.9571   -0.8654   11.7509 H         1 TYR         0.0525
     60 H10        37.0045    1.2607   15.4731 H         1 TYR         0.0525
     61 H11        38.1416   -1.4720   13.5070 H         1 TYR         0.2458
     62 H12        32.7064    0.2175   13.0453 H         1 SEP         0.1885
     63 H13        32.4892    1.1897   15.8649 H         1 SEP         0.0827
     64 H14        31.0993   -1.1672   14.4988 H         1 SEP         0.0662
     65 H15        30.3365    0.2440   15.3070 H         1 SEP         0.0662
     66 H16        36.2205   -1.2166   16.3546 H         1 PRO         0.0802
     67 H17        36.5323   -0.2027   18.4552 H         1 PRO         0.0313
     68 H18        35.9868   -1.7912   19.0924 H         1 PRO         0.0313
     69 H19        34.6920    0.4485   19.7402 H         1 PRO         0.0287
     70 H20        33.7866   -1.0623   19.3879 H         1 PRO         0.0287
     71 H21        32.7397    0.3869   17.8644 H         1 PRO         0.0524
     72 H22        34.2218    1.3744   17.6303 H         1 PRO         0.0524
     73 H23        34.8752   -2.8804   15.0095 H         1 THR         0.1884
     74 H24        34.2150   -5.2550   16.6992 H         1 THR         0.0826
     75 H25        32.7931   -6.0512   14.7963 H         1 THR         0.0639
     76 H26        33.3931   -3.4797   13.6974 H         1 THR         0.2101
     77 H27        30.9474   -4.4260   15.0658 H         1 THR         0.0257
     78 H28        32.0948   -3.2388   15.7734 H         1 THR         0.0257
     79 H29        31.7488   -4.7768   16.6347 H         1 THR         0.0257
     80 H30        34.4999   -7.3788   15.5550 H         1 SER         0.1884
     81 H31        37.2358   -7.6271   14.7172 H         1 SER         0.0823
     82 H32        34.9574   -9.6629   14.6866 H         1 SER         0.0606
     83 H33        36.1329   -9.3851   16.0162 H         1 SER         0.0606
     84 H34        36.7637  -10.2629   13.3801 H         1 SER         0.2097
     85 H35        36.5694   -7.2285   10.3376 H         1 PRO         0.0728
     86 H36        38.7203   -6.1956   10.4304 H         1 PRO         0.0306
     87 H37        39.1296   -7.6738    9.4954 H         1 PRO         0.0306
     88 H38        40.4287   -7.0930   11.7520 H         1 PRO         0.0286
     89 H39        39.9663   -8.7864   11.3711 H         1 PRO         0.0286
     90 H40        38.8763   -8.6889   13.4138 H         1 PRO         0.0524
     91 H41        38.8092   -6.8939   13.4007 H         1 PRO         0.0524
@<TRIPOS>BOND
     1    1    2 1  
     2    2    3 1  
     3    2    5 1  
     4    3    4 2  
     5    3   13 am 
     6    5    6 1  
     7    6    7 ar 
     8    6    8 ar 
     9    7    9 ar 
    10    8   10 ar 
    11    9   11 ar 
    12   10   11 ar 
    13   11   12 1  
    14   13   14 1  
    15   14   15 1  
    16   14   17 1  
    17   15   16 1  
    18   16   19 1  
    19   17   18 2  
    20   17   23 am 
    21   19   20 ar 
    22   19   21 ar 
    23   19   22 ar 
    24   23   24 1  
    25   23   29 1  
    26   24   25 1  
    27   24   27 1  
    28   25   26 2  
    29   25   30 am 
    30   27   28 1  
    31   28   29 1  
    32   30   31 1  
    33   31   32 1  
    34   31   34 1  
    35   32   33 2  
    36   32   37 am 
    37   34   35 1  
    38   34   36 1  
    39   37   38 1  
    40   38   39 1  
    41   38   41 1  
    42   39   40 2  
    43   39   43 am 
    44   41   42 1  
    45   43   44 1  
    46   43   49 1  
    47   44   45 1  
    48   44   47 1  
    49   45   46 ar 
    50   47   48 1  
    51   48   49 1  
    52   45   50 ar 
    53    1   51 1  
    54    1   52 1  
    55    1   53 1  
    56    2   54 1  
    57    5   55 1  
    58    5   56 1  
    59    7   57 1  
    60    8   58 1  
    61    9   59 1  
    62   10   60 1  
    63   12   61 1  
    64   13   62 1  
    65   14   63 1  
    66   15   64 1  
    67   15   65 1  
    68   24   66 1  
    69   27   67 1  
    70   27   68 1  
    71   28   69 1  
    72   28   70 1  
    73   29   71 1  
    74   29   72 1  
    75   30   73 1  
    76   31   74 1  
    77   34   75 1  
    78   35   76 1  
    79   36   77 1  
    80   36   78 1  
    81   36   79 1  
    82   37   80 1  
    83   38   81 1  
    84   41   82 1  
    85   41   83 1  
    86   42   84 1  
    87   44   85 1  
    88   47   86 1  
    89   47   87 1  
    90   48   88 1  
    91   48   89 1  
    92   49   90 1  
    93   49   91 1  
@<TRIPOS>SUBSTRUCTURE
     1 TYR         1

