5o9r_ligand
  -I-interpret- 

 85 89  0  0  0  0  0  0  0  0999 V2000
   -9.0840   13.3830   21.8500 C   0  0  0  0  0
   -9.6770   11.9950   22.0290 C   0  0  0  0  0
   -8.6750   11.1030   22.7640 C   0  0  0  0  0
  -10.0830   14.2720   21.1270 C   0  0  0  0  0
  -22.2360    9.2080   16.9780 C   0  0  0  0  0
  -22.3790    9.3330   15.6440 C   0  0  0  0  0
  -21.7460    8.3960   14.9250 C   0  0  0  0  0
  -20.9870    7.3840   16.0040 S   0  0  0  0  0
  -21.4840    8.1630   17.3300 C   0  0  0  0  0
  -21.1450    7.7650   18.7680 C   0  0  0  0  0
  -19.8910    8.3420   19.1400 O   0  0  0  0  0
  -19.5460    7.9250   20.4630 C   0  0  0  0  0
  -18.5160    8.8910   21.0520 C   0  0  0  0  0
  -17.3340    8.5590   21.5340 C   0  0  0  0  0
  -18.6600   10.2030   21.1640 N   0  0  0  0  0
  -17.6400   10.6430   21.6780 N   0  0  0  0  0
  -16.8180    9.7220   21.9200 N   0  0  0  0  0
  -15.4850    9.9050   22.5380 C   0  0  0  0  0
  -14.9440   11.2990   22.2630 C   0  0  0  0  0
  -14.8390   11.5000   20.8460 O   0  0  0  0  0
  -15.5820    9.6990   23.9550 O   0  0  0  0  0
  -14.2680    9.7100   24.5320 C   0  0  0  0  0
  -14.3590    9.3570   26.0180 C   0  0  0  0  0
  -15.4630   10.0500   26.6060 O   0  0  0  0  0
  -13.6570   11.0930   24.3750 C   0  0  0  0  0
  -12.3400   11.1020   24.9470 O   0  0  0  0  0
  -13.5720   11.4460   22.9000 C   0  0  0  0  0
  -13.1200   12.8010   22.7560 O   0  0  0  0  0
  -11.8720   12.8180   22.0490 C   0  0  0  0  0
  -11.4090   14.2550   21.8700 C   0  0  0  0  0
  -12.3900   14.9840   21.1180 O   0  0  0  0  0
  -10.8880   12.0870   22.7950 O   0  0  0  0  0
   -8.2850   11.7310   23.9890 O   0  0  0  0  0
   -7.8780   13.2920   21.0780 O   0  0  0  0  0
   -9.5800   15.6150   21.0770 O   0  0  0  0  0
   -9.8340   16.1740   19.7790 C   0  0  0  0  0
   -9.0850   15.4510   18.7910 O   0  0  0  0  0
   -9.4350   15.9260   17.4830 C   0  0  0  0  0
   -8.7410   15.0670   16.4250 C   0  0  0  0  0
   -7.3610   14.9100   16.7680 O   0  0  0  0  0
   -8.9930   17.3720   17.3330 C   0  0  0  0  0
   -9.3490   17.8490   16.0280 O   0  0  0  0  0
   -9.6770   18.2250   18.3890 C   0  0  0  0  0
   -9.1600   19.5620   18.3350 O   0  0  0  0  0
   -9.4150   17.6350   19.7650 C   0  0  0  0  0
  -10.1690   18.3590   20.7480 O   0  0  0  0  0
   -8.8585   13.8103   22.8271 H   0  0  0  0  0
   -9.8970   11.5652   21.0518 H   0  0  0  0  0
   -7.7959   10.9520   22.1376 H   0  0  0  0  0
   -9.1373   10.1400   22.9809 H   0  0  0  0  0
  -10.2307   13.9011   20.1127 H   0  0  0  0  0
  -22.6886    9.8911   17.6968 H   0  0  0  0  0
  -22.9626   10.1319   15.1866 H   0  0  0  0  0
  -21.7314    8.3130   13.8383 H   0  0  0  0  0
  -21.0802    6.6792   18.8385 H   0  0  0  0  0
  -21.9244    8.1273   19.4383 H   0  0  0  0  0
  -19.1231    6.9210   20.4281 H   0  0  0  0  0
  -20.4396    7.9228   21.0872 H   0  0  0  0  0
  -16.8867    7.5672   21.6001 H   0  0  0  0  0
  -14.7999    9.1777   22.1025 H   0  0  0  0  0
  -15.6209   12.0414   22.6859 H   0  0  0  0  0
  -14.4974   12.3804   20.6733 H   0  0  0  0  0
  -13.6422    8.9768   24.0233 H   0  0  0  0  0
  -13.4367    9.6519   26.5186 H   0  0  0  0  0
  -14.5046    8.2824   26.1278 H   0  0  0  0  0
  -15.5190    9.8277   27.5382 H   0  0  0  0  0
  -14.2805   11.8257   24.8874 H   0  0  0  0  0
  -11.9550   11.9758   24.8473 H   0  0  0  0  0
  -12.8689   10.7747   22.4069 H   0  0  0  0  0
  -12.0034   12.3548   21.0711 H   0  0  0  0  0
  -11.2825   14.7203   22.8476 H   0  0  0  0  0
  -12.0964   15.8911   21.0058 H   0  0  0  0  0
   -7.6563   11.1699   24.4489 H   0  0  0  0  0
   -7.2481   12.7304   21.5356 H   0  0  0  0  0
  -10.8979   16.0996   19.5537 H   0  0  0  0  0
  -10.5150   15.8616   17.3508 H   0  0  0  0  0
   -8.8206   15.5534   15.4528 H   0  0  0  0  0
   -9.2182   14.0880   16.3818 H   0  0  0  0  0
   -6.9265   14.3707   16.1032 H   0  0  0  0  0
   -7.9123   17.4353   17.4602 H   0  0  0  0  0
   -9.0690   18.7626   15.9351 H   0  0  0  0  0
  -10.7503   18.2439   18.2001 H   0  0  0  0  0
   -9.5934   20.0987   19.0027 H   0  0  0  0  0
   -8.3523   17.7097   19.9954 H   0  0  0  0  0
   -9.9033   19.2814   20.7379 H   0  0  0  0  0
  1  2  1  0  0  0
  4  1  1  0  0  0
  1 34  1  0  0  0
  2  3  1  0  0  0
  2 32  1  0  0  0
  3 33  1  0  0  0
 30  4  1  0  0  0
  4 35  1  0  0  0
  5  6  4  0  0  0
  9  5  4  0  0  0
  7  6  4  0  0  0
  8  7  4  0  0  0
  9  8  4  0  0  0
 10  9  1  0  0  0
 11 10  1  0  0  0
 12 11  1  0  0  0
 13 12  1  0  0  0
 14 13  4  0  0  0
 15 13  4  0  0  0
 17 14  4  0  0  0
 16 15  4  0  0  0
 17 16  4  0  0  0
 18 17  1  0  0  0
 19 18  1  0  0  0
 18 21  1  0  0  0
 19 20  1  0  0  0
 27 19  1  0  0  0
 22 21  1  0  0  0
 22 23  1  0  0  0
 25 22  1  0  0  0
 23 24  1  0  0  0
 25 26  1  0  0  0
 27 25  1  0  0  0
 28 27  1  0  0  0
 29 28  1  0  0  0
 29 30  1  0  0  0
 29 32  1  0  0  0
 30 31  1  0  0  0
 35 36  1  0  0  0
 36 37  1  0  0  0
 36 45  1  0  0  0
 37 38  1  0  0  0
 38 39  1  0  0  0
 38 41  1  0  0  0
 39 40  1  0  0  0
 41 42  1  0  0  0
 41 43  1  0  0  0
 43 44  1  0  0  0
 43 45  1  0  0  0
 45 46  1  0  0  0
  1 47  1  0  0  0
  2 48  1  0  0  0
  3 49  1  0  0  0
  3 50  1  0  0  0
  4 51  1  0  0  0
  5 52  1  0  0  0
  6 53  1  0  0  0
  7 54  1  0  0  0
 10 55  1  0  0  0
 10 56  1  0  0  0
 12 57  1  0  0  0
 12 58  1  0  0  0
 14 59  1  0  0  0
 18 60  1  0  0  0
 19 61  1  0  0  0
 20 62  1  0  0  0
 22 63  1  0  0  0
 23 64  1  0  0  0
 23 65  1  0  0  0
 24 66  1  0  0  0
 25 67  1  0  0  0
 26 68  1  0  0  0
 27 69  1  0  0  0
 29 70  1  0  0  0
 30 71  1  0  0  0
 31 72  1  0  0  0
 33 73  1  0  0  0
 34 74  1  0  0  0
 36 75  1  0  0  0
 38 76  1  0  0  0
 39 77  1  0  0  0
 39 78  1  0  0  0
 40 79  1  0  0  0
 41 80  1  0  0  0
 42 81  1  0  0  0
 43 82  1  0  0  0
 44 83  1  0  0  0
 45 84  1  0  0  0
 46 85  1  0  0  0
M  END
$$$$
