4twy_ligand
  -I-interpret- 

 69 73  0  0  0  0  0  0  0  0999 V2000
  -27.5370  -43.3130    0.9660 C   0  0  0  0  0
  -20.8330  -45.0940    1.0620 O   0  0  0  0  0
  -27.3390  -44.6640    1.1520 C   0  0  0  0  0
  -28.2490  -45.5930    0.6960 C   0  0  0  0  0
  -29.3660  -45.1490    0.0460 C   0  0  0  0  0
  -30.3740  -46.0720   -0.4860 C   0  0  0  0  0
  -31.0330  -45.6960   -1.6280 C   0  0  0  0  0
  -21.1690  -44.4050    2.0000 C   0  0  0  0  0
  -21.3890  -42.9200    1.8210 C   0  0  0  0  0
  -20.0340  -42.2660    2.0130 C   0  0  0  0  0
  -19.7540  -41.0340    1.2350 C   0  0  0  0  0
  -18.6940  -40.2660    1.4170 N   0  0  0  0  0
  -18.7440  -39.2730    0.5510 C   0  0  0  0  0
  -19.8390  -39.3950   -0.1740 N   0  0  0  0  0
  -20.4830  -40.4860    0.2240 C   0  0  0  0  0
  -22.2870  -42.4000    2.8650 N   0  3  0  0  0
  -23.6330  -42.9840    2.8290 C   0  0  0  0  0
  -24.6630  -41.8660    2.8720 C   0  0  0  0  0
  -24.7590  -41.2230    4.2470 C   0  0  0  0  0
  -25.2810  -42.1930    5.2730 C   0  0  0  0  0
  -25.3990  -41.5450    6.6240 C   0  0  0  0  0
  -26.0040  -42.4880    7.6370 C   0  0  0  0  0
  -27.3230  -43.0980    7.1800 C   0  0  0  0  0
  -27.1840  -43.6920    5.8070 C   0  0  0  0  0
  -26.6100  -42.7130    4.8150 C   0  0  0  0  0
  -26.3520  -43.4820    3.5550 C   0  0  0  0  0
  -25.9170  -42.5390    2.5710 N   0  0  0  0  0
  -26.5310  -42.3090    1.4480 C   0  0  0  0  0
  -26.2900  -41.3580    0.7780 O   0  0  0  0  0
  -28.6550  -42.8920    0.3120 C   0  0  0  0  0
  -29.5660  -43.8170   -0.1460 C   0  0  0  0  0
  -30.6380  -47.2690    0.1130 C   0  0  0  0  0
  -31.5890  -48.0960   -0.4390 C   0  0  0  0  0
  -32.2580  -47.7160   -1.5740 C   0  0  0  0  0
  -31.9800  -46.5160   -2.1720 C   0  0  0  0  0
  -26.4433  -45.0052    1.6710 H   0  0  0  0  0
  -28.0814  -46.6589    0.8505 H   0  0  0  0  0
  -30.8010  -44.7422   -2.1019 H   0  0  0  0  0
  -21.3138  -44.8590    2.9803 H   0  0  0  0  0
  -21.8280  -42.7175    0.8441 H   0  0  0  0  0
  -19.3025  -43.0000    1.6749 H   0  0  0  0  0
  -19.9974  -41.9671    3.0606 H   0  0  0  0  0
  -18.0019  -38.4810    0.4507 H   0  0  0  0  0
  -21.4187  -40.8703   -0.1821 H   0  0  0  0  0
  -22.3854  -41.3965    2.7109 H   0  0  0  0  0
  -21.8754  -42.6373    3.7676 H   0  0  0  0  0
  -23.7701  -43.6415    3.6875 H   0  0  0  0  0
  -23.7573  -43.5615    1.9130 H   0  0  0  0  0
  -24.4065  -41.0640    2.1799 H   0  0  0  0  0
  -25.4470  -40.3797    4.1870 H   0  0  0  0  0
  -23.7619  -40.9031    4.5495 H   0  0  0  0  0
  -24.5786  -43.0205    5.3733 H   0  0  0  0  0
  -26.0460  -40.6724    6.5339 H   0  0  0  0  0
  -24.4010  -41.2671    6.9628 H   0  0  0  0  0
  -26.2023  -41.9152    8.5429 H   0  0  0  0  0
  -25.2985  -43.3048    7.7891 H   0  0  0  0  0
  -28.0822  -42.3164    7.1512 H   0  0  0  0  0
  -27.6084  -43.8851    7.8779 H   0  0  0  0  0
  -28.1767  -43.9804    5.4615 H   0  0  0  0  0
  -26.5055  -44.5425    5.8738 H   0  0  0  0  0
  -27.3021  -41.8803    4.6896 H   0  0  0  0  0
  -27.2551  -43.9952    3.2246 H   0  0  0  0  0
  -25.5926  -44.2467    3.7186 H   0  0  0  0  0
  -28.8277  -41.8277    0.1520 H   0  0  0  0  0
  -30.4597  -43.4776   -0.6696 H   0  0  0  0  0
  -30.1035  -47.5657    1.0154 H   0  0  0  0  0
  -31.8112  -49.0559    0.0272 H   0  0  0  0  0
  -33.0151  -48.3727   -2.0025 H   0  0  0  0  0
  -32.5108  -46.2173   -3.0759 H   0  0  0  0  0
  1  3  4  0  0  0
 28  1  1  0  0  0
  1 30  4  0  0  0
  8  2  2  0  0  0
  3  4  4  0  0  0
  4  5  4  0  0  0
  5  6  1  0  0  0
  5 31  4  0  0  0
  6  7  4  0  0  0
  6 32  4  0  0  0
  7 35  4  0  0  0
  9  8  1  0  0  0
  9 10  1  0  0  0
 16  9  1  0  0  0
 10 11  1  0  0  0
 11 12  4  0  0  0
 11 15  4  0  0  0
 12 13  4  0  0  0
 14 13  4  0  0  0
 15 14  4  0  0  0
 17 16  1  0  0  0
 18 17  1  0  0  0
 18 19  1  0  0  0
 27 18  1  0  0  0
 19 20  1  0  0  0
 20 21  1  0  0  0
 25 20  1  0  0  0
 21 22  1  0  0  0
 23 22  1  0  0  0
 24 23  1  0  0  0
 25 24  1  0  0  0
 26 25  1  0  0  0
 27 26  1  0  0  0
 27 28  1  0  0  0
 28 29  2  0  0  0
 30 31  4  0  0  0
 32 33  4  0  0  0
 33 34  4  0  0  0
 34 35  4  0  0  0
  3 36  1  0  0  0
  4 37  1  0  0  0
  7 38  1  0  0  0
  8 39  1  0  0  0
  9 40  1  0  0  0
 10 41  1  0  0  0
 10 42  1  0  0  0
 13 43  1  0  0  0
 15 44  1  0  0  0
 16 45  1  0  0  0
 16 46  1  0  0  0
 17 47  1  0  0  0
 17 48  1  0  0  0
 18 49  1  0  0  0
 19 50  1  0  0  0
 19 51  1  0  0  0
 20 52  1  0  0  0
 21 53  1  0  0  0
 21 54  1  0  0  0
 22 55  1  0  0  0
 22 56  1  0  0  0
 23 57  1  0  0  0
 23 58  1  0  0  0
 24 59  1  0  0  0
 24 60  1  0  0  0
 25 61  1  0  0  0
 26 62  1  0  0  0
 26 63  1  0  0  0
 30 64  1  0  0  0
 31 65  1  0  0  0
 32 66  1  0  0  0
 33 67  1  0  0  0
 34 68  1  0  0  0
 35 69  1  0  0  0
M  END
$$$$
