4xm6_ligand
  -I-interpret- 

 49 49  0  0  0  0  0  0  0  0999 V2000
   11.9880   19.3340   28.5590 C   0  0  0  0  0
   10.9380   19.2250   27.4860 C   0  0  0  0  0
   12.1030   17.2050   26.5890 C   0  0  0  0  0
   12.0090   18.5690   29.5120 O   0  0  0  0  0
   14.0910   20.2520   29.0930 O   0  0  0  0  0
    9.0560   19.3570   29.1300 C   0  0  0  0  0
    8.3480   20.5000   29.8600 C   0  0  0  0  0
    9.3300   21.4560   30.5250 C   0  0  0  0  0
    7.5520   22.8470   27.3160 C   0  0  0  0  0
    7.4810   24.2010   27.6540 C   0  0  0  0  0
    8.6320   24.9300   27.8830 C   0  0  0  0  0
    9.8730   24.3110   27.7870 C   0  0  0  0  0
   12.8890   20.2960   28.3950 N   0  0  0  0  0
   10.7850   17.7410   27.1450 C   0  0  0  0  0
    9.6260   19.7870   27.8430 N   0  0  0  0  0
    8.9320   20.6700   26.8120 S   0  0  0  0  0
    7.6270   20.1440   26.5200 O   0  0  0  0  0
    9.7300   20.6080   25.6200 O   0  0  0  0  0
    7.3450   19.9730   30.8820 C   0  0  0  0  0
    8.7950   22.2190   27.2200 C   0  0  0  0  0
    9.9450   22.9620   27.4550 C   0  0  0  0  0
    8.5330   26.2380   28.1990 F   0  0  0  0  0
    6.1620   24.9200   27.7560 C   0  0  0  0  0
    9.6330   17.4230   26.1980 C   0  0  0  0  0
   11.2781   19.8208   26.6389 H   0  0  0  0  0
   12.0324   16.1239   26.4690 H   0  0  0  0  0
   12.3026   17.6669   25.6221 H   0  0  0  0  0
   12.9112   17.4430   27.2806 H   0  0  0  0  0
   14.6230   21.0165   28.8604 H   0  0  0  0  0
    8.3223   18.5757   28.9316 H   0  0  0  0  0
    9.8720   19.0055   29.7615 H   0  0  0  0  0
    7.8044   21.0615   29.1001 H   0  0  0  0  0
    8.7836   22.2963   30.9533 H   0  0  0  0  0
    9.8684   20.9310   31.3140 H   0  0  0  0  0
   10.0382   21.8224   29.7818 H   0  0  0  0  0
    6.6388   22.2824   27.1277 H   0  0  0  0  0
   10.7846   24.8795   27.9709 H   0  0  0  0  0
   12.6990   21.0682   27.7562 H   0  0  0  0  0
   10.5312   17.2386   28.0784 H   0  0  0  0  0
    7.8775   19.4435   31.6721 H   0  0  0  0  0
    6.7926   20.8088   31.3114 H   0  0  0  0  0
    6.6510   19.2915   30.3900 H   0  0  0  0  0
   10.9197   22.4801   27.3780 H   0  0  0  0  0
    5.6509   24.8769   26.7942 H   0  0  0  0  0
    5.5466   24.4412   28.5177 H   0  0  0  0  0
    6.3370   25.9605   28.0296 H   0  0  0  0  0
    9.8222   17.8858   25.2295 H   0  0  0  0  0
    9.5520   16.3428   26.0763 H   0  0  0  0  0
    8.7042   17.8138   26.6136 H   0  0  0  0  0
  2  1  1  0  0  0
  1  4  2  0  0  0
  1 13  1  0  0  0
  2 14  1  0  0  0
 15  2  1  0  0  0
 14  3  1  0  0  0
 13  5  1  0  0  0
  6  7  1  0  0  0
 15  6  1  0  0  0
  7  8  1  0  0  0
  7 19  1  0  0  0
  9 10  4  0  0  0
 20  9  4  0  0  0
 10 11  4  0  0  0
 10 23  1  0  0  0
 11 12  4  0  0  0
 11 22  1  0  0  0
 12 21  4  0  0  0
 14 24  1  0  0  0
 16 15  1  0  0  0
 16 17  2  0  0  0
 16 18  2  0  0  0
 16 20  1  0  0  0
 20 21  4  0  0  0
  2 25  1  0  0  0
  3 26  1  0  0  0
  3 27  1  0  0  0
  3 28  1  0  0  0
  5 29  1  0  0  0
  6 30  1  0  0  0
  6 31  1  0  0  0
  7 32  1  0  0  0
  8 33  1  0  0  0
  8 34  1  0  0  0
  8 35  1  0  0  0
  9 36  1  0  0  0
 12 37  1  0  0  0
 13 38  1  0  0  0
 14 39  1  0  0  0
 19 40  1  0  0  0
 19 41  1  0  0  0
 19 42  1  0  0  0
 21 43  1  0  0  0
 23 44  1  0  0  0
 23 45  1  0  0  0
 23 46  1  0  0  0
 24 47  1  0  0  0
 24 48  1  0  0  0
 24 49  1  0  0  0
M  END
$$$$
