3f88_ligand
  -I-interpret- 

 35 38  0  0  0  0  0  0  0  0999 V2000
    4.1670  -14.3600   32.5100 C   0  0  0  0  0
    4.1380  -13.9590   33.8450 C   0  0  0  0  0
    5.0490  -14.3420   34.8370 C   0  0  0  0  0
    6.0660  -15.1780   34.3760 C   0  0  0  0  0
    6.1360  -15.6100   33.0360 C   0  0  0  0  0
    3.6740  -14.0180   36.6710 C   0  0  0  0  0
    5.5120  -12.0330   38.9920 C   0  0  0  0  0
    7.5190  -11.8660   37.6910 C   0  0  0  0  0
    5.6800  -13.0980   36.8050 C   0  0  0  0  0
   10.9250  -11.2970   36.9610 C   0  0  0  0  0
   12.4110  -11.7090   36.1890 S   0  0  0  0  0
   10.7810  -10.2230   37.7490 N   0  0  0  0  0
    9.4310  -10.2900   38.1300 N   0  0  0  0  0
    9.8300  -12.0640   36.8050 O   0  0  0  0  0
    8.8940  -11.3910   37.5420 C   0  0  0  0  0
    6.8120  -11.5690   38.8550 C   0  0  0  0  0
    6.9810  -12.6260   36.6690 C   0  0  0  0  0
    4.9520  -12.8070   37.9670 C   0  0  0  0  0
    3.7340  -13.3880   37.8590 N   0  0  0  0  0
    4.8580  -13.8620   36.0830 N   0  0  0  0  0
    5.1840  -15.2040   32.0890 C   0  0  0  0  0
    5.2100  -15.5810   30.7640 O   0  0  0  0  0
    5.9440  -16.7150   30.2970 C   0  0  0  0  0
    3.4049  -14.0167   31.8104 H   0  0  0  0  0
    3.3336  -13.2867   34.1434 H   0  0  0  0  0
    6.8332  -15.5087   35.0762 H   0  0  0  0  0
    6.9456  -16.2724   32.7297 H   0  0  0  0  0
    2.8164  -14.5553   36.2662 H   0  0  0  0  0
    4.9335  -11.7985   39.8856 H   0  0  0  0  0
   11.4804   -9.5273   38.0085 H   0  0  0  0  0
    7.2745  -10.9800   39.6470 H   0  0  0  0  0
    7.5641  -12.8504   35.7758 H   0  0  0  0  0
    7.0013  -16.5811   30.5255 H   0  0  0  0  0
    5.5751  -17.6137   30.7914 H   0  0  0  0  0
    5.8134  -16.8120   29.2192 H   0  0  0  0  0
  2  1  4  0  0  0
  1 21  4  0  0  0
  3  2  4  0  0  0
  3  4  4  0  0  0
 20  3  1  0  0  0
  4  5  4  0  0  0
  5 21  4  0  0  0
  6 19  4  0  0  0
 20  6  4  0  0  0
 16  7  4  0  0  0
  7 18  4  0  0  0
 15  8  1  0  0  0
  8 16  4  0  0  0
  8 17  4  0  0  0
 17  9  4  0  0  0
  9 18  4  0  0  0
  9 20  4  0  0  0
 10 11  2  0  0  0
 12 10  1  0  0  0
 10 14  1  0  0  0
 13 12  1  0  0  0
 13 15  2  0  0  0
 14 15  1  0  0  0
 18 19  4  0  0  0
 21 22  1  0  0  0
 22 23  1  0  0  0
  1 24  1  0  0  0
  2 25  1  0  0  0
  4 26  1  0  0  0
  5 27  1  0  0  0
  6 28  1  0  0  0
  7 29  1  0  0  0
 12 30  1  0  0  0
 16 31  1  0  0  0
 17 32  1  0  0  0
 23 33  1  0  0  0
 23 34  1  0  0  0
 23 35  1  0  0  0
M  END
$$$$
