3b3x_ligand
  -I-interpret- 

 23 22  0  0  0  0  0  0  0  0999 V2000
   52.2260   45.7470  -18.0300 C   0  0  0  0  0
   50.7880   46.0730  -18.4720 C   0  0  0  0  0
   50.0200   47.1040  -17.6030 C   0  0  0  0  0
   50.6530   48.4980  -17.5640 C   0  0  0  0  0
   49.7930   49.6530  -18.1230 C   0  0  0  0  0
   49.9880   46.9750  -15.1810 O   0  0  0  0  0
   49.9220   46.3950  -16.2880 C   0  0  0  0  0
   49.7790   45.1720  -16.4100 O   0  0  0  0  0
   52.4630   45.4090  -16.8270 O   0  0  0  0  0
   53.1630   45.8180  -18.8850 O   0  0  0  0  0
   48.6510   47.3150  -18.0410 N   0  3  0  0  0
   49.5400   49.6980  -19.3480 O   0  0  0  0  0
   49.3730   50.5800  -17.3860 O   0  0  0  0  0
   50.2293   45.1397  -18.4013 H   0  0  0  0  0
   50.8679   46.5129  -19.4661 H   0  0  0  0  0
   51.5410   48.4470  -18.1941 H   0  0  0  0  0
   50.8224   48.7262  -16.5117 H   0  0  0  0  0
   50.0987   47.9182  -15.3213 H   0  0  0  0  0
   51.6428   45.4094  -16.3282 H   0  0  0  0  0
   48.6533   47.7982  -18.9393 H   0  0  0  0  0
   48.1841   46.4135  -18.1397 H   0  0  0  0  0
   48.1578   47.8809  -17.3505 H   0  0  0  0  0
   49.6406   50.4127  -16.4794 H   0  0  0  0  0
  1  2  1  0  0  0
  1  9  1  0  0  0
  1 10  2  0  0  0
  2  3  1  0  0  0
  3  4  1  0  0  0
  3  7  1  0  0  0
  3 11  1  0  0  0
  4  5  1  0  0  0
  5 12  2  0  0  0
  5 13  1  0  0  0
  7  6  1  0  0  0
  7  8  2  0  0  0
  2 14  1  0  0  0
  2 15  1  0  0  0
  4 16  1  0  0  0
  4 17  1  0  0  0
  6 18  1  0  0  0
  9 19  1  0  0  0
 11 20  1  0  0  0
 11 21  1  0  0  0
 11 22  1  0  0  0
 13 23  1  0  0  0
M  END
$$$$
