5kpm_ligand
  -I-interpret- 

 60 63  0  0  0  0  0  0  0  0999 V2000
   12.1330   -4.8740   -2.3600 C   0  0  0  0  0
   11.2020   -3.6890   -2.1430 C   0  0  0  0  0
   11.2790   -6.0500   -2.8240 C   0  0  0  0  0
   13.2620   -4.5780   -3.3520 C   0  0  0  0  0
   12.8000   -4.2410   -4.7320 C   0  0  0  0  0
   12.3380   -3.1700   -6.7510 C   0  0  0  0  0
   13.7880    1.7880   -9.7810 C   0  0  0  0  0
   15.2990    0.1520   -8.8420 C   0  0  0  0  0
   12.7580   -0.0230   -8.5900 C   0  0  0  0  0
   13.2740   -0.8530   -2.6300 C   0  0  0  0  0
   12.4620   -0.3360   -1.6000 C   0  0  0  0  0
   11.1230   -0.0140   -1.8480 C   0  0  0  0  0
   10.6390   -0.2190   -3.1420 C   0  0  0  0  0
   14.4400    1.0930   -4.9440 O   0  0  0  0  0
   14.0720    0.7250   -6.0530 C   0  0  0  0  0
   13.5470   -0.6820   -6.1950 C   0  0  0  0  0
   12.8510   -1.0360   -7.4710 C   0  0  0  0  0
   13.9860    0.8950   -8.5830 C   0  0  0  0  0
   14.0380    1.6660   -7.2580 C   0  0  0  0  0
   13.6350   -1.6500   -5.0530 C   0  0  0  0  0
   15.1310   -1.8820   -4.8180 C   0  0  0  0  0
   12.7930   -1.0730   -3.9220 C   0  0  0  0  0
   11.4560   -0.7270   -4.1700 C   0  0  0  0  0
   12.9890   -2.9590   -5.4570 C   0  0  0  0  0
   12.7800   -5.2010   -1.0110 C   0  0  0  0  0
   12.1420   -5.0180   -5.6080 N   0  0  0  0  0
   11.8420   -4.4110   -6.8500 N   0  0  0  0  0
   12.3000   -2.2260   -7.6730 N   0  0  0  0  0
   10.4416   -3.9556   -1.4089 H   0  0  0  0  0
   11.7778   -2.8381   -1.7789 H   0  0  0  0  0
   10.7224   -3.4279   -3.0863 H   0  0  0  0  0
   11.9076   -6.9341   -2.9306 H   0  0  0  0  0
   10.4990   -6.2438   -2.0877 H   0  0  0  0  0
   10.8224   -5.8093   -3.7841 H   0  0  0  0  0
   13.8649   -5.4828   -3.4290 H   0  0  0  0  0
   13.7996   -3.7085   -2.9739 H   0  0  0  0  0
   14.6281    2.4778   -9.8612 H   0  0  0  0  0
   13.7303    1.1774  -10.6821 H   0  0  0  0  0
   12.8629    2.3522   -9.6630 H   0  0  0  0  0
   15.2122   -0.4268   -9.7615 H   0  0  0  0  0
   16.1100    0.8736   -8.9406 H   0  0  0  0  0
   15.5065   -0.5180   -8.0077 H   0  0  0  0  0
   11.8620    0.5814   -8.4483 H   0  0  0  0  0
   12.7139   -0.5499   -9.5432 H   0  0  0  0  0
   14.3150   -1.0895   -2.4096 H   0  0  0  0  0
   12.8797   -0.1862   -0.6044 H   0  0  0  0  0
   10.4816    0.3820   -1.0607 H   0  0  0  0  0
    9.5989    0.0212   -3.3624 H   0  0  0  0  0
   14.3710   -1.3946   -6.2328 H   0  0  0  0  0
   13.1499   -1.2857   -6.4530 H   0  0  0  0  0
   14.9466    2.2680   -7.2478 H   0  0  0  0  0
   13.1421    2.2826   -7.1855 H   0  0  0  0  0
   15.5799   -2.2937   -5.7219 H   0  0  0  0  0
   15.6101   -0.9343   -4.5720 H   0  0  0  0  0
   15.2636   -2.5825   -3.9935 H   0  0  0  0  0
   11.0446   -0.8531   -5.1715 H   0  0  0  0  0
   13.4284   -6.0702   -1.1216 H   0  0  0  0  0
   13.3688   -4.3473   -0.6754 H   0  0  0  0  0
   12.0017   -5.4175   -0.2792 H   0  0  0  0  0
   11.8362   -2.4158   -8.5614 H   0  0  0  0  0
  1  2  1  0  0  0
  1  3  1  0  0  0
  4  1  1  0  0  0
  1 25  1  0  0  0
  5  4  1  0  0  0
 24  5  4  0  0  0
  5 26  4  0  0  0
  6 24  4  0  0  0
  6 27  4  0  0  0
 28  6  1  0  0  0
 18  7  1  0  0  0
 18  8  1  0  0  0
 17  9  1  0  0  0
  9 18  1  0  0  0
 10 11  4  0  0  0
 22 10  4  0  0  0
 11 12  4  0  0  0
 12 13  4  0  0  0
 13 23  4  0  0  0
 15 14  2  0  0  0
 16 15  1  0  0  0
 15 19  1  0  0  0
 16 17  1  0  0  0
 20 16  1  0  0  0
 17 28  1  0  0  0
 19 18  1  0  0  0
 20 21  1  0  0  0
 20 22  1  0  0  0
 20 24  1  0  0  0
 22 23  4  0  0  0
 26 27  4  0  0  0
  2 29  1  0  0  0
  2 30  1  0  0  0
  2 31  1  0  0  0
  3 32  1  0  0  0
  3 33  1  0  0  0
  3 34  1  0  0  0
  4 35  1  0  0  0
  4 36  1  0  0  0
  7 37  1  0  0  0
  7 38  1  0  0  0
  7 39  1  0  0  0
  8 40  1  0  0  0
  8 41  1  0  0  0
  8 42  1  0  0  0
  9 43  1  0  0  0
  9 44  1  0  0  0
 10 45  1  0  0  0
 11 46  1  0  0  0
 12 47  1  0  0  0
 13 48  1  0  0  0
 16 49  1  0  0  0
 17 50  1  0  0  0
 19 51  1  0  0  0
 19 52  1  0  0  0
 21 53  1  0  0  0
 21 54  1  0  0  0
 21 55  1  0  0  0
 23 56  1  0  0  0
 25 57  1  0  0  0
 25 58  1  0  0  0
 25 59  1  0  0  0
 28 60  1  0  0  0
M  END
$$$$
