4kif_ligand
  -I-interpret- 

 20 20  0  0  0  0  0  0  0  0999 V2000
    9.0970  101.9340  159.9540 C   0  0  0  0  0
    7.8420  102.0370  159.8100 O   0  0  0  0  0
    9.6210  102.3660  160.9790 O   0  0  0  0  0
   10.0350  101.3320  159.0030 C   0  0  0  0  0
    9.6660  100.9540  157.9320 O   0  0  0  0  0
   11.4580  101.2120  159.5000 C   0  0  0  0  0
   12.5240  100.4680  158.7300 C   0  0  0  0  0
   13.6600  100.1020  159.4600 C   0  0  0  0  0
   14.7170   99.4080  158.8580 C   0  0  0  0  0
   14.6360   99.0610  157.5160 C   0  0  0  0  0
   13.5110   99.4190  156.7820 C   0  0  0  0  0
   12.4630  100.1220  157.3730 C   0  0  0  0  0
    7.5856  101.6572  158.9664 H   0  0  0  0  0
   11.3576  100.6324  160.4177 H   0  0  0  0  0
   11.8152  102.2418  159.4961 H   0  0  0  0  0
   13.7235  100.3618  160.5167 H   0  0  0  0  0
   15.5991   99.1415  159.4402 H   0  0  0  0  0
   15.4490   98.5116  157.0413 H   0  0  0  0  0
   13.4477   99.1458  155.7287 H   0  0  0  0  0
   11.5937  100.4035  156.7787 H   0  0  0  0  0
  1  2  1  0  0  0
  1  3  2  0  0  0
  1  4  1  0  0  0
  4  5  2  0  0  0
  4  6  1  0  0  0
  6  7  1  0  0  0
  7  8  4  0  0  0
  7 12  4  0  0  0
  8  9  4  0  0  0
  9 10  4  0  0  0
 10 11  4  0  0  0
 11 12  4  0  0  0
  2 13  1  0  0  0
  6 14  1  0  0  0
  6 15  1  0  0  0
  8 16  1  0  0  0
  9 17  1  0  0  0
 10 18  1  0  0  0
 11 19  1  0  0  0
 12 20  1  0  0  0
M  END
$$$$
