1c7e_ligand
  -I-interpret- 

 54 56  0  0  0  0  0  0  0  0999 V2000
    7.3650    0.1050    0.9520 N   0  0  0  0  0
    7.8280    1.3390    0.6770 C   0  0  0  0  0
    8.5200    1.7280   -0.4010 O   0  0  0  0  0
    7.4050    2.2210    1.5950 N   0  0  0  0  0
    6.6640    1.8990    2.6670 C   0  0  0  0  0
    6.1150    2.5780    3.7680 O   0  0  0  0  0
    6.2620    0.5010    2.9530 C   0  0  0  0  0
    5.5250    0.2380    4.0960 N   0  0  0  0  0
    5.1310   -1.1230    4.2360 C   0  0  0  0  0
    4.3260   -1.3870    5.3930 C   0  0  0  0  0
    3.8420   -2.6660    5.6120 C   0  0  0  0  0
    2.9940   -3.0480    6.7130 C   0  0  0  0  0
    4.2120   -3.6860    4.7080 C   0  0  0  0  0
    3.7040   -4.9900    5.0830 C   0  0  0  0  0
    5.0340   -3.3940    3.5920 C   0  0  0  0  0
    5.5230   -2.0990    3.2870 C   0  0  0  0  0
    6.3380   -1.7940    2.1900 N   0  0  0  0  0
    6.6570   -0.3760    2.0100 C   0  0  0  0  0
    6.8480   -2.5570    1.1590 C   0  0  0  0  0
    7.8600   -3.5750    1.6800 C   0  0  0  0  0
    9.0460   -2.9350    2.1750 O   0  0  0  0  0
    8.2970   -4.4830    0.5000 C   0  0  0  0  0
    7.7480   -5.7850    0.7300 O   0  0  0  0  0
    9.7370   -4.6270    0.3510 C   0  0  0  0  0
   10.1940   -5.4750   -0.7410 O   0  0  0  0  0
   10.2430   -5.5260    1.3970 C   0  0  0  0  0
   11.5600   -5.6520    0.8190 O   0  0  0  0  0
   12.5130   -6.7750    1.5300 P   0  0  0  0  0
   12.5040   -6.7960    3.1580 O   0  0  0  0  0
   14.1010   -6.5040    1.0810 O   0  0  0  0  0
   12.2360   -8.5170    1.2540 O   0  0  0  0  0
    7.5837   -0.5932    0.2413 H   0  0  0  0  0
    7.6632    3.1999    1.4703 H   0  0  0  0  0
    5.2853    0.9572    4.7784 H   0  0  0  0  0
    4.0965   -0.5860    6.0957 H   0  0  0  0  0
    3.5092   -2.8491    7.6528 H   0  0  0  0  0
    2.0696   -2.4717    6.6749 H   0  0  0  0  0
    2.7642   -4.1111    6.6411 H   0  0  0  0  0
    4.0924   -5.2613    6.0647 H   0  0  0  0  0
    2.6150   -4.9580    5.1178 H   0  0  0  0  0
    4.0237   -5.7283    4.3476 H   0  0  0  0  0
    5.3068   -4.2142    2.9280 H   0  0  0  0  0
    7.3489   -1.8973    0.4505 H   0  0  0  0  0
    6.0275   -3.0926    0.6815 H   0  0  0  0  0
    7.3864   -4.1362    2.4855 H   0  0  0  0  0
    9.6588   -3.6017    2.4937 H   0  0  0  0  0
    7.9348   -4.0108   -0.4132 H   0  0  0  0  0
    8.0032   -6.3699    0.0128 H   0  0  0  0  0
   10.0523   -3.5854    0.2897 H   0  0  0  0  0
   11.1537   -5.4987   -0.7462 H   0  0  0  0  0
    9.6864   -6.4455    1.5782 H   0  0  0  0  0
   10.1807   -5.1784    2.4282 H   0  0  0  0  0
   14.1623   -6.4823    0.1232 H   0  0  0  0  0
   12.2116   -8.6904    0.3101 H   0  0  0  0  0
  1  2  1  0  0  0
  1 18  1  0  0  0
  2  3  2  0  0  0
  2  4  1  0  0  0
  4  5  1  0  0  0
  5  6  2  0  0  0
  5  7  1  0  0  0
  7  8  1  0  0  0
  7 18  2  0  0  0
  8  9  1  0  0  0
  9 10  4  0  0  0
  9 16  4  0  0  0
 10 11  4  0  0  0
 11 12  1  0  0  0
 11 13  4  0  0  0
 13 14  1  0  0  0
 13 15  4  0  0  0
 15 16  4  0  0  0
 16 17  1  0  0  0
 17 18  1  0  0  0
 17 19  1  0  0  0
 19 20  1  0  0  0
 20 21  1  0  0  0
 20 22  1  0  0  0
 22 23  1  0  0  0
 22 24  1  0  0  0
 24 25  1  0  0  0
 24 26  1  0  0  0
 26 27  1  0  0  0
 27 28  1  0  0  0
 28 29  2  0  0  0
 28 30  1  0  0  0
 28 31  1  0  0  0
  1 32  1  0  0  0
  4 33  1  0  0  0
  8 34  1  0  0  0
 10 35  1  0  0  0
 12 36  1  0  0  0
 12 37  1  0  0  0
 12 38  1  0  0  0
 14 39  1  0  0  0
 14 40  1  0  0  0
 14 41  1  0  0  0
 15 42  1  0  0  0
 19 43  1  0  0  0
 19 44  1  0  0  0
 20 45  1  0  0  0
 21 46  1  0  0  0
 22 47  1  0  0  0
 23 48  1  0  0  0
 24 49  1  0  0  0
 25 50  1  0  0  0
 26 51  1  0  0  0
 26 52  1  0  0  0
 30 53  1  0  0  0
 31 54  1  0  0  0
M  END
$$$$
