### 
### Created by X-TOOL on Sun Sep  9 21:50:02 2018
### 

@<TRIPOS>MOLECULE
1c7e_ligand
   52    54     1     0     0
SMALL
GAST_HUCK


@<TRIPOS>ATOM
      1 N1          7.3650    0.1050    0.9520 N.am      1 NON        -0.1875
      2 C2          7.8280    1.3390    0.6770 C.2       1 NON         0.3206
      3 O2          8.5200    1.7280   -0.4010 O.2       1 NON        -0.3857
      4 N3          7.4050    2.2210    1.5950 N.am      1 NON        -0.1901
      5 C4          6.6640    1.8990    2.6670 C.2       1 NON         0.1976
      6 O4          6.1150    2.5780    3.7680 O.2       1 NON        -0.4219
      7 C4A         6.2620    0.5010    2.9530 C.2       1 NON         0.1340
      8 N5          5.5250    0.2380    4.0960 N.pl3     1 NON        -0.3171
      9 C5A         5.1310   -1.1230    4.2360 C.ar      1 NON         0.0554
     10 C6          4.3260   -1.3870    5.3930 C.ar      1 NON        -0.0584
     11 C7          3.8420   -2.6660    5.6120 C.ar      1 NON        -0.0699
     12 C7M         2.9940   -3.0480    6.7130 C.3       1 NON        -0.0427
     13 C8          4.2120   -3.6860    4.7080 C.ar      1 NON        -0.0696
     14 C8M         3.7040   -4.9900    5.0830 C.3       1 NON        -0.0433
     15 C9          5.0340   -3.3940    3.5920 C.ar      1 NON        -0.0557
     16 C9A         5.5230   -2.0990    3.2870 C.ar      1 NON         0.0731
     17 N10         6.3380   -1.7940    2.1900 N.pl3     1 NON        -0.2416
     18 C10         6.6570   -0.3760    2.0100 C.2       1 NON         0.1907
     19 C1          6.8480   -2.5570    1.1590 C.3       1 NON         0.0728
     20 C2          7.8600   -3.5750    1.6800 C.3       1 NON         0.1065
     21 O2          9.0460   -2.9350    2.1750 O.3       1 NON        -0.3868
     22 C3          8.2970   -4.4830    0.5000 C.3       1 NON         0.1114
     23 O3          7.7480   -5.7850    0.7300 O.3       1 NON        -0.3865
     24 C4          9.7370   -4.6270    0.3510 C.3       1 NON         0.1111
     25 O4         10.1940   -5.4750   -0.7410 O.3       1 NON        -0.3865
     26 C5         10.2430   -5.5260    1.3970 C.3       1 NON         0.1068
     27 O5         11.5600   -5.6520    0.8190 O.3       1 NON        -0.2734
     28 P          12.5130   -6.7750    1.5300 P.3       1 NON         0.2008
     29 O1P        12.5040   -6.7960    3.1580 O.co2     1 NON        -0.5537
     30 O2P        14.1010   -6.5040    1.0810 O.co2     1 NON        -0.5537
     31 O3P        12.2360   -8.5170    1.2540 O.co2     1 NON        -0.5537
     32 H1          7.5794   -0.5795    0.2552 H         1 NON         0.2371
     33 H2          7.6581    3.1807    1.4728 H         1 NON         0.2244
     34 H3          5.2829    0.9643    4.7851 H         1 NON         0.1796
     35 H4          4.0977   -0.5904    6.0919 H         1 NON         0.0381
     36 H5          2.7827   -2.1664    7.3360 H         1 NON         0.0352
     37 H6          3.5023   -3.8122    7.3194 H         1 NON         0.0352
     38 H7          2.0498   -3.4568    6.3240 H         1 NON         0.0352
     39 H8          4.0260   -5.7360    4.3416 H         1 NON         0.0348
     40 H9          2.6050   -4.9591    5.1185 H         1 NON         0.0348
     41 H10         4.0953   -5.2650    6.0736 H         1 NON         0.0348
     42 H11         5.3053   -4.2097    2.9317 H         1 NON         0.0398
     43 H12         7.3441   -1.8957    0.4334 H         1 NON         0.0584
     44 H13         6.0231   -3.0907    0.6644 H         1 NON         0.0584
     45 H14         7.3994   -4.1761    2.4778 H         1 NON         0.0643
     46 H15         8.8151   -2.3496    2.8867 H         1 NON         0.2100
     47 H16         7.8900   -4.0647   -0.4324 H         1 NON         0.0647
     48 H17         8.0006   -6.3638    0.0203 H         1 NON         0.2100
     49 H18        10.2104   -3.6341    0.3415 H         1 NON         0.0646
     50 H19        11.1437   -5.4984   -0.7461 H         1 NON         0.2100
     51 H20         9.7001   -6.4816    1.4425 H         1 NON         0.0639
     52 H21        10.2536   -5.0624    2.3945 H         1 NON         0.0639
@<TRIPOS>BOND
     1    1    2 am 
     2    1   18 am 
     3    2    3 2  
     4    2    4 am 
     5    4    5 am 
     6    5    6 2  
     7    5    7 1  
     8    7    8 1  
     9    7   18 2  
    10    8    9 1  
    11    9   10 ar 
    12    9   16 ar 
    13   10   11 ar 
    14   11   12 1  
    15   11   13 ar 
    16   13   14 1  
    17   13   15 ar 
    18   15   16 ar 
    19   16   17 1  
    20   17   18 1  
    21   17   19 1  
    22   19   20 1  
    23   20   21 1  
    24   20   22 1  
    25   22   23 1  
    26   22   24 1  
    27   24   25 1  
    28   24   26 1  
    29   26   27 1  
    30   27   28 1  
    31   28   29 ar 
    32   28   30 ar 
    33   28   31 ar 
    34    1   32 1  
    35    4   33 1  
    36    8   34 1  
    37   10   35 1  
    38   12   36 1  
    39   12   37 1  
    40   12   38 1  
    41   14   39 1  
    42   14   40 1  
    43   14   41 1  
    44   15   42 1  
    45   19   43 1  
    46   19   44 1  
    47   20   45 1  
    48   21   46 1  
    49   22   47 1  
    50   23   48 1  
    51   24   49 1  
    52   25   50 1  
    53   26   51 1  
    54   26   52 1  
@<TRIPOS>SUBSTRUCTURE
     1 NON         1

