6djj_ligand
  -I-interpret- 

 20 20  0  0  0  0  0  0  0  0999 V2000
   -6.9270  -12.1750   34.4330 C   0  0  0  0  0
   -5.9880  -14.4130   33.8580 C   0  0  0  0  0
   -6.0900  -15.7780   33.6510 C   0  0  0  0  0
   -7.3000  -16.4230   33.8280 C   0  0  0  0  0
   -8.4120  -15.6860   34.1980 C   0  0  0  0  0
   -8.3200  -14.3160   34.3850 C   0  0  0  0  0
   -9.5780  -13.5650   34.8180 C   0  0  0  0  0
   -7.1010  -13.6780   34.2350 C   0  0  0  0  0
   -4.9140  -16.5390   33.2620 N   0  0  0  0  0
   -9.5140  -12.7370   35.7650 O   0  0  0  0  0
  -10.6760  -13.8040   34.2560 O   0  0  0  0  0
   -6.0300  -11.7610   35.2020 O   0  0  0  0  0
   -7.6500  -11.3660   33.8130 O   0  0  0  0  0
   -5.0282  -13.9141   33.7239 H   0  0  0  0  0
   -7.3776  -17.4998   33.6779 H   0  0  0  0  0
   -9.3686  -16.1879   34.3435 H   0  0  0  0  0
   -4.0177  -16.0671   33.1425 H   0  0  0  0  0
   -4.9852  -17.5449   33.1086 H   0  0  0  0  0
   -8.6075  -12.6767   36.0751 H   0  0  0  0  0
   -5.5743  -12.5101   35.5928 H   0  0  0  0  0
  8  1  1  0  0  0
  1 12  1  0  0  0
  1 13  2  0  0  0
  2  3  4  0  0  0
  2  8  4  0  0  0
  3  4  4  0  0  0
  3  9  1  0  0  0
  4  5  4  0  0  0
  5  6  4  0  0  0
  6  7  1  0  0  0
  6  8  4  0  0  0
  7 10  1  0  0  0
  7 11  2  0  0  0
  2 14  1  0  0  0
  4 15  1  0  0  0
  5 16  1  0  0  0
  9 17  1  0  0  0
  9 18  1  0  0  0
 10 19  1  0  0  0
 12 20  1  0  0  0
M  END
$$$$
