1hkj_ligand
  -I-interpret- 

 90 93  0  0  0  0  0  0  0  0999 V2000
    0.7700   61.5540   -2.1230 C   0  0  0  0  0
   -0.6440   61.7040   -2.6760 C   0  0  0  0  0
   -1.3800   60.3760   -2.6480 C   0  0  0  0  0
   -0.5310   59.3040   -3.3630 C   0  0  0  0  0
    0.8580   59.2270   -2.7150 C   0  0  0  0  0
    1.7190   58.1550   -3.3960 C   0  0  0  0  0
   -1.4260   64.0030   -2.3490 C   0  0  0  0  0
   -2.1470   64.9810   -1.4090 C   0  0  0  0  0
   -1.3310   62.7410   -1.8960 N   0  0  0  0  0
   -1.5920   60.0040   -1.2940 O   0  0  0  0  0
   -1.1690   58.0220   -3.3070 O   0  0  0  0  0
    1.4990   60.5170   -2.8210 O   0  0  0  0  0
    3.0690   58.1200   -2.8550 O   0  0  0  0  0
    3.0680   57.7650   -1.4640 C   0  0  0  0  0
   -1.0120   64.3770   -3.4560 O   0  0  0  0  0
    5.2880   63.8540   -1.1050 C   0  0  0  0  0
    5.0380   62.3480   -1.3400 C   0  0  0  0  0
    3.7770   62.1260   -2.1740 C   0  0  0  0  0
    2.5890   62.9210   -1.5820 C   0  0  0  0  0
    2.9620   64.3940   -1.4370 C   0  0  0  0  0
    1.7890   65.1420   -0.8120 C   0  0  0  0  0
    7.0570   60.9810   -1.4900 C   0  0  0  0  0
    8.2570   60.4780   -2.2870 C   0  0  0  0  0
    6.1890   61.7980   -2.0710 N   0  0  0  0  0
    4.0190   62.4960   -3.5380 O   0  0  0  0  0
    1.4040   62.8030   -2.3570 O   0  0  0  0  0
    4.1110   64.5000   -0.5540 O   0  0  0  0  0
    2.1550   66.5020   -0.6270 O   0  0  0  0  0
    6.9160   60.6500   -0.3130 O   0  0  0  0  0
    8.6170   66.6900    1.0410 C   0  0  0  0  0
    7.2370   67.3860    1.0800 C   0  0  0  0  0
    6.2000   66.2900    0.7770 C   0  0  0  0  0
    6.9390   65.2840   -0.1190 C   0  0  0  0  0
    8.2580   65.2600    0.6310 C   0  0  0  0  0
    9.3770   64.4890   -0.0700 C   0  0  0  0  0
    8.2200   67.4220    3.1490 C   0  0  0  0  0
    7.4750   68.5390    5.1980 C   0  0  0  0  0
    9.6560   67.2370    5.1170 C   0  0  0  0  0
    7.1590   67.8300    2.4680 N   0  0  0  0  0
    8.4440   67.7280    4.4410 N   0  0  0  0  0
    5.1160   66.8670    0.0420 O   0  0  0  0  0
    6.3620   63.9650   -0.1640 O   0  0  0  0  0
    9.5740   65.0100   -1.3790 O   0  0  0  0  0
    9.1030   66.6900    2.4290 O   0  0  0  0  0
    0.7455   61.2810   -1.0680 H   0  0  0  0  0
   -0.6144   62.0096   -3.7219 H   0  0  0  0  0
   -2.3388   60.4649   -3.1587 H   0  0  0  0  0
   -0.4287   59.5873   -4.4106 H   0  0  0  0  0
    0.7465   58.9538   -1.6657 H   0  0  0  0  0
    1.7823   58.3911   -4.4582 H   0  0  0  0  0
    1.2559   57.1836   -3.2229 H   0  0  0  0  0
   -1.4805   65.8090   -1.1676 H   0  0  0  0  0
   -3.0408   65.3641   -1.9014 H   0  0  0  0  0
   -2.4295   64.4614   -0.4934 H   0  0  0  0  0
   -1.7433   62.4996   -0.9948 H   0  0  0  0  0
   -2.1206   60.6762   -0.8576 H   0  0  0  0  0
   -2.0365   58.0795   -3.7142 H   0  0  0  0  0
    2.4894   58.4992   -0.9034 H   0  0  0  0  0
    2.6208   56.7784   -1.3424 H   0  0  0  0  0
    4.0931   57.7488   -1.0937 H   0  0  0  0  0
    5.5267   64.3383   -2.0519 H   0  0  0  0  0
    4.9088   61.8551   -0.3764 H   0  0  0  0  0
    3.5161   61.0680   -2.1476 H   0  0  0  0  0
    2.3797   62.4886   -0.6036 H   0  0  0  0  0
    3.1975   64.8188   -2.4128 H   0  0  0  0  0
    1.5375   64.6945    0.1496 H   0  0  0  0  0
    0.9213   65.0805   -1.4688 H   0  0  0  0  0
    9.1765   60.8130   -1.8071 H   0  0  0  0  0
    8.2389   59.3886   -2.3200 H   0  0  0  0  0
    8.2098   60.8743   -3.3013 H   0  0  0  0  0
    6.3233   62.0513   -3.0499 H   0  0  0  0  0
    3.2218   62.3531   -4.0534 H   0  0  0  0  0
    1.4207   66.9792   -0.2336 H   0  0  0  0  0
    9.3614   67.1425    0.3859 H   0  0  0  0  0
    7.0787   68.2079    0.3818 H   0  0  0  0  0
    5.8012   65.8277    1.6800 H   0  0  0  0  0
    6.9514   65.5628   -1.1727 H   0  0  0  0  0
    8.1292   64.6693    1.5379 H   0  0  0  0  0
    9.1016   63.4366   -0.1385 H   0  0  0  0  0
   10.2992   64.5926    0.5018 H   0  0  0  0  0
    8.0007   67.4886    4.2146 H   0  0  0  0  0
    7.3632   69.5112    4.7179 H   0  0  0  0  0
    6.5120   68.0287    5.2166 H   0  0  0  0  0
    7.8352   68.6752    6.2177 H   0  0  0  0  0
    9.6639   66.1472    5.0997 H   0  0  0  0  0
   10.5376   67.6163    4.6003 H   0  0  0  0  0
    9.6608   67.5853    6.1498 H   0  0  0  0  0
    6.3208   67.4351    2.8945 H   0  0  0  0  0
    4.4646   66.1886   -0.1508 H   0  0  0  0  0
   10.2773   64.5222   -1.8138 H   0  0  0  0  0
  1  2  1  0  0  0
  1 12  1  0  0  0
 26  1  1  0  0  0
  2  3  1  0  0  0
  2  9  1  0  0  0
  3  4  1  0  0  0
  3 10  1  0  0  0
  5  4  1  0  0  0
  4 11  1  0  0  0
  5  6  1  0  0  0
 12  5  1  0  0  0
  6 13  1  0  0  0
  7  8  1  0  0  0
  9  7  1  0  0  0
  7 15  2  0  0  0
 13 14  1  0  0  0
 16 17  1  0  0  0
 16 27  1  0  0  0
 42 16  1  0  0  0
 17 18  1  0  0  0
 17 24  1  0  0  0
 18 19  1  0  0  0
 18 25  1  0  0  0
 20 19  1  0  0  0
 19 26  1  0  0  0
 20 21  1  0  0  0
 27 20  1  0  0  0
 21 28  1  0  0  0
 22 23  1  0  0  0
 24 22  1  0  0  0
 22 29  2  0  0  0
 30 31  1  0  0  0
 34 30  1  0  0  0
 30 44  1  0  0  0
 32 31  1  0  0  0
 31 39  1  0  0  0
 33 32  1  0  0  0
 32 41  1  0  0  0
 33 34  1  0  0  0
 33 42  1  0  0  0
 34 35  1  0  0  0
 35 43  1  0  0  0
 39 36  1  0  0  0
 36 40  1  0  0  0
 36 44  1  0  0  0
 40 37  1  0  0  0
 40 38  1  0  0  0
  1 45  1  0  0  0
  2 46  1  0  0  0
  3 47  1  0  0  0
  4 48  1  0  0  0
  5 49  1  0  0  0
  6 50  1  0  0  0
  6 51  1  0  0  0
  8 52  1  0  0  0
  8 53  1  0  0  0
  8 54  1  0  0  0
  9 55  1  0  0  0
 10 56  1  0  0  0
 11 57  1  0  0  0
 14 58  1  0  0  0
 14 59  1  0  0  0
 14 60  1  0  0  0
 16 61  1  0  0  0
 17 62  1  0  0  0
 18 63  1  0  0  0
 19 64  1  0  0  0
 20 65  1  0  0  0
 21 66  1  0  0  0
 21 67  1  0  0  0
 23 68  1  0  0  0
 23 69  1  0  0  0
 23 70  1  0  0  0
 24 71  1  0  0  0
 25 72  1  0  0  0
 28 73  1  0  0  0
 30 74  1  0  0  0
 31 75  1  0  0  0
 32 76  1  0  0  0
 33 77  1  0  0  0
 34 78  1  0  0  0
 35 79  1  0  0  0
 35 80  1  0  0  0
 36 81  1  0  0  0
 37 82  1  0  0  0
 37 83  1  0  0  0
 37 84  1  0  0  0
 38 85  1  0  0  0
 38 86  1  0  0  0
 38 87  1  0  0  0
 39 88  1  0  0  0
 41 89  1  0  0  0
 43 90  1  0  0  0
M  END
$$$$
