4ovg_ligand
  -I-interpret- 

 36 38  0  0  0  0  0  0  0  0999 V2000
    6.6650   -8.7890  -13.3490 O   0  0  0  0  0
    7.1330   -8.0510  -12.4950 C   0  0  0  0  0
    6.7060   -8.0470  -11.2280 N   0  0  0  0  0
    8.2460   -7.1290  -12.8970 C   0  0  0  0  0
    8.7340   -6.2580  -11.8140 N   0  0  0  0  0
    8.1890   -5.0710  -11.4920 C   0  0  0  0  0
    7.0930   -4.3810  -11.9840 C   0  0  0  0  0
    6.7650   -3.1510  -11.4320 C   0  0  0  0  0
    9.7940   -6.5250  -11.0320 C   0  0  0  0  0
   10.6730   -7.7450  -11.0760 C   0  0  0  0  0
   11.8840   -7.5380  -10.1470 C   0  0  0  0  0
   12.5390   -8.8360   -9.7550 C   0  0  0  0  0
   12.0070   -9.9470   -9.8530 O   0  0  0  0  0
   13.7670   -8.7400   -9.2890 O   0  0  0  0  0
   11.5440   -6.8110   -8.8440 C   0  0  0  0  0
   11.0930   -5.3730   -9.0610 C   0  0  0  0  0
   10.0080   -5.4110  -10.0850 C   0  0  0  0  0
    8.9400   -4.4480  -10.3750 C   0  0  0  0  0
    8.5800   -3.2210   -9.8350 C   0  0  0  0  0
    7.4750   -2.5870  -10.3890 C   0  0  0  0  0
    6.8640   -1.0000   -9.8450 Cl  0  0  0  0  0
    5.9587   -8.6785  -10.9397 H   0  0  0  0  0
    7.1275   -7.4124  -10.5498 H   0  0  0  0  0
    7.8562   -6.4787  -13.6801 H   0  0  0  0  0
    9.0834   -7.7539  -13.2074 H   0  0  0  0  0
    6.4959   -4.7991  -12.7944 H   0  0  0  0  0
    5.9120   -2.6070  -11.8378 H   0  0  0  0  0
   11.0208   -7.9060  -12.0964 H   0  0  0  0  0
   10.1051   -8.6145  -10.7449 H   0  0  0  0  0
   12.5583   -6.9250  -10.7451 H   0  0  0  0  0
   14.0319   -7.8174   -9.2761 H   0  0  0  0  0
   12.4469   -6.7860   -8.2339 H   0  0  0  0  0
   10.7218   -7.3477   -8.3707 H   0  0  0  0  0
   11.9235   -4.7533   -9.3993 H   0  0  0  0  0
   10.7321   -4.9355   -8.1302 H   0  0  0  0  0
    9.1394   -2.7748   -9.0128 H   0  0  0  0  0
  1  2  2  0  0  0
  2  3  1  0  0  0
  2  4  1  0  0  0
  4  5  1  0  0  0
  5  6  4  0  0  0
  5  9  4  0  0  0
  6  7  4  0  0  0
  6 18  4  0  0  0
  7  8  4  0  0  0
  8 20  4  0  0  0
  9 10  1  0  0  0
  9 17  4  0  0  0
 10 11  1  0  0  0
 11 12  1  0  0  0
 11 15  1  0  0  0
 12 13  2  0  0  0
 12 14  1  0  0  0
 15 16  1  0  0  0
 16 17  1  0  0  0
 17 18  4  0  0  0
 18 19  4  0  0  0
 19 20  4  0  0  0
 20 21  1  0  0  0
  3 22  1  0  0  0
  3 23  1  0  0  0
  4 24  1  0  0  0
  4 25  1  0  0  0
  7 26  1  0  0  0
  8 27  1  0  0  0
 10 28  1  0  0  0
 10 29  1  0  0  0
 11 30  1  0  0  0
 14 31  1  0  0  0
 15 32  1  0  0  0
 15 33  1  0  0  0
 16 34  1  0  0  0
 16 35  1  0  0  0
 19 36  1  0  0  0
M  END
$$$$
