3br9_ligand
  -I-interpret- 

 61 64  0  0  0  0  0  0  0  0999 V2000
   94.4020    5.4100   58.5470 O   0  0  0  0  0
   95.2020    6.5870   58.2800 S   0  0  0  0  0
   96.6290    6.4960   58.3980 O   0  0  0  0  0
   94.5310    7.9480   59.2110 C   0  0  0  0  0
   94.8060    8.0820   60.5810 C   0  0  0  0  0
   94.2640    9.1510   61.3300 C   0  0  0  0  0
   94.5280    9.3080   62.6730 O   0  0  0  0  0
   95.1580    8.2370   63.3750 C   0  0  0  0  0
   94.1310    7.1910   63.7660 C   0  0  0  0  0
   95.7710    8.8160   64.6140 C   0  0  0  0  0
   96.4700    8.1810   65.3810 O   0  0  0  0  0
   95.4740   10.1300   64.7960 N   0  0  0  0  0
   93.4340   10.0700   60.7060 C   0  0  0  0  0
   94.8500    7.0570   56.7300 N   0  0  0  0  0
   93.9850    8.1080   56.4160 C   0  0  0  0  0
   93.3280    8.8380   57.2670 N   0  0  0  0  0
   93.6750    8.8600   58.5970 C   0  0  0  0  0
   93.1400    9.9160   59.3460 C   0  0  0  0  0
   93.8360    8.3230   54.9800 C   0  0  0  0  0
   94.4790    7.5590   54.0710 C   0  0  0  0  0
   94.9820    6.3080   54.3270 O   0  0  0  0  0
   92.9690    9.4320   54.5220 C   0  0  0  0  0
   92.2860   10.0590   55.3480 O   0  0  0  0  0
   93.0890    9.7690   53.1810 N   0  0  0  0  0
   92.3550   10.9110   52.6930 C   0  0  0  0  0
   90.8970   10.4690   52.6070 C   0  0  0  0  0
   90.6870    9.3370   51.5840 C   0  0  0  0  0
   89.2500    8.8300   51.5400 C   0  0  0  0  0
   91.1220    9.7990   50.1860 C   0  0  0  0  0
   93.8710    9.0960   52.2760 N   0  0  0  0  0
   94.5340    8.0590   52.6900 C   0  0  0  0  0
   95.4000    7.3120   51.7840 C   0  0  0  0  0
   95.9370    6.0630   51.9410 C   0  0  0  0  0
   95.8850    8.0600   50.3240 S   0  0  0  0  0
   96.8290    6.7110   49.9040 C   0  0  0  0  0
   96.7430    5.7490   50.8690 C   0  0  0  0  0
   95.4468    7.3511   61.0743 H   0  0  0  0  0
   95.9110    7.7622   62.7460 H   0  0  0  0  0
   93.3778    7.6459   64.4093 H   0  0  0  0  0
   93.6543    6.7982   62.8679 H   0  0  0  0  0
   94.6256    6.3801   64.3007 H   0  0  0  0  0
   95.8425   10.6287   65.6058 H   0  0  0  0  0
   94.8826   10.6172   64.1227 H   0  0  0  0  0
   93.0147   10.9040   61.2688 H   0  0  0  0  0
   95.2899    6.5501   55.9619 H   0  0  0  0  0
   92.4800   10.6339   58.8590 H   0  0  0  0  0
   95.3942    5.9613   53.5324 H   0  0  0  0  0
   92.7276   11.2335   51.7208 H   0  0  0  0  0
   92.4693   11.7671   53.3579 H   0  0  0  0  0
   90.3027   11.3257   52.2892 H   0  0  0  0  0
   90.5984   10.0977   53.5874 H   0  0  0  0  0
   91.3075    8.5025   51.9106 H   0  0  0  0  0
   88.9716    8.4452   52.5211 H   0  0  0  0  0
   88.5851    9.6496   51.2677 H   0  0  0  0  0
   89.1695    8.0339   50.7998 H   0  0  0  0  0
   90.5283   10.6637   49.8894 H   0  0  0  0  0
   92.1773   10.0711   50.2067 H   0  0  0  0  0
   90.9681    8.9891   49.4729 H   0  0  0  0  0
   95.7530    5.4093   52.7936 H   0  0  0  0  0
   97.4202    6.6257   48.9922 H   0  0  0  0  0
   97.2743    4.8000   50.7963 H   0  0  0  0  0
  1  2  2  0  0  0
  2  3  2  0  0  0
  2  4  1  0  0  0
  2 14  1  0  0  0
  4  5  4  0  0  0
  4 17  4  0  0  0
  5  6  4  0  0  0
  6  7  1  0  0  0
  6 13  4  0  0  0
  7  8  1  0  0  0
  8  9  1  0  0  0
  8 10  1  0  0  0
 10 11  2  0  0  0
 10 12  1  0  0  0
 13 18  4  0  0  0
 14 15  1  0  0  0
 15 16  2  0  0  0
 15 19  1  0  0  0
 16 17  1  0  0  0
 17 18  4  0  0  0
 19 20  2  0  0  0
 19 22  1  0  0  0
 20 21  1  0  0  0
 20 31  1  0  0  0
 22 23  2  0  0  0
 22 24  1  0  0  0
 24 25  1  0  0  0
 24 30  1  0  0  0
 25 26  1  0  0  0
 26 27  1  0  0  0
 27 28  1  0  0  0
 27 29  1  0  0  0
 30 31  2  0  0  0
 31 32  1  0  0  0
 32 33  4  0  0  0
 32 34  4  0  0  0
 33 36  4  0  0  0
 34 35  4  0  0  0
 35 36  4  0  0  0
  5 37  1  0  0  0
  8 38  1  0  0  0
  9 39  1  0  0  0
  9 40  1  0  0  0
  9 41  1  0  0  0
 12 42  1  0  0  0
 12 43  1  0  0  0
 13 44  1  0  0  0
 14 45  1  0  0  0
 18 46  1  0  0  0
 21 47  1  0  0  0
 25 48  1  0  0  0
 25 49  1  0  0  0
 26 50  1  0  0  0
 26 51  1  0  0  0
 27 52  1  0  0  0
 28 53  1  0  0  0
 28 54  1  0  0  0
 28 55  1  0  0  0
 29 56  1  0  0  0
 29 57  1  0  0  0
 29 58  1  0  0  0
 33 59  1  0  0  0
 35 60  1  0  0  0
 36 61  1  0  0  0
M  END
$$$$
