6n69_ligand
  -I-interpret- 

 18 19  0  0  0  0  0  0  0  0999 V2000
   12.0290    8.4170  -16.5510 C   0  0  0  0  0
   11.3700    7.1960  -16.1620 C   0  0  0  0  0
   10.1340    4.8980  -15.2840 C   0  0  0  0  0
    9.5020    3.7200  -14.8300 C   0  0  0  0  0
    8.9690    2.8190  -15.7250 C   0  0  0  0  0
    9.6610    4.1980  -17.5620 C   0  0  0  0  0
   10.2180    5.1460  -16.6750 C   0  0  0  0  0
   10.8520    6.3240  -17.1140 C   0  0  0  0  0
   12.5670    9.4070  -16.8070 N   0  0  0  0  0
   11.2450    6.8760  -14.8110 C   0  0  0  0  0
   10.6500    5.7660  -14.3590 N   0  0  0  0  0
    9.0480    3.0560  -17.0860 C   0  0  0  0  0
    9.4352    3.5216  -13.7603 H   0  0  0  0  0
    8.4825    1.9147  -15.3594 H   0  0  0  0  0
    9.7159    4.3704  -18.6369 H   0  0  0  0  0
   10.9352    6.5480  -18.1775 H   0  0  0  0  0
   11.6564    7.5713  -14.0793 H   0  0  0  0  0
    8.6237    2.3368  -17.7866 H   0  0  0  0  0
  2  1  1  0  0  0
  1  9  3  0  0  0
  8  2  4  0  0  0
  2 10  4  0  0  0
  3  4  4  0  0  0
  7  3  4  0  0  0
  3 11  4  0  0  0
  4  5  4  0  0  0
 12  5  4  0  0  0
  7  6  4  0  0  0
  6 12  4  0  0  0
  7  8  4  0  0  0
 10 11  4  0  0  0
  4 13  1  0  0  0
  5 14  1  0  0  0
  6 15  1  0  0  0
  8 16  1  0  0  0
 10 17  1  0  0  0
 12 18  1  0  0  0
M  END
$$$$
