5unf_ligand
  -I-interpret- 

 76 82  0  0  0  0  0  0  0  0999 V2000
   77.2430   -2.6060   37.2950 N   0  0  0  0  0
   82.5880   -2.2980   32.9460 N   0  0  0  0  0
   74.1450   -3.7880   38.0500 C   0  0  0  0  0
   78.5510   -2.5380   37.7490 C   0  0  0  0  0
   76.6060   -1.4080   36.7470 C   0  0  0  0  0
   77.2570   -0.9830   35.4180 C   0  0  0  0  0
   77.2750    0.3010   35.1150 C   0  0  0  0  0
   78.4570   -0.0760   32.9620 C   0  0  0  0  0
   81.3150   -0.6540   32.2170 C   0  0  0  0  0
   80.2280    1.5970   29.3620 C   0  0  0  0  0
   78.3370    1.3070   30.8420 C   0  0  0  0  0
   79.0780   -6.1590   38.6670 C   0  0  0  0  0
   80.4220   -6.1240   39.0850 C   0  0  0  0  0
   81.1680   -4.9180   39.0740 C   0  0  0  0  0
   83.6450   -5.2320   38.6010 C   0  0  0  0  0
   82.5040   -5.1380   36.2100 C   0  0  0  0  0
   83.6050   -6.8320   34.8570 C   0  0  0  0  0
   84.7650   -5.1680   38.9850 O   0  0  0  0  0
   83.4270   -5.6970   37.1550 C   0  0  0  0  0
   84.3620   -6.9170   36.3960 S   0  0  0  0  0
   82.5950   -5.8170   34.8530 C   0  0  0  0  0
   82.5530   -4.8670   39.5050 N   0  0  0  0  0
   82.8430   -4.4170   40.8630 C   0  0  0  0  0
   82.3160   -5.4530   41.8540 C   0  0  0  0  0
   82.9850   -6.8270   41.9300 C   0  0  0  0  0
   82.5360   -7.7330   42.7790 C   0  0  0  0  0
   81.3310   -7.4180   43.6730 C   0  0  0  0  0
   80.7520   -6.2340   43.6030 C   0  0  0  0  0
   81.2730   -5.1810   42.6160 C   0  0  0  0  0
   78.4800   -4.9870   38.2300 C   0  0  0  0  0
   80.5290   -3.7530   38.6350 C   0  0  0  0  0
   79.2220   -3.7810   38.2200 C   0  0  0  0  0
   79.2860   -1.3390   37.7190 O   0  0  0  0  0
   76.5570   -3.8700   37.3500 C   0  0  0  0  0
   75.1020   -4.0090   36.8810 C   0  0  0  0  0
   77.1470   -5.0220   37.7840 N   0  0  0  0  0
   77.8780   -1.9980   34.4340 C   0  0  0  0  0
   78.4250   -1.5800   33.2960 C   0  0  0  0  0
   77.9240    0.7800   33.8170 C   0  0  0  0  0
   79.0940    0.4740   31.6720 C   0  0  0  0  0
   78.9000    1.8620   29.6940 C   0  0  0  0  0
   80.9930    0.7860   30.1900 C   0  0  0  0  0
   80.4400    0.2450   31.3510 C   0  0  0  0  0
   81.6110   -0.4780   33.5920 N   0  0  0  0  0
   82.4010   -1.4920   34.0340 N   0  0  0  0  0
   81.9160   -1.7870   31.8230 N   0  0  0  0  0
   74.3422   -4.5292   38.8245 H   0  0  0  0  0
   74.2945   -2.7876   38.4562 H   0  0  0  0  0
   73.1174   -3.8899   37.7009 H   0  0  0  0  0
   77.9547   -1.9034   38.4046 H   0  0  0  0  0
   76.7219   -0.5956   37.4644 H   0  0  0  0  0
   75.5547   -1.6289   36.5622 H   0  0  0  0  0
   76.8243    1.0244   35.7945 H   0  0  0  0  0
   80.6630    2.0237   28.4582 H   0  0  0  0  0
   77.2991    1.5238   31.0947 H   0  0  0  0  0
   78.5164   -7.0930   38.6867 H   0  0  0  0  0
   80.8992   -7.0434   39.4243 H   0  0  0  0  0
   81.8180   -4.3222   36.4381 H   0  0  0  0  0
   83.8576   -7.4616   34.0038 H   0  0  0  0  0
   81.9749   -5.5651   33.9927 H   0  0  0  0  0
   82.3592   -3.4570   41.0431 H   0  0  0  0  0
   83.9194   -4.3017   40.9898 H   0  0  0  0  0
   83.8318   -7.0577   41.2836 H   0  0  0  0  0
   83.0226   -8.7061   42.8444 H   0  0  0  0  0
   80.9531   -8.1705   44.3652 H   0  0  0  0  0
   79.9031   -6.0040   44.2468 H   0  0  0  0  0
   80.7827   -4.2101   42.5442 H   0  0  0  0  0
   81.0771   -2.8109   38.6227 H   0  0  0  0  0
   78.7258   -0.6296   37.3958 H   0  0  0  0  0
   74.9031   -3.2623   36.1122 H   0  0  0  0  0
   74.9510   -5.0121   36.4822 H   0  0  0  0  0
   77.8681   -3.0614   34.6730 H   0  0  0  0  0
   78.8510   -2.3018   32.5991 H   0  0  0  0  0
   77.9479    1.8463   33.5921 H   0  0  0  0  0
   78.2990    2.5065   29.0525 H   0  0  0  0  0
   82.0299    0.5712   29.9317 H   0  0  0  0  0
  1  4  1  0  0  0
  5  1  1  0  0  0
  1 34  1  0  0  0
  2 45  4  0  0  0
 46  2  4  0  0  0
 35  3  1  0  0  0
  4 32  1  0  0  0
  4 33  1  0  0  0
  6  5  1  0  0  0
  7  6  4  0  0  0
 37  6  4  0  0  0
 39  7  4  0  0  0
  8 38  4  0  0  0
  8 39  4  0  0  0
 40  8  1  0  0  0
 43  9  1  0  0  0
  9 44  4  0  0  0
  9 46  4  0  0  0
 41 10  4  0  0  0
 10 42  4  0  0  0
 40 11  4  0  0  0
 11 41  4  0  0  0
 12 13  4  0  0  0
 30 12  4  0  0  0
 14 13  4  0  0  0
 14 22  1  0  0  0
 31 14  4  0  0  0
 15 18  2  0  0  0
 15 19  1  0  0  0
 22 15  1  0  0  0
 19 16  4  0  0  0
 16 21  4  0  0  0
 20 17  4  0  0  0
 17 21  4  0  0  0
 19 20  4  0  0  0
 22 23  1  0  0  0
 23 24  1  0  0  0
 24 25  4  0  0  0
 24 29  4  0  0  0
 25 26  4  0  0  0
 26 27  4  0  0  0
 28 27  4  0  0  0
 29 28  4  0  0  0
 32 30  4  0  0  0
 36 30  1  0  0  0
 32 31  4  0  0  0
 34 35  1  0  0  0
 34 36  2  0  0  0
 38 37  4  0  0  0
 40 43  4  0  0  0
 42 43  4  0  0  0
 44 45  4  0  0  0
  3 47  1  0  0  0
  3 48  1  0  0  0
  3 49  1  0  0  0
  4 50  1  0  0  0
  5 51  1  0  0  0
  5 52  1  0  0  0
  7 53  1  0  0  0
 10 54  1  0  0  0
 11 55  1  0  0  0
 12 56  1  0  0  0
 13 57  1  0  0  0
 16 58  1  0  0  0
 17 59  1  0  0  0
 21 60  1  0  0  0
 23 61  1  0  0  0
 23 62  1  0  0  0
 25 63  1  0  0  0
 26 64  1  0  0  0
 27 65  1  0  0  0
 28 66  1  0  0  0
 29 67  1  0  0  0
 31 68  1  0  0  0
 33 69  1  0  0  0
 35 70  1  0  0  0
 35 71  1  0  0  0
 37 72  1  0  0  0
 38 73  1  0  0  0
 39 74  1  0  0  0
 41 75  1  0  0  0
 42 76  1  0  0  0
M  END
$$$$
