4yht_ligand
  -I-interpret- 

 46 49  0  0  0  0  0  0  0  0999 V2000
  -13.9530  -21.3920  -39.1430 C   0  0  0  0  0
  -15.1540  -21.9700  -39.4970 C   0  0  0  0  0
  -15.5760  -19.7990  -39.2400 C   0  0  0  0  0
  -14.2390  -20.0100  -38.9840 C   0  0  0  0  0
   -7.9480  -23.5930  -37.8000 C   0  0  0  0  0
   -9.2990  -21.6280  -38.0400 C   0  0  0  0  0
   -8.0930  -22.2270  -37.7330 C   0  0  0  0  0
  -10.3890  -22.3870  -38.4180 C   0  0  0  0  0
  -10.2530  -23.7610  -38.4870 C   0  0  0  0  0
   -9.0360  -24.3410  -38.1800 C   0  0  0  0  0
   -7.3930  -26.3350  -38.3580 O   0  0  0  0  0
   -9.5530  -26.6810  -37.1390 O   0  0  0  0  0
  -16.1200  -21.0070  -39.5500 N   0  0  0  0  0
  -12.8330  -22.2050  -39.0330 C   0  0  0  0  0
  -14.2140  -23.9350  -39.6060 C   0  0  0  0  0
   -9.0790  -19.5510  -39.1900 C   0  0  0  0  0
   -8.8810  -19.7100  -36.7400 C   0  0  0  0  0
   -8.7280  -17.5840  -37.8660 O   0  0  0  0  0
  -11.5800  -21.6790  -38.6950 N   0  0  0  0  0
   -9.4250  -18.0840  -39.0050 C   0  0  0  0  0
   -9.2120  -18.2310  -36.6820 C   0  0  0  0  0
   -9.6780  -26.5570  -39.6540 N   0  0  0  0  0
   -8.8160  -26.1110  -38.2440 S   0  0  0  0  0
  -13.1060  -18.8200  -38.5530 Cl  0  0  0  0  0
  -12.9960  -23.5050  -39.2720 N   0  0  0  0  0
  -15.3520  -23.2570  -39.7510 N   0  0  0  0  0
   -9.4620  -20.2370  -37.9640 N   0  0  0  0  0
   -8.9040  -26.5880  -40.9000 C   0  0  0  0  0
  -16.0997  -18.8438  -39.2015 H   0  0  0  0  0
   -6.9973  -24.0685  -37.5586 H   0  0  0  0  0
   -7.2459  -21.6097  -37.4340 H   0  0  0  0  0
  -11.0988  -24.3824  -38.7812 H   0  0  0  0  0
  -14.2900  -25.0069  -39.7885 H   0  0  0  0  0
   -8.0135  -19.6743  -39.3840 H   0  0  0  0  0
   -9.6094  -19.9672  -40.0465 H   0  0  0  0  0
   -9.2870  -20.2270  -35.8706 H   0  0  0  0  0
   -7.8015  -19.8607  -36.7334 H   0  0  0  0  0
  -11.5198  -20.6621  -38.6424 H   0  0  0  0  0
  -10.4993  -17.9752  -38.8561 H   0  0  0  0  0
   -9.1319  -17.5221  -39.8918 H   0  0  0  0  0
   -8.7374  -17.7874  -35.8067 H   0  0  0  0  0
  -10.2925  -18.1037  -36.6153 H   0  0  0  0  0
  -10.6713  -26.7876  -39.6294 H   0  0  0  0  0
   -8.4942  -25.5972  -41.0964 H   0  0  0  0  0
   -8.0901  -27.3065  -40.8029 H   0  0  0  0  0
   -9.5547  -26.8832  -41.7232 H   0  0  0  0  0
  1  2  4  0  0  0
  1  4  4  0  0  0
 14  1  4  0  0  0
  2 13  4  0  0  0
  2 26  4  0  0  0
  4  3  4  0  0  0
  3 13  4  0  0  0
  4 24  1  0  0  0
  7  5  4  0  0  0
  5 10  4  0  0  0
  6  7  4  0  0  0
  6  8  4  0  0  0
 27  6  1  0  0  0
  8  9  4  0  0  0
  8 19  1  0  0  0
  9 10  4  0  0  0
 10 23  1  0  0  0
 23 11  2  0  0  0
 23 12  2  0  0  0
 19 14  1  0  0  0
 14 25  4  0  0  0
 25 15  4  0  0  0
 15 26  4  0  0  0
 16 20  1  0  0  0
 27 16  1  0  0  0
 17 21  1  0  0  0
 17 27  1  0  0  0
 20 18  1  0  0  0
 18 21  1  0  0  0
 23 22  1  0  0  0
 22 28  1  0  0  0
  3 29  1  0  0  0
  5 30  1  0  0  0
  7 31  1  0  0  0
  9 32  1  0  0  0
 15 33  1  0  0  0
 16 34  1  0  0  0
 16 35  1  0  0  0
 17 36  1  0  0  0
 17 37  1  0  0  0
 19 38  1  0  0  0
 20 39  1  0  0  0
 20 40  1  0  0  0
 21 41  1  0  0  0
 21 42  1  0  0  0
 22 43  1  0  0  0
 28 44  1  0  0  0
 28 45  1  0  0  0
 28 46  1  0  0  0
M  END
$$$$
