6hzy_ligand
  -I-interpret- 

 37 38  0  0  0  0  0  0  0  0999 V2000
  -33.0370  -38.5740  -31.9000 C   0  0  0  0  0
  -33.4440  -39.2130  -30.5980 C   0  0  0  0  0
  -30.9460  -41.9350  -30.4440 C   0  0  0  0  0
  -31.1850  -40.4400  -30.4190 C   0  0  0  0  0
  -30.7830  -39.6170  -31.6590 C   0  0  0  0  0
  -31.5430  -38.2830  -31.7590 C   0  0  0  0  0
  -33.8320  -37.4520  -32.2270 O   0  0  0  0  0
  -31.2110  -37.4940  -32.8960 O   0  0  0  0  0
  -31.0210  -40.4650  -32.7700 O   0  0  0  0  0
  -32.5140  -40.1390  -29.9750 O   0  0  0  0  0
  -34.5830  -38.9530  -30.0690 N   0  0  0  0  0
  -34.9620  -39.4710  -28.9610 O   0  0  0  0  0
  -35.6450  -38.7280  -27.8630 C   0  0  0  0  0
  -36.1690  -37.6470  -28.1000 O   0  0  0  0  0
  -35.6620  -39.2970  -26.6360 N   0  0  0  0  0
  -36.2530  -38.8430  -25.4750 C   0  0  0  0  0
  -36.8740  -37.5890  -25.3160 C   0  0  0  0  0
  -37.4770  -37.2400  -24.1050 C   0  0  0  0  0
  -37.4830  -38.1240  -23.0280 C   0  0  0  0  0
  -36.8780  -39.3660  -23.1650 C   0  0  0  0  0
  -36.2690  -39.7190  -24.3730 C   0  0  0  0  0
  -33.2071  -39.2320  -32.7522 H   0  0  0  0  0
  -31.0799  -42.3399  -29.4409 H   0  0  0  0  0
  -31.6568  -42.4040  -31.1244 H   0  0  0  0  0
  -29.9298  -42.1336  -30.7847 H   0  0  0  0  0
  -30.4564  -40.0913  -29.6871 H   0  0  0  0  0
  -29.7365  -39.3165  -31.6088 H   0  0  0  0  0
  -31.2701  -37.7342  -30.8577 H   0  0  0  0  0
  -34.7508  -37.7214  -32.2959 H   0  0  0  0  0
  -31.7258  -36.6838  -32.8833 H   0  0  0  0  0
  -30.5266  -41.2806  -32.6603 H   0  0  0  0  0
  -35.1687  -40.1864  -26.5582 H   0  0  0  0  0
  -36.8843  -36.8832  -26.1466 H   0  0  0  0  0
  -37.9491  -36.2630  -24.0013 H   0  0  0  0  0
  -37.9577  -37.8434  -22.0878 H   0  0  0  0  0
  -36.8778  -40.0666  -22.3300 H   0  0  0  0  0
  -35.7950  -40.6963  -24.4638 H   0  0  0  0  0
  2  1  1  0  0  0
  1  6  1  0  0  0
  1  7  1  0  0  0
 10  2  1  0  0  0
  2 11  2  0  0  0
  4  3  1  0  0  0
  4  5  1  0  0  0
  4 10  1  0  0  0
  5  6  1  0  0  0
  5  9  1  0  0  0
  6  8  1  0  0  0
 11 12  1  0  0  0
 12 13  1  0  0  0
 13 14  2  0  0  0
 13 15  1  0  0  0
 15 16  1  0  0  0
 16 17  4  0  0  0
 16 21  4  0  0  0
 17 18  4  0  0  0
 18 19  4  0  0  0
 19 20  4  0  0  0
 20 21  4  0  0  0
  1 22  1  0  0  0
  3 23  1  0  0  0
  3 24  1  0  0  0
  3 25  1  0  0  0
  4 26  1  0  0  0
  5 27  1  0  0  0
  6 28  1  0  0  0
  7 29  1  0  0  0
  8 30  1  0  0  0
  9 31  1  0  0  0
 15 32  1  0  0  0
 17 33  1  0  0  0
 18 34  1  0  0  0
 19 35  1  0  0  0
 20 36  1  0  0  0
 21 37  1  0  0  0
M  END
$$$$
