2qzx_ligand
  -I-interpret- 

111110  0  0  0  0  0  0  0  0999 V2000
   -0.6010   34.1550   22.5200 C   0  0  0  0  0
   -1.2310   34.3460   23.5830 O   0  0  0  0  0
   -0.4240   33.0520   21.9620 O   0  0  0  0  0
    0.0520   35.3770   21.8650 C   0  0  0  0  0
    0.5590   36.3850   22.9000 C   0  0  0  0  0
    1.4290   37.2990   22.2270 O   0  0  0  0  0
    1.3530   35.6370   23.9730 C   0  0  0  0  0
    2.5910   35.0840   23.4110 N   0  0  0  0  0
    2.7720   33.7590   23.3900 C   0  0  0  0  0
    1.9980   32.9740   23.9110 O   0  0  0  0  0
    4.0440   33.2500   22.7040 C   0  0  0  0  0
    4.6940   32.1640   23.4530 N   0  0  0  0  0
    5.5770   32.3900   24.4220 C   0  0  0  0  0
    5.8860   33.5150   24.8110 O   0  0  0  0  0
    6.1850   31.1490   25.0810 C   0  0  0  0  0
    7.4740   30.7190   24.3740 C   0  0  0  0  0
    7.9470   29.4770   24.9030 O   0  0  0  0  0
    8.6080   31.7430   24.4500 C   0  0  0  0  0
    9.7000   31.2770   23.4830 C   0  0  0  0  0
    9.1330   31.8200   25.8230 N   0  0  0  0  0
    9.2570   32.9750   26.4750 C   0  0  0  0  0
    8.9850   34.0730   25.9930 O   0  0  0  0  0
    9.8590   32.8760   27.8780 C   0  0  0  0  0
   11.2360   33.3550   27.6900 N   0  0  0  0  0
   12.3180   32.8300   28.2560 C   0  0  0  0  0
   12.3100   31.9200   29.0840 O   0  0  0  0  0
   13.6160   33.5080   27.8110 C   0  0  0  0  0
   14.7300   33.2460   28.7310 N   0  0  0  0  0
   15.3000   34.2000   29.4600 C   0  0  0  0  0
   14.9360   35.3760   29.4720 O   0  0  0  0  0
   16.4710   33.6900   30.3040 C   0  0  0  0  0
   16.4820   34.1190   31.7720 C   0  0  0  0  0
   15.1870   33.7410   32.4940 C   0  0  0  0  0
    1.4610   36.3240   25.3420 C   0  0  0  0  0
    2.4760   37.4620   25.4670 C   0  0  0  0  0
    3.5130   37.4730   24.3430 C   0  0  0  0  0
    1.8170   38.8310   25.6430 C   0  0  0  0  0
    3.6410   32.7060   21.3320 C   0  0  0  0  0
   11.0160   32.0540   23.5780 C   0  0  0  0  0
   10.9210   33.4640   22.9920 C   0  0  0  0  0
   12.1150   31.2530   22.8750 C   0  0  0  0  0
    9.0790   33.7590   28.8570 C   0  0  0  0  0
    7.6660   33.2090   29.0620 C   0  0  0  0  0
    9.7930   33.8830   30.2040 C   0  0  0  0  0
   14.0180   33.0330   26.4110 C   0  0  0  0  0
   15.2590   33.7830   25.9250 C   0  0  0  0  0
   14.2680   31.5240   26.3390 C   0  0  0  0  0
   17.6760   33.4530   32.4610 C   0  0  0  0  0
   -1.2199   35.2819   23.7965 H   0  0  0  0  0
   -0.6974   35.8723   21.2476 H   0  0  0  0  0
    0.9049   35.0333   21.2798 H   0  0  0  0  0
   -0.2721   36.9154   23.3649 H   0  0  0  0  0
    0.9354   37.7711   21.5524 H   0  0  0  0  0
    0.7479   34.7797   24.2681 H   0  0  0  0  0
    3.3086   35.7061   23.0389 H   0  0  0  0  0
    4.7512   34.0768   22.6386 H   0  0  0  0  0
    4.4584   31.1992   23.2203 H   0  0  0  0  0
    5.4648   30.3334   25.0161 H   0  0  0  0  0
    6.4208   31.3871   26.1182 H   0  0  0  0  0
    7.1993   30.6215   23.3237 H   0  0  0  0  0
    8.7540   29.2236   24.4489 H   0  0  0  0  0
    8.2534   32.7373   24.1785 H   0  0  0  0  0
    9.3152   31.4283   22.4745 H   0  0  0  0  0
    9.9253   30.2409   23.7356 H   0  0  0  0  0
    9.4118   30.9582   26.2919 H   0  0  0  0  0
    9.8236   31.8715   28.2996 H   0  0  0  0  0
   11.3724   34.1566   27.0742 H   0  0  0  0  0
   13.4170   34.5797   27.8070 H   0  0  0  0  0
   15.0811   32.2919   28.8141 H   0  0  0  0  0
   17.3731   34.1085   29.8577 H   0  0  0  0  0
   16.3948   32.6027   30.3050 H   0  0  0  0  0
   16.5651   35.2050   31.8148 H   0  0  0  0  0
   14.3439   34.2284   32.0043 H   0  0  0  0  0
   15.0545   32.6597   32.4575 H   0  0  0  0  0
   15.2433   34.0665   33.5327 H   0  0  0  0  0
    1.7903   35.5525   26.0380 H   0  0  0  0  0
    0.4852   36.7725   25.5287 H   0  0  0  0  0
    3.0219   37.2542   26.3873 H   0  0  0  0  0
    4.0676   36.5347   24.3529 H   0  0  0  0  0
    3.0068   37.5872   23.3845 H   0  0  0  0  0
    4.2011   38.3049   24.4934 H   0  0  0  0  0
    1.1851   39.0422   24.7803 H   0  0  0  0  0
    1.2092   38.8266   26.5478 H   0  0  0  0  0
    2.5887   39.5963   25.7259 H   0  0  0  0  0
    2.9259   31.8935   21.4605 H   0  0  0  0  0
    3.1849   33.5038   20.7459 H   0  0  0  0  0
    4.5261   32.3345   20.8156 H   0  0  0  0  0
   11.2538   32.1813   24.6341 H   0  0  0  0  0
   10.6484   33.4007   21.9386 H   0  0  0  0  0
   10.1618   34.0300   23.5317 H   0  0  0  0  0
   11.8854   33.9624   23.0897 H   0  0  0  0  0
   12.2227   30.2829   23.3603 H   0  0  0  0  0
   11.8453   31.1093   21.8287 H   0  0  0  0  0
   13.0567   31.7984   22.9373 H   0  0  0  0  0
    9.0178   34.7554   28.4193 H   0  0  0  0  0
    7.1427   33.1898   28.1060 H   0  0  0  0  0
    7.7259   32.1981   29.4652 H   0  0  0  0  0
    7.1263   33.8486   29.7603 H   0  0  0  0  0
    9.9029   32.8936   30.6480 H   0  0  0  0  0
   10.7773   34.3261   30.0526 H   0  0  0  0  0
    9.2058   34.5174   30.8680 H   0  0  0  0  0
   13.1723   33.2526   25.7593 H   0  0  0  0  0
   15.0454   34.8512   25.8887 H   0  0  0  0  0
   16.0851   33.5995   26.6120 H   0  0  0  0  0
   15.5279   33.4309   24.9291 H   0  0  0  0  0
   15.0734   31.2574   27.0234 H   0  0  0  0  0
   13.3591   30.9926   26.6209 H   0  0  0  0  0
   14.5489   31.2517   25.3216 H   0  0  0  0  0
   17.5776   32.3698   32.3891 H   0  0  0  0  0
   18.5980   33.7685   31.9727 H   0  0  0  0  0
   17.6995   33.7481   33.5100 H   0  0  0  0  0
  1  2  1  0  0  0
  1  3  2  0  0  0
  1  4  1  0  0  0
  4  5  1  0  0  0
  5  6  1  0  0  0
  5  7  1  0  0  0
  7  8  1  0  0  0
  7 34  1  0  0  0
  8  9  1  0  0  0
  9 10  2  0  0  0
  9 11  1  0  0  0
 11 12  1  0  0  0
 11 38  1  0  0  0
 12 13  1  0  0  0
 13 14  2  0  0  0
 13 15  1  0  0  0
 15 16  1  0  0  0
 16 17  1  0  0  0
 16 18  1  0  0  0
 18 19  1  0  0  0
 18 20  1  0  0  0
 19 39  1  0  0  0
 20 21  1  0  0  0
 21 22  2  0  0  0
 21 23  1  0  0  0
 23 24  1  0  0  0
 23 42  1  0  0  0
 24 25  1  0  0  0
 25 26  2  0  0  0
 25 27  1  0  0  0
 27 28  1  0  0  0
 27 45  1  0  0  0
 28 29  1  0  0  0
 29 30  2  0  0  0
 29 31  1  0  0  0
 31 32  1  0  0  0
 32 33  1  0  0  0
 32 48  1  0  0  0
 34 35  1  0  0  0
 35 36  1  0  0  0
 35 37  1  0  0  0
 39 40  1  0  0  0
 39 41  1  0  0  0
 42 43  1  0  0  0
 42 44  1  0  0  0
 45 46  1  0  0  0
 45 47  1  0  0  0
  2 49  1  0  0  0
  4 50  1  0  0  0
  4 51  1  0  0  0
  5 52  1  0  0  0
  6 53  1  0  0  0
  7 54  1  0  0  0
  8 55  1  0  0  0
 11 56  1  0  0  0
 12 57  1  0  0  0
 15 58  1  0  0  0
 15 59  1  0  0  0
 16 60  1  0  0  0
 17 61  1  0  0  0
 18 62  1  0  0  0
 19 63  1  0  0  0
 19 64  1  0  0  0
 20 65  1  0  0  0
 23 66  1  0  0  0
 24 67  1  0  0  0
 27 68  1  0  0  0
 28 69  1  0  0  0
 31 70  1  0  0  0
 31 71  1  0  0  0
 32 72  1  0  0  0
 33 73  1  0  0  0
 33 74  1  0  0  0
 33 75  1  0  0  0
 34 76  1  0  0  0
 34 77  1  0  0  0
 35 78  1  0  0  0
 36 79  1  0  0  0
 36 80  1  0  0  0
 36 81  1  0  0  0
 37 82  1  0  0  0
 37 83  1  0  0  0
 37 84  1  0  0  0
 38 85  1  0  0  0
 38 86  1  0  0  0
 38 87  1  0  0  0
 39 88  1  0  0  0
 40 89  1  0  0  0
 40 90  1  0  0  0
 40 91  1  0  0  0
 41 92  1  0  0  0
 41 93  1  0  0  0
 41 94  1  0  0  0
 42 95  1  0  0  0
 43 96  1  0  0  0
 43 97  1  0  0  0
 43 98  1  0  0  0
 44 99  1  0  0  0
 44100  1  0  0  0
 44101  1  0  0  0
 45102  1  0  0  0
 46103  1  0  0  0
 46104  1  0  0  0
 46105  1  0  0  0
 47106  1  0  0  0
 47107  1  0  0  0
 47108  1  0  0  0
 48109  1  0  0  0
 48110  1  0  0  0
 48111  1  0  0  0
M  END
$$$$
