### 
### Created by X-TOOL on Mon Sep 10 21:12:59 2018
### 

@<TRIPOS>MOLECULE
2qzx_ligand
  110   109     1     0     0
SMALL
GAST_HUCK


@<TRIPOS>ATOM
      1 C1         -0.6010   34.1550   22.5200 C.2       1 STA         0.0373
      2 O1         -1.2310   34.3460   23.5830 O.co2     1 STA        -0.5689
      3 O2         -0.4240   33.0520   21.9620 O.co2     1 STA        -0.5689
      4 C2          0.0520   35.3770   21.8650 C.3       1 STA         0.0284
      5 C3          0.5590   36.3850   22.9000 C.3       1 STA         0.0894
      6 O3          1.4290   37.2990   22.2270 O.3       1 STA        -0.3878
      7 C4          1.3530   35.6370   23.9730 C.3       1 STA         0.0697
      8 N5          2.5910   35.0840   23.4110 N.am      1 STA        -0.2794
      9 C6          2.7720   33.7590   23.3900 C.2       1 ALA         0.2017
     10 O6          1.9980   32.9740   23.9110 O.2       1 ALA        -0.3945
     11 C7          4.0440   33.2500   22.7040 C.3       1 ALA         0.1280
     12 N8          4.6940   32.1640   23.4530 N.am      1 ALA        -0.2658
     13 C9          5.5770   32.3900   24.4220 C.2       1 STA         0.1808
     14 O9          5.8860   33.5150   24.8110 O.2       1 STA        -0.3968
     15 C10         6.1850   31.1490   25.0810 C.3       1 STA         0.0655
     16 C11         7.4740   30.7190   24.3740 C.3       1 STA         0.0947
     17 O11         7.9470   29.4770   24.9030 O.3       1 STA        -0.3872
     18 C12         8.6080   31.7430   24.4500 C.3       1 STA         0.0703
     19 C13         9.7000   31.2770   23.4830 C.3       1 STA        -0.0250
     20 N14         9.1330   31.8200   25.8230 N.am      1 STA        -0.2793
     21 C15         9.2570   32.9750   26.4750 C.2       1 VAL         0.2022
     22 O15         8.9850   34.0730   25.9930 O.2       1 VAL        -0.3945
     23 C16         9.8590   32.8760   27.8780 C.3       1 VAL         0.1331
     24 N17        11.2360   33.3550   27.6900 N.am      1 VAL        -0.2635
     25 C18        12.3180   32.8300   28.2560 C.2       1 VAL         0.2042
     26 O18        12.3100   31.9200   29.0840 O.2       1 VAL        -0.3944
     27 C19        13.6160   33.5080   27.8110 C.3       1 VAL         0.1332
     28 N20        14.7300   33.2460   28.7310 N.am      1 VAL        -0.2654
     29 C21        15.3000   34.2000   29.4600 C.2       1 IVA         0.1785
     30 O21        14.9360   35.3760   29.4720 O.2       1 IVA        -0.3969
     31 C22        16.4710   33.6900   30.3040 C.3       1 IVA         0.0397
     32 C23        16.4820   34.1190   31.7720 C.3       1 IVA        -0.0298
     33 C24        15.1870   33.7410   32.4940 C.3       1 IVA        -0.0606
     34 C25         1.4610   36.3240   25.3420 C.3       1 STA        -0.0250
     35 C26         2.4760   37.4620   25.4670 C.3       1 STA        -0.0446
     36 C27         3.5130   37.4730   24.3430 C.3       1 STA        -0.0626
     37 C28         1.8170   38.8310   25.6430 C.3       1 STA        -0.0626
     38 C29         3.6410   32.7060   21.3320 C.3       1 ALA        -0.0244
     39 C30        11.0160   32.0540   23.5780 C.3       1 STA        -0.0446
     40 C31        10.9210   33.4640   22.9920 C.3       1 STA        -0.0626
     41 C32        12.1150   31.2530   22.8750 C.3       1 STA        -0.0626
     42 C33         9.0790   33.7590   28.8570 C.3       1 VAL        -0.0063
     43 C34         7.6660   33.2090   29.0620 C.3       1 VAL        -0.0584
     44 C35         9.7930   33.8830   30.2040 C.3       1 VAL        -0.0584
     45 C36        14.0180   33.0330   26.4110 C.3       1 VAL        -0.0063
     46 C37        15.2590   33.7830   25.9250 C.3       1 VAL        -0.0584
     47 C38        14.2680   31.5240   26.3390 C.3       1 VAL        -0.0584
     48 C39        17.6760   33.4530   32.4610 C.3       1 IVA        -0.0606
     49 H1         -0.6895   35.8727   21.2212 H         1 STA         0.0456
     50 H2          0.9016   35.0396   21.2532 H         1 STA         0.0456
     51 H3         -0.2840   36.9234   23.3577 H         1 STA         0.0635
     52 H4          0.9480   37.7444   21.5395 H         1 STA         0.2100
     53 H5          0.7399   34.7500   24.1905 H         1 STA         0.0583
     54 H6          3.2945   35.6939   23.0462 H         1 STA         0.1855
     55 H7          4.7526   34.0834   22.5886 H         1 ALA         0.0797
     56 H8          4.4631   31.2182   23.2248 H         1 ALA         0.1882
     57 H9          5.4579   30.3250   25.0329 H         1 STA         0.0529
     58 H10         6.4121   31.3767   26.1329 H         1 STA         0.0529
     59 H11         7.2290   30.5724   23.3117 H         1 STA         0.0642
     60 H12         8.1225   29.5758   25.8314 H         1 STA         0.2101
     61 H13         8.2389   32.7340   24.1472 H         1 STA         0.0583
     62 H14         9.3155   31.3794   22.4575 H         1 STA         0.0291
     63 H15         9.9122   30.2179   23.6911 H         1 STA         0.0291
     64 H16         9.4064   30.9751   26.2827 H         1 STA         0.1856
     65 H17         9.8529   31.8369   28.2388 H         1 VAL         0.0802
     66 H18        11.3698   34.1409   27.0863 H         1 VAL         0.1883
     67 H19        13.4394   34.5933   27.7797 H         1 VAL         0.0802
     68 H20        15.0742   32.3106   28.8125 H         1 VAL         0.1883
     69 H21        17.4010   34.0522   29.8415 H         1 IVA         0.0505
     70 H22        16.4514   32.5905   30.2758 H         1 IVA         0.0505
     71 H23        16.6005   35.2115   31.8197 H         1 IVA         0.0320
     72 H24        15.2426   34.0690   33.5425 H         1 IVA         0.0234
     73 H25        15.0521   32.6499   32.4579 H         1 IVA         0.0234
     74 H26        14.3353   34.2323   32.0008 H         1 IVA         0.0234
     75 H27         1.7322   35.5544   26.0796 H         1 STA         0.0291
     76 H28         0.4702   36.7340   25.5872 H         1 STA         0.0291
     77 H29         3.0334   37.2681   26.3953 H         1 STA         0.0296
     78 H30         4.2081   38.3122   24.4936 H         1 STA         0.0232
     79 H31         3.0034   37.5883   23.3750 H         1 STA         0.0232
     80 H32         4.0735   36.5266   24.3519 H         1 STA         0.0232
     81 H33         1.0801   38.7811   26.4582 H         1 STA         0.0232
     82 H34         1.3116   39.1175   24.7089 H         1 STA         0.0232
     83 H35         2.5853   39.5790   25.8886 H         1 STA         0.0232
     84 H36         3.1515   33.5018   20.7514 H         1 ALA         0.0277
     85 H37         2.9441   31.8648   21.4613 H         1 ALA         0.0277
     86 H38         4.5377   32.3603   20.7968 H         1 ALA         0.0277
     87 H39        11.2792   32.1503   24.6417 H         1 STA         0.0296
     88 H40        11.8938   33.9681   23.0900 H         1 STA         0.0232
     89 H41        10.1551   34.0363   23.5359 H         1 STA         0.0232
     90 H42        10.6459   33.4015   21.9288 H         1 STA         0.0232
     91 H43        12.1680   30.2438   23.3093 H         1 STA         0.0232
     92 H44        13.0815   31.7609   23.0087 H         1 STA         0.0232
     93 H45        11.8852   31.1787   21.8019 H         1 STA         0.0232
     94 H46         8.9994   34.7648   28.4188 H         1 VAL         0.0343
     95 H47         7.1203   33.8537   29.7666 H         1 VAL         0.0234
     96 H48         7.7251   32.1888   29.4689 H         1 VAL         0.0234
     97 H49         7.1368   33.1892   28.0979 H         1 VAL         0.0234
     98 H50        10.8071   34.2789   30.0463 H         1 VAL         0.0234
     99 H51         9.8557   32.8925   30.6783 H         1 VAL         0.0234
    100 H52         9.2298   34.5668   30.8560 H         1 VAL         0.0234
    101 H53        13.1864   33.2672   25.7302 H         1 VAL         0.0343
    102 H54        15.5314   33.4286   24.9199 H         1 VAL         0.0234
    103 H55        16.0935   33.5986   26.6175 H         1 VAL         0.0234
    104 H56        15.0447   34.8613   25.8879 H         1 VAL         0.0234
    105 H57        13.3740   30.9871   26.6891 H         1 VAL         0.0234
    106 H58        15.1254   31.2635   26.9770 H         1 VAL         0.0234
    107 H59        14.4841   31.2373   25.2993 H         1 VAL         0.0234
    108 H60        18.6027   33.7292   31.9367 H         1 IVA         0.0234
    109 H61        17.5518   32.3604   32.4350 H         1 IVA         0.0234
    110 H62        17.7315   33.7909   33.5063 H         1 IVA         0.0234
@<TRIPOS>BOND
     1    1    2 ar 
     2    1    3 ar 
     3    1    4 1  
     4    4    5 1  
     5    5    6 1  
     6    5    7 1  
     7    7    8 1  
     8    7   34 1  
     9    8    9 am 
    10    9   10 2  
    11    9   11 1  
    12   11   12 1  
    13   11   38 1  
    14   12   13 am 
    15   13   14 2  
    16   13   15 1  
    17   15   16 1  
    18   16   17 1  
    19   16   18 1  
    20   18   19 1  
    21   18   20 1  
    22   19   39 1  
    23   20   21 am 
    24   21   22 2  
    25   21   23 1  
    26   23   24 1  
    27   23   42 1  
    28   24   25 am 
    29   25   26 2  
    30   25   27 1  
    31   27   28 1  
    32   27   45 1  
    33   28   29 am 
    34   29   30 2  
    35   29   31 1  
    36   31   32 1  
    37   32   33 1  
    38   32   48 1  
    39   34   35 1  
    40   35   36 1  
    41   35   37 1  
    42   39   40 1  
    43   39   41 1  
    44   42   43 1  
    45   42   44 1  
    46   45   46 1  
    47   45   47 1  
    48    4   49 1  
    49    4   50 1  
    50    5   51 1  
    51    6   52 1  
    52    7   53 1  
    53    8   54 1  
    54   11   55 1  
    55   12   56 1  
    56   15   57 1  
    57   15   58 1  
    58   16   59 1  
    59   17   60 1  
    60   18   61 1  
    61   19   62 1  
    62   19   63 1  
    63   20   64 1  
    64   23   65 1  
    65   24   66 1  
    66   27   67 1  
    67   28   68 1  
    68   31   69 1  
    69   31   70 1  
    70   32   71 1  
    71   33   72 1  
    72   33   73 1  
    73   33   74 1  
    74   34   75 1  
    75   34   76 1  
    76   35   77 1  
    77   36   78 1  
    78   36   79 1  
    79   36   80 1  
    80   37   81 1  
    81   37   82 1  
    82   37   83 1  
    83   38   84 1  
    84   38   85 1  
    85   38   86 1  
    86   39   87 1  
    87   40   88 1  
    88   40   89 1  
    89   40   90 1  
    90   41   91 1  
    91   41   92 1  
    92   41   93 1  
    93   42   94 1  
    94   43   95 1  
    95   43   96 1  
    96   43   97 1  
    97   44   98 1  
    98   44   99 1  
    99   44  100 1  
   100   45  101 1  
   101   46  102 1  
   102   46  103 1  
   103   46  104 1  
   104   47  105 1  
   105   47  106 1  
   106   47  107 1  
   107   48  108 1  
   108   48  109 1  
   109   48  110 1  
@<TRIPOS>SUBSTRUCTURE
     1 STA         1

