4lkk_ligand
  -I-interpret- 

 61 62  0  0  0  0  0  0  0  0999 V2000
  -26.7290   -0.0180   13.9990 C   0  0  0  0  0
  -26.5670   -0.4000   12.5510 C   0  0  0  0  0
  -27.3320    0.5860   11.6770 C   0  0  0  0  0
  -26.7480    1.9890   11.7970 C   0  0  0  0  0
  -25.2350    1.9690   11.6160 C   0  0  0  0  0
  -24.5950    0.8970   12.4920 C   0  0  0  0  0
  -23.0910    0.8230   12.2530 C   0  0  0  0  0
  -22.4620   -0.2960   13.0720 C   0  0  0  0  0
  -20.9410   -0.2150   13.0320 C   0  0  0  0  0
  -23.7180    3.8150   11.2020 C   0  0  0  0  0
  -23.3630    5.2320   11.5440 C   0  0  0  0  0
  -24.6800    3.2680   11.9390 N   0  0  0  0  0
  -25.7020    0.1140   14.7000 O   0  0  0  0  0
  -27.8840    0.1530   14.4450 O   0  0  0  0  0
  -27.3350    2.8370   10.8040 O   0  0  0  0  0
  -25.1840   -0.3680   12.2030 O   0  0  0  0  0
  -22.8400    0.5950   10.8610 O   0  0  0  0  0
  -22.9090   -0.2040   14.4290 O   0  0  0  0  0
  -20.3850   -1.4750   13.4260 O   0  0  0  0  0
  -23.1600    3.2050   10.3050 O   0  0  0  0  0
  -26.5010   -6.2610   11.3830 C   0  0  0  0  0
  -27.0160   -6.9050   12.6630 C   0  0  0  0  0
  -27.9750   -5.9760   13.3960 C   0  0  0  0  0
  -27.3790   -4.5850   13.5410 C   0  0  0  0  0
  -26.8420   -4.0770   12.2090 C   0  0  0  0  0
  -26.1770   -2.7150   12.3710 C   0  0  0  0  0
  -25.5320   -7.1220   10.7730 O   0  0  0  0  0
  -27.6880   -8.1290   12.3440 O   0  0  0  0  0
  -28.2600   -6.5110   14.6930 O   0  0  0  0  0
  -26.3160   -4.6200   14.5010 O   0  0  0  0  0
  -25.8950   -5.0100   11.6910 O   0  0  0  0  0
  -27.1790   -1.6920   12.3670 O   0  0  0  0  0
  -28.3713    0.6105   12.0045 H   0  0  0  0  0
  -27.2575    0.2637   10.6384 H   0  0  0  0  0
  -26.9713    2.3705   12.7933 H   0  0  0  0  0
  -25.0186    1.7339   10.5739 H   0  0  0  0  0
  -24.7666    1.1580   13.5363 H   0  0  0  0  0
  -22.6457    1.7685   12.5627 H   0  0  0  0  0
  -22.7675   -1.2501   12.6425 H   0  0  0  0  0
  -20.6005    0.5622   13.7162 H   0  0  0  0  0
  -20.6165    0.0245   12.0194 H   0  0  0  0  0
  -22.3131    5.2827   11.8324 H   0  0  0  0  0
  -23.5336    5.8678   10.6752 H   0  0  0  0  0
  -23.9853    5.5714   12.3720 H   0  0  0  0  0
  -25.0354    3.7742   12.7501 H   0  0  0  0  0
  -24.9253   -0.0621   14.1640 H   0  0  0  0  0
  -28.2881    2.8494   10.9183 H   0  0  0  0  0
  -23.2369    1.3010   10.3456 H   0  0  0  0  0
  -22.5117   -0.9100   14.9441 H   0  0  0  0  0
  -19.4268   -1.4227   13.4004 H   0  0  0  0  0
  -27.3323   -6.1029   10.6960 H   0  0  0  0  0
  -26.1651   -7.1045   13.3143 H   0  0  0  0  0
  -28.8940   -5.8993   12.8149 H   0  0  0  0  0
  -28.1643   -3.9075   13.8761 H   0  0  0  0  0
  -27.6784   -3.9720   11.5180 H   0  0  0  0  0
  -25.4839   -2.5484   11.5464 H   0  0  0  0  0
  -25.6319   -2.6864   13.3145 H   0  0  0  0  0
  -25.2075   -6.7157    9.9660 H   0  0  0  0  0
  -28.0124   -8.5345   13.1514 H   0  0  0  0  0
  -28.8644   -5.9247   15.1540 H   0  0  0  0  0
  -25.9398   -3.7415   14.5924 H   0  0  0  0  0
  2  1  1  0  0  0
  1 13  1  0  0  0
  1 14  2  0  0  0
  2  3  1  0  0  0
  2 16  1  0  0  0
 32  2  1  0  0  0
  3  4  1  0  0  0
  4  5  1  0  0  0
  4 15  1  0  0  0
  6  5  1  0  0  0
  5 12  1  0  0  0
  6  7  1  0  0  0
 16  6  1  0  0  0
  7  8  1  0  0  0
  7 17  1  0  0  0
  8  9  1  0  0  0
  8 18  1  0  0  0
  9 19  1  0  0  0
 10 11  1  0  0  0
 12 10  1  0  0  0
 10 20  2  0  0  0
 21 22  1  0  0  0
 21 27  1  0  0  0
 31 21  1  0  0  0
 23 22  1  0  0  0
 22 28  1  0  0  0
 24 23  1  0  0  0
 23 29  1  0  0  0
 25 24  1  0  0  0
 24 30  1  0  0  0
 26 25  1  0  0  0
 25 31  1  0  0  0
 26 32  1  0  0  0
  3 33  1  0  0  0
  3 34  1  0  0  0
  4 35  1  0  0  0
  5 36  1  0  0  0
  6 37  1  0  0  0
  7 38  1  0  0  0
  8 39  1  0  0  0
  9 40  1  0  0  0
  9 41  1  0  0  0
 11 42  1  0  0  0
 11 43  1  0  0  0
 11 44  1  0  0  0
 12 45  1  0  0  0
 13 46  1  0  0  0
 15 47  1  0  0  0
 17 48  1  0  0  0
 18 49  1  0  0  0
 19 50  1  0  0  0
 21 51  1  0  0  0
 22 52  1  0  0  0
 23 53  1  0  0  0
 24 54  1  0  0  0
 25 55  1  0  0  0
 26 56  1  0  0  0
 26 57  1  0  0  0
 27 58  1  0  0  0
 28 59  1  0  0  0
 29 60  1  0  0  0
 30 61  1  0  0  0
M  END
$$$$
