#	Name:			4ixu_ligand
#	Creating user name:	wangrx
#	Creation time:		Wed Aug  4 17:44:30 2021

#	Modifying user name:	wangrx
#	Modification time:	Wed Aug  4 17:45:08 2021

@<TRIPOS>MOLECULE
4ixu_ligand
   63    65     1     0     0
SMALL
GAST_HUCK


@<TRIPOS>ATOM
      1 CL2        28.0740   86.5840   77.0060 Cl        1 38I        -0.0718 
      2 C26        29.3400   85.3200   77.0540 C.ar      1 38I         0.0479 
      3 C25        29.7090   84.6680   78.2260 C.ar      1 38I         0.0469 
      4 CL1        28.9470   85.0340   79.8060 Cl        1 38I        -0.0764 
      5 C24        30.6940   83.6900   78.2070 C.ar      1 38I        -0.0539 
      6 C23        31.3110   83.3630   77.0150 C.ar      1 38I        -0.0545 
      7 C27        29.9590   84.9950   75.8630 C.ar      1 38I        -0.0409 
      8 C22        30.9360   84.0180   75.8520 C.ar      1 38I         0.0021 
      9 C21        31.6250   83.6640   74.5740 C.3       1 38I         0.0026 
     10 N16        33.0360   83.9790   74.8470 N.4       1 38I         0.2515 
     11 C17        33.9610   83.6570   73.7690 C.3       1 38I        -0.0186 
     12 C19        35.2770   84.1780   74.3310 C.3       1 38I        -0.0045 
     13 C20        34.8780   85.2030   75.3930 C.3       1 38I        -0.0045 
     14 C15        33.3800   85.3670   75.2240 C.3       1 38I        -0.0186 
     15 C14        33.2220   86.4310   74.1320 C.3       1 38I        -0.0016 
     16 C18        33.6050   84.4440   72.5160 C.3       1 38I        -0.0016 
     17 C7         33.0660   85.8740   72.7150 C.3       1 38I         0.0202 
     18 C4         33.4670   86.7700   71.5370 C.3       1 38I         0.0356 
     19 C1         33.8640   88.2020   71.8480 C.2       1 38I         0.0962 
     20 O3         34.9410   88.4580   72.4460 O.co2     1 38I        -0.5422 
     21 O2         33.0940   89.1130   71.4530 O.co2     1 38I        -0.5422 
     22 N6         32.1930   86.8180   70.8090 N.4       1 38I         0.2231 
     23 C5         34.5730   86.0770   70.7310 C.3       1 38I        -0.0037 
     24 C8         35.0260   86.8270   69.4990 C.3       1 38I        -0.0753 
     25 C9         36.1920   86.1360   68.7810 C.3       1 38I        -0.1826 
     26 C10        36.6220   87.0270   67.6120 C.3       1 38I        -0.3457 
     27 B11        37.1400   86.1440   66.4030 B         1 38I         3.0000 
     28 O30        37.6970   87.1970   65.4150 O.3       1 38I        -0.8710 
     29 O13        38.3580   85.3110   66.6920 O.3       1 38I        -0.4105 
     30 O12        36.0940   85.5300   65.5210 O.3       1 38I        -0.4105 
     31 H1         30.9777   83.1852   79.1234 H         1 38I         0.0606 
     32 H2         32.0816   82.6010   76.9892 H         1 38I         0.0561 
     33 H3         29.6811   85.5014   74.9457 H         1 38I         0.0564 
     34 H4         31.2412   84.2692   73.7395 H         1 38I         0.0981 
     35 H5         31.4982   82.5964   74.3414 H         1 38I         0.0981 
     36 H6         33.2791   83.3974   75.6336 H         1 38I         0.2054 
     37 H7         33.9925   82.5784   73.5554 H         1 38I         0.0851 
     38 H8         35.8735   84.6546   73.5391 H         1 38I         0.0322 
     39 H9         35.8553   83.3587   74.7830 H         1 38I         0.0322 
     40 H10        35.3947   86.1591   75.2232 H         1 38I         0.0322 
     41 H11        35.1165   84.8311   76.4004 H         1 38I         0.0322 
     42 H12        32.8570   85.6774   76.1406 H         1 38I         0.0851 
     43 H13        34.1128   87.0761   74.1505 H         1 38I         0.0324 
     44 H14        32.3298   87.0310   74.3645 H         1 38I         0.0324 
     45 H15        32.8374   83.8731   71.9730 H         1 38I         0.0324 
     46 H16        34.5135   84.5151   71.8999 H         1 38I         0.0324 
     47 H17        31.9759   85.7732   72.6082 H         1 38I         0.0355 
     48 H18        32.2988   87.3874   69.9839 H         1 38I         0.1999 
     49 H19        31.4816   87.2153   71.4024 H         1 38I         0.1999 
     50 H20        31.9239   85.8844   70.5407 H         1 38I         0.1999 
     51 H21        34.1991   85.0924   70.4137 H         1 38I         0.0315 
     52 H22        35.4439   85.9438   71.3897 H         1 38I         0.0315 
     53 H23        35.3456   87.8359   69.7988 H         1 38I         0.0242 
     54 H24        34.1787   86.9028   68.8017 H         1 38I         0.0242 
     55 H25        35.8691   85.1546   68.4033 H         1 38I        -0.0084 
     56 H26        37.0328   86.0023   69.4775 H         1 38I        -0.0084 
     57 H28        37.1561   87.9072   67.9991 H         1 38I        -0.2101 
     58 H29        35.7324   87.3541   67.0538 H         1 38I        -0.2101 
     59 H30        38.0619   86.7611   64.5923 H         1 38I        -0.1290 
     60 H31        38.9470   85.7983   67.2561 H         1 38I         0.2052 
     61 H32        38.9470   85.7983   67.2561 H         1 38I         0.2052 
     62 H33        35.3765   86.1426   65.4089 H         1 38I         0.2052 
     63 H34        35.3766   86.1425   65.4089 H         1 38I         0.2052 
@<TRIPOS>BOND
     1    1    2 1    
     2    2    3 ar   
     3    2    7 ar   
     4    3    4 1    
     5    3    5 ar   
     6    5    6 ar   
     7    6    8 ar   
     8    7    8 ar   
     9    8    9 1    
    10    9   10 1    
    11   10   11 1    
    12   10   14 1    
    13   11   12 1    
    14   11   16 1    
    15   12   13 1    
    16   13   14 1    
    17   14   15 1    
    18   15   17 1    
    19   16   17 1    
    20   17   18 1    
    21   18   19 1    
    22   18   22 1    
    23   18   23 1    
    24   19   20 ar   
    25   19   21 ar   
    26   23   24 1    
    27   24   25 1    
    28   25   26 1    
    29   26   27 1    
    30   27   29 1    
    31   27   30 1    
    32   27   28 1    
    33    5   31 1    
    34    6   32 1    
    35    7   33 1    
    36    9   34 1    
    37    9   35 1    
    38   10   36 1    
    39   11   37 1    
    40   12   38 1    
    41   12   39 1    
    42   13   40 1    
    43   13   41 1    
    44   14   42 1    
    45   15   43 1    
    46   15   44 1    
    47   16   45 1    
    48   16   46 1    
    49   17   47 1    
    50   22   48 1    
    51   22   49 1    
    52   22   50 1    
    53   23   51 1    
    54   23   52 1    
    55   24   53 1    
    56   24   54 1    
    57   25   55 1    
    58   25   56 1    
    59   26   57 1    
    60   26   58 1    
    61   28   59 1    
    62   29   60 1    
    63   29   61 1    
    64   30   62 1    
    65   30   63 1    
@<TRIPOS>SUBSTRUCTURE
     1 38I         1 PERM              0 ****  ****    0 ROOT 
