4ixu_ligand

Created by X-TOOL on Fri Nov 18 17:24:33 2016
 64 66  0  0  0  0  0  0  0  0999 V2000
   28.0740   86.5840   77.0060 Cl 0  0  0  1  0  1
   29.3400   85.3200   77.0540  C 0  0  0  1  0  3
   29.7090   84.6680   78.2260  C 0  0  0  1  0  3
   28.9470   85.0340   79.8060 Cl 0  0  0  1  0  1
   30.6940   83.6900   78.2070  C 0  0  0  2  0  3
   31.3110   83.3630   77.0150  C 0  0  0  2  0  3
   29.9590   84.9950   75.8630  C 0  0  0  2  0  3
   30.9360   84.0180   75.8520  C 0  0  0  1  0  3
   31.6250   83.6640   74.5740  C 0  0  0  3  0  4
   33.0360   83.9790   74.8470  N 0  3  0  2  0  4
   33.9610   83.6570   73.7690  C 0  0  0  2  0  4
   35.2770   84.1780   74.3310  C 0  0  0  3  0  4
   34.8780   85.2030   75.3930  C 0  0  0  3  0  4
   33.3800   85.3670   75.2240  C 0  0  0  2  0  4
   33.2220   86.4310   74.1320  C 0  0  0  3  0  4
   33.6050   84.4440   72.5160  C 0  0  0  3  0  4
   33.0660   85.8740   72.7150  C 0  0  0  2  0  4
   33.4670   86.7700   71.5370  C 0  0  0  1  0  4
   33.8640   88.2020   71.8480  C 0  5  0  1  0  3
   34.9410   88.4580   72.4460  O 0  0  0  1  0  1
   33.0940   89.1130   71.4530  O 0  0  0  1  0  1
   32.1930   86.8180   70.8090  N 0  3  0  4  0  4
   34.5730   86.0770   70.7310  C 0  0  0  3  0  4
   35.0260   86.8270   69.4990  C 0  0  0  3  0  4
   36.1920   86.1360   68.7810  C 0  0  0  3  0  4
   36.6220   87.0270   67.6120  C 0  0  0  4  0  5
   37.1400   86.1440   66.4030  B 0  0  0  1  0  4
   37.6970   87.1970   65.4150  O 0  0  0  2  0  2
   38.3580   85.3110   66.6920  O 0  0  0  3  0  3
   36.0940   85.5300   65.5210  O 0  0  0  3  0  3
   30.9777   83.1852   79.1234  H 0  0  0  1  0  1
   32.0816   82.6010   76.9892  H 0  0  0  1  0  1
   29.6811   85.5014   74.9457  H 0  0  0  1  0  1
   31.2412   84.2692   73.7395  H 0  0  0  1  0  1
   31.4982   82.5964   74.3414  H 0  0  0  1  0  1
   33.2791   83.3974   75.6336  H 0  0  0  1  0  1
   33.9925   82.5784   73.5554  H 0  0  0  1  0  1
   35.8735   84.6546   73.5391  H 0  0  0  1  0  1
   35.8553   83.3587   74.7830  H 0  0  0  1  0  1
   35.3947   86.1591   75.2232  H 0  0  0  1  0  1
   35.1165   84.8311   76.4004  H 0  0  0  1  0  1
   32.8570   85.6774   76.1406  H 0  0  0  1  0  1
   34.1128   87.0761   74.1505  H 0  0  0  1  0  1
   32.3298   87.0310   74.3645  H 0  0  0  1  0  1
   32.8374   83.8731   71.9730  H 0  0  0  1  0  1
   34.5135   84.5151   71.8999  H 0  0  0  1  0  1
   31.9759   85.7732   72.6082  H 0  0  0  1  0  1
   32.2988   87.3874   69.9839  H 0  0  0  1  0  1
   31.4816   87.2153   71.4024  H 0  0  0  1  0  1
   31.9239   85.8844   70.5407  H 0  0  0  1  0  1
   34.1991   85.0924   70.4137  H 0  0  0  1  0  1
   35.4439   85.9438   71.3897  H 0  0  0  1  0  1
   35.3456   87.8359   69.7988  H 0  0  0  1  0  1
   34.1787   86.9028   68.8017  H 0  0  0  1  0  1
   35.8691   85.1546   68.4033  H 0  0  0  1  0  1
   37.0328   86.0023   69.4775  H 0  0  0  1  0  1
   37.2863   86.4596   66.9436  H 0  0  0  1  0  1
   37.1561   87.9072   67.9991  H 0  0  0  1  0  1
   35.7324   87.3541   67.0538  H 0  0  0  1  0  1
   38.0619   86.7611   64.5923  H 0  0  0  1  0  1
   38.9470   85.7983   67.2561  H 0  0  0  1  0  1
   38.9470   85.7983   67.2561  H 0  0  0  1  0  1
   35.3765   86.1426   65.4089  H 0  0  0  1  0  1
   35.3766   86.1425   65.4089  H 0  0  0  1  0  1
  1  2  1  0  0  2
  2  3  4  0  0  1
  2  7  4  0  0  1
  3  4  1  0  0  2
  3  5  4  0  0  1
  5  6  4  0  0  1
  6  8  4  0  0  1
  7  8  4  0  0  1
  8  9  1  0  0  2
  9 10  1  0  0  2
 10 11  1  0  0  1
 10 14  1  0  0  1
 11 12  1  0  0  1
 11 16  1  0  0  1
 12 13  1  0  0  1
 13 14  1  0  0  1
 14 15  1  0  0  1
 15 17  1  0  0  1
 16 17  1  0  0  1
 17 18  1  0  0  2
 18 19  1  0  0  2
 18 22  1  0  0  2
 18 23  1  0  0  2
 19 20  2  0  0  2
 19 21  2  0  0  2
 23 24  1  0  0  2
 24 25  1  0  0  2
 25 26  1  0  0  2
 26 27  1  0  0  2
 27 29  1  0  0  2
 27 30  1  0  0  2
 28 27  2  0  0  2
  5 31  1  0  0  2
  6 32  1  0  0  2
  7 33  1  0  0  2
  9 34  1  0  0  2
  9 35  1  0  0  2
 10 36  1  0  0  2
 11 37  1  0  0  2
 12 38  1  0  0  2
 12 39  1  0  0  2
 13 40  1  0  0  2
 13 41  1  0  0  2
 14 42  1  0  0  2
 15 43  1  0  0  2
 15 44  1  0  0  2
 16 45  1  0  0  2
 16 46  1  0  0  2
 17 47  1  0  0  2
 22 48  1  0  0  2
 22 49  1  0  0  2
 22 50  1  0  0  2
 23 51  1  0  0  2
 23 52  1  0  0  2
 24 53  1  0  0  2
 24 54  1  0  0  2
 25 55  1  0  0  2
 25 56  1  0  0  2
 26 57  1  0  0  2
 26 58  1  0  0  2
 26 59  1  0  0  2
 28 60  1  0  0  2
 29 61  1  0  0  2
 29 62  1  0  0  2
 30 63  1  0  0  2
 30 64  1  0  0  2
M  END
> <MOLECULAR_FORMULA>
C20H34N2O5Cl2B

> <MOLECULAR_WEIGHT>
463.9

> <NUM_HB_ATOMS>
6  

> <NUM_ROTOR>
8  

> <XLOGP2>
0.80 

$$$$
