5mwz_ligand
  -I-interpret- 

 71 74  0  0  0  0  0  0  0  0999 V2000
   -7.8330    7.6440    9.6110 N   0  3  0  0  0
   -6.4770    8.2090    9.5000 C   0  0  0  0  0
   -6.3790    9.0570    8.2230 C   0  0  0  0  0
   -5.3030    9.1670    7.6390 O   0  0  0  0  0
   -4.7250    9.7750    3.3330 C   0  0  0  0  0
  -11.0240   12.2730    2.5690 C   0  0  0  0  0
  -11.1680    5.1300   10.2180 C   0  0  0  0  0
   -6.8150   10.7010    5.7940 C   0  0  0  0  0
   -9.3810   11.6860    5.5460 C   0  0  0  0  0
  -12.1990   10.5150    9.4500 C   0  0  0  0  0
  -10.7790   10.5120    9.9720 C   0  0  0  0  0
  -12.2400    9.6570    8.2050 C   0  0  0  0  0
   -4.8300   11.2170    3.8430 C   0  0  0  0  0
  -10.1380   13.2580    3.3270 C   0  0  0  0  0
   -9.8710   11.2010    8.9640 C   0  0  0  0  0
  -11.3970   10.2970    7.1100 C   0  0  0  0  0
   -9.4420    5.9830    8.7800 C   0  0  0  0  0
   -9.5460    6.6800   11.0830 C   0  0  0  0  0
   -8.0140    6.5070    8.6950 C   0  0  0  0  0
   -8.1170    7.2000   10.9850 C   0  0  0  0  0
   -7.7590   10.4160    6.7940 C   0  0  0  0  0
   -9.0650   10.9030    6.6550 C   0  0  0  0  0
   -6.5590   12.4940    2.6410 C   0  0  0  0  0
   -7.8650   12.9880    2.5140 C   0  0  0  0  0
   -7.1440   11.4760    4.6740 C   0  0  0  0  0
   -8.4400   11.9740    4.5550 C   0  0  0  0  0
   -7.5420    9.6540    7.8900 N   0  0  0  0  0
   -9.7620    5.5600   10.1530 N   0  3  0  0  0
  -10.0430   10.7000    7.5720 N   0  0  0  0  0
   -6.2180   11.7500    3.7180 N   0  0  0  0  0
   -8.7700   12.7270    3.4830 N   0  0  0  0  0
   -5.7110   12.7350    1.7700 O   0  0  0  0  0
   -8.1890   13.6420    1.5200 O   0  0  0  0  0
   -8.4835    8.3876    9.3573 H   0  0  0  0  0
   -5.7485    7.3995    9.4555 H   0  0  0  0  0
   -6.2718    8.8348   10.3685 H   0  0  0  0  0
   -5.3908    9.1363    3.9134 H   0  0  0  0  0
   -5.0117    9.7409    2.2819 H   0  0  0  0  0
   -3.6981    9.4262    3.4423 H   0  0  0  0  0
  -10.6028   12.0944    1.5797 H   0  0  0  0  0
  -11.0738   11.3333    3.1192 H   0  0  0  0  0
  -12.0259   12.6903    2.4688 H   0  0  0  0  0
  -11.8141    5.9602    9.9327 H   0  0  0  0  0
  -11.3234    4.2955    9.5342 H   0  0  0  0  0
  -11.4042    4.8169   11.2350 H   0  0  0  0  0
   -5.8022   10.3100    5.8915 H   0  0  0  0  0
  -10.3909   12.0847    5.4495 H   0  0  0  0  0
  -12.5129   11.5325    9.2171 H   0  0  0  0  0
  -12.8786   10.1179   10.2040 H   0  0  0  0  0
  -10.4467    9.4844   10.1196 H   0  0  0  0  0
  -10.7386   11.0439   10.9226 H   0  0  0  0  0
  -13.2707    9.5690    7.8615 H   0  0  0  0  0
  -11.8422    8.6686    8.4350 H   0  0  0  0  0
   -4.1682   11.8414    3.2429 H   0  0  0  0  0
   -4.5525   11.2284    4.8970 H   0  0  0  0  0
  -10.5645   13.4219    4.3166 H   0  0  0  0  0
  -10.0893   14.1897    2.7634 H   0  0  0  0  0
   -8.8411   11.0011    9.2598 H   0  0  0  0  0
  -10.1246   12.2611    8.9649 H   0  0  0  0  0
  -11.9143   11.1976    6.7793 H   0  0  0  0  0
  -11.2693    9.5589    6.3182 H   0  0  0  0  0
   -9.5419    5.1249    8.1153 H   0  0  0  0  0
  -10.1268    6.7794    8.4887 H   0  0  0  0  0
  -10.2313    7.4873   10.8248 H   0  0  0  0  0
   -9.7228    6.3303   12.1001 H   0  0  0  0  0
   -7.3249    5.7104    8.9755 H   0  0  0  0  0
   -7.8155    6.8362    7.6750 H   0  0  0  0  0
   -7.9958    8.0429   11.6654 H   0  0  0  0  0
   -7.4264    6.4002   11.2522 H   0  0  0  0  0
   -8.3302    9.5182    8.5231 H   0  0  0  0  0
   -9.1551    4.7837   10.4166 H   0  0  0  0  0
  2  1  1  0  0  0
  1 19  1  0  0  0
  1 20  1  0  0  0
  3  2  1  0  0  0
  3  4  2  0  0  0
 27  3  1  0  0  0
 13  5  1  0  0  0
 14  6  1  0  0  0
 28  7  1  0  0  0
  8 21  4  0  0  0
 25  8  4  0  0  0
  9 22  4  0  0  0
 26  9  4  0  0  0
 11 10  1  0  0  0
 12 10  1  0  0  0
 15 11  1  0  0  0
 16 12  1  0  0  0
 30 13  1  0  0  0
 31 14  1  0  0  0
 29 15  1  0  0  0
 29 16  1  0  0  0
 19 17  1  0  0  0
 17 28  1  0  0  0
 20 18  1  0  0  0
 18 28  1  0  0  0
 21 22  4  0  0  0
 21 27  1  0  0  0
 22 29  1  0  0  0
 23 24  1  0  0  0
 30 23  1  0  0  0
 23 32  2  0  0  0
 24 31  1  0  0  0
 24 33  2  0  0  0
 25 26  4  0  0  0
 25 30  1  0  0  0
 26 31  1  0  0  0
  1 34  1  0  0  0
  2 35  1  0  0  0
  2 36  1  0  0  0
  5 37  1  0  0  0
  5 38  1  0  0  0
  5 39  1  0  0  0
  6 40  1  0  0  0
  6 41  1  0  0  0
  6 42  1  0  0  0
  7 43  1  0  0  0
  7 44  1  0  0  0
  7 45  1  0  0  0
  8 46  1  0  0  0
  9 47  1  0  0  0
 10 48  1  0  0  0
 10 49  1  0  0  0
 11 50  1  0  0  0
 11 51  1  0  0  0
 12 52  1  0  0  0
 12 53  1  0  0  0
 13 54  1  0  0  0
 13 55  1  0  0  0
 14 56  1  0  0  0
 14 57  1  0  0  0
 15 58  1  0  0  0
 15 59  1  0  0  0
 16 60  1  0  0  0
 16 61  1  0  0  0
 17 62  1  0  0  0
 17 63  1  0  0  0
 18 64  1  0  0  0
 18 65  1  0  0  0
 19 66  1  0  0  0
 19 67  1  0  0  0
 20 68  1  0  0  0
 20 69  1  0  0  0
 27 70  1  0  0  0
 28 71  1  0  0  0
M  END
$$$$
