3lco_ligand
  -I-interpret- 

 57 60  0  0  0  0  0  0  0  0999 V2000
   -9.7000   21.6150  -15.0520 C   0  0  0  0  0
  -10.6110   19.4170  -15.2280 C   0  0  0  0  0
  -10.6600   21.9410  -14.1190 C   0  0  0  0  0
  -11.5760   19.7320  -14.2970 C   0  0  0  0  0
   -4.9340   17.8360  -16.9560 C   0  0  0  0  0
   -7.1200   18.0230  -18.5290 C   0  0  0  0  0
   -8.6260   20.0100  -16.6180 C   0  0  0  0  0
   -9.6710   20.3530  -15.6080 C   0  0  0  0  0
   -4.8980   17.6110  -18.3140 C   0  0  0  0  0
   -7.2540   18.2730  -17.1810 C   0  0  0  0  0
    0.2150   17.9440  -18.7840 C   0  0  0  0  0
   -1.5260   19.8730  -19.2660 C   0  0  0  0  0
    4.4880   15.5800  -18.2030 C   0  0  0  0  0
  -12.0460   20.8940  -11.5550 C   0  0  0  0  0
   -4.9300   18.6080  -14.5300 C   0  0  0  0  0
    1.0110   15.6190  -17.9830 C   0  0  0  0  0
    0.5480   19.2710  -18.6430 C   0  0  0  0  0
    2.5430   17.0860  -18.6370 C   0  0  0  0  0
   -3.5900   17.2410  -18.9220 C   0  0  0  0  0
  -11.5900   20.9950  -13.7450 C   0  0  0  0  0
   -6.1390   18.1730  -16.3790 C   0  0  0  0  0
    1.1860   16.9300  -18.4870 C   0  0  0  0  0
   -1.8450   18.5410  -19.4070 C   0  0  0  0  0
   -2.5140   20.8220  -19.5410 N   0  0  0  0  0
   -5.9650   17.6940  -19.1190 N   0  0  0  0  0
   -0.3100   20.2660  -18.8770 N   0  0  0  0  0
    2.1770   14.9860  -17.8240 N   0  0  0  0  0
   -0.9950   17.5350  -19.1730 N   0  0  0  0  0
    3.0770   15.8970  -18.2300 N   0  0  0  0  0
  -12.5580   21.3200  -12.8120 O   0  0  0  0  0
   -6.2500   18.4120  -15.0210 O   0  0  0  0  0
   -8.4890   18.5950  -16.6480 O   0  0  0  0  0
   -3.1350   18.2460  -19.8160 O   0  0  0  0  0
   -8.9604   22.3574  -15.3520 H   0  0  0  0  0
  -10.5897   18.4201  -15.6682 H   0  0  0  0  0
  -10.6838   22.9386  -13.6804 H   0  0  0  0  0
  -12.3192   18.9919  -14.0005 H   0  0  0  0  0
   -4.0308   17.7496  -16.3519 H   0  0  0  0  0
   -8.0100   18.0978  -19.1538 H   0  0  0  0  0
   -7.6769   20.4739  -16.3494 H   0  0  0  0  0
   -8.9173   20.3804  -17.6009 H   0  0  0  0  0
    4.8964   15.6601  -19.2104 H   0  0  0  0  0
    5.0035   16.2786  -17.5440 H   0  0  0  0  0
    4.6237   14.5632  -17.8343 H   0  0  0  0  0
  -11.8682   19.8189  -11.5820 H   0  0  0  0  0
  -11.1098   21.4134  -11.3506 H   0  0  0  0  0
  -12.7691   21.1244  -10.7726 H   0  0  0  0  0
   -4.3368   17.7133  -14.7191 H   0  0  0  0  0
   -4.4775   19.4596  -15.0380 H   0  0  0  0  0
   -4.9674   18.8007  -13.4578 H   0  0  0  0  0
    0.0411   15.1784  -17.7522 H   0  0  0  0  0
    1.5601   19.5217  -18.3253 H   0  0  0  0  0
    3.0755   17.9648  -19.0006 H   0  0  0  0  0
   -3.7159   16.3122  -19.4785 H   0  0  0  0  0
   -2.8559   17.1275  -18.1243 H   0  0  0  0  0
   -3.4423   20.5206  -19.8374 H   0  0  0  0  0
   -2.3070   21.8162  -19.4454 H   0  0  0  0  0
  1  3  4  0  0  0
  8  1  4  0  0  0
  2  4  4  0  0  0
  8  2  4  0  0  0
  3 20  4  0  0  0
  4 20  4  0  0  0
  9  5  4  0  0  0
  5 21  4  0  0  0
  6 10  4  0  0  0
 25  6  4  0  0  0
  7  8  1  0  0  0
 32  7  1  0  0  0
 19  9  1  0  0  0
  9 25  4  0  0  0
 21 10  4  0  0  0
 10 32  1  0  0  0
 11 17  4  0  0  0
 11 22  1  0  0  0
 28 11  4  0  0  0
 23 12  4  0  0  0
 12 24  1  0  0  0
 12 26  4  0  0  0
 29 13  1  0  0  0
 30 14  1  0  0  0
 31 15  1  0  0  0
 22 16  4  0  0  0
 16 27  4  0  0  0
 26 17  4  0  0  0
 22 18  4  0  0  0
 18 29  4  0  0  0
 33 19  1  0  0  0
 20 30  1  0  0  0
 21 31  1  0  0  0
 23 28  4  0  0  0
 23 33  1  0  0  0
 27 29  4  0  0  0
  1 34  1  0  0  0
  2 35  1  0  0  0
  3 36  1  0  0  0
  4 37  1  0  0  0
  5 38  1  0  0  0
  6 39  1  0  0  0
  7 40  1  0  0  0
  7 41  1  0  0  0
 13 42  1  0  0  0
 13 43  1  0  0  0
 13 44  1  0  0  0
 14 45  1  0  0  0
 14 46  1  0  0  0
 14 47  1  0  0  0
 15 48  1  0  0  0
 15 49  1  0  0  0
 15 50  1  0  0  0
 16 51  1  0  0  0
 17 52  1  0  0  0
 18 53  1  0  0  0
 19 54  1  0  0  0
 19 55  1  0  0  0
 24 56  1  0  0  0
 24 57  1  0  0  0
M  END
$$$$
