3fr5_ligand
  -I-interpret- 

 49 52  0  0  0  0  0  0  0  0999 V2000
   16.9070    4.7650    2.8130 O   0  0  0  0  0
   17.5870    5.7870    2.7560 C   0  0  0  0  0
   17.2000    6.7600    1.9360 O   0  0  0  0  0
   18.8160    5.9430    3.5890 C   0  0  0  0  0
   20.0840    5.2170    3.3170 C   0  0  0  0  0
   21.2260    5.4290    4.2370 C   0  0  0  0  0
   22.3000    4.5840    3.6710 C   0  0  0  0  0
   23.7130    4.3500    4.1200 C   0  0  0  0  0
   24.6820    4.6820    2.9900 C   0  0  0  0  0
   24.8500    3.6190    1.9050 C   0  0  0  0  0
   23.5870    3.6330    1.0130 C   0  0  0  0  0
   22.3440    2.9480    1.5820 C   0  0  0  0  0
   21.6590    3.9210    2.4900 C   0  0  0  0  0
   21.0790    6.2990    5.3200 C   0  0  0  0  0
   19.8700    6.9620    5.5400 C   0  0  0  0  0
   18.7760    6.7830    4.6900 C   0  0  0  0  0
   20.3970    4.3160    2.3490 N   0  0  0  0  0
   19.5810    3.8280    1.2600 C   0  0  0  0  0
   19.9060    4.4160   -0.0950 C   0  0  0  0  0
   19.6180    3.6300   -1.1970 C   0  0  0  0  0
   19.9060    4.0940   -2.4740 C   0  0  0  0  0
   19.6230    3.2120   -3.6530 C   0  0  0  0  0
   20.2560    3.5060   -4.7760 N   0  0  0  0  0
   18.8790    2.2320   -3.5540 O   0  0  0  0  0
   20.4610    5.3610   -2.6760 C   0  0  0  0  0
   20.7220    6.1590   -1.5630 C   0  0  0  0  0
   20.4640    5.6840   -0.2710 C   0  0  0  0  0
   17.8196    7.4910    1.9938 H   0  0  0  0  0
   23.8319    3.3027    4.3979 H   0  0  0  0  0
   23.9277    4.9901    4.9758 H   0  0  0  0  0
   25.6611    4.7975    3.4549 H   0  0  0  0  0
   24.2756    5.5620    2.4914 H   0  0  0  0  0
   24.9758    2.6365    2.3600 H   0  0  0  0  0
   25.7343    3.8334    1.3049 H   0  0  0  0  0
   23.8488    3.0823    0.1095 H   0  0  0  0  0
   23.3209    4.6819    0.8821 H   0  0  0  0  0
   22.6258    2.0508    2.1331 H   0  0  0  0  0
   21.6750    2.6484    0.7753 H   0  0  0  0  0
   21.9156    6.4618    5.9994 H   0  0  0  0  0
   19.7779    7.6338    6.3934 H   0  0  0  0  0
   17.8546    7.3256    4.9013 H   0  0  0  0  0
   18.5526    4.1091    1.4867 H   0  0  0  0  0
   19.7600    2.7552    1.1888 H   0  0  0  0  0
   19.1655    2.6475   -1.0629 H   0  0  0  0  0
   20.1374    2.9142   -5.5983 H   0  0  0  0  0
   20.8630    4.3246   -4.8200 H   0  0  0  0  0
   20.6848    5.7172   -3.6816 H   0  0  0  0  0
   21.1301    7.1605   -1.6994 H   0  0  0  0  0
   20.6982    6.3027    0.5953 H   0  0  0  0  0
  1  2  2  0  0  0
  2  3  1  0  0  0
  2  4  1  0  0  0
  4  5  4  0  0  0
  4 16  4  0  0  0
  5  6  4  0  0  0
  5 17  4  0  0  0
  6  7  4  0  0  0
  6 14  4  0  0  0
  7  8  1  0  0  0
  7 13  4  0  0  0
  8  9  1  0  0  0
  9 10  1  0  0  0
 10 11  1  0  0  0
 11 12  1  0  0  0
 12 13  1  0  0  0
 13 17  4  0  0  0
 14 15  4  0  0  0
 15 16  4  0  0  0
 17 18  1  0  0  0
 18 19  1  0  0  0
 19 20  4  0  0  0
 19 27  4  0  0  0
 20 21  4  0  0  0
 21 22  1  0  0  0
 21 25  4  0  0  0
 22 23  1  0  0  0
 22 24  2  0  0  0
 25 26  4  0  0  0
 26 27  4  0  0  0
  3 28  1  0  0  0
  8 29  1  0  0  0
  8 30  1  0  0  0
  9 31  1  0  0  0
  9 32  1  0  0  0
 10 33  1  0  0  0
 10 34  1  0  0  0
 11 35  1  0  0  0
 11 36  1  0  0  0
 12 37  1  0  0  0
 12 38  1  0  0  0
 14 39  1  0  0  0
 15 40  1  0  0  0
 16 41  1  0  0  0
 18 42  1  0  0  0
 18 43  1  0  0  0
 20 44  1  0  0  0
 23 45  1  0  0  0
 23 46  1  0  0  0
 25 47  1  0  0  0
 26 48  1  0  0  0
 27 49  1  0  0  0
M  END
$$$$
