### 
### Created by X-TOOL on Sun Sep  9 21:50:03 2018
### 

@<TRIPOS>MOLECULE
1lqf_ligand
   83    85     1     0     0
SMALL
GAST_HUCK


@<TRIPOS>ATOM
      1 C1         -4.1750   32.3210   60.3850 C.2       1 NON         0.2041
      2 O2         -4.5790   32.1290   59.2190 O.2       1 NON        -0.3944
      3 C3         -5.0440   31.4080   62.6230 C.3       1 NON        -0.0009
      4 C4         -6.5620   31.4660   62.2000 C.3       1 NON         0.0044
      5 C5         -7.5580   31.1130   63.3370 C.2       1 NON         0.0350
      6 O6         -8.1630   30.0130   63.2970 O.co2     1 NON        -0.5690
      7 O7         -7.8090   31.9180   64.2980 O.co2     1 NON        -0.5690
      8 C8         -1.8940   30.3000   60.9030 C.2       1 NON         0.2072
      9 O9         -2.4990   29.6610   59.9970 O.2       1 NON        -0.3845
     10 C10        -0.4210   30.1780   61.0070 C.ar      1 NON         0.0500
     11 C11         0.3310   29.3020   60.0550 C.ar      1 NON        -0.0419
     12 C12         0.3300   30.9210   62.0160 C.ar      1 NON        -0.0419
     13 C13         1.7940   29.1800   60.1100 C.ar      1 NON        -0.0562
     14 C14         1.7900   30.7950   62.0660 C.ar      1 NON        -0.0562
     15 C15         2.5320   29.9360   61.1240 C.ar      1 NON        -0.0575
     16 N16        -2.6430   31.0870   61.7140 N.am      1 NON        -0.2648
     17 C17        -4.1010   31.1580   61.3880 C.3       1 NON         0.1320
     18 N18        -3.7140   33.5000   60.8670 N.am      1 NON        -0.2612
     19 C19        -3.6340   34.7610   60.0930 C.3       1 NON         0.1451
     20 C20        -2.1750   35.1480   59.9660 C.2       1 NON         0.2070
     21 O21        -1.4590   35.0620   60.9240 O.2       1 NON        -0.3941
     22 C22        -4.2970   35.9620   60.7990 C.3       1 NON         0.0367
     23 C23        -5.7720   36.0860   60.6340 C.ar      1 NON        -0.0068
     24 C24        -6.6620   35.4240   61.5880 C.ar      1 NON        -0.0280
     25 C25        -8.1170   35.5270   61.4890 C.ar      1 NON        -0.0385
     26 C26        -6.3470   36.8740   59.5400 C.ar      1 NON        -0.0280
     27 C27        -7.8130   36.9820   59.4310 C.ar      1 NON        -0.0385
     28 C28        -8.7380   36.3130   60.4060 C.ar      1 NON         0.0219
     29 C29       -10.3460   36.4200   60.3210 C.3       1 NON         0.2931
     30 F30       -10.7520   36.3430   58.9690 F         1 NON        -0.2419
     31 F31       -10.9070   35.3010   60.9760 F         1 NON        -0.2419
     32 P32       -11.0420   37.7090   60.9460 P.3       1 NON         0.0966
     33 O33       -12.5810   37.4470   61.2010 O.co2     1 NON        -0.5668
     34 O34       -10.3800   38.0580   62.3270 O.co2     1 NON        -0.5668
     35 O35       -10.9070   38.9580   59.9950 O.co2     1 NON        -0.5668
     36 N36        -1.7600   35.5900   58.7990 N.am      1 NON        -0.2610
     37 C37        -0.3900   36.0210   58.5660 C.3       1 NON         0.1448
     38 C38        -0.0190   35.5950   57.0920 C.3       1 NON         0.0367
     39 C39         1.3700   35.9700   56.6300 C.ar      1 NON        -0.0068
     40 C40         1.4890   37.1930   55.9040 C.ar      1 NON        -0.0280
     41 C41         2.7520   37.6710   55.4170 C.ar      1 NON        -0.0385
     42 C42         2.5820   35.1700   56.8920 C.ar      1 NON        -0.0280
     43 C43         3.8940   35.6380   56.4000 C.ar      1 NON        -0.0385
     44 C44         3.9860   36.9150   55.6450 C.ar      1 NON         0.0219
     45 C45         5.3150   37.4930   55.0830 C.3       1 NON         0.2931
     46 F46         5.1280   38.8790   54.7980 F         1 NON        -0.2419
     47 F47         6.2230   37.4540   56.0950 F         1 NON        -0.2419
     48 P48         5.9280   36.7280   53.7410 P.3       1 NON         0.0966
     49 O49         6.0690   35.2090   53.9850 O.co2     1 NON        -0.5668
     50 O50         5.0410   36.9110   52.4570 O.co2     1 NON        -0.5668
     51 O51         7.3280   37.2630   53.4050 O.co2     1 NON        -0.5668
     52 C52        -0.1750   37.5970   58.7570 C.2       1 NON         0.2021
     53 O53         0.9590   38.0170   59.1750 O.2       1 NON        -0.3945
     54 N54        -1.1100   38.3940   58.4510 N.am      1 NON        -0.2988
     55 H1         -4.7689   32.3637   63.0931 H         1 NON         0.0330
     56 H2         -4.9072   30.5907   63.3464 H         1 NON         0.0330
     57 H3         -6.7166   30.7557   61.3744 H         1 NON         0.0433
     58 H4         -6.7837   32.4859   61.8527 H         1 NON         0.0433
     59 H5         -0.2178   28.7431   59.3056 H         1 NON         0.0669
     60 H6         -0.1878   31.5602   62.7219 H         1 NON         0.0669
     61 H7          2.3193   28.5399   59.4104 H         1 NON         0.0629
     62 H8          2.3404   31.3495   62.8175 H         1 NON         0.0629
     63 H9          3.6121   29.8651   61.1817 H         1 NON         0.0653
     64 H10        -2.2454   31.5887   62.4823 H         1 NON         0.1877
     65 H11        -4.4155   30.2201   60.9070 H         1 NON         0.0801
     66 H12        -3.4041   33.5210   61.8175 H         1 NON         0.1886
     67 H13        -4.0900   34.6089   59.1036 H         1 NON         0.0833
     68 H14        -3.8364   36.8798   60.4048 H         1 NON         0.0547
     69 H15        -4.0850   35.8783   61.8751 H         1 NON         0.0547
     70 H16        -6.2297   34.8397   62.3922 H         1 NON         0.0652
     71 H17        -8.7434   35.0227   62.2159 H         1 NON         0.0835
     72 H18        -5.7039   37.3698   58.8220 H         1 NON         0.0652
     73 H19        -8.2371   37.5635   58.6204 H         1 NON         0.0835
     74 H20        -2.4118   35.6315   58.0418 H         1 NON         0.1886
     75 H21         0.2698   35.4982   59.2741 H         1 NON         0.0833
     76 H22        -0.7409   36.0699   56.4114 H         1 NON         0.0547
     77 H23        -0.1142   34.5013   57.0225 H         1 NON         0.0547
     78 H24         0.5974   37.7796   55.7143 H         1 NON         0.0652
     79 H25         2.7933   38.6068   54.8715 H         1 NON         0.0835
     80 H26         2.5097   34.2403   57.4447 H         1 NON         0.0652
     81 H27         4.7863   35.0522   56.5889 H         1 NON         0.0835
     82 H28        -0.9850   39.3794   58.5668 H         1 NON         0.1815
     83 H29        -1.9735   38.0381   58.0935 H         1 NON         0.1815
@<TRIPOS>BOND
     1   18    1 am 
     2    1   17 1  
     3    1    2 2  
     4   17   16 1  
     5   17    3 1  
     6    3    4 1  
     7    4    5 1  
     8    5    7 ar 
     9    5    6 ar 
    10   16    8 am 
    11    8   10 1  
    12    8    9 2  
    13   10   12 ar 
    14   10   11 ar 
    15   11   13 ar 
    16   13   15 ar 
    17   15   14 ar 
    18   12   14 ar 
    19   18   19 1  
    20   19   22 1  
    21   19   20 1  
    22   20   36 am 
    23   20   21 2  
    24   36   37 1  
    25   37   52 1  
    26   37   38 1  
    27   38   39 1  
    28   39   42 ar 
    29   39   40 ar 
    30   40   41 ar 
    31   41   44 ar 
    32   44   45 1  
    33   44   43 ar 
    34   42   43 ar 
    35   45   48 1  
    36   45   47 1  
    37   45   46 1  
    38   48   51 ar 
    39   48   50 ar 
    40   48   49 ar 
    41   52   54 am 
    42   52   53 2  
    43   22   23 1  
    44   23   26 ar 
    45   23   24 ar 
    46   24   25 ar 
    47   25   28 ar 
    48   28   29 1  
    49   28   27 ar 
    50   27   26 ar 
    51   29   32 1  
    52   29   31 1  
    53   29   30 1  
    54   32   35 ar 
    55   32   34 ar 
    56   32   33 ar 
    57    3   55 1  
    58    3   56 1  
    59    4   57 1  
    60    4   58 1  
    61   11   59 1  
    62   12   60 1  
    63   13   61 1  
    64   14   62 1  
    65   15   63 1  
    66   16   64 1  
    67   17   65 1  
    68   18   66 1  
    69   19   67 1  
    70   22   68 1  
    71   22   69 1  
    72   24   70 1  
    73   25   71 1  
    74   26   72 1  
    75   27   73 1  
    76   36   74 1  
    77   37   75 1  
    78   38   76 1  
    79   38   77 1  
    80   40   78 1  
    81   41   79 1  
    82   42   80 1  
    83   43   81 1  
    84   54   82 1  
    85   54   83 1  
@<TRIPOS>SUBSTRUCTURE
     1 NON         1

