1lqf_ligand
  -I-interpret- 

 88 90  0  0  0  0  0  0  0  0999 V2000
   -4.1750   32.3210   60.3850 C   0  0  0  0  0
   -4.5790   32.1290   59.2190 O   0  0  0  0  0
   -5.0440   31.4080   62.6230 C   0  0  0  0  0
   -6.5620   31.4660   62.2000 C   0  0  0  0  0
   -7.5580   31.1130   63.3370 C   0  0  0  0  0
   -8.1630   30.0130   63.2970 O   0  0  0  0  0
   -7.8090   31.9180   64.2980 O   0  0  0  0  0
   -1.8940   30.3000   60.9030 C   0  0  0  0  0
   -2.4990   29.6610   59.9970 O   0  0  0  0  0
   -0.4210   30.1780   61.0070 C   0  0  0  0  0
    0.3310   29.3020   60.0550 C   0  0  0  0  0
    0.3300   30.9210   62.0160 C   0  0  0  0  0
    1.7940   29.1800   60.1100 C   0  0  0  0  0
    1.7900   30.7950   62.0660 C   0  0  0  0  0
    2.5320   29.9360   61.1240 C   0  0  0  0  0
   -2.6430   31.0870   61.7140 N   0  0  0  0  0
   -4.1010   31.1580   61.3880 C   0  0  0  0  0
   -3.7140   33.5000   60.8670 N   0  0  0  0  0
   -3.6340   34.7610   60.0930 C   0  0  0  0  0
   -2.1750   35.1480   59.9660 C   0  0  0  0  0
   -1.4590   35.0620   60.9240 O   0  0  0  0  0
   -4.2970   35.9620   60.7990 C   0  0  0  0  0
   -5.7720   36.0860   60.6340 C   0  0  0  0  0
   -6.6620   35.4240   61.5880 C   0  0  0  0  0
   -8.1170   35.5270   61.4890 C   0  0  0  0  0
   -6.3470   36.8740   59.5400 C   0  0  0  0  0
   -7.8130   36.9820   59.4310 C   0  0  0  0  0
   -8.7380   36.3130   60.4060 C   0  0  0  0  0
  -10.3460   36.4200   60.3210 C   0  0  0  0  0
  -10.7520   36.3430   58.9690 F   0  0  0  0  0
  -10.9070   35.3010   60.9760 F   0  0  0  0  0
  -11.0420   37.7090   60.9460 P   0  0  0  0  0
  -12.5810   37.4470   61.2010 O   0  0  0  0  0
  -10.3800   38.0580   62.3270 O   0  0  0  0  0
  -10.9070   38.9580   59.9950 O   0  0  0  0  0
   -1.7600   35.5900   58.7990 N   0  0  0  0  0
   -0.3900   36.0210   58.5660 C   0  0  0  0  0
   -0.0190   35.5950   57.0920 C   0  0  0  0  0
    1.3700   35.9700   56.6300 C   0  0  0  0  0
    1.4890   37.1930   55.9040 C   0  0  0  0  0
    2.7520   37.6710   55.4170 C   0  0  0  0  0
    2.5820   35.1700   56.8920 C   0  0  0  0  0
    3.8940   35.6380   56.4000 C   0  0  0  0  0
    3.9860   36.9150   55.6450 C   0  0  0  0  0
    5.3150   37.4930   55.0830 C   0  0  0  0  0
    5.1280   38.8790   54.7980 F   0  0  0  0  0
    6.2230   37.4540   56.0950 F   0  0  0  0  0
    5.9280   36.7280   53.7410 P   0  0  0  0  0
    6.0690   35.2090   53.9850 O   0  0  0  0  0
    5.0410   36.9110   52.4570 O   0  0  0  0  0
    7.3280   37.2630   53.4050 O   0  0  0  0  0
   -0.1750   37.5970   58.7570 C   0  0  0  0  0
    0.9590   38.0170   59.1750 O   0  0  0  0  0
   -1.1100   38.3940   58.4510 N   0  0  0  0  0
   -4.7764   32.3656   63.0696 H   0  0  0  0  0
   -4.9154   30.5834   63.3242 H   0  0  0  0  0
   -6.7027   30.7276   61.4107 H   0  0  0  0  0
   -6.7712   32.4924   61.8985 H   0  0  0  0  0
   -7.2767   32.7105   64.1974 H   0  0  0  0  0
   -0.2208   28.7400   59.3015 H   0  0  0  0  0
   -0.1907   31.5637   62.7258 H   0  0  0  0  0
    2.3222   28.5364   59.4066 H   0  0  0  0  0
    2.3434   31.3526   62.8216 H   0  0  0  0  0
    3.6181   29.8647   61.1821 H   0  0  0  0  0
   -2.2375   31.5988   62.4976 H   0  0  0  0  0
   -4.4610   30.2040   61.0029 H   0  0  0  0  0
   -3.3979   33.5214   61.8365 H   0  0  0  0  0
   -4.1401   34.5680   59.1471 H   0  0  0  0  0
   -3.8634   36.8565   60.3518 H   0  0  0  0  0
   -4.1195   35.8252   61.8657 H   0  0  0  0  0
   -6.2273   34.8365   62.3967 H   0  0  0  0  0
   -8.7469   35.0199   62.2199 H   0  0  0  0  0
   -5.7003   37.3726   58.8180 H   0  0  0  0  0
   -8.2394   37.5667   58.6159 H   0  0  0  0  0
  -13.0097   37.2310   60.3697 H   0  0  0  0  0
  -11.3083   38.7574   59.1463 H   0  0  0  0  0
   -2.4249   35.6323   58.0266 H   0  0  0  0  0
    0.2568   35.5490   59.3055 H   0  0  0  0  0
   -0.7140   36.1188   56.4357 H   0  0  0  0  0
   -0.0698   34.5065   57.0638 H   0  0  0  0  0
    0.5924   37.7828   55.7133 H   0  0  0  0  0
    2.7936   38.6120   54.8685 H   0  0  0  0  0
    2.5093   34.2351   57.4477 H   0  0  0  0  0
    4.7913   35.0490   56.5900 H   0  0  0  0  0
    5.2092   34.8392   54.1986 H   0  0  0  0  0
    4.1551   36.5854   52.6324 H   0  0  0  0  0
   -0.9699   39.4008   58.5349 H   0  0  0  0  0
   -2.0034   38.0292   58.1205 H   0  0  0  0  0
 18  1  1  0  0  0
  1 17  1  0  0  0
  1  2  2  0  0  0
 17 16  1  0  0  0
 17  3  1  0  0  0
  3  4  1  0  0  0
  4  5  1  0  0  0
  5  7  1  0  0  0
  5  6  2  0  0  0
 16  8  1  0  0  0
  8 10  1  0  0  0
  8  9  2  0  0  0
 10 12  4  0  0  0
 10 11  4  0  0  0
 11 13  4  0  0  0
 13 15  4  0  0  0
 15 14  4  0  0  0
 12 14  4  0  0  0
 18 19  1  0  0  0
 19 22  1  0  0  0
 19 20  1  0  0  0
 20 36  1  0  0  0
 20 21  2  0  0  0
 36 37  1  0  0  0
 37 52  1  0  0  0
 37 38  1  0  0  0
 38 39  1  0  0  0
 39 42  4  0  0  0
 39 40  4  0  0  0
 40 41  4  0  0  0
 41 44  4  0  0  0
 44 45  1  0  0  0
 44 43  4  0  0  0
 42 43  4  0  0  0
 45 48  1  0  0  0
 45 47  1  0  0  0
 45 46  1  0  0  0
 48 51  2  0  0  0
 48 50  1  0  0  0
 48 49  1  0  0  0
 52 54  1  0  0  0
 52 53  2  0  0  0
 22 23  1  0  0  0
 23 26  4  0  0  0
 23 24  4  0  0  0
 24 25  4  0  0  0
 25 28  4  0  0  0
 28 29  1  0  0  0
 28 27  4  0  0  0
 27 26  4  0  0  0
 29 32  1  0  0  0
 29 31  1  0  0  0
 29 30  1  0  0  0
 32 35  1  0  0  0
 32 34  2  0  0  0
 32 33  1  0  0  0
  3 55  1  0  0  0
  3 56  1  0  0  0
  4 57  1  0  0  0
  4 58  1  0  0  0
  7 59  1  0  0  0
 11 60  1  0  0  0
 12 61  1  0  0  0
 13 62  1  0  0  0
 14 63  1  0  0  0
 15 64  1  0  0  0
 16 65  1  0  0  0
 17 66  1  0  0  0
 18 67  1  0  0  0
 19 68  1  0  0  0
 22 69  1  0  0  0
 22 70  1  0  0  0
 24 71  1  0  0  0
 25 72  1  0  0  0
 26 73  1  0  0  0
 27 74  1  0  0  0
 33 75  1  0  0  0
 35 76  1  0  0  0
 36 77  1  0  0  0
 37 78  1  0  0  0
 38 79  1  0  0  0
 38 80  1  0  0  0
 40 81  1  0  0  0
 41 82  1  0  0  0
 42 83  1  0  0  0
 43 84  1  0  0  0
 49 85  1  0  0  0
 50 86  1  0  0  0
 54 87  1  0  0  0
 54 88  1  0  0  0
M  END
$$$$
