6oy0_ligand
  -I-interpret- 

 96 99  0  0  0  0  0  0  0  0999 V2000
   71.2310   57.6900   14.9600 C   0  0  0  0  0
   70.8490   58.0460   16.4150 C   0  0  0  0  0
   72.7680   58.6930   17.9530 C   0  0  0  0  0
   74.4840   59.6910   19.4570 C   0  0  0  0  0
   75.9490   60.3190   19.0670 C   0  0  0  0  0
   74.6460   61.9090   20.0140 C   0  0  0  0  0
   72.3030   61.7610   19.7140 C   0  0  0  0  0
   69.4570   58.6830   16.4720 C   0  0  0  0  0
   67.3060   51.3970   13.3160 C   0  0  0  0  0
   68.3970   50.9340   14.3150 C   0  0  0  0  0
   69.0600   51.9760   15.2300 C   0  0  0  0  0
   68.6270   53.4280   15.1350 C   0  0  0  0  0
   67.5520   53.9000   14.1260 C   0  0  0  0  0
   66.8820   52.8510   13.2120 C   0  0  0  0  0
   71.5660   54.3020   14.4930 C   0  0  0  0  0
   70.3370   56.5580   14.4410 C   0  0  0  0  0
   74.0500   60.4890   20.4010 C   0  0  0  0  0
   72.5530   60.6980   20.4380 C   0  0  0  0  0
   69.2260   59.1460   17.9220 C   0  0  0  0  0
   68.8790   58.0910   19.0330 C   0  0  0  0  0
   68.6610   58.5480   20.4720 C   0  0  0  0  0
   68.7800   60.0500   20.8320 C   0  0  0  0  0
   69.1260   61.0960   19.7230 C   0  0  0  0  0
   69.3530   60.6360   18.2760 C   0  0  0  0  0
   65.3480   49.9190   12.9730 C   0  0  0  0  0
   73.7650   52.2850   14.4030 C   0  0  0  0  0
   73.0430   54.6880   14.5940 C   0  0  0  0  0
   73.8880   53.6760   13.8240 C   0  0  0  0  0
   73.4870   54.7640   16.0650 C   0  0  0  0  0
   66.6660   50.3510   12.4070 C   0  0  0  0  0
   70.6940   55.3180   15.1850 N   0  0  0  0  0
   71.7830   59.0090   16.8920 N   0  0  0  0  0
   68.5420   55.6790   16.7140 O   0  0  0  0  0
   70.0250   54.0130   17.4170 O   0  0  0  0  0
   71.0950   58.8240   14.1530 O   0  0  0  0  0
   72.7940   57.6460   18.5170 O   0  0  0  0  0
   73.7050   59.7820   18.2530 O   0  0  0  0  0
   75.6830   61.6130   18.9120 O   0  0  0  0  0
   73.7010   62.6110   19.5730 O   0  0  0  0  0
   66.4990   50.9290   11.1400 O   0  0  0  0  0
   64.7620   49.0050   12.0960 O   0  0  0  0  0
   69.4550   54.6490   16.2110 S   0  0  0  0  0
   72.2668   57.3519   14.9314 H   0  0  0  0  0
   70.8549   57.1364   17.0155 H   0  0  0  0  0
   74.4650   58.6581   19.8045 H   0  0  0  0  0
   76.3815   59.8650   18.1754 H   0  0  0  0  0
   76.7076   60.1298   19.8265 H   0  0  0  0  0
   75.1059   62.4431   20.8455 H   0  0  0  0  0
   71.5350   62.3711   20.1895 H   0  0  0  0  0
   71.9351   61.4710   18.7298 H   0  0  0  0  0
   68.6940   57.9644   16.1728 H   0  0  0  0  0
   69.3931   59.5270   15.7852 H   0  0  0  0  0
   67.1321   52.2599   13.9588 H   0  0  0  0  0
   69.2056   50.5531   13.6911 H   0  0  0  0  0
   67.8854   50.2503   14.9925 H   0  0  0  0  0
   70.1096   51.9780   14.9358 H   0  0  0  0  0
   68.7915   51.6704   16.2412 H   0  0  0  0  0
   67.6107   53.0339   15.1335 H   0  0  0  0  0
   68.0761   54.5734   13.4478 H   0  0  0  0  0
   66.7439   54.2993   14.7389 H   0  0  0  0  0
   65.8320   52.8566   13.5046 H   0  0  0  0  0
   67.1546   53.1489   12.1996 H   0  0  0  0  0
   71.4238   53.3339   14.9733 H   0  0  0  0  0
   71.2866   54.2603   13.4403 H   0  0  0  0  0
   70.4905   56.4149   13.3714 H   0  0  0  0  0
   69.2866   56.8037   14.5971 H   0  0  0  0  0
   74.3390   60.0573   21.3592 H   0  0  0  0  0
   72.0295   59.8273   20.0431 H   0  0  0  0  0
   72.2053   60.8350   21.4619 H   0  0  0  0  0
   68.2237   59.3781   18.2821 H   0  0  0  0  0
   69.7557   57.4450   19.0806 H   0  0  0  0  0
   67.9173   57.6784   18.7280 H   0  0  0  0  0
   69.4611   58.0678   21.0353 H   0  0  0  0  0
   67.6214   58.2979   20.6836 H   0  0  0  0  0
   69.6213   60.0982   21.5233 H   0  0  0  0  0
   67.7812   60.3293   21.1672 H   0  0  0  0  0
   70.0860   61.5108   20.0303 H   0  0  0  0  0
   68.2461   61.7371   19.6698 H   0  0  0  0  0
   68.5619   61.1226   17.7054 H   0  0  0  0  0
   70.3953   60.8797   18.0703 H   0  0  0  0  0
   64.6964   50.7842   13.0958 H   0  0  0  0  0
   65.4982   49.4533   13.9470 H   0  0  0  0  0
   74.1009   52.2934   15.4399 H   0  0  0  0  0
   72.7238   51.9655   14.3596 H   0  0  0  0  0
   74.3820   51.5966   13.8255 H   0  0  0  0  0
   73.1837   55.6753   14.1540 H   0  0  0  0  0
   73.5359   53.6500   12.7928 H   0  0  0  0  0
   74.9321   53.9825   13.8880 H   0  0  0  0  0
   72.8904   55.5135   16.5850 H   0  0  0  0  0
   73.3436   53.7921   16.5372 H   0  0  0  0  0
   74.5405   55.0400   16.1114 H   0  0  0  0  0
   67.2993   49.4671   12.3305 H   0  0  0  0  0
   71.7738   59.9466   16.4905 H   0  0  0  0  0
   71.6595   59.5240   14.4890 H   0  0  0  0  0
   66.0969   50.2891   10.5481 H   0  0  0  0  0
   63.9158   48.7214   12.4496 H   0  0  0  0  0
  1  2  1  0  0  0
 16  1  1  0  0  0
  1 35  1  0  0  0
  2  8  1  0  0  0
  2 32  1  0  0  0
 32  3  1  0  0  0
  3 36  2  0  0  0
  3 37  1  0  0  0
  4  5  1  0  0  0
  4 17  1  0  0  0
 37  4  1  0  0  0
  5 38  1  0  0  0
 17  6  1  0  0  0
  6 38  1  0  0  0
  6 39  1  0  0  0
 18  7  1  0  0  0
  7 39  1  0  0  0
  8 19  1  0  0  0
 10  9  1  0  0  0
 14  9  1  0  0  0
  9 30  1  0  0  0
 11 10  1  0  0  0
 12 11  1  0  0  0
 12 13  1  0  0  0
 42 12  1  0  0  0
 13 14  1  0  0  0
 15 27  1  0  0  0
 31 15  1  0  0  0
 31 16  1  0  0  0
 17 18  1  0  0  0
 19 20  1  0  0  0
 19 24  1  0  0  0
 20 21  1  0  0  0
 21 22  1  0  0  0
 23 22  1  0  0  0
 24 23  1  0  0  0
 30 25  1  0  0  0
 25 41  1  0  0  0
 28 26  1  0  0  0
 27 28  1  0  0  0
 27 29  1  0  0  0
 30 40  1  0  0  0
 31 42  1  0  0  0
 42 33  2  0  0  0
 42 34  2  0  0  0
  1 43  1  0  0  0
  2 44  1  0  0  0
  4 45  1  0  0  0
  5 46  1  0  0  0
  5 47  1  0  0  0
  6 48  1  0  0  0
  7 49  1  0  0  0
  7 50  1  0  0  0
  8 51  1  0  0  0
  8 52  1  0  0  0
  9 53  1  0  0  0
 10 54  1  0  0  0
 10 55  1  0  0  0
 11 56  1  0  0  0
 11 57  1  0  0  0
 12 58  1  0  0  0
 13 59  1  0  0  0
 13 60  1  0  0  0
 14 61  1  0  0  0
 14 62  1  0  0  0
 15 63  1  0  0  0
 15 64  1  0  0  0
 16 65  1  0  0  0
 16 66  1  0  0  0
 17 67  1  0  0  0
 18 68  1  0  0  0
 18 69  1  0  0  0
 19 70  1  0  0  0
 20 71  1  0  0  0
 20 72  1  0  0  0
 21 73  1  0  0  0
 21 74  1  0  0  0
 22 75  1  0  0  0
 22 76  1  0  0  0
 23 77  1  0  0  0
 23 78  1  0  0  0
 24 79  1  0  0  0
 24 80  1  0  0  0
 25 81  1  0  0  0
 25 82  1  0  0  0
 26 83  1  0  0  0
 26 84  1  0  0  0
 26 85  1  0  0  0
 27 86  1  0  0  0
 28 87  1  0  0  0
 28 88  1  0  0  0
 29 89  1  0  0  0
 29 90  1  0  0  0
 29 91  1  0  0  0
 30 92  1  0  0  0
 32 93  1  0  0  0
 35 94  1  0  0  0
 40 95  1  0  0  0
 41 96  1  0  0  0
M  END
$$$$
