### 
### Created by X-TOOL on Mon Aug  2 16:12:52 2021
### 

@<TRIPOS>MOLECULE
6d1j_ligand
   30    31     1     0     0
SMALL
GAST_HUCK


@<TRIPOS>ATOM
      1 C01        50.6880   15.0430   42.2760 C.3       1 MOL        -0.0334
      2 C02        50.4830   14.1020   43.4520 C.ar      1 MOL        -0.0598
      3 C03        51.0560   12.8520   43.4310 C.ar      1 MOL        -0.0662
      4 C04        50.8760   11.9740   44.5080 C.ar      1 MOL        -0.0452
      5 C05        51.5440   10.6240   44.3270 C.3       1 MOL        -0.0313
      6 C06        50.0880   12.4100   45.6250 C.ar      1 MOL         0.0182
      7 C07        49.8170   11.5670   46.7840 C.2       1 MOL        -0.0194
      8 C08        50.2950   10.0830   46.8570 C.3       1 MOL         0.0565
      9 C13        49.0360   12.0910   47.8290 C.2       1 MOL        -0.0071
     10 C14        48.5840   13.4120   47.7550 C.2       1 MOL         0.1862
     11 C17        49.5740   13.6790   45.6400 C.ar      1 MOL         0.0772
     12 C18        49.7730   14.4970   44.5400 C.ar      1 MOL        -0.0382
     13 N16        48.8430   14.1000   46.6760 N.am      1 MOL        -0.2359
     14 O10        49.4920    7.6190   45.9060 O.co2     1 MOL        -0.5604
     15 O11        47.7650    9.0480   47.1810 O.co2     1 MOL        -0.5604
     16 O12        48.4340    9.5800   44.7620 O.co2     1 MOL        -0.5604
     17 O15        47.9680   13.7960   48.6550 O.2       1 MOL        -0.4164
     18 P09        48.9010    9.0720   46.1290 P.3       1 MOL         0.0727
     19 H1         51.2850   14.5382   41.5022 H         1 MOL         0.0399
     20 H2         51.2168   15.9455   42.6164 H         1 MOL         0.0399
     21 H3         49.7106   15.3262   41.8583 H         1 MOL         0.0399
     22 H4         51.6495   12.5447   42.5775 H         1 MOL         0.0401
     23 H5         52.0738   10.6034   43.3632 H         1 MOL         0.0405
     24 H6         50.7807    9.8321   44.3428 H         1 MOL         0.0405
     25 H7         52.2619   10.4577   45.1436 H         1 MOL         0.0405
     26 H8         50.4782    9.7892   47.9011 H         1 MOL         0.0650
     27 H9         51.2156    9.9465   46.2706 H         1 MOL         0.0650
     28 H10        48.7850   11.4727   48.6896 H         1 MOL         0.0364
     29 H11        49.3446   15.4927   44.5480 H         1 MOL         0.0401
     30 H12        48.4609   15.0224   46.6202 H         1 MOL         0.2354
@<TRIPOS>BOND
     1    1    2 1  
     2    2    3 ar 
     3    2   12 ar 
     4    3    4 ar 
     5    4    5 1  
     6    4    6 ar 
     7    6    7 1  
     8    6   11 ar 
     9    7    8 1  
    10    7    9 2  
    11    8   18 1  
    12    9   10 1  
    13   10   13 am 
    14   10   17 2  
    15   11   12 ar 
    16   11   13 1  
    17   18   14 ar 
    18   18   15 ar 
    19   18   16 ar 
    20    1   19 1  
    21    1   20 1  
    22    1   21 1  
    23    3   22 1  
    24    5   23 1  
    25    5   24 1  
    26    5   25 1  
    27    8   26 1  
    28    8   27 1  
    29    9   28 1  
    30   12   29 1  
    31   13   30 1  
@<TRIPOS>SUBSTRUCTURE
     1 MOL         1

