6d1j_ligand
  -I-interpret- 

 32 33  0  0  0  0  0  0  0  0999 V2000
   50.6880   15.0430   42.2760 C   0  0  0  0  0
   50.4830   14.1020   43.4520 C   0  0  0  0  0
   51.0560   12.8520   43.4310 C   0  0  0  0  0
   50.8760   11.9740   44.5080 C   0  0  0  0  0
   51.5440   10.6240   44.3270 C   0  0  0  0  0
   50.0880   12.4100   45.6250 C   0  0  0  0  0
   49.8170   11.5670   46.7840 C   0  0  0  0  0
   50.2950   10.0830   46.8570 C   0  0  0  0  0
   49.0360   12.0910   47.8290 C   0  0  0  0  0
   48.5840   13.4120   47.7550 C   0  0  0  0  0
   49.5740   13.6790   45.6400 C   0  0  0  0  0
   49.7730   14.4970   44.5400 C   0  0  0  0  0
   48.8430   14.1000   46.6760 N   0  0  0  0  0
   49.4920    7.6190   45.9060 O   0  0  0  0  0
   47.7650    9.0480   47.1810 O   0  0  0  0  0
   48.4340    9.5800   44.7620 O   0  0  0  0  0
   47.9680   13.7960   48.6550 O   0  0  0  0  0
   48.9010    9.0720   46.1290 P   0  0  0  0  0
   51.7529   15.2388   42.1503 H   0  0  0  0  0
   50.2926   14.5825   41.3706 H   0  0  0  0  0
   50.1650   15.9801   42.4667 H   0  0  0  0  0
   51.6528   12.5430   42.5728 H   0  0  0  0  0
   51.1369   10.1343   43.4424 H   0  0  0  0  0
   52.6178   10.7650   44.2040 H   0  0  0  0  0
   51.3555   10.0062   45.2050 H   0  0  0  0  0
   50.5121    9.7835   47.8823 H   0  0  0  0  0
   51.2245    9.9355   46.3071 H   0  0  0  0  0
   48.7848   11.4721   48.6904 H   0  0  0  0  0
   49.3422   15.4982   44.5481 H   0  0  0  0  0
   48.4533   15.0409   46.6190 H   0  0  0  0  0
   49.7965    7.2663   46.7454 H   0  0  0  0  0
   48.1102    8.7231   48.0158 H   0  0  0  0  0
  1  2  1  0  0  0
  2  3  4  0  0  0
  2 12  4  0  0  0
  3  4  4  0  0  0
  4  5  1  0  0  0
  4  6  4  0  0  0
  6  7  1  0  0  0
  6 11  4  0  0  0
  7  8  1  0  0  0
  7  9  2  0  0  0
  8 18  1  0  0  0
  9 10  1  0  0  0
 10 13  1  0  0  0
 10 17  2  0  0  0
 11 12  4  0  0  0
 11 13  1  0  0  0
 18 14  1  0  0  0
 18 15  1  0  0  0
 18 16  2  0  0  0
  1 19  1  0  0  0
  1 20  1  0  0  0
  1 21  1  0  0  0
  3 22  1  0  0  0
  5 23  1  0  0  0
  5 24  1  0  0  0
  5 25  1  0  0  0
  8 26  1  0  0  0
  8 27  1  0  0  0
  9 28  1  0  0  0
 12 29  1  0  0  0
 13 30  1  0  0  0
 14 31  1  0  0  0
 15 32  1  0  0  0
M  END
$$$$
