4qvv_ligand
  -I-interpret- 

 53 54  0  0  0  0  0  0  0  0999 V2000
   62.7740 -133.2110   36.0180 N   0  0  0  0  0
   62.0790 -134.3540   36.1670 C   0  0  0  0  0
   61.9550 -135.2470   35.1010 C   0  0  0  0  0
   62.5580 -134.9480   33.8690 N   0  0  0  0  0
   63.2800 -133.7550   33.7220 C   0  0  0  0  0
   63.3860 -132.8810   34.7980 C   0  0  0  0  0
   61.4980 -134.6290   37.4040 C   0  0  0  0  0
   60.6550 -133.8730   37.8850 O   0  0  0  0  0
   61.9460 -135.7390   38.0130 N   0  0  0  0  0
   61.4770 -136.1430   39.3470 C   0  0  0  0  0
   60.7750 -137.4790   39.3030 C   0  0  0  0  0
   59.5630 -137.3100   38.6120 C   0  0  0  0  0
   59.3450 -137.9550   37.3900 C   0  0  0  0  0
   58.1370 -137.7940   36.7090 C   0  0  0  0  0
   57.1320 -136.9910   37.2440 C   0  0  0  0  0
   57.3420 -136.3500   38.4630 C   0  0  0  0  0
   58.5480 -136.5120   39.1460 C   0  0  0  0  0
   62.7210 -136.2880   40.2200 C   0  0  0  0  0
   63.7740 -136.6800   39.7180 O   0  0  0  0  0
   62.5800 -135.9450   41.5150 N   0  0  0  0  0
   63.7210 -136.0440   42.4510 C   0  0  0  0  0
   64.0840 -134.7320   43.1260 C   0  0  0  0  0
   63.8060 -133.5310   42.1860 C   0  0  0  0  0
   63.0150 -132.4580   42.9570 C   0  0  0  0  0
   65.1150 -132.9400   41.6290 C   0  0  0  0  0
   63.4070 -137.0650   43.5630 B   0  0  0  0  0
   62.1830 -136.7140   44.2260 O   0  0  0  0  0
   63.2850 -138.3790   43.0030 O   0  0  0  0  0
   61.3924 -136.1724   35.2248 H   0  0  0  0  0
   63.7548 -133.5145   32.7708 H   0  0  0  0  0
   63.9394 -131.9476   34.6955 H   0  0  0  0  0
   62.6339 -136.3207   37.5347 H   0  0  0  0  0
   60.7746 -135.4025   39.7297 H   0  0  0  0  0
   60.5850 -137.8381   40.3144 H   0  0  0  0  0
   61.3983 -138.2154   38.7957 H   0  0  0  0  0
   60.1244 -138.5883   36.9662 H   0  0  0  0  0
   57.9796 -138.2982   35.7555 H   0  0  0  0  0
   56.1885 -136.8652   36.7128 H   0  0  0  0  0
   56.5602 -135.7187   38.8854 H   0  0  0  0  0
   58.6993 -136.0125   40.1029 H   0  0  0  0  0
   61.6768 -135.6135   41.8537 H   0  0  0  0  0
   64.5680 -136.3526   41.8382 H   0  0  0  0  0
   65.1458 -134.7463   43.3719 H   0  0  0  0  0
   63.4781 -134.6210   44.0252 H   0  0  0  0  0
   63.2186 -133.8794   41.3365 H   0  0  0  0  0
   62.0710 -132.8811   43.3004 H   0  0  0  0  0
   63.5987 -132.1246   43.8150 H   0  0  0  0  0
   62.8174 -131.6115   42.2994 H   0  0  0  0  0
   65.7378 -132.5970   42.4552 H   0  0  0  0  0
   65.6470 -133.7061   41.0650 H   0  0  0  0  0
   64.8832 -132.1001   40.9741 H   0  0  0  0  0
   61.9983 -137.3561   44.9153 H   0  0  0  0  0
   63.0897 -139.0069   43.7025 H   0  0  0  0  0
  1  2  4  0  0  0
  1  6  4  0  0  0
  2  3  4  0  0  0
  2  7  1  0  0  0
  3  4  4  0  0  0
  4  5  4  0  0  0
  5  6  4  0  0  0
  7  8  2  0  0  0
  7  9  1  0  0  0
  9 10  1  0  0  0
 10 11  1  0  0  0
 10 18  1  0  0  0
 11 12  1  0  0  0
 12 13  4  0  0  0
 12 17  4  0  0  0
 13 14  4  0  0  0
 14 15  4  0  0  0
 15 16  4  0  0  0
 16 17  4  0  0  0
 18 19  2  0  0  0
 18 20  1  0  0  0
 20 21  1  0  0  0
 21 22  1  0  0  0
 21 26  1  0  0  0
 22 23  1  0  0  0
 23 24  1  0  0  0
 23 25  1  0  0  0
 26 27  1  0  0  0
 26 28  1  0  0  0
  3 29  1  0  0  0
  5 30  1  0  0  0
  6 31  1  0  0  0
  9 32  1  0  0  0
 10 33  1  0  0  0
 11 34  1  0  0  0
 11 35  1  0  0  0
 13 36  1  0  0  0
 14 37  1  0  0  0
 15 38  1  0  0  0
 16 39  1  0  0  0
 17 40  1  0  0  0
 20 41  1  0  0  0
 21 42  1  0  0  0
 22 43  1  0  0  0
 22 44  1  0  0  0
 23 45  1  0  0  0
 24 46  1  0  0  0
 24 47  1  0  0  0
 24 48  1  0  0  0
 25 49  1  0  0  0
 25 50  1  0  0  0
 25 51  1  0  0  0
 27 52  1  0  0  0
 28 53  1  0  0  0
M  END
$$$$
