### 
### Created by X-TOOL on Mon Sep 10 21:13:24 2018
### 

@<TRIPOS>MOLECULE
4qvv_ligand
   53    54     1     0     0
SMALL
GAST_HUCK


@<TRIPOS>ATOM
      1 N1         62.7740 -133.2110   36.0180 N.ar      1 BO2        -0.2509
      2 C2         62.0790 -134.3540   36.1670 C.ar      1 BO2         0.1532
      3 C3         61.9550 -135.2470   35.1010 C.ar      1 BO2         0.0620
      4 N4         62.5580 -134.9480   33.8690 N.ar      1 BO2        -0.2653
      5 C5         63.2800 -133.7550   33.7220 C.ar      1 BO2         0.0462
      6 C6         63.3860 -132.8810   34.7980 C.ar      1 BO2         0.0475
      7 C7         61.4980 -134.6290   37.4040 C.2       1 BO2         0.2349
      8 O8         60.6550 -133.8730   37.8850 O.2       1 BO2        -0.3755
      9 N9         61.9460 -135.7390   38.0130 N.am      1 BO2        -0.2600
     10 C10        61.4770 -136.1430   39.3470 C.3       1 BO2         0.1378
     11 C11        60.7750 -137.4790   39.3030 C.3       1 BO2         0.0213
     12 C12        59.5630 -137.3100   38.6120 C.ar      1 BO2        -0.0385
     13 C13        59.3450 -137.9550   37.3900 C.ar      1 BO2        -0.0601
     14 C14        58.1370 -137.7940   36.7090 C.ar      1 BO2        -0.0686
     15 C15        57.1320 -136.9910   37.2440 C.ar      1 BO2        -0.0687
     16 C16        57.3420 -136.3500   38.4630 C.ar      1 BO2        -0.0686
     17 C17        58.5480 -136.5120   39.1460 C.ar      1 BO2        -0.0601
     18 C18        62.7210 -136.2880   40.2200 C.2       1 BO2         0.1755
     19 O19        63.7740 -136.6800   39.7180 O.2       1 BO2        -0.3969
     20 N20        62.5800 -135.9450   41.5150 N.am      1 BO2        -0.4361
     21 C21        63.7210 -136.0440   42.4510 C.3       1 BO2        -0.2261
     22 C22        64.0840 -134.7320   43.1260 C.3       1 BO2        -0.1585
     23 C23        63.8060 -133.5310   42.1860 C.3       1 BO2        -0.0721
     24 C24        63.0150 -132.4580   42.9570 C.3       1 BO2        -0.0649
     25 C25        65.1150 -132.9400   41.6290 C.3       1 BO2        -0.0649
     26 B26        63.4070 -137.0650   43.5630 B         1 BO2         3.0000
     27 O27        62.1830 -136.7140   44.2260 O.3       1 BO2        -0.8710
     28 O28        63.2850 -138.3790   43.0030 O.3       1 BO2        -0.8710
     29 H          61.3955 -136.1673   35.2241 H         1 BO2         0.0978
     30 H          63.7522 -133.5158   32.7760 H         1 BO2         0.0958
     31 H          63.9364 -131.9527   34.6960 H         1 BO2         0.0941
     32 H          62.6204 -136.3093   37.5441 H         1 BO2         0.1883
     33 H          60.7995 -135.3795   39.7570 H         1 BO2         0.0823
     34 H          60.5755 -137.8298   40.3263 H         1 BO2         0.0474
     35 H          61.4038 -138.2141   38.7794 H         1 BO2         0.0474
     36 H          60.1201 -138.5848   36.9685 H         1 BO2         0.0557
     37 H          57.9804 -138.2954   35.7608 H         1 BO2         0.0599
     38 H          56.1937 -136.8659   36.7158 H         1 BO2         0.0559
     39 H          56.5645 -135.7222   38.8831 H         1 BO2         0.0599
     40 H          58.6985 -136.0152   40.0976 H         1 BO2         0.0557
     41 H          61.6945 -135.6200   41.8471 H         1 BO2         0.1459
     42 H          64.5984 -136.3985   41.8902 H         1 BO2        -0.1822
     43 H          65.1524 -134.7449   43.3874 H         1 BO2        -0.0063
     44 H          63.4839 -134.6196   44.0410 H         1 BO2        -0.0063
     45 H          63.1964 -133.8810   41.3399 H         1 BO2         0.0272
     46 H          62.8150 -131.6031   42.2943 H         1 BO2         0.0232
     47 H          63.6031 -132.1207   43.8232 H         1 BO2         0.0232
     48 H          62.0620 -132.8837   43.3041 H         1 BO2         0.0232
     49 H          65.6658 -133.7196   41.0823 H         1 BO2         0.0232
     50 H          65.7327 -132.5691   42.4601 H         1 BO2         0.0232
     51 H          64.8812 -132.1094   40.9468 H         1 BO2         0.0232
     52 H          62.0088 -137.3400   44.9191 H         1 BO2        -0.1290
     53 H          63.1094 -139.0030   43.6975 H         1 BO2        -0.1290
@<TRIPOS>BOND
     1    1    2 ar 
     2    1    6 ar 
     3    2    3 ar 
     4    2    7 1  
     5    3    4 ar 
     6    4    5 ar 
     7    5    6 ar 
     8    7    8 2  
     9    7    9 am 
    10    9   10 1  
    11   10   11 1  
    12   10   18 1  
    13   11   12 1  
    14   12   13 ar 
    15   12   17 ar 
    16   13   14 ar 
    17   14   15 ar 
    18   15   16 ar 
    19   16   17 ar 
    20   18   19 2  
    21   18   20 am 
    22   20   21 1  
    23   21   22 1  
    24   21   26 1  
    25   22   23 1  
    26   23   24 1  
    27   23   25 1  
    28   26   27 1  
    29   26   28 1  
    30    3   29 1  
    31    5   30 1  
    32    6   31 1  
    33    9   32 1  
    34   10   33 1  
    35   11   34 1  
    36   11   35 1  
    37   13   36 1  
    38   14   37 1  
    39   15   38 1  
    40   16   39 1  
    41   17   40 1  
    42   20   41 1  
    43   21   42 1  
    44   22   43 1  
    45   22   44 1  
    46   23   45 1  
    47   24   46 1  
    48   24   47 1  
    49   24   48 1  
    50   25   49 1  
    51   25   50 1  
    52   25   51 1  
    53   27   52 1  
    54   28   53 1  
@<TRIPOS>SUBSTRUCTURE
     1 BO2         1

