1hte_ligand
  -I-interpret- 

 59 61  0  0  0  0  0  0  0  0999 V2000
   10.1920   24.9880    3.7440 C   0  0  0  0  0
    7.8080   25.2740    3.4000 C   0  0  0  0  0
    7.1780   26.6710    3.5200 C   0  0  0  0  0
    5.8860   26.6480    2.6950 C   0  0  0  0  0
   10.0070   22.6620    2.5350 C   0  0  0  0  0
   11.1020   24.4610    1.3860 C   0  0  0  0  0
   11.1000   24.5730    4.8930 C   0  0  0  0  0
   10.0200   24.1590    2.4700 C   0  0  0  0  0
    4.9710   27.3210    0.5510 C   0  0  0  0  0
    7.5400   28.0510    5.7240 C   0  0  0  0  0
    7.1050   27.8090    7.1440 C   0  0  0  0  0
    9.1040   26.6490    8.0980 C   0  0  0  0  0
    8.3670   27.8260    7.9640 C   0  0  0  0  0
    8.7830   28.9400    8.6130 C   0  0  0  0  0
    9.9310   28.9340    9.3770 C   0  0  0  0  0
   10.6830   27.8300    9.4780 C   0  0  0  0  0
   10.2370   26.6550    8.8220 C   0  0  0  0  0
    7.4980   27.7670   -2.2250 C   0  0  0  0  0
    6.8100   28.4130   -3.2140 C   0  0  0  0  0
    5.5020   28.7160   -2.9810 C   0  0  0  0  0
    4.9240   28.3680   -1.7850 C   0  0  0  0  0
    5.5690   27.7170   -0.8010 C   0  0  0  0  0
    6.9150   27.4160   -1.0560 C   0  0  0  0  0
    8.8810   25.1710    4.3360 N   0  3  0  0  0
    7.0600   27.0320    4.9260 N   0  0  0  0  0
    6.0240   27.2380    1.5070 N   0  0  0  0  0
    4.8750   26.0970    3.0410 O   0  0  0  0  0
    8.2430   29.0150    5.4800 O   0  0  0  0  0
   10.8830   23.5290    5.4860 O   0  0  0  0  0
   11.9750   25.3320    5.3230 O   0  0  0  0  0
    8.4580   24.8950    1.7720 S   0  0  0  0  0
   10.7174   25.8491    3.3309 H   0  0  0  0  0
    7.0065   24.5623    3.5981 H   0  0  0  0  0
    7.7881   27.4735    3.1054 H   0  0  0  0  0
    9.1829   22.3343    3.1687 H   0  0  0  0  0
    9.8783   22.2571    1.5312 H   0  0  0  0  0
   10.9503   22.3095    2.9522 H   0  0  0  0  0
   10.8128   23.9923    0.4454 H   0  0  0  0  0
   11.1836   25.5389    1.2464 H   0  0  0  0  0
   12.0624   24.0619    1.7121 H   0  0  0  0  0
    4.4693   26.3570    0.4668 H   0  0  0  0  0
    4.2411   28.0665    0.8666 H   0  0  0  0  0
    6.5791   26.8594    7.2427 H   0  0  0  0  0
    6.4018   28.5710    7.4801 H   0  0  0  0  0
    8.7637   25.7309    7.6191 H   0  0  0  0  0
    8.2000   29.8572    8.5298 H   0  0  0  0  0
   10.2303   29.8391    9.9055 H   0  0  0  0  0
   11.6117   27.8350   10.0485 H   0  0  0  0  0
   10.8232   25.7399    8.9061 H   0  0  0  0  0
    8.5494   27.5272   -2.3834 H   0  0  0  0  0
    7.2909   28.6765   -4.1560 H   0  0  0  0  0
    4.9166   29.2328   -3.7414 H   0  0  0  0  0
    3.8797   28.6355   -1.6236 H   0  0  0  0  0
    7.5001   26.8913   -0.3007 H   0  0  0  0  0
    8.9096   26.0513    4.8505 H   0  0  0  0  0
    8.6969   24.3459    4.9067 H   0  0  0  0  0
    6.4829   26.3720    5.4473 H   0  0  0  0  0
    6.9270   27.6497    1.2715 H   0  0  0  0  0
   12.0315   26.1061    4.7580 H   0  0  0  0  0
  1  7  1  0  0  0
  8  1  1  0  0  0
 24  1  1  0  0  0
  3  2  1  0  0  0
  2 24  1  0  0  0
  2 31  1  0  0  0
  4  3  1  0  0  0
  3 25  1  0  0  0
 26  4  1  0  0  0
  4 27  2  0  0  0
  8  5  1  0  0  0
  8  6  1  0  0  0
  7 29  2  0  0  0
  7 30  1  0  0  0
 31  8  1  0  0  0
 22  9  1  0  0  0
  9 26  1  0  0  0
 10 11  1  0  0  0
 25 10  1  0  0  0
 10 28  2  0  0  0
 11 13  1  0  0  0
 13 12  4  0  0  0
 12 17  4  0  0  0
 13 14  4  0  0  0
 14 15  4  0  0  0
 15 16  4  0  0  0
 17 16  4  0  0  0
 19 18  4  0  0  0
 18 23  4  0  0  0
 20 19  4  0  0  0
 21 20  4  0  0  0
 21 22  4  0  0  0
 22 23  4  0  0  0
  1 32  1  0  0  0
  2 33  1  0  0  0
  3 34  1  0  0  0
  5 35  1  0  0  0
  5 36  1  0  0  0
  5 37  1  0  0  0
  6 38  1  0  0  0
  6 39  1  0  0  0
  6 40  1  0  0  0
  9 41  1  0  0  0
  9 42  1  0  0  0
 11 43  1  0  0  0
 11 44  1  0  0  0
 12 45  1  0  0  0
 14 46  1  0  0  0
 15 47  1  0  0  0
 16 48  1  0  0  0
 17 49  1  0  0  0
 18 50  1  0  0  0
 19 51  1  0  0  0
 20 52  1  0  0  0
 21 53  1  0  0  0
 23 54  1  0  0  0
 24 55  1  0  0  0
 24 56  1  0  0  0
 25 57  1  0  0  0
 26 58  1  0  0  0
 30 59  1  0  0  0
M  END
$$$$
