1jt1_ligand
  -I-interpret- 

 29 29  0  0  0  0  0  0  0  0999 V2000
    5.3330   -5.8560   21.0830 O   0  0  0  0  0
    5.5950   -6.0160   19.8710 C   0  0  0  0  0
    4.7630   -6.2200   18.9810 O   0  0  0  0  0
    7.0410   -6.1420   19.4860 C   0  0  0  0  0
    7.2810   -7.4370   18.7230 C   0  0  0  0  0
    8.5890   -7.1950   18.0110 C   0  0  0  0  0
    8.4920   -5.7250   17.6040 C   0  0  0  0  0
    7.8740   -5.0940   18.7700 N   0  0  0  0  0
    7.8930   -3.7300   18.9410 C   0  0  0  0  0
    6.9850   -3.1660   19.5260 O   0  0  0  0  0
    9.0070   -2.9050   18.1980 C   0  0  0  0  0
    8.6750   -2.6310   16.7600 C   0  0  0  0  0
    9.4530   -1.6280   18.9340 C   0  0  0  0  0
   11.1410   -1.0070   18.4700 S   0  0  0  0  0
    6.1484   -5.7140   21.5695 H   0  0  0  0  0
    7.4066   -6.0329   20.5070 H   0  0  0  0  0
    6.4693   -7.6703   18.0339 H   0  0  0  0  0
    7.3196   -8.3059   19.3800 H   0  0  0  0  0
    8.7361   -7.8601   17.1601 H   0  0  0  0  0
    9.4560   -7.4034   18.6378 H   0  0  0  0  0
    7.9136   -5.5791   16.6917 H   0  0  0  0  0
    9.4617   -5.2927   17.3572 H   0  0  0  0  0
    9.8741   -3.5653   18.2084 H   0  0  0  0  0
    8.5536   -3.5757   16.2301 H   0  0  0  0  0
    7.7480   -2.0603   16.7048 H   0  0  0  0  0
    9.4831   -2.0587   16.3045 H   0  0  0  0  0
    9.4873   -1.8715   19.9959 H   0  0  0  0  0
    8.7439   -0.8450   18.6653 H   0  0  0  0  0
   11.4138    0.0929   19.1661 H   0  0  0  0  0
  1  2  1  0  0  0
  2  3  2  0  0  0
  2  4  1  0  0  0
  4  5  1  0  0  0
  4  8  1  0  0  0
  5  6  1  0  0  0
  6  7  1  0  0  0
  7  8  1  0  0  0
  8  9  1  0  0  0
  9 10  2  0  0  0
  9 11  1  0  0  0
 11 12  1  0  0  0
 11 13  1  0  0  0
 13 14  1  0  0  0
  1 15  1  0  0  0
  4 16  1  0  0  0
  5 17  1  0  0  0
  5 18  1  0  0  0
  6 19  1  0  0  0
  6 20  1  0  0  0
  7 21  1  0  0  0
  7 22  1  0  0  0
 11 23  1  0  0  0
 12 24  1  0  0  0
 12 25  1  0  0  0
 12 26  1  0  0  0
 13 27  1  0  0  0
 13 28  1  0  0  0
 14 29  1  0  0  0
M  END
$$$$
