2hds_ligand
  -I-interpret- 

 23 23  0  0  0  0  0  0  0  0999 V2000
   27.3900    9.1420   20.1840 C   0  0  0  0  0
   29.2650   10.3480   21.0530 C   0  0  0  0  0
   25.6570   10.2090   18.9640 N   0  0  0  0  0
   26.8580   10.2810   19.6600 C   0  0  0  0  0
   28.6120    9.1760   20.8460 C   0  0  0  0  0
   30.5540   10.4580   21.7800 C   0  0  0  0  0
   28.7150   11.5380   20.5230 C   0  0  0  0  0
   24.1780   12.1270   20.0940 C   0  0  0  0  0
   27.5350   11.4980   19.7960 C   0  0  0  0  0
   31.1890    9.3810   22.0130 O   0  0  0  0  0
   31.0120   11.5810   22.1260 O   0  0  0  0  0
   24.6950   11.4380   18.5990 S   0  0  0  0  0
   25.4200   12.4650   17.9240 O   0  0  0  0  0
   23.5570   10.8780   17.9000 O   0  0  0  0  0
   26.8544    8.1980   20.0837 H   0  0  0  0  0
   25.3587    9.2837   18.6554 H   0  0  0  0  0
   29.0532    8.2461   21.2048 H   0  0  0  0  0
   29.2203   12.4899   20.6865 H   0  0  0  0  0
   25.0496   12.4386   20.6696 H   0  0  0  0  0
   23.5447   12.9914   19.8945 H   0  0  0  0  0
   23.6142   11.3847   20.6590 H   0  0  0  0  0
   27.1395   12.4036   19.3360 H   0  0  0  0  0
   30.6855    8.6352   21.6784 H   0  0  0  0  0
  1  4  4  0  0  0
  1  5  4  0  0  0
  5  2  4  0  0  0
  2  6  1  0  0  0
  2  7  4  0  0  0
  4  3  1  0  0  0
  3 12  1  0  0  0
  4  9  4  0  0  0
  6 10  1  0  0  0
  6 11  2  0  0  0
  7  9  4  0  0  0
 12  8  1  0  0  0
 12 13  2  0  0  0
 12 14  2  0  0  0
  1 15  1  0  0  0
  3 16  1  0  0  0
  5 17  1  0  0  0
  7 18  1  0  0  0
  8 19  1  0  0  0
  8 20  1  0  0  0
  8 21  1  0  0  0
  9 22  1  0  0  0
 10 23  1  0  0  0
M  END
$$$$
