1uyk_ligand
  -I-interpret- 

 43 46  0  0  0  0  0  0  0  0999 V2000
    5.3940    7.6590   24.4680 C   0  0  0  0  0
    4.0100    7.1350   24.8390 C   0  0  0  0  0
    3.3890    7.7240   26.1230 C   0  0  0  0  0
    3.2200    9.2470   26.2410 C   0  0  0  0  0
    2.0930    9.8900   25.5500 N   0  0  0  0  0
    0.8250   10.0070   26.0520 C   0  0  0  0  0
    0.3140    9.5400   27.2570 N   0  0  0  0  0
   -0.9760    9.6780   27.6180 C   0  0  0  0  0
   -1.7200   10.3440   26.6920 N   0  0  0  0  0
    0.0060   10.6760   25.1210 C   0  0  0  0  0
   -1.3120   10.8640   25.4670 C   0  0  0  0  0
   -2.1950   11.5520   24.6520 N   0  0  0  0  0
    0.7570   10.9790   24.0390 N   0  0  0  0  0
    2.0730   10.5310   24.2650 C   0  0  0  0  0
    3.3060   10.7450   23.2830 C   0  0  0  0  0
    4.1450   11.9080   23.7980 C   0  0  0  0  0
    3.5400   13.0490   24.3440 C   0  0  0  0  0
    4.4210   14.0360   24.8000 C   0  0  0  0  0
    5.5280   11.7650   23.7620 C   0  0  0  0  0
    4.1730   15.2730   25.3690 O   0  0  0  0  0
    6.4250   12.7800   24.2490 C   0  0  0  0  0
    5.7770   13.9010   24.7390 C   0  0  0  0  0
    6.3090   14.9930   25.2870 O   0  0  0  0  0
    5.3560   15.8990   25.8170 C   0  0  0  0  0
   -1.8330    9.3920   29.0180 F   0  0  0  0  0
    5.3440    8.7371   24.3153 H   0  0  0  0  0
    6.0933    7.4370   25.2741 H   0  0  0  0  0
    5.7300    7.1760   23.5504 H   0  0  0  0  0
    4.1236    6.0654   25.0154 H   0  0  0  0  0
    3.3463    7.4142   24.0207 H   0  0  0  0  0
    4.0849    7.4571   26.9184 H   0  0  0  0  0
    2.3743    7.3268   26.1509 H   0  0  0  0  0
    4.1125    9.6670   25.7772 H   0  0  0  0  0
    3.0433    9.4303   27.3008 H   0  0  0  0  0
   -3.1626   11.6849   24.9460 H   0  0  0  0  0
   -1.8778   11.9260   23.7576 H   0  0  0  0  0
    2.9452   10.9653   22.2783 H   0  0  0  0  0
    3.9115    9.8394   23.2464 H   0  0  0  0  0
    2.4576   13.1596   24.4088 H   0  0  0  0  0
    5.9491   10.8484   23.3488 H   0  0  0  0  0
    7.5099   12.6760   24.2335 H   0  0  0  0  0
    5.4153   16.0457   26.8955 H   0  0  0  0  0
    5.4776   16.9323   25.4920 H   0  0  0  0  0
  1  2  1  0  0  0
  2  3  1  0  0  0
  3  4  1  0  0  0
  4  5  1  0  0  0
  5  6  4  0  0  0
  5 14  4  0  0  0
  6  7  4  0  0  0
  6 10  4  0  0  0
  7  8  4  0  0  0
  8  9  4  0  0  0
  8 25  1  0  0  0
  9 11  4  0  0  0
 10 11  4  0  0  0
 10 13  4  0  0  0
 11 12  1  0  0  0
 13 14  4  0  0  0
 14 15  1  0  0  0
 15 16  1  0  0  0
 16 17  4  0  0  0
 16 19  4  0  0  0
 17 18  4  0  0  0
 18 20  1  0  0  0
 18 22  4  0  0  0
 19 21  4  0  0  0
 20 24  1  0  0  0
 21 22  4  0  0  0
 22 23  1  0  0  0
 23 24  1  0  0  0
  1 26  1  0  0  0
  1 27  1  0  0  0
  1 28  1  0  0  0
  2 29  1  0  0  0
  2 30  1  0  0  0
  3 31  1  0  0  0
  3 32  1  0  0  0
  4 33  1  0  0  0
  4 34  1  0  0  0
 12 35  1  0  0  0
 12 36  1  0  0  0
 15 37  1  0  0  0
 15 38  1  0  0  0
 17 39  1  0  0  0
 19 40  1  0  0  0
 21 41  1  0  0  0
 24 42  1  0  0  0
 24 43  1  0  0  0
M  END
$$$$
