5vc3_ligand
  -I-interpret- 

 67 70  0  0  0  0  0  0  0  0999 V2000
   -4.3080    6.5080    7.7090 C   0  0  0  0  0
    1.8900    1.3030   10.4770 O   0  0  0  0  0
   -9.1860    8.9860    9.8210 C   0  0  0  0  0
   -2.0910    1.0240   14.0470 N   0  0  0  0  0
    1.2430   -1.5040   10.9970 Cl  0  0  0  0  0
   -3.8580    0.0970   11.3290 Cl  0  0  0  0  0
   -2.7270    1.8920   13.6470 C   0  0  0  0  0
   -4.2850    3.4860   14.1470 C   0  0  0  0  0
   -1.2550   -0.5520   11.1310 C   0  0  0  0  0
   -0.4230    2.0860   10.6310 C   0  0  0  0  0
   -5.9960    6.0940   12.2830 C   0  0  0  0  0
   -4.4130    5.0170   10.2200 C   0  0  0  0  0
   -8.4450    9.4620   11.0990 C   0  0  0  0  0
   -7.6330    8.3290   11.7710 C   0  0  0  0  0
  -13.0820   12.7040    7.7830 C   0  0  0  0  0
   -9.7440   10.8330    8.1880 C   0  0  0  0  0
  -11.5470    9.4200    9.0480 C   0  0  0  0  0
  -10.7240   12.0110    7.9800 C   0  0  0  0  0
  -12.5640   10.5780    8.9160 C   0  0  0  0  0
   -5.0840    4.5160   13.8030 N   0  0  0  0  0
   -2.6940    2.8410   10.7980 N   0  0  0  0  0
   -5.3820    6.6650    8.6830 O   0  0  0  0  0
   -6.9030    7.6830   10.7100 O   0  0  0  0  0
    0.5460    1.0630   10.6750 C   0  0  0  0  0
    0.1120   -0.2540   10.9260 C   0  0  0  0  0
   -2.2150    0.4780   11.0760 C   0  0  0  0  0
   -3.4520    2.8780   13.1840 C   0  0  0  0  0
   -1.7950    1.8110   10.8340 C   0  0  0  0  0
   -5.2730    6.1020    9.9440 C   0  0  0  0  0
   -6.0690    6.6310   10.9880 C   0  0  0  0  0
   -3.4660    3.3640   11.8280 C   0  0  0  0  0
   -5.1350    5.0150   12.5500 C   0  0  0  0  0
   -4.3260    4.4590   11.5190 C   0  0  0  0  0
  -10.1930    9.9810    9.3300 N   0  3  0  0  0
  -12.1440   11.5520    7.8620 N   0  3  0  0  0
    2.3240    2.5830    9.9560 C   0  0  0  0  0
   -3.3908    6.9407    8.1085 H   0  0  0  0  0
   -4.1536    5.4479    7.5080 H   0  0  0  0  0
   -4.5797    7.0185    6.7851 H   0  0  0  0  0
   -9.7171    8.0662   10.0658 H   0  0  0  0  0
   -8.4427    8.8477    9.0358 H   0  0  0  0  0
   -4.2825    3.1211   15.1741 H   0  0  0  0  0
   -1.5658   -1.5774   11.3314 H   0  0  0  0  0
   -0.1077    3.1111   10.4363 H   0  0  0  0  0
   -6.6072    6.5138   13.0820 H   0  0  0  0  0
   -3.8040    4.6005    9.4177 H   0  0  0  0  0
   -9.1933    9.8076   11.8122 H   0  0  0  0  0
   -7.7482   10.2488   10.8100 H   0  0  0  0  0
   -8.2871    7.6256   12.2862 H   0  0  0  0  0
   -6.9592    8.7230   12.5318 H   0  0  0  0  0
  -12.9875   13.3103    8.6839 H   0  0  0  0  0
  -12.8396   13.3090    6.9093 H   0  0  0  0  0
  -14.1037   12.3338    7.6981 H   0  0  0  0  0
   -8.7526   11.2292    8.4077 H   0  0  0  0  0
   -9.7170   10.2281    7.2816 H   0  0  0  0  0
  -11.5196    8.8513    8.1185 H   0  0  0  0  0
  -11.8466    8.7630    9.8645 H   0  0  0  0  0
  -10.4534   12.5174    7.0535 H   0  0  0  0  0
  -10.6514   12.6691    8.8458 H   0  0  0  0  0
  -12.6195   11.1017    9.8703 H   0  0  0  0  0
  -13.5313   10.1603    8.6370 H   0  0  0  0  0
   -2.8145    3.2872    9.8887 H   0  0  0  0  0
  -10.2780   10.5911   10.1430 H   0  0  0  0  0
  -12.1887   11.0355    6.9836 H   0  0  0  0  0
    1.8776    2.7447    8.9749 H   0  0  0  0  0
    2.0095    3.3757   10.6348 H   0  0  0  0  0
    3.4104    2.5884    9.8676 H   0  0  0  0  0
 22  1  1  0  0  0
 24  2  1  0  0  0
  2 36  1  0  0  0
 13  3  1  0  0  0
  3 34  1  0  0  0
  7  4  3  0  0  0
 25  5  1  0  0  0
 26  6  1  0  0  0
 27  7  1  0  0  0
 20  8  4  0  0  0
  8 27  4  0  0  0
  9 25  4  0  0  0
 26  9  4  0  0  0
 10 24  4  0  0  0
 28 10  4  0  0  0
 30 11  4  0  0  0
 11 32  4  0  0  0
 29 12  4  0  0  0
 12 33  4  0  0  0
 14 13  1  0  0  0
 23 14  1  0  0  0
 35 15  1  0  0  0
 16 18  1  0  0  0
 34 16  1  0  0  0
 17 19  1  0  0  0
 34 17  1  0  0  0
 18 35  1  0  0  0
 19 35  1  0  0  0
 32 20  4  0  0  0
 21 28  1  0  0  0
 31 21  1  0  0  0
 29 22  1  0  0  0
 30 23  1  0  0  0
 24 25  4  0  0  0
 28 26  4  0  0  0
 27 31  4  0  0  0
 29 30  4  0  0  0
 31 33  4  0  0  0
 32 33  4  0  0  0
  1 37  1  0  0  0
  1 38  1  0  0  0
  1 39  1  0  0  0
  3 40  1  0  0  0
  3 41  1  0  0  0
  8 42  1  0  0  0
  9 43  1  0  0  0
 10 44  1  0  0  0
 11 45  1  0  0  0
 12 46  1  0  0  0
 13 47  1  0  0  0
 13 48  1  0  0  0
 14 49  1  0  0  0
 14 50  1  0  0  0
 15 51  1  0  0  0
 15 52  1  0  0  0
 15 53  1  0  0  0
 16 54  1  0  0  0
 16 55  1  0  0  0
 17 56  1  0  0  0
 17 57  1  0  0  0
 18 58  1  0  0  0
 18 59  1  0  0  0
 19 60  1  0  0  0
 19 61  1  0  0  0
 21 62  1  0  0  0
 34 63  1  0  0  0
 35 64  1  0  0  0
 36 65  1  0  0  0
 36 66  1  0  0  0
 36 67  1  0  0  0
M  END
$$$$
