4rg0_ligand
  -I-interpret- 

 86 91  0  0  0  0  0  0  0  0999 V2000
   22.8350    5.2470    0.4140 C   0  0  0  0  0
   23.9590    5.6670    1.1200 C   0  0  0  0  0
   23.9120    5.7840    2.5410 C   0  0  0  0  0
   22.7420    5.4550    3.1880 C   0  0  0  0  0
   21.6340    4.9470    1.1430 C   0  0  0  0  0
   21.6240    5.0550    2.5070 N   0  0  0  0  0
   22.7990    5.1150   -0.9950 N   0  0  0  0  0
   25.1010    6.2320    3.3500 C   0  0  0  0  0
   26.3460    5.6260    3.1160 C   0  0  0  0  0
   27.4760    5.9830    3.8410 C   0  0  0  0  0
   27.4100    6.9620    4.8210 C   0  0  0  0  0
   26.1870    7.5870    5.0830 C   0  0  0  0  0
   25.0240    7.2300    4.3640 C   0  0  0  0  0
   26.0890    8.5580    6.0930 N   0  0  0  0  0
   26.1900    9.9730    5.7030 C   0  0  0  0  0
   25.3740   10.8990    6.6030 C   0  0  0  0  0
   25.8720    8.1440    7.3940 C   0  0  0  0  0
   25.7130    9.1740    8.4660 C   0  0  0  0  0
   25.4560   10.5020    8.0630 C   0  0  0  0  0
   25.2780   11.4920    9.0170 C   0  0  0  0  0
   25.3240   11.1920   10.3750 C   0  0  0  0  0
   25.5570    9.8790   10.7830 C   0  0  0  0  0
   25.7400    8.8710    9.8500 C   0  0  0  0  0
   25.8090    6.9480    7.6760 O   0  0  0  0  0
   23.7050    7.9310    4.6680 C   0  0  0  0  0
   23.1420    7.5210    5.9140 O   0  0  0  0  0
   20.4230    4.7600    3.2810 C   0  0  0  0  0
   20.6310    4.5940    0.5240 O   0  0  0  0  0
   23.8780    5.1690   -1.8890 C   0  0  0  0  0
   23.6400    4.8050   -3.2270 C   0  0  0  0  0
   24.6870    4.8370   -4.1440 C   0  0  0  0  0
   25.9640    5.2450   -3.7020 C   0  0  0  0  0
   26.1160    5.5950   -2.3490 C   0  0  0  0  0
   25.0950    5.5590   -1.5010 N   0  0  0  0  0
   27.0690    5.2830   -4.5940 N   0  0  0  0  0
   26.9670    4.1440   -5.5450 C   0  0  0  0  0
   28.1950    4.0460   -6.4770 C   0  0  0  0  0
   29.4520    3.9470   -5.6950 N   0  3  0  0  0
   29.5840    5.0790   -4.7470 C   0  0  0  0  0
   28.3480    5.1990   -3.8320 C   0  0  0  0  0
   25.1670   12.3090   11.3730 C   0  0  0  0  0
   23.9320   13.0930   11.1400 C   0  0  0  0  0
   25.1940   11.7810   12.8120 C   0  0  0  0  0
   26.4030   13.1860   11.1690 C   0  0  0  0  0
   22.9730   13.7020   10.9630 N   0  0  0  0  0
   30.6280    3.8420   -6.5860 C   0  0  0  0  0
   25.9530    7.6190   10.3090 F   0  0  0  0  0
   24.8779    5.9072    0.5853 H   0  0  0  0  0
   22.7049    5.5149    4.2757 H   0  0  0  0  0
   21.8793    4.9626   -1.4090 H   0  0  0  0  0
   26.4277    4.8574    2.3474 H   0  0  0  0  0
   28.4254    5.4879    3.6372 H   0  0  0  0  0
   28.3023    7.2414    5.3812 H   0  0  0  0  0
   25.8007   10.0669    4.6893 H   0  0  0  0  0
   27.2365   10.2666    5.7856 H   0  0  0  0  0
   24.3305   10.8371    6.2941 H   0  0  0  0  0
   25.7762   11.9072    6.5039 H   0  0  0  0  0
   25.0996   12.5192    8.6990 H   0  0  0  0  0
   25.5956    9.6433   11.8465 H   0  0  0  0  0
   22.9982    7.6741    3.8790 H   0  0  0  0  0
   23.8986    9.0023    4.7229 H   0  0  0  0  0
   22.3161    7.9882    6.0599 H   0  0  0  0  0
   19.6189    5.4269    2.9699 H   0  0  0  0  0
   20.1260    3.7255    3.1084 H   0  0  0  0  0
   20.6299    4.9079    4.3409 H   0  0  0  0  0
   22.6426    4.5000   -3.5435 H   0  0  0  0  0
   24.5238    4.5524   -5.1835 H   0  0  0  0  0
   27.0967    5.9037   -1.9870 H   0  0  0  0  0
   26.0839    4.2992   -6.1647 H   0  0  0  0  0
   26.9089    3.2232   -4.9646 H   0  0  0  0  0
   28.2375    4.9437   -7.0937 H   0  0  0  0  0
   28.0955    3.1519   -7.0924 H   0  0  0  0  0
   29.4104    3.0906   -5.1425 H   0  0  0  0  0
   29.6785    6.0005   -5.3214 H   0  0  0  0  0
   30.4600    4.9050   -4.1221 H   0  0  0  0  0
   28.3066    4.3056   -3.2089 H   0  0  0  0  0
   28.4509    6.1158   -3.2515 H   0  0  0  0  0
   24.3776   11.0728   12.9532 H   0  0  0  0  0
   26.1454   11.2822   12.9969 H   0  0  0  0  0
   25.0782   12.6139   13.5055 H   0  0  0  0  0
   27.3003   12.5965   11.3574 H   0  0  0  0  0
   26.4188   13.5567   10.1441 H   0  0  0  0  0
   26.3678   14.0277   11.8606 H   0  0  0  0  0
   30.5329    2.9517   -7.2076 H   0  0  0  0  0
   30.6811    4.7262   -7.2212 H   0  0  0  0  0
   31.5335    3.7710   -5.9835 H   0  0  0  0  0
  1  2  2  0  0  0
  1  5  1  0  0  0
  1  7  1  0  0  0
  2  3  1  0  0  0
  3  4  2  0  0  0
  3  8  1  0  0  0
  4  6  1  0  0  0
  5  6  1  0  0  0
  5 28  2  0  0  0
  6 27  1  0  0  0
  7 29  1  0  0  0
  8  9  4  0  0  0
  8 13  4  0  0  0
  9 10  4  0  0  0
 10 11  4  0  0  0
 11 12  4  0  0  0
 12 13  4  0  0  0
 12 14  1  0  0  0
 13 25  1  0  0  0
 14 15  1  0  0  0
 14 17  1  0  0  0
 15 16  1  0  0  0
 16 19  1  0  0  0
 17 18  1  0  0  0
 17 24  2  0  0  0
 18 19  4  0  0  0
 18 23  4  0  0  0
 19 20  4  0  0  0
 20 21  4  0  0  0
 21 22  4  0  0  0
 21 41  1  0  0  0
 22 23  4  0  0  0
 23 47  1  0  0  0
 25 26  1  0  0  0
 29 30  4  0  0  0
 29 34  4  0  0  0
 30 31  4  0  0  0
 31 32  4  0  0  0
 32 33  4  0  0  0
 32 35  1  0  0  0
 33 34  4  0  0  0
 35 36  1  0  0  0
 35 40  1  0  0  0
 36 37  1  0  0  0
 37 38  1  0  0  0
 38 39  1  0  0  0
 38 46  1  0  0  0
 39 40  1  0  0  0
 41 42  1  0  0  0
 41 43  1  0  0  0
 41 44  1  0  0  0
 42 45  3  0  0  0
  2 48  1  0  0  0
  4 49  1  0  0  0
  7 50  1  0  0  0
  9 51  1  0  0  0
 10 52  1  0  0  0
 11 53  1  0  0  0
 15 54  1  0  0  0
 15 55  1  0  0  0
 16 56  1  0  0  0
 16 57  1  0  0  0
 20 58  1  0  0  0
 22 59  1  0  0  0
 25 60  1  0  0  0
 25 61  1  0  0  0
 26 62  1  0  0  0
 27 63  1  0  0  0
 27 64  1  0  0  0
 27 65  1  0  0  0
 30 66  1  0  0  0
 31 67  1  0  0  0
 33 68  1  0  0  0
 36 69  1  0  0  0
 36 70  1  0  0  0
 37 71  1  0  0  0
 37 72  1  0  0  0
 38 73  1  0  0  0
 39 74  1  0  0  0
 39 75  1  0  0  0
 40 76  1  0  0  0
 40 77  1  0  0  0
 43 78  1  0  0  0
 43 79  1  0  0  0
 43 80  1  0  0  0
 44 81  1  0  0  0
 44 82  1  0  0  0
 44 83  1  0  0  0
 46 84  1  0  0  0
 46 85  1  0  0  0
 46 86  1  0  0  0
M  END
$$$$
