5zvw_ligand
  -I-interpret- 

 84 83  0  0  0  0  0  0  0  0999 V2000
   14.3670    3.6300    4.5280 N   0  3  0  0  0
   13.0900    3.8710    3.8630 C   0  0  0  0  0
   12.0320    4.3450    4.8520 C   0  0  0  0  0
   11.9050    3.7960    5.9480 O   0  0  0  0  0
   12.6090    2.6020    3.1520 C   0  0  0  0  0
   11.3130    2.7720    2.6070 O   0  0  0  0  0
   11.2770    5.3720    4.4670 N   0  0  0  0  0
   10.1680    5.8160    5.2930 C   0  0  0  0  0
    9.0670    4.7600    5.3010 C   0  0  0  0  0
    8.9850    3.9060    4.4140 O   0  0  0  0  0
    9.6190    7.1500    4.7950 C   0  0  0  0  0
    8.2140    4.8220    6.3190 N   0  0  0  0  0
    7.1800    3.8160    6.5340 C   0  0  0  0  0
    5.8240    4.4400    6.2220 C   0  0  0  0  0
    5.3600    5.3370    6.9370 O   0  0  0  0  0
    7.2150    3.2550    7.9600 C   0  0  0  0  0
    8.6460    2.8800    8.3550 C   0  0  0  0  0
    6.3150    2.0330    8.0500 C   0  0  0  0  0
    9.2480    1.7960    7.4840 C   0  0  0  0  0
    5.1520    3.9060    5.2210 N   0  0  0  0  0
    3.8370    4.3280    4.7970 C   0  0  0  0  0
    2.8790    3.2440    5.1010 C   0  0  0  0  0
    3.2760    2.1600    5.1670 O   0  0  0  0  0
    3.7920    4.4250    3.2960 C   0  0  0  0  0
    4.3910    5.6220    2.6490 C   0  0  0  0  0
    4.3330    5.4610    1.1510 C   0  0  0  0  0
    5.3780    6.1870    0.4930 N   0  0  0  0  0
    6.5970    5.7340    0.3590 C   0  0  0  0  0
    6.9150    4.5880    0.8510 N   0  0  0  0  0
    7.4960    6.4250   -0.2200 N   0  0  0  0  0
    1.6040    3.5380    5.2510 N   0  0  0  0  0
    0.6000    2.5230    5.4940 C   0  0  0  0  0
   -0.8250    3.0250    5.3950 C   0  0  0  0  0
   -1.0940    4.2150    5.5980 O   0  0  0  0  0
   -1.7440    2.1130    5.0890 N   0  0  0  0  0
   -3.1580    2.4350    4.9630 C   0  0  0  0  0
   -3.9960    1.2850    5.5070 C   0  0  0  0  0
   -3.5540    0.1330    5.4880 O   0  0  0  0  0
   -3.5180    2.7210    3.5170 C   0  0  0  0  0
   -5.1180    1.4750    5.9840 O   0  0  0  0  0
   14.6720    4.4837    4.9955 H   0  0  0  0  0
   14.2554    2.8854    5.2162 H   0  0  0  0  0
   15.0627    3.3530    3.8354 H   0  0  0  0  0
   13.2439    4.6578    3.1245 H   0  0  0  0  0
   12.5740    1.7909    3.8793 H   0  0  0  0  0
   13.2993    2.3794    2.3383 H   0  0  0  0  0
   11.0420    1.9614    2.1699 H   0  0  0  0  0
   11.4784    5.8490    3.5882 H   0  0  0  0  0
   10.5315    5.9576    6.3108 H   0  0  0  0  0
   10.4071    7.9021    4.8312 H   0  0  0  0  0
    9.2695    7.0372    3.7687 H   0  0  0  0  0
    8.7896    7.4601    5.4306 H   0  0  0  0  0
    8.2853    5.6013    6.9733 H   0  0  0  0  0
    7.3613    2.9722    5.8682 H   0  0  0  0  0
    6.8563    4.0208    8.6478 H   0  0  0  0  0
    8.6156    2.5008    9.3765 H   0  0  0  0  0
    9.2621    3.7720    8.2413 H   0  0  0  0  0
    5.2934    2.3163    7.7967 H   0  0  0  0  0
    6.6661    1.2726    7.3524 H   0  0  0  0  0
    6.3425    1.6371    9.0652 H   0  0  0  0  0
    8.6410    0.8937    7.5576 H   0  0  0  0  0
    9.2725    2.1355    6.4485 H   0  0  0  0  0
   10.2620    1.5818    7.8216 H   0  0  0  0  0
    5.5918    3.1407    4.7098 H   0  0  0  0  0
    3.6083    5.2741    5.2876 H   0  0  0  0  0
    2.7325    4.4622    3.0427 H   0  0  0  0  0
    4.3797    3.5804    2.9364 H   0  0  0  0  0
    5.4291    5.7260    2.9647 H   0  0  0  0  0
    3.8340    6.5120    2.9419 H   0  0  0  0  0
    3.3761    5.8500    0.8030 H   0  0  0  0  0
    4.4528    4.4032    0.9168 H   0  0  0  0  0
    5.1594    7.1062    0.1086 H   0  0  0  0  0
    7.8735    4.2479    0.7734 H   0  0  0  0  0
    6.2085    4.0199    1.3186 H   0  0  0  0  0
    7.2706    7.3489   -0.5888 H   0  0  0  0  0
    1.3137    4.5142    5.1941 H   0  0  0  0  0
    0.7449    2.1641    6.5130 H   0  0  0  0  0
    0.7253    1.7565    4.7292 H   0  0  0  0  0
   -1.4458    1.1495    4.9366 H   0  0  0  0  0
   -3.3679    3.3332    5.5438 H   0  0  0  0  0
   -2.6791    0.1336    5.0927 H   0  0  0  0  0
   -2.9309    3.5663    3.1581 H   0  0  0  0  0
   -3.3013    1.8424    2.9094 H   0  0  0  0  0
   -4.5795    2.9590    3.4484 H   0  0  0  0  0
  1  2  1  0  0  0
  2  3  1  0  0  0
  2  5  1  0  0  0
  3  4  2  0  0  0
  3  7  1  0  0  0
  5  6  1  0  0  0
  7  8  1  0  0  0
  8  9  1  0  0  0
  8 11  1  0  0  0
  9 10  2  0  0  0
  9 12  1  0  0  0
 12 13  1  0  0  0
 13 14  1  0  0  0
 13 16  1  0  0  0
 14 15  2  0  0  0
 14 20  1  0  0  0
 16 17  1  0  0  0
 16 18  1  0  0  0
 17 19  1  0  0  0
 20 21  1  0  0  0
 21 22  1  0  0  0
 21 24  1  0  0  0
 22 23  2  0  0  0
 22 31  1  0  0  0
 24 25  1  0  0  0
 25 26  1  0  0  0
 26 27  1  0  0  0
 27 28  1  0  0  0
 28 29  1  0  0  0
 28 30  2  0  0  0
 31 32  1  0  0  0
 32 33  1  0  0  0
 33 34  2  0  0  0
 33 35  1  0  0  0
 35 36  1  0  0  0
 36 37  1  0  0  0
 36 39  1  0  0  0
 37 38  1  0  0  0
 37 40  2  0  0  0
  1 41  1  0  0  0
  1 42  1  0  0  0
  1 43  1  0  0  0
  2 44  1  0  0  0
  5 45  1  0  0  0
  5 46  1  0  0  0
  6 47  1  0  0  0
  7 48  1  0  0  0
  8 49  1  0  0  0
 11 50  1  0  0  0
 11 51  1  0  0  0
 11 52  1  0  0  0
 12 53  1  0  0  0
 13 54  1  0  0  0
 16 55  1  0  0  0
 17 56  1  0  0  0
 17 57  1  0  0  0
 18 58  1  0  0  0
 18 59  1  0  0  0
 18 60  1  0  0  0
 19 61  1  0  0  0
 19 62  1  0  0  0
 19 63  1  0  0  0
 20 64  1  0  0  0
 21 65  1  0  0  0
 24 66  1  0  0  0
 24 67  1  0  0  0
 25 68  1  0  0  0
 25 69  1  0  0  0
 26 70  1  0  0  0
 26 71  1  0  0  0
 27 72  1  0  0  0
 29 73  1  0  0  0
 29 74  1  0  0  0
 30 75  1  0  0  0
 31 76  1  0  0  0
 32 77  1  0  0  0
 32 78  1  0  0  0
 35 79  1  0  0  0
 36 80  1  0  0  0
 38 81  1  0  0  0
 39 82  1  0  0  0
 39 83  1  0  0  0
 39 84  1  0  0  0
M  END
$$$$
