2wyg_ligand
  -I-interpret- 

 54 56  0  0  0  0  0  0  0  0999 V2000
   13.8360    7.4200   26.2020 Cl  0  0  0  0  0
   12.1090    7.5820   26.3260 C   0  0  0  0  0
   11.3530    7.1170   27.3520 C   0  0  0  0  0
   10.0030    7.4060   27.1510 C   0  0  0  0  0
   11.2190    8.3990   25.1020 S   0  0  0  0  0
    9.7450    8.0980   25.9730 C   0  0  0  0  0
    8.4190    8.5290   25.5310 C   0  0  0  0  0
    8.0760    8.9630   24.3060 C   0  0  0  0  0
    6.4100    9.4180   24.0470 S   0  0  0  0  0
    6.3680   10.6590   23.3320 O   0  0  0  0  0
    5.7020    9.2010   25.2630 O   0  0  0  0  0
    5.8200    8.3890   22.9490 N   0  0  0  0  0
    5.9590    6.9700   23.1630 C   0  0  0  0  0
    4.6400    6.2160   22.9360 C   0  0  0  0  0
    4.9490    5.0760   21.9490 C   0  0  0  0  0
    6.8880    6.4160   22.0980 C   0  0  0  0  0
    7.9940    6.8560   21.8050 O   0  0  0  0  0
    6.3140    5.3380   21.5090 N   0  0  0  0  0
    7.0050    4.5440   20.5530 C   0  0  0  0  0
    7.5520    5.1550   19.4430 C   0  0  0  0  0
    7.4000    6.4750   19.2900 F   0  0  0  0  0
    7.1680    3.1740   20.7270 C   0  0  0  0  0
    7.8690    2.4530   19.7590 C   0  0  0  0  0
    8.4210    3.0820   18.6320 C   0  0  0  0  0
    8.2510    4.4560   18.4800 C   0  0  0  0  0
    9.1680    2.3280   17.5470 C   0  0  0  0  0
   10.0600    1.1850   18.0630 C   0  0  0  0  0
    8.2200    1.8630   16.5040 N   0  3  0  0  0
    7.2120    0.8780   16.9330 C   0  0  0  0  0
    7.6100    2.9150   15.6690 C   0  0  0  0  0
   11.7481    6.5875   28.2189 H   0  0  0  0  0
    9.2217    7.1157   27.8535 H   0  0  0  0  0
    7.6233    8.4945   26.2752 H   0  0  0  0  0
    8.8108    9.0286   23.5036 H   0  0  0  0  0
    5.3537    8.7402   22.1126 H   0  0  0  0  0
    6.3108    6.8383   24.1862 H   0  0  0  0  0
    3.8754    6.8814   22.5350 H   0  0  0  0  0
    4.2499    5.8229   23.8748 H   0  0  0  0  0
    4.2470    5.0543   21.1155 H   0  0  0  0  0
    4.8493    4.0945   22.4126 H   0  0  0  0  0
    6.7561    2.6726   21.6028 H   0  0  0  0  0
    7.9906    1.3767   19.8810 H   0  0  0  0  0
    8.6640    4.9717   17.6131 H   0  0  0  0  0
    9.8678    3.0379   17.1060 H   0  0  0  0  0
   10.8100    1.5896   18.7426 H   0  0  0  0  0
    9.4452    0.4560   18.5908 H   0  0  0  0  0
   10.5544    0.7027   17.2198 H   0  0  0  0  0
    8.8681    1.3577   15.8998 H   0  0  0  0  0
    7.7139   -0.0157   17.3038 H   0  0  0  0  0
    6.6001    1.3080   17.7260 H   0  0  0  0  0
    6.5787    0.6155   16.0856 H   0  0  0  0  0
    7.0497    3.6016   16.3037 H   0  0  0  0  0
    8.3941    3.4610   15.1444 H   0  0  0  0  0
    6.9370    2.4571   14.9441 H   0  0  0  0  0
  1  2  1  0  0  0
  2  3  4  0  0  0
  2  5  4  0  0  0
  3  4  4  0  0  0
  4  6  4  0  0  0
  5  6  4  0  0  0
  6  7  1  0  0  0
  7  8  2  0  0  0
  8  9  1  0  0  0
  9 10  2  0  0  0
  9 11  2  0  0  0
  9 12  1  0  0  0
 12 13  1  0  0  0
 13 14  1  0  0  0
 13 16  1  0  0  0
 14 15  1  0  0  0
 15 18  1  0  0  0
 16 17  2  0  0  0
 16 18  1  0  0  0
 18 19  1  0  0  0
 19 20  4  0  0  0
 19 22  4  0  0  0
 20 21  1  0  0  0
 20 25  4  0  0  0
 22 23  4  0  0  0
 23 24  4  0  0  0
 24 25  4  0  0  0
 24 26  1  0  0  0
 26 27  1  0  0  0
 26 28  1  0  0  0
 28 29  1  0  0  0
 28 30  1  0  0  0
  3 31  1  0  0  0
  4 32  1  0  0  0
  7 33  1  0  0  0
  8 34  1  0  0  0
 12 35  1  0  0  0
 13 36  1  0  0  0
 14 37  1  0  0  0
 14 38  1  0  0  0
 15 39  1  0  0  0
 15 40  1  0  0  0
 22 41  1  0  0  0
 23 42  1  0  0  0
 25 43  1  0  0  0
 26 44  1  0  0  0
 27 45  1  0  0  0
 27 46  1  0  0  0
 27 47  1  0  0  0
 28 48  1  0  0  0
 29 49  1  0  0  0
 29 50  1  0  0  0
 29 51  1  0  0  0
 30 52  1  0  0  0
 30 53  1  0  0  0
 30 54  1  0  0  0
M  END
$$$$
