2n8t_ligand
  -I-interpret- 

223227  0  0  0  0  0  0  0  0999 V2000
  -12.1440  -10.0100    9.5500 N   0  3  0  0  0
  -10.8730   -9.4060    9.1000 C   0  0  0  0  0
  -11.1210   -8.0740    8.4100 C   0  0  0  0  0
  -11.5510   -8.0370    7.2580 O   0  0  0  0  0
  -10.1360  -10.3560    8.1640 C   0  0  0  0  0
  -10.8630   -6.9590    9.1150 N   0  0  0  0  0
  -11.0270   -5.6110    8.5630 C   0  0  0  0  0
   -9.7590   -5.1010    7.8690 C   0  0  0  0  0
   -9.7570   -4.0390    7.2430 O   0  0  0  0  0
  -11.3190   -4.7860    9.8150 C   0  0  0  0  0
  -10.5470   -5.4590   10.9050 C   0  0  0  0  0
  -10.4130   -6.9180   10.5230 C   0  0  0  0  0
   -8.6830   -5.8640    8.0010 N   0  0  0  0  0
   -7.3940   -5.4990    7.4230 C   0  0  0  0  0
   -7.0750   -6.3810    6.2220 C   0  0  0  0  0
   -7.3920   -7.5730    6.2170 O   0  0  0  0  0
   -6.2860   -5.6240    8.4740 C   0  0  0  0  0
   -5.9190   -4.3260    9.2090 C   0  0  0  0  0
   -7.1280   -3.7090    9.8930 C   0  0  0  0  0
   -4.8080   -4.5870   10.2130 C   0  0  0  0  0
   -6.4520   -5.7870    5.2120 N   0  0  0  0  0
   -6.1100   -6.4930    3.9800 C   0  0  0  0  0
   -6.0150   -5.4830    2.8370 C   0  0  0  0  0
   -7.2740   -4.8230    2.6840 O   0  0  0  0  0
   -4.7970   -7.2690    4.1300 C   0  0  0  0  0
   -3.8660   -6.8080    4.7890 O   0  0  0  0  0
   -7.1110   -3.7790    1.4780 P   0  0  0  0  0
   -6.7330   -4.4940    0.2390 O   0  0  0  0  0
   -8.5010   -2.9990    1.2520 O   0  0  0  0  0
   -5.9650   -2.7230    1.8490 O   0  0  0  0  0
   -4.7140   -8.4730    3.5310 N   0  0  0  0  0
   -3.5070   -9.3060    3.5870 C   0  0  0  0  0
   -2.3480   -8.6940    2.7960 C   0  0  0  0  0
   -2.4880   -8.3720    1.6150 O   0  0  0  0  0
   -3.9540  -10.6350    2.9670 C   0  0  0  0  0
   -5.1130  -10.2860    2.0980 C   0  0  0  0  0
   -5.7910   -9.1090    2.7510 C   0  0  0  0  0
   -1.2110   -8.5310    3.4620 N   0  0  0  0  0
   -0.0430   -7.9060    2.8520 C   0  0  0  0  0
    0.7900   -8.9320    2.0970 C   0  0  0  0  0
    1.1840   -9.9590    2.6510 O   0  0  0  0  0
    0.8180   -7.2200    3.9230 C   0  0  0  0  0
    0.0520   -6.2180    4.7680 C   0  0  0  0  0
    1.1140   -5.2680    5.8740 S   0  0  0  0  0
    1.8790   -6.5800    6.8290 C   0  0  0  0  0
    1.0510   -8.6550    0.8290 N   0  0  0  0  0
    1.8530   -9.5470    0.0050 C   0  0  0  0  0
    1.3040   -9.5780   -1.4220 C   0  0  0  0  0
   -0.0490  -10.0470   -1.3920 O   0  0  0  0  0
    3.3430   -9.1630    0.0310 C   0  0  0  0  0
    4.1820  -10.0150    0.3290 O   0  0  0  0  0
   -0.5730  -10.0530   -2.9040 P   0  0  0  0  0
    0.2810  -10.9340   -3.7300 O   0  0  0  0  0
   -2.0940  -10.5730   -2.9550 O   0  0  0  0  0
   -0.5140   -8.5590   -3.4970 O   0  0  0  0  0
    3.7120   -7.8940   -0.2590 N   0  0  0  0  0
    5.1030   -7.4690   -0.1780 C   0  0  0  0  0
    5.4780   -6.9960    1.2300 C   0  0  0  0  0
    4.6370   -6.4760    1.9650 O   0  0  0  0  0
    5.1710   -6.3210   -1.1820 C   0  0  0  0  0
    3.7980   -5.7280   -1.1960 C   0  0  0  0  0
    2.8400   -6.7820   -0.6830 C   0  0  0  0  0
    6.7490   -7.1880    1.6230 N   0  0  0  0  0
    7.2480   -6.8090    2.9540 C   0  0  0  0  0
    7.4200   -5.2960    3.1190 C   0  0  0  0  0
    7.0650   -4.5170    2.2400 O   0  0  0  0  0
    8.6150   -7.4970    3.0090 C   0  0  0  0  0
    9.0520   -7.5130    1.5890 C   0  0  0  0  0
    7.8080   -7.7870    0.7950 C   0  0  0  0  0
    7.9700   -4.8920    4.2560 N   0  0  0  0  0
    8.2610   -3.4910    4.4850 C   0  0  0  0  0
    7.4550   -2.9210    5.6320 C   0  0  0  0  0
    8.0140   -2.4430    6.6220 O   0  0  0  0  0
    6.1390   -2.9840    5.5080 N   0  0  0  0  0
    5.2520   -2.4750    6.5440 C   0  0  0  0  0
    5.0410   -3.5560    7.5900 C   0  0  0  0  0
    4.6220   -4.6620    7.2570 O   0  0  0  0  0
    3.9180   -2.0520    5.9300 C   0  0  0  0  0
    3.2000   -0.9560    6.6750 C   0  0  0  0  0
    3.6620    0.3540    6.6530 C   0  0  0  0  0
    2.0370   -1.2320    7.3760 C   0  0  0  0  0
    2.9780    1.3570    7.3090 C   0  0  0  0  0
    1.3510   -0.2380    8.0390 C   0  0  0  0  0
    1.8260    1.0550    8.0010 C   0  0  0  0  0
    1.1420    2.0550    8.6490 O   0  0  0  0  0
    5.3690   -3.2280    8.8410 N   0  0  0  0  0
    5.3300   -4.1840    9.9520 C   0  0  0  0  0
    6.4670   -5.2010    9.8190 C   0  0  0  0  0
    6.5610   -6.1530   10.5980 O   0  0  0  0  0
    3.9750   -4.9030   10.0140 C   0  0  0  0  0
    2.8010   -3.9760   10.2880 C   0  0  0  0  0
    2.8250   -3.4650   11.7170 C   0  0  0  0  0
    1.7010   -2.4760   11.9780 C   0  0  0  0  0
    1.5980   -2.1220   13.4150 N   0  3  0  0  0
    7.3430   -4.9520    8.8420 N   0  0  0  0  0
    8.4630   -5.8310    8.5140 C   0  0  0  0  0
    7.9780   -7.1620    7.9460 C   0  0  0  0  0
    7.9400   -7.3330    6.7260 O   0  0  0  0  0
    9.3810   -6.0470    9.7250 C   0  0  0  0  0
   10.0640   -4.7830   10.2560 C   0  0  0  0  0
   10.9170   -5.1060   11.4730 C   0  0  0  0  0
   10.9140   -4.1340    9.1730 C   0  0  0  0  0
    7.6080   -8.0930    8.8210 N   0  0  0  0  0
    7.1200   -9.4040    8.4020 C   0  0  0  0  0
    6.0290   -9.8840    9.3530 C   0  0  0  0  0
    6.3500  -10.1200   10.5400 O   0  0  0  0  0
    8.2410  -10.4720    8.3710 C   0  0  0  0  0
    7.6830  -11.8280    7.9650 C   0  0  0  0  0
    9.3740  -10.0670    7.4470 C   0  0  0  0  0
    4.8710  -10.0250    8.9200 O   0  0  0  0  0
  -12.6243   -9.3625   10.1748 H   0  0  0  0  0
  -12.7330  -10.2028    8.7399 H   0  0  0  0  0
  -11.9490  -10.8803   10.0449 H   0  0  0  0  0
  -10.2524   -9.2263    9.9779 H   0  0  0  0  0
  -10.7378  -10.5234    7.2707 H   0  0  0  0  0
   -9.1792   -9.9166    7.8820 H   0  0  0  0  0
   -9.9657  -11.3052    8.6721 H   0  0  0  0  0
  -11.7993   -5.5627    7.7953 H   0  0  0  0  0
  -12.3856   -4.7488   10.0367 H   0  0  0  0  0
  -11.0234   -3.7440    9.6923 H   0  0  0  0  0
  -11.0630   -5.3579   11.8598 H   0  0  0  0  0
   -9.5649   -5.0003   11.0196 H   0  0  0  0  0
   -9.3939   -7.2857   10.6430 H   0  0  0  0  0
  -11.0039   -7.5704   11.1659 H   0  0  0  0  0
   -8.7588   -6.7361    8.5246 H   0  0  0  0  0
   -7.4497   -4.4631    7.0886 H   0  0  0  0  0
   -5.3895   -5.9427    7.9423 H   0  0  0  0  0
   -6.6548   -6.3152    9.2318 H   0  0  0  0  0
   -5.5633   -3.6100    8.4681 H   0  0  0  0  0
   -7.8882   -3.4791    9.1465 H   0  0  0  0  0
   -7.5319   -4.4140   10.6196 H   0  0  0  0  0
   -6.8278   -2.7929   10.4018 H   0  0  0  0  0
   -5.1434   -5.3267   10.9400 H   0  0  0  0  0
   -3.9284   -4.9625    9.6902 H   0  0  0  0  0
   -4.5583   -3.6584   10.7263 H   0  0  0  0  0
   -6.2030   -4.8017    5.2992 H   0  0  0  0  0
   -6.8910   -7.2206    3.7593 H   0  0  0  0  0
   -5.7598   -6.0010    1.9125 H   0  0  0  0  0
   -5.2426   -4.7478    3.0629 H   0  0  0  0  0
   -8.7420   -2.5368    2.0582 H   0  0  0  0  0
   -6.2082   -2.2578    2.6528 H   0  0  0  0  0
   -3.1287   -9.4125    4.6037 H   0  0  0  0  0
   -4.2267  -11.3645    3.7296 H   0  0  0  0  0
   -3.1513  -11.1056    2.3993 H   0  0  0  0  0
   -5.7977  -11.1285    2.0001 H   0  0  0  0  0
   -4.7858  -10.0395    1.0879 H   0  0  0  0  0
   -6.2346   -8.4290    2.0238 H   0  0  0  0  0
   -6.6341   -9.4081    3.3737 H   0  0  0  0  0
   -1.1527   -8.8522    4.4283 H   0  0  0  0  0
   -0.3941   -7.1558    2.1435 H   0  0  0  0  0
    1.6091   -6.6757    3.4073 H   0  0  0  0  0
    1.1879   -7.9969    4.5921 H   0  0  0  0  0
   -0.6541   -6.7750    5.3839 H   0  0  0  0  0
   -0.4336   -5.5157    4.0905 H   0  0  0  0  0
    1.1067   -7.1472    7.3486 H   0  0  0  0  0
    2.4291   -7.2415    6.1597 H   0  0  0  0  0
    2.5643   -6.1457    7.5569 H   0  0  0  0  0
    0.6815   -7.7967    0.4202 H   0  0  0  0  0
    1.7837  -10.5515    0.4225 H   0  0  0  0  0
    1.9105  -10.2453   -2.0344 H   0  0  0  0  0
    1.3359   -8.5759   -1.8496 H   0  0  0  0  0
   -2.6454   -9.9992   -2.4180 H   0  0  0  0  0
   -1.0668   -7.9825   -2.9644 H   0  0  0  0  0
    5.8021   -8.2768   -0.3942 H   0  0  0  0  0
    5.4677   -6.6698   -2.1711 H   0  0  0  0  0
    5.9234   -5.5847   -0.8995 H   0  0  0  0  0
    3.5247   -5.4249   -2.2067 H   0  0  0  0  0
    3.7605   -4.8401   -0.5649 H   0  0  0  0  0
    2.2222   -6.4110    0.1348 H   0  0  0  0  0
    2.1238   -7.0903   -1.4447 H   0  0  0  0  0
    6.5565   -7.1008    3.7445 H   0  0  0  0  0
    8.5630   -8.4961    3.4416 H   0  0  0  0  0
    9.3194   -6.9758    3.6573 H   0  0  0  0  0
    9.8156   -8.2706    1.4127 H   0  0  0  0  0
    9.5124   -6.5682    1.3002 H   0  0  0  0  0
    7.8470   -7.3671   -0.2101 H   0  0  0  0  0
    7.6499   -8.8495    0.6103 H   0  0  0  0  0
    8.1912   -5.5766    4.9791 H   0  0  0  0  0
    8.0033   -2.9386    3.5814 H   0  0  0  0  0
    9.3181   -3.4002    4.7347 H   0  0  0  0  0
    5.7370   -3.3987    4.6673 H   0  0  0  0  0
    5.7002   -1.6013    7.0171 H   0  0  0  0  0
    3.2683   -2.9270    5.9499 H   0  0  0  0  0
    4.1355   -1.6679    4.9334 H   0  0  0  0  0
    4.5768    0.5927    6.1105 H   0  0  0  0  0
    1.6582   -2.2537    7.4034 H   0  0  0  0  0
    3.3472    2.3822    7.2797 H   0  0  0  0  0
    0.4398   -0.4725    8.5892 H   0  0  0  0  0
    0.3683    1.6846    9.0801 H   0  0  0  0  0
    5.6599   -2.2694    9.0331 H   0  0  0  0  0
    5.4611   -3.6290   10.8809 H   0  0  0  0  0
    4.0235   -5.6180   10.8353 H   0  0  0  0  0
    3.8060   -5.3629    9.0403 H   0  0  0  0  0
    1.8761   -4.5317   10.1333 H   0  0  0  0  0
    2.8672   -3.1228    9.6129 H   0  0  0  0  0
    3.7751   -2.9579   11.8849 H   0  0  0  0  0
    2.6983   -4.3145   12.3881 H   0  0  0  0  0
    0.7621   -2.9371   11.6715 H   0  0  0  0  0
    1.9094   -1.5657   11.4159 H   0  0  0  0  0
    0.8344   -1.4587   13.5466 H   0  0  0  0  0
    1.4152   -2.9650   13.9594 H   0  0  0  0  0
    2.4738   -1.6998   13.7235 H   0  0  0  0  0
    7.2233   -4.1001    8.2939 H   0  0  0  0  0
    9.0495   -5.3351    7.7405 H   0  0  0  0  0
   10.1747   -6.7202    9.4011 H   0  0  0  0  0
    8.7531   -6.4267   10.5310 H   0  0  0  0  0
    9.2875   -4.0783   10.5535 H   0  0  0  0  0
   10.2854   -5.5228   12.2575 H   0  0  0  0  0
   11.6819   -5.8317   11.1967 H   0  0  0  0  0
   11.3929   -4.1942   11.8339 H   0  0  0  0  0
   11.6796   -4.8366    8.8440 H   0  0  0  0  0
   10.2800   -3.8638    8.3285 H   0  0  0  0  0
   11.3889   -3.2384    9.5736 H   0  0  0  0  0
    7.6671   -7.8843    9.8177 H   0  0  0  0  0
    6.7311   -9.2829    7.3910 H   0  0  0  0  0
    7.2867   -9.9460   10.6576 H   0  0  0  0  0
    8.6462  -10.5491    9.3799 H   0  0  0  0  0
    6.9225  -12.1361    8.6825 H   0  0  0  0  0
    7.2390  -11.7543    6.9722 H   0  0  0  0  0
    8.4891  -12.5616    7.9504 H   0  0  0  0  0
    8.9889   -9.9425    6.4349 H   0  0  0  0  0
    9.8038   -9.1265    7.7918 H   0  0  0  0  0
   10.1405  -10.8420    7.4527 H   0  0  0  0  0
  1  2  1  0  0  0
  2  3  1  0  0  0
  2  5  1  0  0  0
  3  4  2  0  0  0
  3  6  1  0  0  0
  6  7  1  0  0  0
  6 12  1  0  0  0
  7  8  1  0  0  0
  7 10  1  0  0  0
  8  9  2  0  0  0
  8 13  1  0  0  0
 10 11  1  0  0  0
 11 12  1  0  0  0
 13 14  1  0  0  0
 14 15  1  0  0  0
 14 17  1  0  0  0
 15 16  2  0  0  0
 15 21  1  0  0  0
 17 18  1  0  0  0
 18 19  1  0  0  0
 18 20  1  0  0  0
 21 22  1  0  0  0
 22 23  1  0  0  0
 22 25  1  0  0  0
 23 24  1  0  0  0
 24 27  1  0  0  0
 25 26  2  0  0  0
 25 31  1  0  0  0
 27 28  2  0  0  0
 27 29  1  0  0  0
 27 30  1  0  0  0
 31 32  1  0  0  0
 31 37  1  0  0  0
 32 33  1  0  0  0
 32 35  1  0  0  0
 33 34  2  0  0  0
 33 38  1  0  0  0
 35 36  1  0  0  0
 36 37  1  0  0  0
 38 39  1  0  0  0
 39 40  1  0  0  0
 39 42  1  0  0  0
 40 41  2  0  0  0
 40 46  1  0  0  0
 42 43  1  0  0  0
 43 44  1  0  0  0
 44 45  1  0  0  0
 46 47  1  0  0  0
 47 48  1  0  0  0
 47 50  1  0  0  0
 48 49  1  0  0  0
 49 52  1  0  0  0
 50 51  2  0  0  0
 50 56  1  0  0  0
 52 53  2  0  0  0
 52 54  1  0  0  0
 52 55  1  0  0  0
 56 57  1  0  0  0
 56 62  1  0  0  0
 57 58  1  0  0  0
 57 60  1  0  0  0
 58 59  2  0  0  0
 58 63  1  0  0  0
 60 61  1  0  0  0
 61 62  1  0  0  0
 63 64  1  0  0  0
 63 69  1  0  0  0
 64 65  1  0  0  0
 64 67  1  0  0  0
 65 66  2  0  0  0
 65 70  1  0  0  0
 67 68  1  0  0  0
 68 69  1  0  0  0
 70 71  1  0  0  0
 71 72  1  0  0  0
 72 73  2  0  0  0
 72 74  1  0  0  0
 74 75  1  0  0  0
 75 76  1  0  0  0
 75 78  1  0  0  0
 76 77  2  0  0  0
 76 86  1  0  0  0
 78 79  1  0  0  0
 79 80  4  0  0  0
 79 81  4  0  0  0
 80 82  4  0  0  0
 81 83  4  0  0  0
 82 84  4  0  0  0
 83 84  4  0  0  0
 84 85  1  0  0  0
 86 87  1  0  0  0
 87 88  1  0  0  0
 87 90  1  0  0  0
 88 89  2  0  0  0
 88 95  1  0  0  0
 90 91  1  0  0  0
 91 92  1  0  0  0
 92 93  1  0  0  0
 93 94  1  0  0  0
 95 96  1  0  0  0
 96 97  1  0  0  0
 96 99  1  0  0  0
 97 98  2  0  0  0
 97103  1  0  0  0
 99100  1  0  0  0
100101  1  0  0  0
100102  1  0  0  0
103104  1  0  0  0
104105  1  0  0  0
104107  1  0  0  0
105106  1  0  0  0
105110  2  0  0  0
107108  1  0  0  0
107109  1  0  0  0
  1111  1  0  0  0
  1112  1  0  0  0
  1113  1  0  0  0
  2114  1  0  0  0
  5115  1  0  0  0
  5116  1  0  0  0
  5117  1  0  0  0
  7118  1  0  0  0
 10119  1  0  0  0
 10120  1  0  0  0
 11121  1  0  0  0
 11122  1  0  0  0
 12123  1  0  0  0
 12124  1  0  0  0
 13125  1  0  0  0
 14126  1  0  0  0
 17127  1  0  0  0
 17128  1  0  0  0
 18129  1  0  0  0
 19130  1  0  0  0
 19131  1  0  0  0
 19132  1  0  0  0
 20133  1  0  0  0
 20134  1  0  0  0
 20135  1  0  0  0
 21136  1  0  0  0
 22137  1  0  0  0
 23138  1  0  0  0
 23139  1  0  0  0
 29140  1  0  0  0
 30141  1  0  0  0
 32142  1  0  0  0
 35143  1  0  0  0
 35144  1  0  0  0
 36145  1  0  0  0
 36146  1  0  0  0
 37147  1  0  0  0
 37148  1  0  0  0
 38149  1  0  0  0
 39150  1  0  0  0
 42151  1  0  0  0
 42152  1  0  0  0
 43153  1  0  0  0
 43154  1  0  0  0
 45155  1  0  0  0
 45156  1  0  0  0
 45157  1  0  0  0
 46158  1  0  0  0
 47159  1  0  0  0
 48160  1  0  0  0
 48161  1  0  0  0
 54162  1  0  0  0
 55163  1  0  0  0
 57164  1  0  0  0
 60165  1  0  0  0
 60166  1  0  0  0
 61167  1  0  0  0
 61168  1  0  0  0
 62169  1  0  0  0
 62170  1  0  0  0
 64171  1  0  0  0
 67172  1  0  0  0
 67173  1  0  0  0
 68174  1  0  0  0
 68175  1  0  0  0
 69176  1  0  0  0
 69177  1  0  0  0
 70178  1  0  0  0
 71179  1  0  0  0
 71180  1  0  0  0
 74181  1  0  0  0
 75182  1  0  0  0
 78183  1  0  0  0
 78184  1  0  0  0
 80185  1  0  0  0
 81186  1  0  0  0
 82187  1  0  0  0
 83188  1  0  0  0
 85189  1  0  0  0
 86190  1  0  0  0
 87191  1  0  0  0
 90192  1  0  0  0
 90193  1  0  0  0
 91194  1  0  0  0
 91195  1  0  0  0
 92196  1  0  0  0
 92197  1  0  0  0
 93198  1  0  0  0
 93199  1  0  0  0
 94200  1  0  0  0
 94201  1  0  0  0
 94202  1  0  0  0
 95203  1  0  0  0
 96204  1  0  0  0
 99205  1  0  0  0
 99206  1  0  0  0
100207  1  0  0  0
101208  1  0  0  0
101209  1  0  0  0
101210  1  0  0  0
102211  1  0  0  0
102212  1  0  0  0
102213  1  0  0  0
103214  1  0  0  0
104215  1  0  0  0
106216  1  0  0  0
107217  1  0  0  0
108218  1  0  0  0
108219  1  0  0  0
108220  1  0  0  0
109221  1  0  0  0
109222  1  0  0  0
109223  1  0  0  0
M  END
$$$$
