### 
### Created by X-TOOL on Mon Sep 10 21:13:30 2018
### 

@<TRIPOS>MOLECULE
2n8t_ligand
  218   222     1     0     0
SMALL
GAST_HUCK


@<TRIPOS>ATOM
      1 N         -12.1440  -10.0100    9.5500 N.4       1 ALA         0.2377
      2 CA        -10.8730   -9.4060    9.1000 C.3       1 ALA         0.0623
      3 C         -11.1210   -8.0740    8.4100 C.2       1 ALA         0.2289
      4 O         -11.5510   -8.0370    7.2580 O.2       1 ALA        -0.3905
      5 CB        -10.1360  -10.3560    8.1640 C.3       1 ALA        -0.0040
      6 N         -10.8630   -6.9590    9.1150 N.am      1 PRO        -0.2471
      7 CA        -11.0270   -5.6110    8.5630 C.3       1 PRO         0.1339
      8 C          -9.7590   -5.1010    7.8690 C.2       1 PRO         0.2041
      9 O          -9.7570   -4.0390    7.2430 O.2       1 PRO        -0.3944
     10 CB        -11.3190   -4.7860    9.8150 C.3       1 PRO        -0.0104
     11 CG        -10.5470   -5.4590   10.9050 C.3       1 PRO        -0.0281
     12 CD        -10.4130   -6.9180   10.5230 C.3       1 PRO         0.0371
     13 N          -8.6830   -5.8640    8.0010 N.am      1 LEU        -0.2637
     14 CA         -7.3940   -5.4990    7.4230 C.3       1 LEU         0.1312
     15 C          -7.0750   -6.3810    6.2220 C.2       1 LEU         0.2040
     16 O          -7.3920   -7.5730    6.2170 O.2       1 LEU        -0.3944
     17 CB         -6.2860   -5.6240    8.4740 C.3       1 LEU        -0.0101
     18 CG         -5.9190   -4.3260    9.2090 C.3       1 LEU        -0.0425
     19 CD1        -7.1280   -3.7090    9.8930 C.3       1 LEU        -0.0625
     20 CD2        -4.8080   -4.5870   10.2130 C.3       1 LEU        -0.0625
     21 N          -6.4520   -5.7870    5.2120 N.am      1 SEP        -0.2613
     22 CA         -6.1100   -6.4930    3.9800 C.3       1 SEP         0.1588
     23 CB         -6.0150   -5.4830    2.8370 C.3       1 SEP         0.1184
     24 OG         -7.2740   -4.8230    2.6840 O.3       1 SEP        -0.2714
     25 C          -4.7970   -7.2690    4.1300 C.2       1 SEP         0.2090
     26 O          -3.8660   -6.8080    4.7890 O.2       1 SEP        -0.3941
     27 P          -7.1110   -3.7790    1.4780 P.3       1 SEP         0.2010
     28 O1P        -6.7330   -4.4940    0.2390 O.co2     1 SEP        -0.5537
     29 O2P        -8.5010   -2.9990    1.2520 O.co2     1 SEP        -0.5537
     30 O3P        -5.9650   -2.7230    1.8490 O.co2     1 SEP        -0.5537
     31 N          -4.7140   -8.4730    3.5310 N.am      1 PRO        -0.2498
     32 CA         -3.5070   -9.3060    3.5870 C.3       1 PRO         0.1338
     33 C          -2.3480   -8.6940    2.7960 C.2       1 PRO         0.2041
     34 O          -2.4880   -8.3720    1.6150 O.2       1 PRO        -0.3944
     35 CB         -3.9540  -10.6350    2.9670 C.3       1 PRO        -0.0104
     36 CG         -5.1130  -10.2860    2.0980 C.3       1 PRO        -0.0281
     37 CD         -5.7910   -9.1090    2.7510 C.3       1 PRO         0.0369
     38 N          -1.2110   -8.5310    3.4620 N.am      1 MET        -0.2637
     39 CA         -0.0430   -7.9060    2.8520 C.3       1 MET         0.1317
     40 C           0.7900   -8.9320    2.0970 C.2       1 MET         0.2040
     41 O           1.1840   -9.9590    2.6510 O.2       1 MET        -0.3944
     42 CB          0.8180   -7.2200    3.9230 C.3       1 MET        -0.0034
     43 CG          0.0520   -6.2180    4.7680 C.3       1 MET        -0.0024
     44 SD          1.1140   -5.2680    5.8740 S.3       1 MET        -0.1639
     45 CE          1.8790   -6.5800    6.8290 C.3       1 MET        -0.0181
     46 N           1.0510   -8.6550    0.8290 N.am      1 SEP        -0.2613
     47 CA          1.8530   -9.5470    0.0050 C.3       1 SEP         0.1588
     48 CB          1.3040   -9.5780   -1.4220 C.3       1 SEP         0.1184
     49 OG         -0.0490  -10.0470   -1.3920 O.3       1 SEP        -0.2714
     50 C           3.3430   -9.1630    0.0310 C.2       1 SEP         0.2090
     51 O           4.1820  -10.0150    0.3290 O.2       1 SEP        -0.3941
     52 P          -0.5730  -10.0530   -2.9040 P.3       1 SEP         0.2010
     53 O1P         0.2810  -10.9340   -3.7300 O.co2     1 SEP        -0.5537
     54 O2P        -2.0940  -10.5730   -2.9550 O.co2     1 SEP        -0.5537
     55 O3P        -0.5140   -8.5590   -3.4970 O.co2     1 SEP        -0.5537
     56 N           3.7120   -7.8940   -0.2590 N.am      1 PRO        -0.2498
     57 CA          5.1030   -7.4690   -0.1780 C.3       1 PRO         0.1340
     58 C           5.4780   -6.9960    1.2300 C.2       1 PRO         0.2066
     59 O           4.6370   -6.4760    1.9650 O.2       1 PRO        -0.3942
     60 CB          5.1710   -6.3210   -1.1820 C.3       1 PRO        -0.0104
     61 CG          3.7980   -5.7280   -1.1960 C.3       1 PRO        -0.0281
     62 CD          2.8400   -6.7820   -0.6830 C.3       1 PRO         0.0369
     63 N           6.7490   -7.1880    1.6230 N.am      1 PRO        -0.2498
     64 CA          7.2480   -6.8090    2.9540 C.3       1 PRO         0.1338
     65 C           7.4200   -5.2960    3.1190 C.2       1 PRO         0.2039
     66 O           7.0650   -4.5170    2.2400 O.2       1 PRO        -0.3944
     67 CB          8.6150   -7.4970    3.0090 C.3       1 PRO        -0.0104
     68 CG          9.0520   -7.5130    1.5890 C.3       1 PRO        -0.0281
     69 CD          7.8080   -7.7870    0.7950 C.3       1 PRO         0.0369
     70 N           7.9700   -4.8920    4.2560 N.am      1 GLY        -0.2664
     71 CA          8.2610   -3.4910    4.4850 C.3       1 GLY         0.1201
     72 C           7.4550   -2.9210    5.6320 C.2       1 GLY         0.2009
     73 O           8.0140   -2.4430    6.6220 O.2       1 GLY        -0.3947
     74 N           6.1390   -2.9840    5.5080 N.am      1 TYR        -0.2624
     75 CA          5.2520   -2.4750    6.5440 C.3       1 TYR         0.1390
     76 C           5.0410   -3.5560    7.5900 C.2       1 TYR         0.2057
     77 O           4.6220   -4.6620    7.2570 O.2       1 TYR        -0.3942
     78 CB          3.9180   -2.0520    5.9300 C.3       1 TYR         0.0163
     79 CG          3.2000   -0.9560    6.6750 C.ar      1 TYR        -0.0493
     80 CD1         3.6620    0.3540    6.6530 C.ar      1 TYR        -0.0685
     81 CD2         2.0370   -1.2320    7.3760 C.ar      1 TYR        -0.0685
     82 CE1         2.9780    1.3570    7.3090 C.ar      1 TYR        -0.0398
     83 CE2         1.3510   -0.2380    8.0390 C.ar      1 TYR        -0.0398
     84 CZ          1.8260    1.0550    8.0010 C.ar      1 TYR         0.0805
     85 OH          1.1420    2.0550    8.6490 O.3       1 TYR        -0.3376
     86 N           5.3690   -3.2280    8.8410 N.am      1 LYS        -0.2636
     87 CA          5.3300   -4.1840    9.9520 C.3       1 LYS         0.1310
     88 C           6.4670   -5.2010    9.8190 C.2       1 LYS         0.2039
     89 O           6.5610   -6.1530   10.5980 O.2       1 LYS        -0.3944
     90 CB          3.9750   -4.9030   10.0140 C.3       1 LYS        -0.0122
     91 CG          2.8010   -3.9760   10.2880 C.3       1 LYS        -0.0440
     92 CD          2.8250   -3.4650   11.7170 C.3       1 LYS        -0.0124
     93 CE          1.7010   -2.4760   11.9780 C.3       1 LYS        -0.0354
     94 NZ          1.5980   -2.1220   13.4150 N.4       1 LYS         0.2185
     95 N           7.3430   -4.9520    8.8420 N.am      1 LEU        -0.2637
     96 CA          8.4630   -5.8310    8.5140 C.3       1 LEU         0.1312
     97 C           7.9780   -7.1620    7.9460 C.2       1 LEU         0.2034
     98 O           7.9400   -7.3330    6.7260 O.2       1 LEU        -0.3944
     99 CB          9.3810   -6.0470    9.7250 C.3       1 LEU        -0.0101
    100 CG         10.0640   -4.7830   10.2560 C.3       1 LEU        -0.0425
    101 CD1        10.9170   -5.1060   11.4730 C.3       1 LEU        -0.0625
    102 CD2        10.9140   -4.1340    9.1730 C.3       1 LEU        -0.0625
    103 N           7.6080   -8.0930    8.8210 N.am      1 VAL        -0.2692
    104 CA          7.1200   -9.4040    8.4020 C.3       1 VAL         0.0967
    105 C           6.0290   -9.8840    9.3530 C.2       1 VAL         0.0603
    106 O           6.3500  -10.1200   10.5400 O.co2     1 VAL        -0.5666
    107 CB          8.2410  -10.4720    8.3710 C.3       1 VAL        -0.0118
    108 CG1         7.6830  -11.8280    7.9650 C.3       1 VAL        -0.0590
    109 CG2         9.3740  -10.0670    7.4470 C.3       1 VAL        -0.0590
    110 OXT         4.8710  -10.0250    8.9200 O.co2     1 VAL        -0.5666
    111 H1        -11.9556  -10.8903   10.0036 H         1 ALA         0.2015
    112 H2        -12.7434  -10.1636    8.7542 H         1 ALA         0.2015
    113 H3        -12.6001   -9.3884   10.1993 H         1 ALA         0.2015
    114 H4        -10.2421   -9.2273    9.9832 H         1 ALA         0.1095
    115 H5         -9.1933   -9.8920    7.8385 H         1 ALA         0.0310
    116 H6        -10.7639  -10.5657    7.2855 H         1 ALA         0.0310
    117 H7         -9.9187  -11.2961    8.6923 H         1 ALA         0.0310
    118 H8        -11.8680   -5.5761    7.8548 H         1 PRO         0.0802
    119 H9        -12.3954   -4.7931   10.0414 H         1 PRO         0.0313
    120 H10       -10.9789   -3.7483    9.6833 H         1 PRO         0.0313
    121 H11       -11.0851   -5.3673   11.8600 H         1 PRO         0.0287
    122 H12        -9.5513   -5.0012   10.9997 H         1 PRO         0.0287
    123 H13        -9.3683   -7.2510   10.6100 H         1 PRO         0.0524
    124 H14       -11.0530   -7.5490   11.1571 H         1 PRO         0.0524
    125 H15        -8.7573   -6.7190    8.5143 H         1 LEU         0.1883
    126 H16        -7.4445   -4.4528    7.0869 H         1 LEU         0.0800
    127 H17        -5.3814   -5.9947    7.9697 H         1 LEU         0.0315
    128 H18        -6.6135   -6.3574    9.2255 H         1 LEU         0.0315
    129 H19        -5.5473   -3.6066    8.4645 H         1 LEU         0.0298
    130 H20        -6.8263   -2.7844   10.4069 H         1 LEU         0.0232
    131 H21        -7.5366   -4.4195   10.6266 H         1 LEU         0.0232
    132 H22        -7.8960   -3.4765    9.1406 H         1 LEU         0.0232
    133 H23        -3.9448   -5.0327    9.6970 H         1 LEU         0.0232
    134 H24        -5.1692   -5.2790   10.9880 H         1 LEU         0.0232
    135 H25        -4.5059   -3.6382   10.6805 H         1 LEU         0.0232
    136 H26        -6.2079   -4.8210    5.2975 H         1 SEP         0.1884
    137 H27        -6.9115   -7.2110    3.7518 H         1 SEP         0.0827
    138 H28        -5.7589   -6.0067    1.9042 H         1 SEP         0.0662
    139 H29        -5.2364   -4.7406    3.0664 H         1 SEP         0.0662
    140 H30        -3.1901   -9.4523    4.6301 H         1 PRO         0.0802
    141 H31        -4.2585  -11.3441    3.7509 H         1 PRO         0.0313
    142 H32        -3.1420  -11.0752    2.3697 H         1 PRO         0.0313
    143 H33        -5.8077  -11.1361    2.0298 H         1 PRO         0.0287
    144 H34        -4.7655  -10.0146    1.0902 H         1 PRO         0.0287
    145 H35        -6.1889   -8.4165    1.9946 H         1 PRO         0.0524
    146 H36        -6.6073   -9.4421    3.4087 H         1 PRO         0.0524
    147 H37        -1.1539   -8.8459    4.4094 H         1 MET         0.1883
    148 H38        -0.3894   -7.1438    2.1386 H         1 MET         0.0800
    149 H39         1.6429   -6.6931    3.4212 H         1 MET         0.0320
    150 H40         1.2281   -7.9942    4.5881 H         1 MET         0.0320
    151 H41        -0.6865   -6.7631    5.3742 H         1 MET         0.0378
    152 H42        -0.4687   -5.5193    4.0967 H         1 MET         0.0378
    153 H43         2.5709   -6.1429    7.5640 H         1 MET         0.0340
    154 H44         2.4346   -7.2483    6.1547 H         1 MET         0.0340
    155 H45         1.1006   -7.1532    7.3539 H         1 MET         0.0340
    156 H46         0.6887   -7.8135    0.4282 H         1 SEP         0.1884
    157 H47         1.7651  -10.5609    0.4223 H         1 SEP         0.0827
    158 H48         1.9151  -10.2546   -2.0375 H         1 SEP         0.0662
    159 H49         1.3336   -8.5653   -1.8505 H         1 SEP         0.0662
    160 H50         5.7765   -8.2871   -0.4732 H         1 PRO         0.0802
    161 H51         5.4384   -6.6974   -2.1804 H         1 PRO         0.0313
    162 H52         5.9108   -5.5725   -0.8621 H         1 PRO         0.0313
    163 H53         3.5243   -5.4394   -2.2216 H         1 PRO         0.0287
    164 H54         3.7651   -4.8422   -0.5447 H         1 PRO         0.0287
    165 H55         2.2575   -6.3979    0.1674 H         1 PRO         0.0524
    166 H56         2.1549   -7.1065   -1.4801 H         1 PRO         0.0524
    167 H57         6.5787   -7.1861    3.7413 H         1 PRO         0.0802
    168 H58         8.5250   -8.5196    3.4043 H         1 PRO         0.0313
    169 H59         9.3189   -6.9242    3.6306 H         1 PRO         0.0313
    170 H60         9.7968   -8.3055    1.4239 H         1 PRO         0.0287
    171 H61         9.4825   -6.5407    1.3073 H         1 PRO         0.0287
    172 H62         7.8561   -7.3070   -0.1936 H         1 PRO         0.0524
    173 H63         7.6486   -8.8682    0.6703 H         1 PRO         0.0524
    174 H64         8.1869   -5.5631    4.9649 H         1 GLY         0.1881
    175 H65         8.0254   -2.9260    3.5711 H         1 GLY         0.0763
    176 H66         9.3311   -3.3844    4.7164 H         1 GLY         0.0763
    177 H67         5.7448   -3.3906    4.6838 H         1 TYR         0.1885
    178 H68         5.7176   -1.5997    7.0206 H         1 TYR         0.0821
    179 H69         3.2602   -2.9331    5.8996 H         1 TYR         0.0453
    180 H70         4.1087   -1.7012    4.9050 H         1 TYR         0.0453
    181 H71         4.5717    0.5914    6.1134 H         1 TYR         0.0530
    182 H72         1.6602   -2.2481    7.4032 H         1 TYR         0.0530
    183 H73         3.3451    2.3765    7.2799 H         1 TYR         0.0525
    184 H74         0.4448   -0.4712    8.5862 H         1 TYR         0.0525
    185 H75         1.5976    2.8796    8.5264 H         1 TYR         0.2458
    186 H76         5.6542   -2.2882    9.0293 H         1 LYS         0.1883
    187 H77         5.4688   -3.6280   10.8909 H         1 LYS         0.0800
    188 H78         4.0176   -5.6550   10.8156 H         1 LYS         0.0312
    189 H79         3.8037   -5.4041    9.0499 H         1 LYS         0.0312
    190 H80         1.8632   -4.5257   10.1196 H         1 LYS         0.0269
    191 H81         2.8525   -3.1193    9.6000 H         1 LYS         0.0269
    192 H82         3.7883   -2.9670   11.9016 H         1 LYS         0.0317
    193 H83         2.7158   -4.3181   12.4028 H         1 LYS         0.0317
    194 H84         0.7504   -2.9242   11.6532 H         1 LYS         0.0813
    195 H85         1.8914   -1.5603   11.3990 H         1 LYS         0.0813
    196 H86         0.8436   -1.4664   13.5463 H         1 LYS         0.1994
    197 H87         2.4629   -1.7046   13.7211 H         1 LYS         0.1994
    198 H88         1.4173   -2.9544   13.9540 H         1 LYS         0.1994
    199 H89         7.2257   -4.1168    8.3047 H         1 LEU         0.1883
    200 H90         9.0563   -5.3333    7.7328 H         1 LEU         0.0800
    201 H91        10.1652   -6.7618    9.4350 H         1 LEU         0.0315
    202 H92         8.7770   -6.4753   10.5385 H         1 LEU         0.0315
    203 H93         9.2835   -4.0694   10.5584 H         1 LEU         0.0298
    204 H94        11.3978   -4.1865   11.8382 H         1 LEU         0.0232
    205 H95        11.6894   -5.8383   11.1955 H         1 LEU         0.0232
    206 H96        10.2807   -5.5267   12.2656 H         1 LEU         0.0232
    207 H97        10.2845   -3.9063    8.3001 H         1 LEU         0.0232
    208 H98        11.7179   -4.8234    8.8755 H         1 LEU         0.0232
    209 H99        11.3538   -3.2033    9.5606 H         1 LEU         0.0232
    210 H100        7.6659   -7.8884    9.7981 H         1 VAL         0.1875
    211 H101        6.6990   -9.3078    7.3903 H         1 VAL         0.0729
    212 H102        8.6497  -10.5616    9.3883 H         1 VAL         0.0336
    213 H103        8.4956  -12.5692    7.9499 H         1 VAL         0.0234
    214 H104        7.2347  -11.7550    6.9632 H         1 VAL         0.0234
    215 H105        6.9154  -12.1402    8.6884 H         1 VAL         0.0234
    216 H106        9.7650   -9.0859    7.7545 H         1 VAL         0.0234
    217 H107        9.0007  -10.0055    6.4141 H         1 VAL         0.0234
    218 H108       10.1779  -10.8158    7.5024 H         1 VAL         0.0234
@<TRIPOS>BOND
     1    1    2 1  
     2    2    3 1  
     3    2    5 1  
     4    3    4 2  
     5    3    6 am 
     6    6    7 1  
     7    6   12 1  
     8    7    8 1  
     9    7   10 1  
    10    8    9 2  
    11    8   13 am 
    12   10   11 1  
    13   11   12 1  
    14   13   14 1  
    15   14   15 1  
    16   14   17 1  
    17   15   16 2  
    18   15   21 am 
    19   17   18 1  
    20   18   19 1  
    21   18   20 1  
    22   21   22 1  
    23   22   23 1  
    24   22   25 1  
    25   23   24 1  
    26   24   27 1  
    27   25   26 2  
    28   25   31 am 
    29   27   28 ar 
    30   27   29 ar 
    31   27   30 ar 
    32   31   32 1  
    33   31   37 1  
    34   32   33 1  
    35   32   35 1  
    36   33   34 2  
    37   33   38 am 
    38   35   36 1  
    39   36   37 1  
    40   38   39 1  
    41   39   40 1  
    42   39   42 1  
    43   40   41 2  
    44   40   46 am 
    45   42   43 1  
    46   43   44 1  
    47   44   45 1  
    48   46   47 1  
    49   47   48 1  
    50   47   50 1  
    51   48   49 1  
    52   49   52 1  
    53   50   51 2  
    54   50   56 am 
    55   52   53 ar 
    56   52   54 ar 
    57   52   55 ar 
    58   56   57 1  
    59   56   62 1  
    60   57   58 1  
    61   57   60 1  
    62   58   59 2  
    63   58   63 am 
    64   60   61 1  
    65   61   62 1  
    66   63   64 1  
    67   63   69 1  
    68   64   65 1  
    69   64   67 1  
    70   65   66 2  
    71   65   70 am 
    72   67   68 1  
    73   68   69 1  
    74   70   71 1  
    75   71   72 1  
    76   72   73 2  
    77   72   74 am 
    78   74   75 1  
    79   75   76 1  
    80   75   78 1  
    81   76   77 2  
    82   76   86 am 
    83   78   79 1  
    84   79   80 ar 
    85   79   81 ar 
    86   80   82 ar 
    87   81   83 ar 
    88   82   84 ar 
    89   83   84 ar 
    90   84   85 1  
    91   86   87 1  
    92   87   88 1  
    93   87   90 1  
    94   88   89 2  
    95   88   95 am 
    96   90   91 1  
    97   91   92 1  
    98   92   93 1  
    99   93   94 1  
   100   95   96 1  
   101   96   97 1  
   102   96   99 1  
   103   97   98 2  
   104   97  103 am 
   105   99  100 1  
   106  100  101 1  
   107  100  102 1  
   108  103  104 1  
   109  104  105 1  
   110  104  107 1  
   111  105  106 ar 
   112  105  110 ar 
   113  107  108 1  
   114  107  109 1  
   115    1  111 1  
   116    1  112 1  
   117    1  113 1  
   118    2  114 1  
   119    5  115 1  
   120    5  116 1  
   121    5  117 1  
   122    7  118 1  
   123   10  119 1  
   124   10  120 1  
   125   11  121 1  
   126   11  122 1  
   127   12  123 1  
   128   12  124 1  
   129   13  125 1  
   130   14  126 1  
   131   17  127 1  
   132   17  128 1  
   133   18  129 1  
   134   19  130 1  
   135   19  131 1  
   136   19  132 1  
   137   20  133 1  
   138   20  134 1  
   139   20  135 1  
   140   21  136 1  
   141   22  137 1  
   142   23  138 1  
   143   23  139 1  
   144   32  140 1  
   145   35  141 1  
   146   35  142 1  
   147   36  143 1  
   148   36  144 1  
   149   37  145 1  
   150   37  146 1  
   151   38  147 1  
   152   39  148 1  
   153   42  149 1  
   154   42  150 1  
   155   43  151 1  
   156   43  152 1  
   157   45  153 1  
   158   45  154 1  
   159   45  155 1  
   160   46  156 1  
   161   47  157 1  
   162   48  158 1  
   163   48  159 1  
   164   57  160 1  
   165   60  161 1  
   166   60  162 1  
   167   61  163 1  
   168   61  164 1  
   169   62  165 1  
   170   62  166 1  
   171   64  167 1  
   172   67  168 1  
   173   67  169 1  
   174   68  170 1  
   175   68  171 1  
   176   69  172 1  
   177   69  173 1  
   178   70  174 1  
   179   71  175 1  
   180   71  176 1  
   181   74  177 1  
   182   75  178 1  
   183   78  179 1  
   184   78  180 1  
   185   80  181 1  
   186   81  182 1  
   187   82  183 1  
   188   83  184 1  
   189   85  185 1  
   190   86  186 1  
   191   87  187 1  
   192   90  188 1  
   193   90  189 1  
   194   91  190 1  
   195   91  191 1  
   196   92  192 1  
   197   92  193 1  
   198   93  194 1  
   199   93  195 1  
   200   94  196 1  
   201   94  197 1  
   202   94  198 1  
   203   95  199 1  
   204   96  200 1  
   205   99  201 1  
   206   99  202 1  
   207  100  203 1  
   208  101  204 1  
   209  101  205 1  
   210  101  206 1  
   211  102  207 1  
   212  102  208 1  
   213  102  209 1  
   214  103  210 1  
   215  104  211 1  
   216  107  212 1  
   217  108  213 1  
   218  108  214 1  
   219  108  215 1  
   220  109  216 1  
   221  109  217 1  
   222  109  218 1  
@<TRIPOS>SUBSTRUCTURE
     1 ALA         1

