### 
### Created by X-TOOL on Mon Sep 10 21:12:48 2018
### 

@<TRIPOS>MOLECULE
1fsy_ligand
   32    33     1     0     0
SMALL
GAST_HUCK


@<TRIPOS>ATOM
      1 B          26.4040    4.8710   16.2880 B         1 105         0.7127
      2 O1         25.2700    3.8740   16.5010 O.3       1 105        -0.4968
      3 O2         26.5500    5.7400   17.4770 O.3       1 105        -0.4968
      4 C3         26.1510    5.7310   15.0080 C.3       1 105         0.0404
      5 N4         24.7490    5.6030   14.5640 N.am      1 105        -0.3020
      6 C5         24.3710    5.8520   13.2880 C.2       1 105         0.1791
      7 O6         25.1470    6.2190   12.4020 O.2       1 105        -0.4042
      8 C7         22.9710    5.7210   12.9990 C.2       1 105         0.0868
      9 N11        20.7340    6.0800   13.3510 N.2       1 105        -0.1444
     10 O10        20.9280    5.3460   12.1180 O.3       1 105        -0.1564
     11 C8         22.2390    5.2140   12.0390 C.2       1 105         0.1630
     12 C12        21.9430    6.2880   13.8370 C.2       1 105         0.0647
     13 C9         22.8790    4.4890   10.8840 C.3       1 105         0.0166
     14 C13        21.9710    7.0550   15.1670 C.ar      1 105         0.0016
     15 C14        22.7020    8.3110   15.2630 C.ar      1 105         0.0476
     16 CL1        23.4190    9.0830   13.8170 Cl        1 105        -0.0700
     17 C15        22.8860    8.9420   16.5190 C.ar      1 105        -0.0479
     18 C16        22.3420    8.3460   17.6870 C.ar      1 105        -0.0618
     19 C17        21.6060    7.1260   17.5970 C.ar      1 105        -0.0617
     20 C18        21.4190    6.4810   16.3390 C.ar      1 105        -0.0541
     21 H1         25.1861    3.3225   15.7320 H         1 105         0.1667
     22 H2         27.2586    6.3560   17.3325 H         1 105         0.1667
     23 H3         26.8176    5.3866   14.2036 H         1 105         0.0394
     24 H4         26.3636    6.7864   15.2338 H         1 105         0.0394
     25 H5         24.0554    5.3231   15.2277 H         1 105         0.1817
     26 H6         22.0983    4.1421   10.1910 H         1 105         0.0477
     27 H7         23.4445    3.6244   11.2618 H         1 105         0.0477
     28 H8         23.5614    5.1711   10.3558 H         1 105         0.0477
     29 H9         23.4379    9.8725   16.5871 H         1 105         0.0622
     30 H10        22.4861    8.8194   18.6515 H         1 105         0.0613
     31 H11        21.1852    6.6857   18.4937 H         1 105         0.0617
     32 H12        20.8572    5.5559   16.2796 H         1 105         0.0618
@<TRIPOS>BOND
     1    1    2 1  
     2    1    3 1  
     3    4    1 1  
     4    5    4 1  
     5    6    5 am 
     6    6    7 2  
     7    8    6 1  
     8    8   11 2  
     9   12    8 1  
    10    9   10 1  
    11    9   12 2  
    12   10   11 1  
    13   11   13 1  
    14   12   14 1  
    15   14   15 ar 
    16   14   20 ar 
    17   15   16 1  
    18   15   17 ar 
    19   17   18 ar 
    20   18   19 ar 
    21   19   20 ar 
    22    2   21 1  
    23    3   22 1  
    24    4   23 1  
    25    4   24 1  
    26    5   25 1  
    27   13   26 1  
    28   13   27 1  
    29   13   28 1  
    30   17   29 1  
    31   18   30 1  
    32   19   31 1  
    33   20   32 1  
@<TRIPOS>SUBSTRUCTURE
     1 105         1

