2z5t_ligand
  -I-interpret- 

194197  0  0  0  0  0  0  0  0999 V2000
    3.6410   -8.4250   49.5450 N   0  3  0  0  0
    4.3840   -7.7990   50.6780 C   0  0  0  0  0
    4.8190   -6.3670   50.3580 C   0  0  0  0  0
    4.5360   -5.4450   51.1190 O   0  0  0  0  0
    5.5840   -8.6680   51.0720 C   0  0  0  0  0
    6.4380   -8.1220   52.2200 C   0  0  0  0  0
    7.1230   -9.2270   53.0190 C   0  0  0  0  0
    6.5240  -10.3200   53.1620 O   0  0  0  0  0
    8.2530   -9.0000   53.5120 O   0  0  0  0  0
    5.5040   -6.1950   49.2360 N   0  0  0  0  0
    5.9360   -4.8800   48.7450 C   0  0  0  0  0
    4.8260   -4.2710   47.8610 C   0  0  0  0  0
    4.1300   -5.0110   47.1640 O   0  0  0  0  0
    7.2820   -5.0430   47.9850 C   0  0  0  0  0
    8.3700   -4.5670   48.7980 O   0  0  0  0  0
    7.2870   -4.3240   46.6690 C   0  0  0  0  0
    4.6430   -2.9460   47.9010 N   0  0  0  0  0
    3.5780   -2.3100   47.1100 C   0  0  0  0  0
    3.6960   -2.6430   45.6170 C   0  0  0  0  0
    2.6900   -2.8620   44.9310 O   0  0  0  0  0
    3.5340   -0.7830   47.2820 C   0  0  0  0  0
    2.7370   -0.0880   46.1980 C   0  0  0  0  0
    1.3480    0.0390   46.3060 C   0  0  0  0  0
    3.3660    0.3840   45.0430 C   0  0  0  0  0
    0.6030    0.6490   45.2880 C   0  0  0  0  0
    2.6390    0.9910   44.0280 C   0  0  0  0  0
    1.2480    1.1250   44.1540 C   0  0  0  0  0
    4.9330   -2.6370   45.1320 N   0  0  0  0  0
    5.2540   -2.9150   43.7430 C   0  0  0  0  0
    4.9150   -4.3650   43.3490 C   0  0  0  0  0
    4.4550   -4.6050   42.2380 O   0  0  0  0  0
    6.7330   -2.5850   43.5000 C   0  0  0  0  0
    7.1950   -3.0830   42.2750 O   0  0  0  0  0
    5.1390   -5.3170   44.2570 N   0  0  0  0  0
    4.7180   -6.7080   44.0530 C   0  0  0  0  0
    3.1970   -6.7560   43.9070 C   0  0  0  0  0
    2.6790   -7.2810   42.9230 O   0  0  0  0  0
    5.1320   -7.6070   45.2290 C   0  0  0  0  0
    6.6450   -7.8050   45.3420 C   0  0  0  0  0
    7.3810   -7.6150   44.3470 O   0  0  0  0  0
    7.0970   -8.1620   46.4560 O   0  0  0  0  0
    2.5070   -6.1850   44.8940 N   0  0  0  0  0
    1.0430   -6.1130   44.9370 C   0  0  0  0  0
    0.4020   -5.4250   43.7260 C   0  0  0  0  0
   -0.5420   -5.9600   43.1390 O   0  0  0  0  0
    0.5900   -5.4420   46.2420 C   0  0  0  0  0
    0.9740   -6.2370   47.4990 C   0  0  0  0  0
    1.0580   -5.3540   48.7220 C   0  0  0  0  0
    0.0080   -7.3970   47.7350 C   0  0  0  0  0
    0.9220   -4.2550   43.3550 N   0  0  0  0  0
    0.4150   -3.4980   42.2110 C   0  0  0  0  0
    0.4480   -4.3060   40.9090 C   0  0  0  0  0
   -0.5000   -4.2520   40.1180 O   0  0  0  0  0
    1.1920   -2.1820   42.0410 C   0  0  0  0  0
    0.6200   -1.2890   40.9840 C   0  0  0  0  0
    1.0650   -1.1420   39.6980 C   0  0  0  0  0
   -0.5210   -0.4330   41.1150 C   0  0  0  0  0
    0.2780   -0.2360   39.0260 N   0  0  0  0  0
   -0.7050    0.2120   39.8700 C   0  0  0  0  0
   -1.4030   -0.1410   42.1650 C   0  0  0  0  0
   -1.7390    1.1370   39.6470 C   0  0  0  0  0
   -2.4360    0.7840   41.9380 C   0  0  0  0  0
   -2.5900    1.4040   40.6900 C   0  0  0  0  0
    1.5410   -5.0420   40.6940 N   0  0  0  0  0
    1.7170   -5.8840   39.5060 C   0  0  0  0  0
    0.5900   -6.8990   39.3590 C   0  0  0  0  0
    0.2020   -7.2450   38.2410 O   0  0  0  0  0
    3.0470   -6.6410   39.5680 C   0  0  0  0  0
    4.2740   -5.8030   39.3040 C   0  0  0  0  0
    5.5260   -6.6220   39.5730 C   0  0  0  0  0
    6.7960   -5.8320   39.2710 C   0  0  0  0  0
    8.0070   -6.6530   39.5740 N   0  3  0  0  0
    0.0810   -7.3710   40.4970 N   0  0  0  0  0
   -0.9870   -8.3670   40.5370 C   0  0  0  0  0
   -2.3750   -7.7170   40.5510 C   0  0  0  0  0
   -3.2750   -8.1900   41.2500 O   0  0  0  0  0
   -0.8260   -9.2870   41.7600 C   0  0  0  0  0
    0.4180  -10.1710   41.9230 C   0  0  0  0  0
    0.4750  -10.7380   43.3400 C   0  0  0  0  0
    0.4450  -11.3010   40.8990 C   0  0  0  0  0
   -2.5400   -6.6300   39.7940 N   0  0  0  0  0
   -3.8560   -6.0150   39.6060 C   0  0  0  0  0
   -4.5380   -6.6000   38.3700 C   0  0  0  0  0
   -3.9590   -6.5860   37.2800 O   0  0  0  0  0
   -3.7680   -4.4870   39.4930 C   0  0  0  0  0
   -4.0150   -3.6410   40.7470 C   0  0  0  0  0
   -3.8010   -2.1900   40.4250 C   0  0  0  0  0
   -5.4080   -3.8290   41.3010 C   0  0  0  0  0
   -5.7730   -7.1130   38.5390 N   0  0  0  0  0
   -6.5160   -7.7840   37.4730 C   0  0  0  0  0
   -6.6630   -6.9330   36.2160 C   0  0  0  0  0
   -6.8280   -5.7170   36.3140 O   0  0  0  0  0
   -7.8920   -8.0470   38.1040 C   0  0  0  0  0
   -7.9480   -7.1960   39.3380 C   0  0  0  0  0
   -6.5370   -7.0810   39.7990 C   0  0  0  0  0
   -6.6130   -7.5037   35.0157 O   0  0  0  0  0
    3.3712   -9.3749   49.8005 H   0  0  0  0  0
    2.8056   -7.8757   49.3430 H   0  0  0  0  0
    4.2402   -8.4507   48.7199 H   0  0  0  0  0
    3.7040   -7.7386   51.5277 H   0  0  0  0  0
    6.2326   -8.7197   50.1975 H   0  0  0  0  0
    5.1807   -9.6227   51.4095 H   0  0  0  0  0
    5.7805   -7.5768   52.8972 H   0  0  0  0  0
    7.2140   -7.4893   51.7892 H   0  0  0  0  0
    5.6793  -10.2826   52.7074 H   0  0  0  0  0
    5.7435   -7.0192   48.6849 H   0  0  0  0  0
    6.1033   -4.1905   49.5725 H   0  0  0  0  0
    7.4060   -6.1064   47.7801 H   0  0  0  0  0
    9.1955   -4.6723   48.3194 H   0  0  0  0  0
    6.4928   -4.7208   46.0366 H   0  0  0  0  0
    7.1218   -3.2598   46.8372 H   0  0  0  0  0
    8.2500   -4.4706   46.1800 H   0  0  0  0  0
    5.2486   -2.3706   48.4864 H   0  0  0  0  0
    2.6481   -2.7242   47.4997 H   0  0  0  0  0
    4.5581   -0.4134   47.2298 H   0  0  0  0  0
    3.0524   -0.5702   48.2364 H   0  0  0  0  0
    0.8395   -0.3409   47.1921 H   0  0  0  0  0
    4.4452    0.2738   44.9372 H   0  0  0  0  0
   -0.4780    0.7495   45.3857 H   0  0  0  0  0
    3.1464    1.3617   43.1374 H   0  0  0  0  0
    0.6731    1.6032   43.3610 H   0  0  0  0  0
    5.6997   -2.4254   45.7706 H   0  0  0  0  0
    4.6373   -2.2838   43.1032 H   0  0  0  0  0
    7.3176   -3.0478   44.2951 H   0  0  0  0  0
    6.8393   -1.5003   43.4856 H   0  0  0  0  0
    8.1209   -2.8537   42.1663 H   0  0  0  0  0
    5.6191   -5.0694   45.1222 H   0  0  0  0  0
    5.2070   -7.0776   43.1517 H   0  0  0  0  0
    4.6844   -8.5873   45.0656 H   0  0  0  0  0
    4.7953   -7.1231   46.1459 H   0  0  0  0  0
    6.3730   -8.2515   47.0800 H   0  0  0  0  0
    3.0294   -5.7727   45.6670 H   0  0  0  0  0
    0.6914   -7.1440   44.8993 H   0  0  0  0  0
   -0.4974   -5.3717   46.2161 H   0  0  0  0  0
    1.0834   -4.4719   46.3022 H   0  0  0  0  0
    1.9678   -6.6491   47.3239 H   0  0  0  0  0
    1.8124   -4.5838   48.5614 H   0  0  0  0  0
    0.0898   -4.8850   48.8972 H   0  0  0  0  0
    1.3322   -5.9583   49.5867 H   0  0  0  0  0
   -1.0016   -7.0069   47.8642 H   0  0  0  0  0
    0.0323   -8.0687   46.8769 H   0  0  0  0  0
    0.3066   -7.9401   48.6317 H   0  0  0  0  0
    1.7028   -3.8734   43.8890 H   0  0  0  0  0
   -0.6299   -3.2720   42.4237 H   0  0  0  0  0
    2.2091   -2.4361   41.7427 H   0  0  0  0  0
    1.1421   -1.6452   42.9883 H   0  0  0  0  0
    1.9187   -1.6665   39.2689 H   0  0  0  0  0
   -1.2897   -0.6214   43.1368 H   0  0  0  0  0
   -1.8608    1.6251   38.6800 H   0  0  0  0  0
   -3.1286    1.0233   42.7449 H   0  0  0  0  0
   -3.4041    2.1142   40.5449 H   0  0  0  0  0
    2.2881   -5.0176   41.3880 H   0  0  0  0  0
    1.7070   -5.2149   38.6456 H   0  0  0  0  0
    3.0121   -7.4008   38.7872 H   0  0  0  0  0
    3.1422   -7.0252   40.5836 H   0  0  0  0  0
    4.2644   -4.9336   39.9614 H   0  0  0  0  0
    4.2720   -5.4798   38.2630 H   0  0  0  0  0
    5.5067   -7.4995   38.9267 H   0  0  0  0  0
    5.5359   -6.8961   40.6279 H   0  0  0  0  0
    6.8115   -4.9356   39.8910 H   0  0  0  0  0
    6.8043   -5.5651   38.2142 H   0  0  0  0  0
    8.8451   -6.1099   39.3665 H   0  0  0  0  0
    8.0032   -6.9110   40.5608 H   0  0  0  0  0
    7.9965   -7.4966   39.0008 H   0  0  0  0  0
    0.4540   -7.0210   41.3795 H   0  0  0  0  0
   -0.9051   -8.9621   39.6274 H   0  0  0  0  0
   -1.6464   -9.9985   41.6664 H   0  0  0  0  0
   -0.7750   -8.5993   42.6042 H   0  0  0  0  0
    1.2955   -9.5483   41.7486 H   0  0  0  0  0
    0.5211   -9.9179   44.0565 H   0  0  0  0  0
   -0.4171  -11.3358   43.5269 H   0  0  0  0  0
    1.3615  -11.3635   43.4443 H   0  0  0  0  0
   -0.4394  -11.9254   41.0255 H   0  0  0  0  0
    0.4526  -10.8789   39.8941 H   0  0  0  0  0
    1.3411  -11.9034   41.0482 H   0  0  0  0  0
   -1.7285   -6.2169   39.3345 H   0  0  0  0  0
   -4.4529   -6.2410   40.4896 H   0  0  0  0  0
   -4.5631   -4.2077   38.8016 H   0  0  0  0  0
   -2.7348   -4.2827   39.2123 H   0  0  0  0  0
   -3.3084   -3.9723   41.5080 H   0  0  0  0  0
   -2.7765   -2.0422   40.0833 H   0  0  0  0  0
   -4.4943   -1.8872   39.6403 H   0  0  0  0  0
   -3.9773   -1.5910   41.3184 H   0  0  0  0  0
   -6.1397   -3.5379   40.5474 H   0  0  0  0  0
   -5.5541   -4.8762   41.5656 H   0  0  0  0  0
   -5.5316   -3.2080   42.1883 H   0  0  0  0  0
   -6.0010   -8.6841   37.1373 H   0  0  0  0  0
   -8.0216   -9.1021   38.3449 H   0  0  0  0  0
   -8.6979   -7.7968   37.4141 H   0  0  0  0  0
   -8.3842   -6.2185   39.1322 H   0  0  0  0  0
   -8.5855   -7.6393   40.1029 H   0  0  0  0  0
   -6.3549   -6.1773   40.3806 H   0  0  0  0  0
   -6.2511   -7.8769   40.4867 H   0  0  0  0  0
   -6.4805   -8.4491   35.1174 H   0  0  0  0  0
  2  1  1  0  0  0
  2  5  1  0  0  0
  3  2  1  0  0  0
  3  4  2  0  0  0
  5  6  1  0  0  0
  6  7  1  0  0  0
  7  9  2  0  0  0
  7  8  1  0  0  0
 11 10  1  0  0  0
 11 14  1  0  0  0
 12 11  1  0  0  0
 12 13  2  0  0  0
 14 16  1  0  0  0
 14 15  1  0  0  0
 10  3  1  0  0  0
 18 17  1  0  0  0
 18 21  1  0  0  0
 19 18  1  0  0  0
 19 20  2  0  0  0
 21 22  1  0  0  0
 22 23  4  0  0  0
 22 24  4  0  0  0
 24 26  4  0  0  0
 26 27  4  0  0  0
 25 27  4  0  0  0
 23 25  4  0  0  0
 17 12  1  0  0  0
 29 28  1  0  0  0
 29 32  1  0  0  0
 30 29  1  0  0  0
 30 31  2  0  0  0
 32 33  1  0  0  0
 28 19  1  0  0  0
 35 34  1  0  0  0
 35 38  1  0  0  0
 36 35  1  0  0  0
 36 37  2  0  0  0
 38 39  1  0  0  0
 39 40  2  0  0  0
 39 41  1  0  0  0
 34 30  1  0  0  0
 43 42  1  0  0  0
 43 46  1  0  0  0
 44 43  1  0  0  0
 44 45  2  0  0  0
 46 47  1  0  0  0
 47 48  1  0  0  0
 47 49  1  0  0  0
 42 36  1  0  0  0
 51 50  1  0  0  0
 51 54  1  0  0  0
 52 51  1  0  0  0
 52 53  2  0  0  0
 54 55  1  0  0  0
 55 56  4  0  0  0
 55 57  4  0  0  0
 57 60  4  0  0  0
 57 59  4  0  0  0
 59 61  4  0  0  0
 59 58  4  0  0  0
 56 58  4  0  0  0
 61 63  4  0  0  0
 62 63  4  0  0  0
 60 62  4  0  0  0
 50 44  1  0  0  0
 65 64  1  0  0  0
 65 68  1  0  0  0
 66 65  1  0  0  0
 66 67  2  0  0  0
 68 69  1  0  0  0
 69 70  1  0  0  0
 70 71  1  0  0  0
 71 72  1  0  0  0
 64 52  1  0  0  0
 74 73  1  0  0  0
 74 77  1  0  0  0
 75 74  1  0  0  0
 75 76  2  0  0  0
 77 78  1  0  0  0
 78 79  1  0  0  0
 78 80  1  0  0  0
 73 66  1  0  0  0
 82 81  1  0  0  0
 82 85  1  0  0  0
 83 82  1  0  0  0
 83 84  2  0  0  0
 85 86  1  0  0  0
 86 87  1  0  0  0
 86 88  1  0  0  0
 81 75  1  0  0  0
 90 91  1  0  0  0
 90 93  1  0  0  0
 89 90  1  0  0  0
 89 95  1  0  0  0
 95 94  1  0  0  0
 94 93  1  0  0  0
 91 92  2  0  0  0
 83 89  1  0  0  0
 91 96  1  0  0  0
  1 97  1  0  0  0
  1 98  1  0  0  0
  1 99  1  0  0  0
  2100  1  0  0  0
  5101  1  0  0  0
  5102  1  0  0  0
  6103  1  0  0  0
  6104  1  0  0  0
  8105  1  0  0  0
 10106  1  0  0  0
 11107  1  0  0  0
 14108  1  0  0  0
 15109  1  0  0  0
 16110  1  0  0  0
 16111  1  0  0  0
 16112  1  0  0  0
 17113  1  0  0  0
 18114  1  0  0  0
 21115  1  0  0  0
 21116  1  0  0  0
 23117  1  0  0  0
 24118  1  0  0  0
 25119  1  0  0  0
 26120  1  0  0  0
 27121  1  0  0  0
 28122  1  0  0  0
 29123  1  0  0  0
 32124  1  0  0  0
 32125  1  0  0  0
 33126  1  0  0  0
 34127  1  0  0  0
 35128  1  0  0  0
 38129  1  0  0  0
 38130  1  0  0  0
 41131  1  0  0  0
 42132  1  0  0  0
 43133  1  0  0  0
 46134  1  0  0  0
 46135  1  0  0  0
 47136  1  0  0  0
 48137  1  0  0  0
 48138  1  0  0  0
 48139  1  0  0  0
 49140  1  0  0  0
 49141  1  0  0  0
 49142  1  0  0  0
 50143  1  0  0  0
 51144  1  0  0  0
 54145  1  0  0  0
 54146  1  0  0  0
 56147  1  0  0  0
 60148  1  0  0  0
 61149  1  0  0  0
 62150  1  0  0  0
 63151  1  0  0  0
 64152  1  0  0  0
 65153  1  0  0  0
 68154  1  0  0  0
 68155  1  0  0  0
 69156  1  0  0  0
 69157  1  0  0  0
 70158  1  0  0  0
 70159  1  0  0  0
 71160  1  0  0  0
 71161  1  0  0  0
 72162  1  0  0  0
 72163  1  0  0  0
 72164  1  0  0  0
 73165  1  0  0  0
 74166  1  0  0  0
 77167  1  0  0  0
 77168  1  0  0  0
 78169  1  0  0  0
 79170  1  0  0  0
 79171  1  0  0  0
 79172  1  0  0  0
 80173  1  0  0  0
 80174  1  0  0  0
 80175  1  0  0  0
 81176  1  0  0  0
 82177  1  0  0  0
 85178  1  0  0  0
 85179  1  0  0  0
 86180  1  0  0  0
 87181  1  0  0  0
 87182  1  0  0  0
 87183  1  0  0  0
 88184  1  0  0  0
 88185  1  0  0  0
 88186  1  0  0  0
 90187  1  0  0  0
 93188  1  0  0  0
 93189  1  0  0  0
 94190  1  0  0  0
 94191  1  0  0  0
 95192  1  0  0  0
 95193  1  0  0  0
 96194  1  0  0  0
M  END
$$$$
