### 
### Created by X-TOOL on Mon Sep 10 21:12:56 2018
### 

@<TRIPOS>MOLECULE
2z5t_ligand
  193   196     1     0     0
SMALL
GAST_HUCK


@<TRIPOS>ATOM
      1 N           3.6410   -8.4250   49.5450 N.4       1 GLU         0.2380
      2 CA          4.3840   -7.7990   50.6780 C.3       1 GLU         0.0665
      3 C           4.8190   -6.3670   50.3580 C.2       1 GLU         0.2269
      4 O           4.5360   -5.4450   51.1190 O.2       1 GLU        -0.3907
      5 CB          5.5840   -8.6680   51.0720 C.3       1 GLU         0.0194
      6 CG          6.4380   -8.1220   52.2200 C.3       1 GLU         0.0075
      7 CD          7.1230   -9.2270   53.0190 C.2       1 GLU         0.0351
      8 OE1         6.5240  -10.3200   53.1620 O.co2     1 GLU        -0.5690
      9 OE2         8.2530   -9.0000   53.5120 O.co2     1 GLU        -0.5690
     10 N           5.5040   -6.1950   49.2360 N.am      1 THR        -0.2586
     11 CA          5.9360   -4.8800   48.7450 C.3       1 THR         0.1566
     12 C           4.8260   -4.2710   47.8610 C.2       1 THR         0.2066
     13 O           4.1300   -5.0110   47.1640 O.2       1 THR        -0.3943
     14 CB          7.2820   -5.0430   47.9850 C.3       1 THR         0.0924
     15 OG1         8.3700   -4.5670   48.7980 O.3       1 THR        -0.3874
     16 CG2         7.2870   -4.3240   46.6690 C.3       1 THR        -0.0346
     17 N           4.6430   -2.9460   47.9010 N.am      1 PHE        -0.2619
     18 CA          3.5780   -2.3100   47.1100 C.3       1 PHE         0.1404
     19 C           3.6960   -2.6430   45.6170 C.2       1 PHE         0.2060
     20 O           2.6900   -2.8620   44.9310 O.2       1 PHE        -0.3942
     21 CB          3.5340   -0.7830   47.2820 C.3       1 PHE         0.0214
     22 CG          2.7370   -0.0880   46.1980 C.ar      1 PHE        -0.0386
     23 CD1         1.3480    0.0390   46.3060 C.ar      1 PHE        -0.0601
     24 CD2         3.3660    0.3840   45.0430 C.ar      1 PHE        -0.0601
     25 CE1         0.6030    0.6490   45.2880 C.ar      1 PHE        -0.0686
     26 CE2         2.6390    0.9910   44.0280 C.ar      1 PHE        -0.0686
     27 CZ          1.2480    1.1250   44.1540 C.ar      1 PHE        -0.0687
     28 N           4.9330   -2.6370   45.1320 N.am      1 SER        -0.2614
     29 CA          5.2540   -2.9150   43.7430 C.3       1 SER         0.1539
     30 C           4.9150   -4.3650   43.3490 C.2       1 SER         0.2063
     31 O           4.4550   -4.6050   42.2380 O.2       1 SER        -0.3943
     32 CB          6.7330   -2.5850   43.5000 C.3       1 SER         0.0843
     33 OG          7.1950   -3.0830   42.2750 O.3       1 SER        -0.3903
     34 N           5.1390   -5.3170   44.2570 N.am      1 ASP        -0.2621
     35 CA          4.7180   -6.7080   44.0530 C.3       1 ASP         0.1423
     36 C           3.1970   -6.7560   43.9070 C.2       1 ASP         0.2056
     37 O           2.6790   -7.2810   42.9230 O.2       1 ASP        -0.3943
     38 CB          5.1320   -7.6070   45.2290 C.3       1 ASP         0.0406
     39 CG          6.6450   -7.8050   45.3420 C.2       1 ASP         0.0393
     40 OD1         7.3810   -7.6150   44.3470 O.co2     1 ASP        -0.5688
     41 OD2         7.0970   -8.1620   46.4560 O.co2     1 ASP        -0.5688
     42 N           2.5070   -6.1850   44.8940 N.am      1 LEU        -0.2636
     43 CA          1.0430   -6.1130   44.9370 C.3       1 LEU         0.1312
     44 C           0.4020   -5.4250   43.7260 C.2       1 LEU         0.2040
     45 O          -0.5420   -5.9600   43.1390 O.2       1 LEU        -0.3944
     46 CB          0.5900   -5.4420   46.2420 C.3       1 LEU        -0.0101
     47 CG          0.9740   -6.2370   47.4990 C.3       1 LEU        -0.0425
     48 CD1         1.0580   -5.3540   48.7220 C.3       1 LEU        -0.0625
     49 CD2         0.0080   -7.3970   47.7350 C.3       1 LEU        -0.0625
     50 N           0.9220   -4.2550   43.3550 N.am      1 TRP        -0.2627
     51 CA          0.4150   -3.4980   42.2110 C.3       1 TRP         0.1352
     52 C           0.4480   -4.3060   40.9090 C.2       1 TRP         0.2052
     53 O          -0.5000   -4.2520   40.1180 O.2       1 TRP        -0.3942
     54 CB          1.1920   -2.1820   42.0410 C.3       1 TRP         0.0042
     55 CG          0.6200   -1.2890   40.9840 C.2       1 TRP        -0.0418
     56 CD1         1.0650   -1.1420   39.6980 C.2       1 TRP         0.0167
     57 CD2        -0.5210   -0.4330   41.1150 C.ar      1 TRP        -0.0214
     58 NE1         0.2780   -0.2360   39.0260 N.pl3     1 TRP        -0.2890
     59 CE2        -0.7050    0.2120   39.8700 C.ar      1 TRP         0.0603
     60 CE3        -1.4030   -0.1410   42.1650 C.ar      1 TRP        -0.0747
     61 CZ2        -1.7390    1.1370   39.6470 C.ar      1 TRP        -0.0443
     62 CZ3        -2.4360    0.7840   41.9380 C.ar      1 TRP        -0.0792
     63 CH2        -2.5900    1.4040   40.6900 C.ar      1 TRP        -0.0768
     64 N           1.5410   -5.0420   40.6940 N.am      1 LYS        -0.2636
     65 CA          1.7170   -5.8840   39.5060 C.3       1 LYS         0.1310
     66 C           0.5900   -6.8990   39.3590 C.2       1 LYS         0.2039
     67 O           0.2020   -7.2450   38.2410 O.2       1 LYS        -0.3944
     68 CB          3.0470   -6.6410   39.5680 C.3       1 LYS        -0.0122
     69 CG          4.2740   -5.8030   39.3040 C.3       1 LYS        -0.0440
     70 CD          5.5260   -6.6220   39.5730 C.3       1 LYS        -0.0124
     71 CE          6.7960   -5.8320   39.2710 C.3       1 LYS        -0.0354
     72 NZ          8.0070   -6.6530   39.5740 N.4       1 LYS         0.2185
     73 N           0.0810   -7.3710   40.4970 N.am      1 LEU        -0.2637
     74 CA         -0.9870   -8.3670   40.5370 C.3       1 LEU         0.1312
     75 C          -2.3750   -7.7170   40.5510 C.2       1 LEU         0.2039
     76 O          -3.2750   -8.1900   41.2500 O.2       1 LEU        -0.3944
     77 CB         -0.8260   -9.2870   41.7600 C.3       1 LEU        -0.0101
     78 CG          0.4180  -10.1710   41.9230 C.3       1 LEU        -0.0425
     79 CD1         0.4750  -10.7380   43.3400 C.3       1 LEU        -0.0625
     80 CD2         0.4450  -11.3010   40.8990 C.3       1 LEU        -0.0625
     81 N          -2.5400   -6.6300   39.7940 N.am      1 LEU        -0.2637
     82 CA         -3.8560   -6.0150   39.6060 C.3       1 LEU         0.1314
     83 C          -4.5380   -6.6000   38.3700 C.2       1 LEU         0.2065
     84 O          -3.9590   -6.5860   37.2800 O.2       1 LEU        -0.3942
     85 CB         -3.7680   -4.4870   39.4930 C.3       1 LEU        -0.0101
     86 CG         -4.0150   -3.6410   40.7470 C.3       1 LEU        -0.0425
     87 CD1        -3.8010   -2.1900   40.4250 C.3       1 LEU        -0.0625
     88 CD2        -5.4080   -3.8290   41.3010 C.3       1 LEU        -0.0625
     89 N          -5.7730   -7.1130   38.5390 N.am      1 PRO        -0.2485
     90 CA         -6.5160   -7.7840   37.4730 C.3       1 PRO         0.1448
     91 C          -6.6630   -6.9330   36.2160 C.2       1 PRO         0.2573
     92 O          -6.8280   -5.7170   36.3140 O.2       1 PRO        -0.3680
     93 CB         -7.8920   -8.0470   38.1040 C.3       1 PRO        -0.0090
     94 CG         -7.9480   -7.1960   39.3380 C.3       1 PRO        -0.0280
     95 CD         -6.5370   -7.0810   39.7990 C.3       1 PRO         0.0371
     96 O1         -6.6130   -7.5037   35.0157 O.3       1 PRO        -0.2910
     97 H1          3.3738   -9.3639   49.7964 H         1 GLU         0.2015
     98 H2          4.2322   -8.4510   48.7290 H         1 GLU         0.2015
     99 H3          2.8151   -7.8830   49.3445 H         1 GLU         0.2015
    100 H4          3.7026   -7.7533   51.5403 H         1 GLU         0.1099
    101 H5          6.2306   -8.7753   50.1886 H         1 GLU         0.0363
    102 H6          5.2045   -9.6562   51.3709 H         1 GLU         0.0363
    103 H7          5.7905   -7.5467   52.8980 H         1 GLU         0.0434
    104 H8          7.2101   -7.4601   51.8008 H         1 GLU         0.0434
    105 H9          5.7388   -7.0030   48.6957 H         1 THR         0.1885
    106 H10         6.0999   -4.2121   49.6035 H         1 THR         0.0826
    107 H11         7.4340   -6.1147   47.7894 H         1 THR         0.0639
    108 H12         8.3648   -5.0238   49.6310 H         1 THR         0.2101
    109 H13         8.2585   -4.4712   46.1745 H         1 THR         0.0257
    110 H14         7.1204   -3.2498   46.8374 H         1 THR         0.0257
    111 H15         6.4859   -4.7236   46.0298 H         1 THR         0.0257
    112 H16         5.2367   -2.3819   48.4749 H         1 PHE         0.1885
    113 H17         2.6210   -2.7144   47.4714 H         1 PHE         0.0823
    114 H18         4.5642   -0.3981   47.2609 H         1 PHE         0.0474
    115 H19         3.0764   -0.5530   48.2555 H         1 PHE         0.0474
    116 H20         0.8423   -0.3388   47.1873 H         1 PHE         0.0557
    117 H21         4.4393    0.2744   44.9378 H         1 PHE         0.0557
    118 H22        -0.4720    0.7489   45.3852 H         1 PHE         0.0599
    119 H23         3.1436    1.3597   43.1423 H         1 PHE         0.0599
    120 H24         0.6762    1.6006   43.3654 H         1 PHE         0.0559
    121 H25         5.6847   -2.4296   45.7580 H         1 SER         0.1884
    122 H26         4.6464   -2.2499   43.1117 H         1 SER         0.0823
    123 H27         7.3317   -3.0272   44.3099 H         1 SER         0.0606
    124 H28         6.8573   -1.4921   43.5069 H         1 SER         0.0606
    125 H29         7.0980   -4.0279   42.2617 H         1 SER         0.2097
    126 H30         5.6097   -5.0743   45.1052 H         1 ASP         0.1884
    127 H31         5.1853   -7.0885   43.1327 H         1 ASP         0.0819
    128 H32         4.6608   -8.5921   45.0970 H         1 ASP         0.0478
    129 H33         4.7701   -7.1494   46.1615 H         1 ASP         0.0478
    130 H34         3.0192   -5.7808   45.6519 H         1 LEU         0.1883
    131 H35         0.6720   -7.1485   44.9470 H         1 LEU         0.0800
    132 H36        -0.5045   -5.3345   46.2177 H         1 LEU         0.0315
    133 H37         1.0549   -4.4470   46.3027 H         1 LEU         0.0315
    134 H38         1.9735   -6.6632   47.3279 H         1 LEU         0.0298
    135 H39         1.3347   -5.9628   49.5954 H         1 LEU         0.0232
    136 H40         0.0814   -4.8801   48.8999 H         1 LEU         0.0232
    137 H41         1.8191   -4.5763   48.5612 H         1 LEU         0.0232
    138 H42        -0.0374   -8.0255   46.8334 H         1 LEU         0.0232
    139 H43        -0.9939   -7.0006   47.9564 H         1 LEU         0.0232
    140 H44         0.3598   -8.0001   48.5850 H         1 LEU         0.0232
    141 H45         1.6875   -3.8809   43.8786 H         1 TRP         0.1884
    142 H46        -0.6354   -3.2470   42.4198 H         1 TRP         0.0815
    143 H47         2.2308   -2.4223   41.7704 H         1 TRP         0.0397
    144 H48         1.1782   -1.6420   42.9992 H         1 TRP         0.0397
    145 H49         1.9180   -1.6661   39.2693 H         1 TRP         0.0795
    146 H50         0.4064    0.0582   38.0473 H         1 TRP         0.2216
    147 H51        -1.2904   -0.6188   43.1315 H         1 TRP         0.0540
    148 H52        -1.8602    1.6224   38.6853 H         1 TRP         0.0541
    149 H53        -3.1248    1.0220   42.7405 H         1 TRP         0.0510
    150 H54        -3.3996    2.1103   40.5457 H         1 TRP         0.0530
    151 H55         2.2735   -5.0181   41.3744 H         1 LYS         0.1883
    152 H56         1.7203   -5.2317   38.6203 H         1 LYS         0.0800
    153 H57         3.0163   -7.4456   38.8186 H         1 LYS         0.0312
    154 H58         3.1433   -7.0789   40.5725 H         1 LYS         0.0312
    155 H59         4.2644   -4.9235   39.9646 H         1 LYS         0.0269
    156 H60         4.2720   -5.4734   38.2545 H         1 LYS         0.0269
    157 H61         5.5066   -7.5207   38.9390 H         1 LYS         0.0317
    158 H62         5.5357   -6.9203   40.6317 H         1 LYS         0.0317
    159 H63         6.8118   -4.9219   39.8887 H         1 LYS         0.0813
    160 H64         6.8046   -5.5532   38.2070 H         1 LYS         0.0813
    161 H65         8.8359   -6.1172   39.3693 H         1 LYS         0.1994
    162 H66         7.9978   -7.4870   39.0080 H         1 LYS         0.1994
    163 H67         8.0044   -6.9085   40.5491 H         1 LYS         0.1994
    164 H68         0.4466   -7.0279   41.3622 H         1 LEU         0.1883
    165 H69        -0.9087   -8.9831   39.6291 H         1 LEU         0.0800
    166 H70        -1.6932   -9.9638   41.7592 H         1 LEU         0.0315
    167 H71        -0.8678   -8.6385   42.6475 H         1 LEU         0.0315
    168 H72         1.3075   -9.5439   41.7633 H         1 LEU         0.0298
    169 H73         1.3693  -11.3695   43.4465 H         1 LEU         0.0232
    170 H74        -0.4248  -11.3416   43.5299 H         1 LEU         0.0232
    171 H75         0.5216   -9.9113   44.0642 H         1 LEU         0.0232
    172 H76         0.4034  -10.8776   39.8846 H         1 LEU         0.0232
    173 H77        -0.4215  -11.9599   41.0571 H         1 LEU         0.0232
    174 H78         1.3726  -11.8804   41.0167 H         1 LEU         0.0232
    175 H79        -1.7444   -6.2250   39.3435 H         1 LEU         0.1883
    176 H80        -4.4711   -6.2545   40.4859 H         1 LEU         0.0800
    177 H81        -4.5075   -4.1748   38.7410 H         1 LEU         0.0315
    178 H82        -2.7563   -4.2465   39.1343 H         1 LEU         0.0315
    179 H83        -3.2916   -3.9458   41.5175 H         1 LEU         0.0298
    180 H84        -3.9787   -1.5844   41.3260 H         1 LEU         0.0232
    181 H85        -4.5002   -1.8831   39.6332 H         1 LEU         0.0232
    182 H86        -2.7674   -2.0395   40.0800 H         1 LEU         0.0232
    183 H87        -5.5681   -4.8912   41.5380 H         1 LEU         0.0232
    184 H88        -6.1468   -3.5048   40.5533 H         1 LEU         0.0232
    185 H89        -5.5233   -3.2280   42.2150 H         1 LEU         0.0232
    186 H90        -6.0230   -8.7302   37.2054 H         1 PRO         0.0818
    187 H91        -7.9953   -9.1100   38.3674 H         1 PRO         0.0314
    188 H92        -8.6935   -7.7625   37.4064 H         1 PRO         0.0314
    189 H93        -8.3590   -6.2031   39.1031 H         1 PRO         0.0287
    190 H94        -8.5677   -7.6762   40.1096 H         1 PRO         0.0287
    191 H95        -6.3727   -6.1358   40.3371 H         1 PRO         0.0524
    192 H96        -6.2634   -7.9253   40.4489 H         1 PRO         0.0524
    193 H97        -5.8922   -7.1333   34.5199 H         1 PRO         0.2540
@<TRIPOS>BOND
     1    2    1 1  
     2    2    5 1  
     3    3    2 1  
     4    3    4 2  
     5    5    6 1  
     6    6    7 1  
     7    7    9 ar 
     8    7    8 ar 
     9   11   10 1  
    10   11   14 1  
    11   12   11 1  
    12   12   13 2  
    13   14   16 1  
    14   14   15 1  
    15   10    3 am 
    16   18   17 1  
    17   18   21 1  
    18   19   18 1  
    19   19   20 2  
    20   21   22 1  
    21   22   23 ar 
    22   22   24 ar 
    23   24   26 ar 
    24   26   27 ar 
    25   25   27 ar 
    26   23   25 ar 
    27   17   12 am 
    28   29   28 1  
    29   29   32 1  
    30   30   29 1  
    31   30   31 2  
    32   32   33 1  
    33   28   19 am 
    34   35   34 1  
    35   35   38 1  
    36   36   35 1  
    37   36   37 2  
    38   38   39 1  
    39   39   40 ar 
    40   39   41 ar 
    41   34   30 am 
    42   43   42 1  
    43   43   46 1  
    44   44   43 1  
    45   44   45 2  
    46   46   47 1  
    47   47   48 1  
    48   47   49 1  
    49   42   36 am 
    50   51   50 1  
    51   51   54 1  
    52   52   51 1  
    53   52   53 2  
    54   54   55 1  
    55   55   56 2  
    56   55   57 1  
    57   57   60 ar 
    58   57   59 ar 
    59   59   61 ar 
    60   59   58 1  
    61   56   58 1  
    62   61   63 ar 
    63   62   63 ar 
    64   60   62 ar 
    65   50   44 am 
    66   65   64 1  
    67   65   68 1  
    68   66   65 1  
    69   66   67 2  
    70   68   69 1  
    71   69   70 1  
    72   70   71 1  
    73   71   72 1  
    74   64   52 am 
    75   74   73 1  
    76   74   77 1  
    77   75   74 1  
    78   75   76 2  
    79   77   78 1  
    80   78   79 1  
    81   78   80 1  
    82   73   66 am 
    83   82   81 1  
    84   82   85 1  
    85   83   82 1  
    86   83   84 2  
    87   85   86 1  
    88   86   87 1  
    89   86   88 1  
    90   81   75 am 
    91   90   91 1  
    92   90   93 1  
    93   89   90 1  
    94   89   95 1  
    95   95   94 1  
    96   94   93 1  
    97   91   92 2  
    98   83   89 am 
    99   91   96 1  
   100    1   97 1  
   101    1   98 1  
   102    1   99 1  
   103    2  100 1  
   104    5  101 1  
   105    5  102 1  
   106    6  103 1  
   107    6  104 1  
   108   10  105 1  
   109   11  106 1  
   110   14  107 1  
   111   15  108 1  
   112   16  109 1  
   113   16  110 1  
   114   16  111 1  
   115   17  112 1  
   116   18  113 1  
   117   21  114 1  
   118   21  115 1  
   119   23  116 1  
   120   24  117 1  
   121   25  118 1  
   122   26  119 1  
   123   27  120 1  
   124   28  121 1  
   125   29  122 1  
   126   32  123 1  
   127   32  124 1  
   128   33  125 1  
   129   34  126 1  
   130   35  127 1  
   131   38  128 1  
   132   38  129 1  
   133   42  130 1  
   134   43  131 1  
   135   46  132 1  
   136   46  133 1  
   137   47  134 1  
   138   48  135 1  
   139   48  136 1  
   140   48  137 1  
   141   49  138 1  
   142   49  139 1  
   143   49  140 1  
   144   50  141 1  
   145   51  142 1  
   146   54  143 1  
   147   54  144 1  
   148   56  145 1  
   149   58  146 1  
   150   60  147 1  
   151   61  148 1  
   152   62  149 1  
   153   63  150 1  
   154   64  151 1  
   155   65  152 1  
   156   68  153 1  
   157   68  154 1  
   158   69  155 1  
   159   69  156 1  
   160   70  157 1  
   161   70  158 1  
   162   71  159 1  
   163   71  160 1  
   164   72  161 1  
   165   72  162 1  
   166   72  163 1  
   167   73  164 1  
   168   74  165 1  
   169   77  166 1  
   170   77  167 1  
   171   78  168 1  
   172   79  169 1  
   173   79  170 1  
   174   79  171 1  
   175   80  172 1  
   176   80  173 1  
   177   80  174 1  
   178   81  175 1  
   179   82  176 1  
   180   85  177 1  
   181   85  178 1  
   182   86  179 1  
   183   87  180 1  
   184   87  181 1  
   185   87  182 1  
   186   88  183 1  
   187   88  184 1  
   188   88  185 1  
   189   90  186 1  
   190   93  187 1  
   191   93  188 1  
   192   94  189 1  
   193   94  190 1  
   194   95  191 1  
   195   95  192 1  
   196   96  193 1  
@<TRIPOS>SUBSTRUCTURE
     1 GLU         1

