5y0g_ligand
  -I-interpret- 

 40 42  0  0  0  0  0  0  0  0999 V2000
    3.4980   -6.1160  -20.4640 C   0  0  0  0  0
    7.2700   -6.5960  -16.4120 C   0  0  0  0  0
    4.4600   -6.4840  -21.4470 C   0  0  0  0  0
    5.2870   -7.6150  -21.1840 C   0  0  0  0  0
    2.1030   -4.3750  -19.6570 C   0  0  0  0  0
    4.6140   -5.7930  -22.6680 C   0  0  0  0  0
    5.5460   -6.2240  -23.5720 C   0  0  0  0  0
    6.3900   -7.3150  -23.3010 C   0  0  0  0  0
    6.2580   -8.0050  -22.1340 C   0  0  0  0  0
    7.8790   -8.0730  -18.2200 C   0  0  0  0  0
    6.9780   -7.6910  -17.2160 C   0  0  0  0  0
    7.6200   -9.1320  -19.1440 N   0  0  0  0  0
    3.3940   -6.7920  -19.2820 C   0  0  0  0  0
    5.1200   -8.3120  -19.9490 C   0  0  0  0  0
    8.4510   -5.8970  -16.6030 C   0  0  0  0  0
    9.3340   -6.2460  -17.6110 C   0  0  0  0  0
    9.0250   -7.3240  -18.4050 C   0  0  0  0  0
    6.3020   -6.1690  -15.3390 C   0  0  0  0  0
    4.2030   -7.9010  -19.0190 C   0  0  0  0  0
    9.8850   -7.6900  -19.3910 F   0  0  0  0  0
    2.7550   -5.0120  -20.7610 O   0  0  0  0  0
    6.2790  -10.6110  -20.5700 O   0  0  0  0  0
    5.5950  -10.2490  -18.2650 O   0  0  0  0  0
    5.4040   -6.9740  -14.9870 O   0  0  0  0  0
    6.3610   -4.9830  -14.9560 O   0  0  0  0  0
    6.1280   -9.7000  -19.4810 S   0  0  0  0  0
    1.4199   -5.0804  -19.1839 H   0  0  0  0  0
    2.8506   -4.0502  -18.9334 H   0  0  0  0  0
    1.5438   -3.5111  -20.0162 H   0  0  0  0  0
    3.9955   -4.9231  -22.8889 H   0  0  0  0  0
    5.6365   -5.7078  -24.5277 H   0  0  0  0  0
    7.1502   -7.6089  -24.0248 H   0  0  0  0  0
    6.9030   -8.8602  -21.9323 H   0  0  0  0  0
    6.0540   -8.2497  -17.0670 H   0  0  0  0  0
    8.4147   -9.5579  -19.6209 H   0  0  0  0  0
    2.6717   -6.4629  -18.5350 H   0  0  0  0  0
    8.6890   -5.0583  -15.9488 H   0  0  0  0  0
   10.2515   -5.6796  -17.7706 H   0  0  0  0  0
    4.1041   -8.4376  -18.0754 H   0  0  0  0  0
    5.5585   -7.8256  -15.4024 H   0  0  0  0  0
  3  1  4  0  0  0
 13  1  4  0  0  0
  1 21  1  0  0  0
 11  2  4  0  0  0
  2 15  4  0  0  0
  2 18  1  0  0  0
  4  3  4  0  0  0
  3  6  4  0  0  0
  4  9  4  0  0  0
 14  4  4  0  0  0
 21  5  1  0  0  0
  6  7  4  0  0  0
  8  7  4  0  0  0
  9  8  4  0  0  0
 10 11  4  0  0  0
 12 10  1  0  0  0
 10 17  4  0  0  0
 26 12  1  0  0  0
 19 13  4  0  0  0
 14 19  4  0  0  0
 14 26  1  0  0  0
 15 16  4  0  0  0
 16 17  4  0  0  0
 17 20  1  0  0  0
 18 24  1  0  0  0
 18 25  2  0  0  0
 26 22  2  0  0  0
 26 23  2  0  0  0
  5 27  1  0  0  0
  5 28  1  0  0  0
  5 29  1  0  0  0
  6 30  1  0  0  0
  7 31  1  0  0  0
  8 32  1  0  0  0
  9 33  1  0  0  0
 11 34  1  0  0  0
 12 35  1  0  0  0
 13 36  1  0  0  0
 15 37  1  0  0  0
 16 38  1  0  0  0
 19 39  1  0  0  0
 24 40  1  0  0  0
M  END
$$$$
