5wyq_ligand
  -I-interpret- 

 51 53  0  0  0  0  0  0  0  0999 V2000
  -28.4310   13.6360  -31.8110 N   0  3  0  0  0
  -29.6760   12.8970  -31.5760 C   0  0  0  0  0
  -30.8280   13.5190  -32.4220 C   0  0  0  0  0
  -30.6390   13.5350  -33.6590 O   0  0  0  0  0
  -31.8580   13.9660  -31.8470 O   0  0  0  0  0
  -29.9780   12.8000  -30.0710 C   0  0  0  0  0
  -30.8880   11.6020  -29.8440 C   0  0  0  0  0
  -30.9930   11.1670  -28.0690 S   0  0  0  0  0
  -29.6050   10.0910  -27.7360 C   0  0  0  0  0
  -32.5390   10.1860  -27.8530 C   0  0  0  0  0
  -33.7620   11.0520  -27.4960 C   0  0  0  0  0
  -33.5140   11.8310  -26.3100 O   0  0  0  0  0
  -34.1070   12.1060  -28.5230 C   0  0  0  0  0
  -34.8210   11.5040  -29.6180 O   0  0  0  0  0
  -35.0220   12.9860  -27.6880 C   0  0  0  0  0
  -36.4060   12.4130  -27.6590 O   0  0  0  0  0
  -34.4260   12.9300  -26.2920 C   0  0  0  0  0
  -33.6320   14.1250  -25.8740 N   0  0  0  0  0
  -32.3020   14.0680  -25.6900 C   0  0  0  0  0
  -31.8740   15.2640  -25.2690 N   0  0  0  0  0
  -32.9450   16.0680  -25.1550 C   0  0  0  0  0
  -33.0660   17.3590  -24.8350 C   0  0  0  0  0
  -31.9550   18.0040  -24.4580 N   0  0  0  0  0
  -34.2480   17.9930  -24.8870 N   0  0  0  0  0
  -35.4010   17.2900  -25.2000 C   0  0  0  0  0
  -35.2410   15.9460  -25.5390 N   0  0  0  0  0
  -34.0290   15.3690  -25.5400 C   0  0  0  0  0
  -28.2516   13.6874  -32.8138 H   0  0  0  0  0
  -28.5197   14.5786  -31.4315 H   0  0  0  0  0
  -27.6589   13.1541  -31.3506 H   0  0  0  0  0
  -29.5697   11.8663  -31.9142 H   0  0  0  0  0
  -31.7727   13.8427  -30.8988 H   0  0  0  0  0
  -30.4668   13.7118  -29.7277 H   0  0  0  0  0
  -29.0513   12.6777  -29.5103 H   0  0  0  0  0
  -30.4779   10.7492  -30.3850 H   0  0  0  0  0
  -31.8875   11.8555  -30.1973 H   0  0  0  0  0
  -29.6773    9.2023  -28.3629 H   0  0  0  0  0
  -28.6770   10.6184  -27.9567 H   0  0  0  0  0
  -29.6174    9.7985  -26.6860 H   0  0  0  0  0
  -32.3761    9.4893  -27.0307 H   0  0  0  0  0
  -32.7506    9.6899  -28.8002 H   0  0  0  0  0
  -34.5626   10.3185  -27.4007 H   0  0  0  0  0
  -33.2635   12.6261  -28.9769 H   0  0  0  0  0
  -35.0372   12.1779  -30.2666 H   0  0  0  0  0
  -35.0938   13.9995  -28.0827 H   0  0  0  0  0
  -36.9737   12.9773  -27.1291 H   0  0  0  0  0
  -35.2594   12.8581  -25.5932 H   0  0  0  0  0
  -31.6751   13.1919  -25.8563 H   0  0  0  0  0
  -31.0641   17.5084  -24.4243 H   0  0  0  0  0
  -31.9995   18.9910  -24.2045 H   0  0  0  0  0
  -36.3828   17.7631  -25.1822 H   0  0  0  0  0
  1  2  1  0  0  0
  2  3  1  0  0  0
  2  6  1  0  0  0
  3  4  2  0  0  0
  3  5  1  0  0  0
  6  7  1  0  0  0
  7  8  1  0  0  0
  8  9  1  0  0  0
  8 10  1  0  0  0
 10 11  1  0  0  0
 11 12  1  0  0  0
 11 13  1  0  0  0
 12 17  1  0  0  0
 13 14  1  0  0  0
 13 15  1  0  0  0
 15 16  1  0  0  0
 15 17  1  0  0  0
 17 18  1  0  0  0
 18 19  4  0  0  0
 18 27  4  0  0  0
 19 20  4  0  0  0
 20 21  4  0  0  0
 21 22  4  0  0  0
 21 27  4  0  0  0
 22 23  1  0  0  0
 22 24  4  0  0  0
 24 25  4  0  0  0
 25 26  4  0  0  0
 26 27  4  0  0  0
  1 28  1  0  0  0
  1 29  1  0  0  0
  1 30  1  0  0  0
  2 31  1  0  0  0
  5 32  1  0  0  0
  6 33  1  0  0  0
  6 34  1  0  0  0
  7 35  1  0  0  0
  7 36  1  0  0  0
  9 37  1  0  0  0
  9 38  1  0  0  0
  9 39  1  0  0  0
 10 40  1  0  0  0
 10 41  1  0  0  0
 11 42  1  0  0  0
 13 43  1  0  0  0
 14 44  1  0  0  0
 15 45  1  0  0  0
 16 46  1  0  0  0
 17 47  1  0  0  0
 19 48  1  0  0  0
 23 49  1  0  0  0
 23 50  1  0  0  0
 25 51  1  0  0  0
M  END
$$$$
