1e37_ligand
  -I-interpret- 

 39 39  0  0  0  0  0  0  0  0999 V2000
   -9.1260   24.0010   37.7900 C   0  0  0  0  0
  -10.5040   23.4080   37.8760 C   0  0  0  0  0
  -10.6740   22.3720   36.8460 C   0  0  0  0  0
  -12.0030   21.6850   36.9380 C   0  0  0  0  0
  -11.5030   24.5360   37.8060 C   0  0  0  0  0
  -11.1790   25.6560   38.7850 C   0  0  0  0  0
   -8.6600   24.6410   36.8560 O   0  0  0  0  0
  -12.5620   21.3300   35.8780 O   0  0  0  0  0
  -12.4810   21.4910   38.0590 O   0  0  0  0  0
   -8.6600   22.0470   34.2340 O   0  0  0  0  0
   -6.6650   22.9970   35.2010 O   0  0  0  0  0
   -7.6140   21.9140   35.1610 S   0  0  0  0  0
   -8.2560   21.7210   36.6460 N   0  0  0  0  0
   -9.6280   21.3130   36.8120 C   0  0  0  0  0
   -6.5680   20.5080   35.0480 C   0  0  0  0  0
   -5.1970   20.6960   35.0520 C   0  0  0  0  0
   -7.1010   19.2320   34.9730 C   0  0  0  0  0
   -4.3350   19.6060   34.9720 C   0  0  0  0  0
   -6.2150   18.1810   34.9000 C   0  0  0  0  0
   -4.8500   18.3280   34.8990 C   0  0  0  0  0
   -3.9870   17.0990   34.8260 N   0  0  0  0  0
   -4.6300   16.0320   34.7510 O   0  0  0  0  0
   -2.7680   17.3080   34.8480 O   0  0  0  0  0
   -8.4731   23.8451   38.6488 H   0  0  0  0  0
  -10.6678   22.8924   38.8223 H   0  0  0  0  0
  -10.5887   22.9510   35.9264 H   0  0  0  0  0
  -12.4838   24.1356   38.0626 H   0  0  0  0  0
  -11.4761   24.9496   36.7979 H   0  0  0  0  0
  -11.1847   25.2616   39.8011 H   0  0  0  0  0
  -10.1935   26.0623   38.5571 H   0  0  0  0  0
  -11.9276   26.4432   38.6952 H   0  0  0  0  0
  -12.0153   21.5807   35.1298 H   0  0  0  0  0
   -7.6788   21.8913   37.4695 H   0  0  0  0  0
   -9.8576   20.7084   35.9346 H   0  0  0  0  0
   -9.6704   20.8337   37.7901 H   0  0  0  0  0
   -4.7893   21.7047   35.1183 H   0  0  0  0  0
   -8.1784   19.0666   34.9718 H   0  0  0  0  0
   -3.2562   19.7616   34.9670 H   0  0  0  0  0
   -6.6216   17.1715   34.8394 H   0  0  0  0  0
  2  1  1  0  0  0
  1  7  2  0  0  0
  3  2  1  0  0  0
  2  5  1  0  0  0
  3  4  1  0  0  0
 14  3  1  0  0  0
  4  8  1  0  0  0
  4  9  2  0  0  0
  5  6  1  0  0  0
 12 10  2  0  0  0
 12 11  2  0  0  0
 13 12  1  0  0  0
 12 15  1  0  0  0
 13 14  1  0  0  0
 15 16  4  0  0  0
 15 17  4  0  0  0
 16 18  4  0  0  0
 17 19  4  0  0  0
 18 20  4  0  0  0
 19 20  4  0  0  0
 20 21  1  0  0  0
 21 22  2  0  0  0
 21 23  2  0  0  0
  1 24  1  0  0  0
  2 25  1  0  0  0
  3 26  1  0  0  0
  5 27  1  0  0  0
  5 28  1  0  0  0
  6 29  1  0  0  0
  6 30  1  0  0  0
  6 31  1  0  0  0
  8 32  1  0  0  0
 13 33  1  0  0  0
 14 34  1  0  0  0
 14 35  1  0  0  0
 16 36  1  0  0  0
 17 37  1  0  0  0
 18 38  1  0  0  0
 19 39  1  0  0  0
M  END
$$$$
