### 
### Created by X-TOOL on Mon Sep 10 21:13:23 2018
### 

@<TRIPOS>MOLECULE
4qw4_ligand
  114   116     1     0     0
SMALL
GAST_HUCK


@<TRIPOS>ATOM
      1 C8         59.0360 -134.8640   31.7080 C.2       1 3BV         0.2238
      2 O9         59.6910 -133.9000   31.3090 O.2       1 3BV        -0.3910
      3 C7         58.6480 -136.0370   30.7820 C.3       1 3BV         0.0582
      4 N4         58.2970 -135.6520   29.3910 N.4       1 3BV         0.2552
      5 O1         58.2010 -134.0750   27.2120 O.3       1 3BV        -0.3693
      6 C5         59.4890 -135.3750   28.5460 C.3       1 3BV        -0.0060
      7 C3         57.3000 -134.5500   29.3330 C.3       1 3BV        -0.0060
      8 C6         58.9890 -135.2480   27.1490 C.3       1 3BV         0.0878
      9 C2         56.9590 -134.2680   27.9460 C.3       1 3BV         0.0878
     10 N10        58.6140 -135.0120   32.9710 N.am      1 3BV        -0.2611
     11 C11        58.9010 -134.0320   34.0260 C.3       1 3BV         0.1328
     12 C20        60.1310 -134.5050   34.7960 C.2       1 3BV         0.2041
     13 O21        60.4170 -135.7010   34.8440 O.2       1 3BV        -0.3944
     14 C12        57.7550 -134.0170   35.0040 C.3       1 3BV        -0.0027
     15 C13        56.9960 -132.7250   34.7640 C.3       1 3BV        -0.0149
     16 C14        55.7350 -132.7830   35.4190 C.ar      1 3BV        -0.0428
     17 C19        54.6610 -132.0600   34.8920 C.ar      1 3BV        -0.0603
     18 C15        55.5170 -133.5180   36.5920 C.ar      1 3BV        -0.0603
     19 C18        53.4100 -132.0830   35.5080 C.ar      1 3BV        -0.0686
     20 C16        54.2680 -133.5460   37.2080 C.ar      1 3BV        -0.0686
     21 C17        53.2110 -132.8270   36.6670 C.ar      1 3BV        -0.0687
     22 N22        60.8100 -133.5450   35.4360 N.am      1 3BV        -0.2637
     23 C23        61.9800 -133.8720   36.2600 C.3       1 3BV         0.1312
     24 C28        61.4880 -134.0530   37.6970 C.2       1 3BV         0.2040
     25 O29        60.7510 -133.2100   38.2110 O.2       1 3BV        -0.3944
     26 C24        62.9740 -132.7430   36.2200 C.3       1 3BV        -0.0101
     27 C25        63.6790 -132.8530   34.8480 C.3       1 3BV        -0.0425
     28 C26        64.2990 -131.5020   34.4530 C.3       1 3BV        -0.0625
     29 C27        64.7650 -133.9420   34.8750 C.3       1 3BV        -0.0625
     30 N30        61.8910 -135.1830   38.3050 N.am      1 3BV        -0.2619
     31 C31        61.5290 -135.4810   39.6990 C.3       1 3BV         0.1403
     32 C39        62.8150 -135.4590   40.5160 C.2       1 3BV         0.2040
     33 O40        63.9110 -135.5340   39.9610 O.2       1 3BV        -0.3943
     34 C32        60.8660 -136.8170   39.8370 C.3       1 3BV         0.0214
     35 C33        59.5560 -136.6240   39.3780 C.ar      1 3BV        -0.0386
     36 C34        59.2240 -136.9080   38.0540 C.ar      1 3BV        -0.0601
     37 C38        58.5700 -136.1440   40.2440 C.ar      1 3BV        -0.0601
     38 C35        57.9210 -136.7170   37.6000 C.ar      1 3BV        -0.0686
     39 C37        57.2670 -135.9530   39.7910 C.ar      1 3BV        -0.0686
     40 C36        56.9420 -136.2430   38.4690 C.ar      1 3BV        -0.0687
     41 N41        62.6260 -135.3350   41.8390 N.am      1 3BV        -0.2794
     42 C42        63.7280 -135.1740   42.7940 C.3       1 3BV         0.0685
     43 C43        63.5210 -133.7660   43.3320 C.3       1 3BV        -0.0251
     44 C44        64.6210 -132.7750   42.8650 C.3       1 3BV        -0.0446
     45 C45        64.1400 -131.3450   43.1800 C.3       1 3BV        -0.0626
     46 C46        64.9670 -132.8630   41.3640 C.3       1 3BV        -0.0626
     47 C47        63.6550 -136.1630   43.9880 C.3       1 3BV         0.0827
     48 C51        64.0450 -137.7100   43.7110 C.3       1 3BV         0.0075
     49 C58        65.1750 -137.8200   42.6530 C.3       1 3BV        -0.0579
     50 C59        62.8550 -138.4090   43.0570 C.3       1 3BV         0.0492
     51 O60        61.7700 -138.2720   43.9770 O.3       1 3BV        -0.3947
     52 O48        62.3300 -136.0800   44.5350 O.3       1 3BV        -0.3892
     53 H1         57.7794 -136.5471   31.2239 H         1 3BV         0.1063
     54 H2         59.4989 -136.7328   30.7386 H         1 3BV         0.1063
     55 H3         57.8478 -136.4579   28.9850 H         1 3BV         0.2054
     56 H4         60.2089 -136.2034   28.6192 H         1 3BV         0.0837
     57 H5         59.9727 -134.4397   28.8641 H         1 3BV         0.0837
     58 H6         57.7257 -133.6473   29.7954 H         1 3BV         0.0837
     59 H7         56.3929 -134.8487   29.8788 H         1 3BV         0.0837
     60 H8         59.8203 -135.1309   26.4383 H         1 3BV         0.0613
     61 H9         58.3822 -136.1198   26.8631 H         1 3BV         0.0613
     62 H10        56.3997 -135.1135   27.5190 H         1 3BV         0.0613
     63 H11        56.3456 -133.3566   27.8895 H         1 3BV         0.0613
     64 H12        58.0807 -135.8248   33.2052 H         1 3BV         0.1884
     65 H13        59.0635 -133.0333   33.5946 H         1 3BV         0.0801
     66 H14        58.1360 -134.0471   36.0354 H         1 3BV         0.0334
     67 H15        57.0970 -134.8813   34.8307 H         1 3BV         0.0334
     68 H16        56.8412 -132.5867   33.6838 H         1 3BV         0.0428
     69 H17        57.5767 -131.8800   35.1624 H         1 3BV         0.0428
     70 H18        54.8025 -131.4731   33.9917 H         1 3BV         0.0557
     71 H19        56.3371 -134.0762   37.0289 H         1 3BV         0.0557
     72 H20        52.5886 -131.5185   35.0818 H         1 3BV         0.0599
     73 H21        54.1214 -134.1293   38.1099 H         1 3BV         0.0599
     74 H22        52.2377 -132.8450   37.1439 H         1 3BV         0.0559
     75 H23        60.5163 -132.5928   35.3516 H         1 3BV         0.1883
     76 H24        62.4521 -134.7970   35.8975 H         1 3BV         0.0800
     77 H25        63.7046 -132.8464   37.0357 H         1 3BV         0.0315
     78 H26        62.4588 -131.7753   36.3097 H         1 3BV         0.0315
     79 H27        62.9280 -133.1281   34.0928 H         1 3BV         0.0298
     80 H28        64.7956 -131.5981   33.4762 H         1 3BV         0.0232
     81 H29        65.0369 -131.2014   35.2114 H         1 3BV         0.0232
     82 H30        63.5080 -130.7403   34.3888 H         1 3BV         0.0232
     83 H31        64.3127 -134.9039   35.1582 H         1 3BV         0.0232
     84 H32        65.5385 -133.6704   35.6085 H         1 3BV         0.0232
     85 H33        65.2204 -134.0305   33.8776 H         1 3BV         0.0232
     86 H34        62.4509 -135.8371   37.7964 H         1 3BV         0.1885
     87 H35        60.8417 -134.7056   40.0682 H         1 3BV         0.0823
     88 H36        60.8630 -137.1398   40.8886 H         1 3BV         0.0474
     89 H37        61.3830 -137.5698   39.2238 H         1 3BV         0.0474
     90 H38        59.9831 -137.2790   37.3750 H         1 3BV         0.0557
     91 H39        58.8208 -135.9190   41.2743 H         1 3BV         0.0557
     92 H40        57.6690 -136.9377   36.5690 H         1 3BV         0.0599
     93 H41        56.5068 -135.5789   40.4672 H         1 3BV         0.0599
     94 H42        55.9271 -136.0998   38.1162 H         1 3BV         0.0559
     95 H43        61.6899 -135.3532   42.1903 H         1 3BV         0.1856
     96 H44        64.6985 -135.2770   42.2866 H         1 3BV         0.0582
     97 H45        63.5275 -133.8054   44.4313 H         1 3BV         0.0291
     98 H46        62.5450 -133.3969   42.9840 H         1 3BV         0.0291
     99 H47        65.5365 -132.9850   43.4375 H         1 3BV         0.0296
    100 H48        64.9038 -130.6220   42.8578 H         1 3BV         0.0232
    101 H49        63.9734 -131.2443   44.2626 H         1 3BV         0.0232
    102 H50        63.1996 -131.1481   42.6443 H         1 3BV         0.0232
    103 H51        65.3120 -133.8801   41.1263 H         1 3BV         0.0232
    104 H52        65.7630 -132.1414   41.1283 H         1 3BV         0.0232
    105 H53        64.0727 -132.6304   40.7673 H         1 3BV         0.0232
    106 H54        64.3644 -135.7979   44.7452 H         1 3BV         0.0620
    107 H55        64.3348 -138.2014   44.6515 H         1 3BV         0.0346
    108 H56        65.4185 -138.8795   42.4855 H         1 3BV         0.0234
    109 H57        66.0690 -137.2911   43.0150 H         1 3BV         0.0234
    110 H58        64.8384 -137.3674   41.7086 H         1 3BV         0.0234
    111 H59        63.0811 -139.4720   42.8869 H         1 3BV         0.0560
    112 H60        62.6078 -137.9287   42.0988 H         1 3BV         0.0560
    113 H61        61.5926 -137.3499   44.1206 H         1 3BV         0.2094
    114 H62        61.7104 -136.4534   43.9191 H         1 3BV         0.2099
@<TRIPOS>BOND
     1    1    2 2  
     2    3    1 1  
     3    1   10 am 
     4    4    3 1  
     5    6    4 1  
     6    4    7 1  
     7    8    5 1  
     8    5    9 1  
     9    6    8 1  
    10    7    9 1  
    11   10   11 1  
    12   11   12 1  
    13   11   14 1  
    14   12   13 2  
    15   12   22 am 
    16   14   15 1  
    17   15   16 1  
    18   16   17 ar 
    19   16   18 ar 
    20   17   19 ar 
    21   18   20 ar 
    22   19   21 ar 
    23   20   21 ar 
    24   22   23 1  
    25   23   24 1  
    26   23   26 1  
    27   24   25 2  
    28   24   30 am 
    29   26   27 1  
    30   27   28 1  
    31   27   29 1  
    32   30   31 1  
    33   31   32 1  
    34   31   34 1  
    35   32   33 2  
    36   32   41 am 
    37   34   35 1  
    38   35   36 ar 
    39   35   37 ar 
    40   36   38 ar 
    41   37   39 ar 
    42   38   40 ar 
    43   39   40 ar 
    44   41   42 1  
    45   42   43 1  
    46   42   47 1  
    47   43   44 1  
    48   44   45 1  
    49   44   46 1  
    50   47   48 1  
    51   47   52 1  
    52   48   49 1  
    53   48   50 1  
    54   50   51 1  
    55    3   53 1  
    56    3   54 1  
    57    4   55 1  
    58    6   56 1  
    59    6   57 1  
    60    7   58 1  
    61    7   59 1  
    62    8   60 1  
    63    8   61 1  
    64    9   62 1  
    65    9   63 1  
    66   10   64 1  
    67   11   65 1  
    68   14   66 1  
    69   14   67 1  
    70   15   68 1  
    71   15   69 1  
    72   17   70 1  
    73   18   71 1  
    74   19   72 1  
    75   20   73 1  
    76   21   74 1  
    77   22   75 1  
    78   23   76 1  
    79   26   77 1  
    80   26   78 1  
    81   27   79 1  
    82   28   80 1  
    83   28   81 1  
    84   28   82 1  
    85   29   83 1  
    86   29   84 1  
    87   29   85 1  
    88   30   86 1  
    89   31   87 1  
    90   34   88 1  
    91   34   89 1  
    92   36   90 1  
    93   37   91 1  
    94   38   92 1  
    95   39   93 1  
    96   40   94 1  
    97   41   95 1  
    98   42   96 1  
    99   43   97 1  
   100   43   98 1  
   101   44   99 1  
   102   45  100 1  
   103   45  101 1  
   104   45  102 1  
   105   46  103 1  
   106   46  104 1  
   107   46  105 1  
   108   47  106 1  
   109   48  107 1  
   110   49  108 1  
   111   49  109 1  
   112   49  110 1  
   113   50  111 1  
   114   50  112 1  
   115   51  113 1  
   116   52  114 1  
@<TRIPOS>SUBSTRUCTURE
     1 3BV         1

