4qw4_ligand
  -I-interpret- 

114116  0  0  0  0  0  0  0  0999 V2000
   59.0360 -134.8640   31.7080 C   0  0  0  0  0
   59.6910 -133.9000   31.3090 O   0  0  0  0  0
   58.6480 -136.0370   30.7820 C   0  0  0  0  0
   58.2970 -135.6520   29.3910 N   0  3  0  0  0
   58.2010 -134.0750   27.2120 O   0  0  0  0  0
   59.4890 -135.3750   28.5460 C   0  0  0  0  0
   57.3000 -134.5500   29.3330 C   0  0  0  0  0
   58.9890 -135.2480   27.1490 C   0  0  0  0  0
   56.9590 -134.2680   27.9460 C   0  0  0  0  0
   58.6140 -135.0120   32.9710 N   0  0  0  0  0
   58.9010 -134.0320   34.0260 C   0  0  0  0  0
   60.1310 -134.5050   34.7960 C   0  0  0  0  0
   60.4170 -135.7010   34.8440 O   0  0  0  0  0
   57.7550 -134.0170   35.0040 C   0  0  0  0  0
   56.9960 -132.7250   34.7640 C   0  0  0  0  0
   55.7350 -132.7830   35.4190 C   0  0  0  0  0
   54.6610 -132.0600   34.8920 C   0  0  0  0  0
   55.5170 -133.5180   36.5920 C   0  0  0  0  0
   53.4100 -132.0830   35.5080 C   0  0  0  0  0
   54.2680 -133.5460   37.2080 C   0  0  0  0  0
   53.2110 -132.8270   36.6670 C   0  0  0  0  0
   60.8100 -133.5450   35.4360 N   0  0  0  0  0
   61.9800 -133.8720   36.2600 C   0  0  0  0  0
   61.4880 -134.0530   37.6970 C   0  0  0  0  0
   60.7510 -133.2100   38.2110 O   0  0  0  0  0
   62.9740 -132.7430   36.2200 C   0  0  0  0  0
   63.6790 -132.8530   34.8480 C   0  0  0  0  0
   64.2990 -131.5020   34.4530 C   0  0  0  0  0
   64.7650 -133.9420   34.8750 C   0  0  0  0  0
   61.8910 -135.1830   38.3050 N   0  0  0  0  0
   61.5290 -135.4810   39.6990 C   0  0  0  0  0
   62.8150 -135.4590   40.5160 C   0  0  0  0  0
   63.9110 -135.5340   39.9610 O   0  0  0  0  0
   60.8660 -136.8170   39.8370 C   0  0  0  0  0
   59.5560 -136.6240   39.3780 C   0  0  0  0  0
   59.2240 -136.9080   38.0540 C   0  0  0  0  0
   58.5700 -136.1440   40.2440 C   0  0  0  0  0
   57.9210 -136.7170   37.6000 C   0  0  0  0  0
   57.2670 -135.9530   39.7910 C   0  0  0  0  0
   56.9420 -136.2430   38.4690 C   0  0  0  0  0
   62.6260 -135.3350   41.8390 N   0  0  0  0  0
   63.7280 -135.1740   42.7940 C   0  0  0  0  0
   63.5210 -133.7660   43.3320 C   0  0  0  0  0
   64.6210 -132.7750   42.8650 C   0  0  0  0  0
   64.1400 -131.3450   43.1800 C   0  0  0  0  0
   64.9670 -132.8630   41.3640 C   0  0  0  0  0
   63.6550 -136.1630   43.9880 C   0  0  0  0  0
   64.0450 -137.7100   43.7110 C   0  0  0  0  0
   65.1750 -137.8200   42.6530 C   0  0  0  0  0
   62.8550 -138.4090   43.0570 C   0  0  0  0  0
   61.7700 -138.2720   43.9770 O   0  0  0  0  0
   62.3300 -136.0800   44.5350 O   0  0  0  0  0
   57.7594 -136.4972   31.2140 H   0  0  0  0  0
   59.5203 -136.6874   30.7170 H   0  0  0  0  0
   57.8457 -136.4725   28.9866 H   0  0  0  0  0
   60.2235 -136.1761   28.6287 H   0  0  0  0  0
   59.9941 -134.4638   28.8665 H   0  0  0  0  0
   57.7237 -133.6555   29.7896 H   0  0  0  0  0
   56.4009 -134.8479   29.8724 H   0  0  0  0  0
   59.7901 -135.1856   26.4125 H   0  0  0  0  0
   58.4292 -136.1214   26.8145 H   0  0  0  0  0
   56.3928 -135.0962   27.5199 H   0  0  0  0  0
   56.3398 -133.3732   27.8833 H   0  0  0  0  0
   58.0700 -135.8411   33.2099 H   0  0  0  0  0
   59.0538 -133.0477   33.5833 H   0  0  0  0  0
   58.1187 -134.0696   36.0302 H   0  0  0  0  0
   57.1074 -134.8815   34.8577 H   0  0  0  0  0
   56.8419 -132.5893   33.6935 H   0  0  0  0  0
   57.5714 -131.8883   35.1601 H   0  0  0  0  0
   54.8033 -131.4698   33.9867 H   0  0  0  0  0
   56.3417 -134.0793   37.0313 H   0  0  0  0  0
   52.5840 -131.5154   35.0795 H   0  0  0  0  0
   54.1206 -134.1325   38.1149 H   0  0  0  0  0
   52.2323 -132.8451   37.1465 H   0  0  0  0  0
   60.5105 -132.5738   35.3499 H   0  0  0  0  0
   62.4641 -134.7752   35.8885 H   0  0  0  0  0
   63.6883 -132.8136   37.0403 H   0  0  0  0  0
   62.4828 -131.7771   36.3378 H   0  0  0  0  0
   62.9305 -133.1298   34.1056 H   0  0  0  0  0
   63.5143 -130.7482   34.3898 H   0  0  0  0  0
   65.0299 -131.2053   35.2052 H   0  0  0  0  0
   64.7907 -131.5985   33.4850 H   0  0  0  0  0
   65.5081 -133.6935   35.6327 H   0  0  0  0  0
   64.3085 -134.9027   35.1132 H   0  0  0  0  0
   65.2452 -133.9987   33.8981 H   0  0  0  0  0
   62.4621 -135.8501   37.7862 H   0  0  0  0  0
   60.8149 -134.7367   40.0514 H   0  0  0  0  0
   60.8837 -137.1710   40.8678 H   0  0  0  0  0
   61.3847 -137.5853   39.2637 H   0  0  0  0  0
   59.9873 -137.2811   37.3712 H   0  0  0  0  0
   58.8221 -135.9178   41.2800 H   0  0  0  0  0
   57.6676 -136.9389   36.5633 H   0  0  0  0  0
   56.5026 -135.5769   40.4709 H   0  0  0  0  0
   55.9214 -136.0991   38.1143 H   0  0  0  0  0
   61.6712 -135.3536   42.1973 H   0  0  0  0  0
   64.6871 -135.3573   42.3095 H   0  0  0  0  0
   63.5573 -133.8161   44.4202 H   0  0  0  0  0
   62.5640 -133.4030   42.9571 H   0  0  0  0  0
   65.5325 -133.0410   43.4003 H   0  0  0  0  0
   63.2082 -131.1512   42.6487 H   0  0  0  0  0
   63.9752 -131.2466   44.2530 H   0  0  0  0  0
   64.8976 -130.6295   42.8603 H   0  0  0  0  0
   65.3250 -133.8663   41.1332 H   0  0  0  0  0
   64.0759 -132.6491   40.7739 H   0  0  0  0  0
   65.7437 -132.1355   41.1282 H   0  0  0  0  0
   64.4367 -135.8424   44.6767 H   0  0  0  0  0
   64.3418 -138.1440   44.6658 H   0  0  0  0  0
   64.8403 -137.3712   41.7178 H   0  0  0  0  0
   66.0602 -137.2955   43.0128 H   0  0  0  0  0
   65.4154 -138.8703   42.4879 H   0  0  0  0  0
   63.0732 -139.4575   42.8541 H   0  0  0  0  0
   62.6150 -137.9639   42.0914 H   0  0  0  0  0
   60.9890 -138.6966   43.6145 H   0  0  0  0  0
   62.2535 -136.6828   45.2783 H   0  0  0  0  0
  1  2  2  0  0  0
  3  1  1  0  0  0
  1 10  1  0  0  0
  4  3  1  0  0  0
  6  4  1  0  0  0
  4  7  1  0  0  0
  8  5  1  0  0  0
  5  9  1  0  0  0
  6  8  1  0  0  0
  7  9  1  0  0  0
 10 11  1  0  0  0
 11 12  1  0  0  0
 11 14  1  0  0  0
 12 13  2  0  0  0
 12 22  1  0  0  0
 14 15  1  0  0  0
 15 16  1  0  0  0
 16 17  4  0  0  0
 16 18  4  0  0  0
 17 19  4  0  0  0
 18 20  4  0  0  0
 19 21  4  0  0  0
 20 21  4  0  0  0
 22 23  1  0  0  0
 23 24  1  0  0  0
 23 26  1  0  0  0
 24 25  2  0  0  0
 24 30  1  0  0  0
 26 27  1  0  0  0
 27 28  1  0  0  0
 27 29  1  0  0  0
 30 31  1  0  0  0
 31 32  1  0  0  0
 31 34  1  0  0  0
 32 33  2  0  0  0
 32 41  1  0  0  0
 34 35  1  0  0  0
 35 36  4  0  0  0
 35 37  4  0  0  0
 36 38  4  0  0  0
 37 39  4  0  0  0
 38 40  4  0  0  0
 39 40  4  0  0  0
 41 42  1  0  0  0
 42 43  1  0  0  0
 42 47  1  0  0  0
 43 44  1  0  0  0
 44 45  1  0  0  0
 44 46  1  0  0  0
 47 48  1  0  0  0
 47 52  1  0  0  0
 48 49  1  0  0  0
 48 50  1  0  0  0
 50 51  1  0  0  0
  3 53  1  0  0  0
  3 54  1  0  0  0
  4 55  1  0  0  0
  6 56  1  0  0  0
  6 57  1  0  0  0
  7 58  1  0  0  0
  7 59  1  0  0  0
  8 60  1  0  0  0
  8 61  1  0  0  0
  9 62  1  0  0  0
  9 63  1  0  0  0
 10 64  1  0  0  0
 11 65  1  0  0  0
 14 66  1  0  0  0
 14 67  1  0  0  0
 15 68  1  0  0  0
 15 69  1  0  0  0
 17 70  1  0  0  0
 18 71  1  0  0  0
 19 72  1  0  0  0
 20 73  1  0  0  0
 21 74  1  0  0  0
 22 75  1  0  0  0
 23 76  1  0  0  0
 26 77  1  0  0  0
 26 78  1  0  0  0
 27 79  1  0  0  0
 28 80  1  0  0  0
 28 81  1  0  0  0
 28 82  1  0  0  0
 29 83  1  0  0  0
 29 84  1  0  0  0
 29 85  1  0  0  0
 30 86  1  0  0  0
 31 87  1  0  0  0
 34 88  1  0  0  0
 34 89  1  0  0  0
 36 90  1  0  0  0
 37 91  1  0  0  0
 38 92  1  0  0  0
 39 93  1  0  0  0
 40 94  1  0  0  0
 41 95  1  0  0  0
 42 96  1  0  0  0
 43 97  1  0  0  0
 43 98  1  0  0  0
 44 99  1  0  0  0
 45100  1  0  0  0
 45101  1  0  0  0
 45102  1  0  0  0
 46103  1  0  0  0
 46104  1  0  0  0
 46105  1  0  0  0
 47106  1  0  0  0
 48107  1  0  0  0
 49108  1  0  0  0
 49109  1  0  0  0
 49110  1  0  0  0
 50111  1  0  0  0
 50112  1  0  0  0
 51113  1  0  0  0
 52114  1  0  0  0
M  END
$$$$
