5vkm_ligand
  -I-interpret- 

 61 62  0  0  0  0  0  0  0  0999 V2000
  -54.8370    8.3740   22.4520 C   0  0  0  0  0
  -53.5480    7.8480   23.0510 C   0  0  0  0  0
  -52.6470    8.9390   23.5110 C   0  0  0  0  0
  -52.4100    9.9710   22.4470 C   0  0  0  0  0
  -53.7110   10.4720   21.8310 C   0  0  0  0  0
  -53.3830   11.3810   20.6430 C   0  0  0  0  0
  -55.5740    7.3240   21.9210 O   0  0  0  0  0
  -53.8680    7.0110   24.1850 O   0  0  0  0  0
  -51.3770    8.3690   23.8960 O   0  0  0  0  0
  -51.5790    9.3980   21.4060 O   0  0  0  0  0
  -54.5720    9.3790   21.3630 O   0  0  0  0  0
  -54.5800   11.6180   19.8790 O   0  0  0  0  0
  -53.9220   13.7940   18.8450 C   0  0  0  0  0
  -54.6550   12.4400   18.7800 C   0  0  0  0  0
  -56.0160   12.6050   18.1220 C   0  0  0  0  0
  -55.9380   12.7720   16.6590 C   0  0  0  0  0
  -55.0700   11.7770   15.9790 C   0  0  0  0  0
  -53.7070   11.6600   16.6510 C   0  0  0  0  0
  -52.8990   10.5240   16.0420 C   0  0  0  0  0
  -51.5400   10.4830   16.7080 C   0  0  0  0  0
  -50.6630    9.4490   16.0270 C   0  0  0  0  0
  -55.0470   11.3100   13.4520 C   0  0  0  0  0
  -54.8370   11.7970   12.0420 C   0  0  0  0  0
  -54.8670   12.2370   14.5730 N   0  0  0  0  0
  -52.6740   13.8570   18.6460 O   0  0  0  0  0
  -54.5360   14.8090   19.0930 O   0  0  0  0  0
  -57.2760   12.6520   16.1200 O   0  0  0  0  0
  -53.8260   11.4190   18.0920 O   0  0  0  0  0
  -53.5820    9.2830   16.2530 O   0  0  0  0  0
  -50.9020   11.7520   16.6230 O   0  0  0  0  0
  -49.5020    9.1990   16.8470 O   0  0  0  0  0
  -55.3490   10.2010   13.6530 O   0  0  0  0  0
  -55.3941    8.8637   23.2507 H   0  0  0  0  0
  -53.0283    7.2894   22.2725 H   0  0  0  0  0
  -53.1310    9.4329   24.3536 H   0  0  0  0  0
  -51.9149   10.8225   22.9137 H   0  0  0  0  0
  -54.2525   11.0118   22.6079 H   0  0  0  0  0
  -52.6366   10.8997   20.0110 H   0  0  0  0  0
  -52.9897   12.3298   21.0078 H   0  0  0  0  0
  -55.7483    6.6770   22.6085 H   0  0  0  0  0
  -54.4498    6.3012   23.9033 H   0  0  0  0  0
  -51.5179    7.7070   24.5769 H   0  0  0  0  0
  -50.7585    9.0814   21.7910 H   0  0  0  0  0
  -56.4745   13.5044   18.5330 H   0  0  0  0  0
  -56.5907   11.7004   18.3208 H   0  0  0  0  0
  -55.4941   13.7506   16.4760 H   0  0  0  0  0
  -55.5528   10.8009   16.0254 H   0  0  0  0  0
  -53.2004   12.6115   16.4893 H   0  0  0  0  0
  -52.7792   10.6834   14.9704 H   0  0  0  0  0
  -51.6823   10.2206   17.7563 H   0  0  0  0  0
  -50.3492    9.8203   15.0514 H   0  0  0  0  0
  -51.2236    8.5237   15.8941 H   0  0  0  0  0
  -54.0388   11.2202   11.5748 H   0  0  0  0  0
  -55.7587   11.6703   11.4741 H   0  0  0  0  0
  -54.5621   12.8516   12.0604 H   0  0  0  0  0
  -54.6008   13.2047   14.3911 H   0  0  0  0  0
  -52.3354   12.9775   18.4633 H   0  0  0  0  0
  -57.2463   12.7581   15.1663 H   0  0  0  0  0
  -53.0702    8.5679   15.8679 H   0  0  0  0  0
  -50.0433   11.7064   17.0499 H   0  0  0  0  0
  -48.9444    8.5450   16.4193 H   0  0  0  0  0
  1  2  1  0  0  0
  1  7  1  0  0  0
 11  1  1  0  0  0
  3  2  1  0  0  0
  2  8  1  0  0  0
  4  3  1  0  0  0
  3  9  1  0  0  0
  5  4  1  0  0  0
  4 10  1  0  0  0
  6  5  1  0  0  0
  5 11  1  0  0  0
 12  6  1  0  0  0
 14 12  1  0  0  0
 14 13  1  0  0  0
 13 25  1  0  0  0
 13 26  2  0  0  0
 15 14  1  0  0  0
 28 14  1  0  0  0
 16 15  1  0  0  0
 17 16  1  0  0  0
 16 27  1  0  0  0
 17 18  1  0  0  0
 24 17  1  0  0  0
 18 19  1  0  0  0
 18 28  1  0  0  0
 19 20  1  0  0  0
 19 29  1  0  0  0
 20 21  1  0  0  0
 20 30  1  0  0  0
 21 31  1  0  0  0
 22 23  1  0  0  0
 22 24  1  0  0  0
 22 32  2  0  0  0
  1 33  1  0  0  0
  2 34  1  0  0  0
  3 35  1  0  0  0
  4 36  1  0  0  0
  5 37  1  0  0  0
  6 38  1  0  0  0
  6 39  1  0  0  0
  7 40  1  0  0  0
  8 41  1  0  0  0
  9 42  1  0  0  0
 10 43  1  0  0  0
 15 44  1  0  0  0
 15 45  1  0  0  0
 16 46  1  0  0  0
 17 47  1  0  0  0
 18 48  1  0  0  0
 19 49  1  0  0  0
 20 50  1  0  0  0
 21 51  1  0  0  0
 21 52  1  0  0  0
 23 53  1  0  0  0
 23 54  1  0  0  0
 23 55  1  0  0  0
 24 56  1  0  0  0
 25 57  1  0  0  0
 27 58  1  0  0  0
 29 59  1  0  0  0
 30 60  1  0  0  0
 31 61  1  0  0  0
M  END
$$$$
