3fpd_ligand
  -I-interpret- 

 76 80  0  0  0  0  0  0  0  0999 V2000
    1.8990  -29.1890   46.6310 C   0  0  0  0  0
    0.0320  -27.4210   47.5100 C   0  0  0  0  0
   -0.2820  -28.3580   46.5330 C   0  0  0  0  0
    4.1570  -30.0370   46.7880 C   0  0  0  0  0
    4.2220  -30.9210   48.0360 C   0  0  0  0  0
    3.2190  -32.0780   47.9980 C   0  0  0  0  0
    3.2680  -32.8060   46.7210 N   0  3  0  0  0
    3.1900  -34.2520   46.9800 C   0  0  0  0  0
    2.1260  -32.4060   45.8850 C   0  0  0  0  0
    2.4050  -31.0640   45.2060 C   0  0  0  0  0
    2.8030  -30.0740   46.2170 N   0  0  0  0  0
    2.2270  -28.2860   47.5670 N   0  0  0  0  0
    0.6610  -29.2180   46.1170 N   0  0  0  0  0
   -1.5760  -28.4240   46.0270 C   0  0  0  0  0
   -2.5560  -27.5640   46.5130 C   0  0  0  0  0
   -3.8120  -27.5720   45.9890 O   0  0  0  0  0
   -4.1880  -28.8640   45.5020 C   0  0  0  0  0
   -2.2460  -26.6430   47.5100 C   0  0  0  0  0
   -3.2440  -25.8940   48.0530 O   0  0  0  0  0
   -2.7860  -24.6450   48.5800 C   0  0  0  0  0
   -0.9470  -26.5650   48.0030 C   0  0  0  0  0
    1.3280  -27.3950   48.0120 C   0  0  0  0  0
    1.6880  -26.4360   48.8610 N   0  0  0  0  0
    3.0780  -26.3330   49.3300 C   0  0  0  0  0
    3.5670  -24.8860   49.2370 C   0  0  0  0  0
    4.9520  -24.7390   49.8730 C   0  0  0  0  0
    3.1450  -26.8070   50.7840 C   0  0  0  0  0
    4.5520  -26.5950   51.3450 C   0  0  0  0  0
    4.8890  -25.1650   51.2790 N   0  3  0  0  0
    6.1780  -24.9280   51.9470 C   0  0  0  0  0
    6.0320  -25.2140   53.4440 C   0  0  0  0  0
    5.6540  -24.1930   54.3110 C   0  0  0  0  0
    5.4690  -24.4630   55.6630 C   0  0  0  0  0
    5.6610  -25.7520   56.1510 C   0  0  0  0  0
    6.0420  -26.7740   55.2890 C   0  0  0  0  0
    6.2280  -26.5010   53.9370 C   0  0  0  0  0
    4.8684  -30.4060   46.0492 H   0  0  0  0  0
    4.4034  -29.0110   47.0615 H   0  0  0  0  0
    3.9811  -30.2990   48.8981 H   0  0  0  0  0
    5.2230  -31.3491   48.0896 H   0  0  0  0  0
    2.2172  -31.6654   48.1175 H   0  0  0  0  0
    3.4707  -32.7744   48.7978 H   0  0  0  0  0
    4.1404  -32.5876   46.2398 H   0  0  0  0  0
    2.2580  -34.4772   47.4984 H   0  0  0  0  0
    3.2203  -34.7915   46.0334 H   0  0  0  0  0
    4.0341  -34.5549   47.5995 H   0  0  0  0  0
    1.2423  -32.3075   46.5154 H   0  0  0  0  0
    1.9645  -33.1643   45.1188 H   0  0  0  0  0
    1.5040  -30.7208   44.6976 H   0  0  0  0  0
    3.2097  -31.1851   44.4808 H   0  0  0  0  0
   -1.8220  -29.1485   45.2507 H   0  0  0  0  0
   -3.4933  -29.1728   44.7209 H   0  0  0  0  0
   -4.1583  -29.5824   46.3212 H   0  0  0  0  0
   -5.1978  -28.8175   45.0943 H   0  0  0  0  0
   -2.0490  -24.8302   49.3614 H   0  0  0  0  0
   -2.3309  -24.0599   47.7808 H   0  0  0  0  0
   -3.6304  -24.0968   48.9977 H   0  0  0  0  0
   -0.6976  -25.8352   48.7732 H   0  0  0  0  0
    0.9931  -25.7656   49.1898 H   0  0  0  0  0
    3.7174  -26.9549   48.7035 H   0  0  0  0  0
    2.8657  -24.2429   49.7687 H   0  0  0  0  0
    3.6306  -24.6031   48.1863 H   0  0  0  0  0
    5.2685  -23.6972   49.8213 H   0  0  0  0  0
    5.6682  -25.3603   49.3353 H   0  0  0  0  0
    2.9012  -27.8686   50.8246 H   0  0  0  0  0
    2.4338  -26.2340   51.3790 H   0  0  0  0  0
    5.2699  -27.1673   50.7575 H   0  0  0  0  0
    4.5870  -26.9315   52.3812 H   0  0  0  0  0
    4.1696  -24.6212   51.7557 H   0  0  0  0  0
    6.4793  -23.8906   51.8013 H   0  0  0  0  0
    6.9358  -25.5861   51.5219 H   0  0  0  0  0
    5.5030  -23.1826   53.9309 H   0  0  0  0  0
    5.1730  -23.6631   56.3417 H   0  0  0  0  0
    5.5125  -25.9606   57.2105 H   0  0  0  0  0
    6.1943  -27.7838   55.6700 H   0  0  0  0  0
    6.5291  -27.3002   53.2597 H   0  0  0  0  0
 11  1  1  0  0  0
  1 12  4  0  0  0
  1 13  4  0  0  0
  3  2  4  0  0  0
  2 21  4  0  0  0
  2 22  4  0  0  0
 13  3  4  0  0  0
  3 14  4  0  0  0
  4  5  1  0  0  0
  4 11  1  0  0  0
  5  6  1  0  0  0
  6  7  1  0  0  0
  7  8  1  0  0  0
  7  9  1  0  0  0
  9 10  1  0  0  0
 10 11  1  0  0  0
 12 22  4  0  0  0
 14 15  4  0  0  0
 15 16  1  0  0  0
 15 18  4  0  0  0
 16 17  1  0  0  0
 18 19  1  0  0  0
 18 21  4  0  0  0
 19 20  1  0  0  0
 22 23  1  0  0  0
 23 24  1  0  0  0
 24 25  1  0  0  0
 24 27  1  0  0  0
 25 26  1  0  0  0
 26 29  1  0  0  0
 27 28  1  0  0  0
 28 29  1  0  0  0
 29 30  1  0  0  0
 30 31  1  0  0  0
 31 32  4  0  0  0
 31 36  4  0  0  0
 32 33  4  0  0  0
 33 34  4  0  0  0
 34 35  4  0  0  0
 35 36  4  0  0  0
  4 37  1  0  0  0
  4 38  1  0  0  0
  5 39  1  0  0  0
  5 40  1  0  0  0
  6 41  1  0  0  0
  6 42  1  0  0  0
  7 43  1  0  0  0
  8 44  1  0  0  0
  8 45  1  0  0  0
  8 46  1  0  0  0
  9 47  1  0  0  0
  9 48  1  0  0  0
 10 49  1  0  0  0
 10 50  1  0  0  0
 14 51  1  0  0  0
 17 52  1  0  0  0
 17 53  1  0  0  0
 17 54  1  0  0  0
 20 55  1  0  0  0
 20 56  1  0  0  0
 20 57  1  0  0  0
 21 58  1  0  0  0
 23 59  1  0  0  0
 24 60  1  0  0  0
 25 61  1  0  0  0
 25 62  1  0  0  0
 26 63  1  0  0  0
 26 64  1  0  0  0
 27 65  1  0  0  0
 27 66  1  0  0  0
 28 67  1  0  0  0
 28 68  1  0  0  0
 29 69  1  0  0  0
 30 70  1  0  0  0
 30 71  1  0  0  0
 32 72  1  0  0  0
 33 73  1  0  0  0
 34 74  1  0  0  0
 35 75  1  0  0  0
 36 76  1  0  0  0
M  END
$$$$
