6bfa_ligand
  -I-interpret- 

 50 54  0  0  0  0  0  0  0  0999 V2000
   -2.8580  -18.9850  -29.6940 O   0  0  0  0  0
   -4.2370  -19.3940  -29.7810 C   0  0  0  0  0
   -5.0980  -18.4620  -28.9360 C   0  0  0  0  0
   -4.5780  -19.3220  -31.1720 C   0  0  0  0  0
   -4.4110  -20.8680  -29.2770 C   0  0  0  0  0
   -3.4790  -21.8650  -29.7930 N   0  0  0  0  0
   -3.7100  -23.1860  -29.9530 C   0  0  0  0  0
   -4.8670  -23.8150  -29.7090 N   0  0  0  0  0
   -4.7670  -25.1240  -29.9330 C   0  0  0  0  0
   -3.7020  -25.8290  -30.3230 N   0  0  0  0  0
   -2.5430  -25.1750  -30.5640 C   0  0  0  0  0
   -1.4730  -25.8960  -30.9140 N   0  0  0  0  0
   -2.1670  -21.5470  -30.1240 N   0  0  0  0  0
   -1.5960  -22.6900  -30.4660 C   0  0  0  0  0
   -2.5070  -23.7700  -30.3880 C   0  0  0  0  0
   -0.1530  -22.6870  -30.8280 C   0  0  0  0  0
    0.3230  -23.5010  -31.8270 C   0  0  0  0  0
    1.6750  -23.4380  -32.2430 C   0  0  0  0  0
    2.5390  -22.5270  -31.6000 C   0  0  0  0  0
    2.0170  -21.7120  -30.5740 C   0  0  0  0  0
    0.7110  -21.7930  -30.2060 C   0  0  0  0  0
    2.2030  -24.2690  -33.2580 C   0  0  0  0  0
    3.5160  -24.2060  -33.5970 C   0  0  0  0  0
    4.3640  -23.3330  -32.9350 C   0  0  0  0  0
    3.8980  -22.4850  -31.9740 C   0  0  0  0  0
    5.7350  -23.3150  -33.0080 O   0  0  0  0  0
    6.3320  -24.1310  -31.9550 C   0  0  0  0  0
    6.0740  -23.6410  -30.5660 C   0  0  0  0  0
    7.3820  -23.4510  -31.1950 C   0  0  0  0  0
   -2.7731  -18.0813  -30.0067 H   0  0  0  0  0
   -6.1440  -18.7556  -29.0248 H   0  0  0  0  0
   -4.7878  -18.5287  -27.8932 H   0  0  0  0  0
   -4.9757  -17.4377  -29.2880 H   0  0  0  0  0
   -3.9217  -19.9812  -31.7402 H   0  0  0  0  0
   -5.6137  -19.6335  -31.3075 H   0  0  0  0  0
   -4.4568  -18.2968  -31.5219 H   0  0  0  0  0
   -5.3978  -21.1820  -29.6173 H   0  0  0  0  0
   -4.2415  -20.8342  -28.2008 H   0  0  0  0  0
   -5.6798  -25.6989  -29.7765 H   0  0  0  0  0
   -1.5451  -26.9104  -30.9927 H   0  0  0  0  0
   -0.5845  -25.4317  -31.1023 H   0  0  0  0  0
   -0.3524  -24.2083  -32.3082 H   0  0  0  0  0
    2.6729  -21.0043  -30.0669 H   0  0  0  0  0
    0.3357  -21.1477  -29.4117 H   0  0  0  0  0
    1.5471  -24.9694  -33.7750 H   0  0  0  0  0
    3.9038  -24.8435  -34.3916 H   0  0  0  0  0
    4.5744  -21.7764  -31.4961 H   0  0  0  0  0
    6.2359  -25.0872  -32.4693 H   0  0  0  0  0
    5.4055  -23.5169  -29.7141 H   0  0  0  0  0
    8.4032  -23.0742  -31.1383 H   0  0  0  0  0
  1  2  1  0  0  0
  2  3  1  0  0  0
  2  4  1  0  0  0
  2  5  1  0  0  0
  5  6  1  0  0  0
  6  7  4  0  0  0
  6 13  4  0  0  0
  7  8  4  0  0  0
  7 15  4  0  0  0
  8  9  4  0  0  0
  9 10  4  0  0  0
 10 11  4  0  0  0
 11 12  1  0  0  0
 11 15  4  0  0  0
 13 14  4  0  0  0
 14 15  4  0  0  0
 14 16  1  0  0  0
 16 17  4  0  0  0
 16 21  4  0  0  0
 17 18  4  0  0  0
 18 19  4  0  0  0
 18 22  4  0  0  0
 19 20  4  0  0  0
 19 25  4  0  0  0
 20 21  4  0  0  0
 22 23  4  0  0  0
 23 24  4  0  0  0
 24 25  4  0  0  0
 24 26  1  0  0  0
 26 27  1  0  0  0
 27 28  1  0  0  0
 27 29  1  0  0  0
 28 29  2  0  0  0
  1 30  1  0  0  0
  3 31  1  0  0  0
  3 32  1  0  0  0
  3 33  1  0  0  0
  4 34  1  0  0  0
  4 35  1  0  0  0
  4 36  1  0  0  0
  5 37  1  0  0  0
  5 38  1  0  0  0
  9 39  1  0  0  0
 12 40  1  0  0  0
 12 41  1  0  0  0
 17 42  1  0  0  0
 20 43  1  0  0  0
 21 44  1  0  0  0
 22 45  1  0  0  0
 23 46  1  0  0  0
 25 47  1  0  0  0
 27 48  1  0  0  0
 28 49  1  0  0  0
 29 50  1  0  0  0
M  END
$$$$
