### 
### Created by X-TOOL on Mon Sep 10 21:13:20 2018
### 

@<TRIPOS>MOLECULE
4u0b_ligand
  199   205     1     0     0
SMALL
GAST_HUCK


@<TRIPOS>ATOM
      1 N          -7.6220   68.7740  -15.1550 N.4       1 PRO         0.2461
      2 CA         -8.3050   67.7590  -14.3550 C.3       1 PRO         0.0670
      3 C          -8.4670   68.1590  -12.8870 C.2       1 PRO         0.2268
      4 O          -7.8910   69.1560  -12.4450 O.2       1 PRO        -0.3907
      5 CB         -7.3820   66.5440  -14.4810 C.3       1 PRO         0.0127
      6 CG         -6.0230   67.1290  -14.6690 C.3       1 PRO        -0.0053
      7 CD         -6.2130   68.4240  -15.4110 C.3       1 PRO        -0.0313
      8 N          -9.2460   67.3760  -12.1470 N.am      1 VAL        -0.2608
      9 CA         -9.4890   67.6390  -10.7280 C.3       1 VAL         0.1334
     10 C          -8.2960   67.1870   -9.8890 C.2       1 VAL         0.2042
     11 O          -7.8770   67.8890   -8.9690 O.2       1 VAL        -0.3944
     12 CB        -10.7630   66.9210  -10.2220 C.3       1 VAL        -0.0063
     13 CG1       -10.9890   67.2020   -8.7390 C.3       1 VAL        -0.0584
     14 CG2       -11.9780   67.3470  -11.0380 C.3       1 VAL        -0.0584
     15 N          -7.7620   66.0110  -10.2170 N.am      1 LEU        -0.2637
     16 CA         -6.6630   65.4060   -9.4710 C.3       1 LEU         0.1312
     17 C          -5.4860   65.0880  -10.3900 C.2       1 LEU         0.2040
     18 O          -5.6000   64.2450  -11.2820 O.2       1 LEU        -0.3944
     19 CB         -7.1420   64.1230   -8.7850 C.3       1 LEU        -0.0101
     20 CG         -8.2140   64.3000   -7.7060 C.3       1 LEU        -0.0425
     21 CD1        -8.8900   62.9790   -7.3760 C.3       1 LEU        -0.0625
     22 CD2        -7.6200   64.9210   -6.4510 C.3       1 LEU        -0.0625
     23 N          -4.3630   65.7700  -10.1700 N.am      1 PHE        -0.2619
     24 CA         -3.1220   65.4620  -10.8760 C.3       1 PHE         0.1406
     25 C          -2.4140   64.2990  -10.1810 C.2       1 PHE         0.2085
     26 O          -2.5710   64.1200   -8.9710 O.2       1 PHE        -0.3940
     27 CB         -2.1990   66.6780  -10.9090 C.3       1 PHE         0.0214
     28 CG         -2.7450   67.8340  -11.6940 C.ar      1 PHE        -0.0386
     29 CD1        -3.5020   68.8180  -11.0700 C.ar      1 PHE        -0.0601
     30 CD2        -2.4980   67.9430  -13.0560 C.ar      1 PHE        -0.0601
     31 CE1        -4.0050   69.8880  -11.7910 C.ar      1 PHE        -0.0686
     32 CE2        -2.9970   69.0110  -13.7830 C.ar      1 PHE        -0.0686
     33 CZ         -3.7520   69.9850  -13.1490 C.ar      1 PHE        -0.0687
     34 N          -1.6210   63.5120  -10.9340 N.am      1 PRO        -0.2497
     35 CA         -0.9800   62.3420  -10.3310 C.3       1 PRO         0.1338
     36 C           0.0210   62.7290   -9.2500 C.2       1 PRO         0.2039
     37 O           0.8310   63.6300   -9.4630 O.2       1 PRO        -0.3944
     38 CB         -0.2590   61.6730  -11.5100 C.3       1 PRO        -0.0104
     39 CG         -0.7970   62.3150  -12.7440 C.3       1 PRO        -0.0281
     40 CD         -1.2210   63.6900  -12.3400 C.3       1 PRO         0.0369
     41 N          -0.0520   62.0590   -8.1010 N.am      1 GLY        -0.2664
     42 CA          0.8390   62.3350   -6.9730 C.3       1 GLY         0.1201
     43 C           0.1860   63.1090   -5.8400 C.2       1 GLY         0.2007
     44 O           0.5820   62.9610   -4.6830 O.2       1 GLY        -0.3947
     45 N          -0.8080   63.9350   -6.1660 N.am      1 GLN        -0.2642
     46 CA         -1.4930   64.7650   -5.1700 C.3       1 GLN         0.1284
     47 C          -2.5090   63.9500   -4.3660 C.2       1 GLN         0.2061
     48 O          -3.2260   63.1310   -4.9390 O.2       1 GLN        -0.3942
     49 CB         -2.2140   65.9270   -5.8570 C.3       1 GLN        -0.0244
     50 N          -2.5870   64.1780   -3.0380 N.am      1 PRO        -0.2498
     51 CA         -3.5870   63.4740   -2.2260 C.3       1 PRO         0.1338
     52 C          -5.0300   63.7440   -2.6610 C.2       1 PRO         0.2042
     53 O          -5.3160   64.7690   -3.2840 O.2       1 PRO        -0.3944
     54 CB         -3.3590   64.0310   -0.8150 C.3       1 PRO        -0.0104
     55 CG         -1.9710   64.5600   -0.8200 C.3       1 PRO        -0.0281
     56 CD         -1.7220   65.0430   -2.2150 C.3       1 PRO         0.0369
     57 N          -5.9240   62.8160   -2.3320 N.am      1 PHE        -0.2619
     58 CA         -7.3480   62.9850   -2.6060 C.3       1 PHE         0.1404
     59 C          -7.8830   64.1970   -1.8470 C.2       1 PHE         0.2058
     60 O          -7.5780   64.3840   -0.6700 O.2       1 PHE        -0.3942
     61 CB         -8.1330   61.7330   -2.2010 C.3       1 PHE         0.0214
     62 CG         -7.9470   60.5670   -3.1300 C.ar      1 PHE        -0.0386
     63 CD1        -8.7520   60.4240   -4.2530 C.ar      1 PHE        -0.0601
     64 CD2        -6.9800   59.6030   -2.8750 C.ar      1 PHE        -0.0601
     65 CE1        -8.5890   59.3460   -5.1090 C.ar      1 PHE        -0.0686
     66 CE2        -6.8110   58.5250   -3.7260 C.ar      1 PHE        -0.0686
     67 CZ         -7.6180   58.3950   -4.8440 C.ar      1 PHE        -0.0687
     68 N          -8.6650   65.0250   -2.5330 N.am      1 GLY        -0.2663
     69 CA         -9.2720   66.2040   -1.9190 C.3       1 GLY         0.1201
     70 C          -8.3410   67.3790   -1.6720 C.2       1 GLY         0.2007
     71 O          -8.7360   68.3470   -1.0200 O.2       1 GLY        -0.3947
     72 N          -7.1130   67.3130   -2.1870 N.am      1 GLN        -0.2638
     73 CA         -6.1620   68.4030   -1.9990 C.3       1 GLN         0.1332
     74 C          -6.5490   69.5690   -2.9010 C.2       1 GLN         0.2065
     75 O          -6.7950   69.3700   -4.0910 O.2       1 GLN        -0.3942
     76 CB         -4.7340   67.9610   -2.3210 C.3       1 GLN         0.0045
     77 CG         -3.6800   68.9310   -1.8040 C.3       1 GLN         0.0412
     78 CD         -2.3460   68.7990   -2.5090 C.2       1 GLN         0.1737
     79 OE1        -2.2750   68.8160   -3.7380 O.2       1 GLN        -0.3973
     80 NE2        -1.2750   68.6810   -1.7320 N.am      1 GLN        -0.3009
     81 N          -6.6030   70.7910   -2.3440 N.am      1 PRO        -0.2498
     82 CA         -6.9740   71.9310   -3.1790 C.3       1 PRO         0.1340
     83 C          -5.8780   72.2910   -4.1870 C.2       1 PRO         0.2066
     84 O          -4.7040   72.0100   -3.9360 O.2       1 PRO        -0.3942
     85 CB         -7.1730   73.0620   -2.1640 C.3       1 PRO        -0.0104
     86 CG         -6.3320   72.6800   -0.9960 C.3       1 PRO        -0.0281
     87 CD         -6.3630   71.1830   -0.9420 C.3       1 PRO         0.0369
     88 N          -6.2590   72.8950   -5.3280 N.am      1 PRO        -0.2498
     89 CA         -5.2780   73.3960   -6.2890 C.3       1 PRO         0.1337
     90 C          -4.8410   74.8320   -5.9790 C.2       1 PRO         0.2036
     91 O          -5.4390   75.4920   -5.1240 O.2       1 PRO        -0.3944
     92 CB         -6.0400   73.3370   -7.6130 C.3       1 PRO        -0.0104
     93 CG         -7.4640   73.5630   -7.2310 C.3       1 PRO        -0.0281
     94 CD         -7.6400   73.0640   -5.8210 C.3       1 PRO         0.0369
     95 N          -3.8040   75.2960   -6.6750 N.am      1 LEU        -0.2673
     96 CA         -3.2780   76.6590   -6.5190 C.3       1 LEU         0.1198
     97 C          -2.7900   76.9300   -5.0970 C.2       1 LEU         0.2147
     98 O          -1.7990   76.3540   -4.6500 O.co2     1 LEU        -0.4120
     99 CB         -4.3330   77.6980   -6.9190 C.3       1 LEU        -0.0276
    100 H          -7.6540   69.6524  -14.6615 H         1 PRO         0.2035
    101 H          -8.0992   68.8670  -16.0380 H         1 PRO         0.2035
    102 H          -9.2977   67.5433  -14.7770 H         1 PRO         0.1099
    103 H          -7.6643   65.9288  -15.3481 H         1 PRO         0.0347
    104 H          -7.4190   65.9307  -13.5686 H         1 PRO         0.0347
    105 H          -5.3925   66.4444  -15.2553 H         1 PRO         0.0320
    106 H          -5.5517   67.3162  -13.6929 H         1 PRO         0.0320
    107 H          -5.5393   69.2012  -15.0211 H         1 PRO         0.0814
    108 H          -6.0324   68.2886  -16.4876 H         1 PRO         0.0814
    109 H          -9.6796   66.5822  -12.5735 H         1 VAL         0.1885
    110 H          -9.6235   68.7228  -10.5969 H         1 VAL         0.0802
    111 H         -10.6227   65.8376  -10.3506 H         1 VAL         0.0343
    112 H         -11.8981   66.6826   -8.4018 H         1 VAL         0.0234
    113 H         -11.1067   68.2847   -8.5847 H         1 VAL         0.0234
    114 H         -10.1251   66.8411   -8.1616 H         1 VAL         0.0234
    115 H         -11.7967   67.1370  -12.1024 H         1 VAL         0.0234
    116 H         -12.1521   68.4245  -10.9013 H         1 VAL         0.0234
    117 H         -12.8620   66.7869  -10.6992 H         1 VAL         0.0234
    118 H          -8.1299   65.5221  -11.0080 H         1 LEU         0.1883
    119 H          -6.3272   66.1171   -8.7019 H         1 LEU         0.0800
    120 H          -6.2688   63.6452   -8.3169 H         1 LEU         0.0315
    121 H          -7.5514   63.4591   -9.5606 H         1 LEU         0.0315
    122 H          -8.9797   64.9857   -8.0978 H         1 LEU         0.0298
    123 H          -9.6524   63.1411   -6.5998 H         1 LEU         0.0232
    124 H          -8.1388   62.2644   -7.0085 H         1 LEU         0.0232
    125 H          -9.3681   62.5756   -8.2808 H         1 LEU         0.0232
    126 H          -7.1356   65.8746   -6.7078 H         1 LEU         0.0232
    127 H          -6.8751   64.2358   -6.0201 H         1 LEU         0.0232
    128 H          -8.4196   65.1017   -5.7176 H         1 LEU         0.0232
    129 H          -4.3699   66.5143   -9.5022 H         1 PHE         0.1885
    130 H          -3.3633   65.1711  -11.9090 H         1 PHE         0.0823
    131 H          -1.2423   66.3746  -11.3592 H         1 PHE         0.0474
    132 H          -2.0282   67.0115   -9.8748 H         1 PHE         0.0474
    133 H          -3.7011   68.7473  -10.0068 H         1 PHE         0.0557
    134 H          -1.9079   67.1835  -13.5560 H         1 PHE         0.0557
    135 H          -4.5958   70.6484  -11.2932 H         1 PHE         0.0599
    136 H          -2.7974   69.0849  -14.8459 H         1 PHE         0.0599
    137 H          -4.1441   70.8219  -13.7155 H         1 PHE         0.0559
    138 H          -1.7354   61.6683   -9.9003 H         1 PRO         0.0802
    139 H          -0.4663   60.5928  -11.5206 H         1 PRO         0.0313
    140 H           0.8261   61.8375  -11.4365 H         1 PRO         0.0313
    141 H          -1.6574   61.7466  -13.1269 H         1 PRO         0.0287
    142 H          -0.0179   62.3672  -13.5188 H         1 PRO         0.0287
    143 H          -0.3875   64.4025  -12.4270 H         1 PRO         0.0524
    144 H          -2.0668   64.0386  -12.9508 H         1 PRO         0.0524
    145 H          -0.7412   61.3407   -8.0055 H         1 GLY         0.1881
    146 H           1.6936   62.9203   -7.3433 H         1 GLY         0.0763
    147 H           1.1976   61.3750   -6.5734 H         1 GLY         0.0763
    148 H          -1.0963   63.9905   -7.1219 H         1 GLN         0.1883
    149 H          -0.7406   65.1712   -4.4780 H         1 GLN         0.0797
    150 H          -2.7233   66.5414   -5.1000 H         1 GLN         0.0277
    151 H          -2.9551   65.5306   -6.5666 H         1 GLN         0.0277
    152 H          -1.4818   66.5443   -6.3981 H         1 GLN         0.0277
    153 H          -3.4028   62.3899   -2.2550 H         1 PRO         0.0802
    154 H          -3.4643   63.2336   -0.0646 H         1 PRO         0.0313
    155 H          -4.0769   64.8357   -0.5981 H         1 PRO         0.0313
    156 H          -1.2575   63.7652   -0.5571 H         1 PRO         0.0287
    157 H          -1.8752   65.3902   -0.1047 H         1 PRO         0.0287
    158 H          -2.0071   66.1000   -2.3219 H         1 PRO         0.0524
    159 H          -0.6646   64.9187   -2.4912 H         1 PRO         0.0524
    160 H          -5.6118   61.9782   -1.8840 H         1 PHE         0.1885
    161 H          -7.4821   63.1523   -3.6849 H         1 PHE         0.0823
    162 H          -9.2027   61.9884   -2.1767 H         1 PHE         0.0474
    163 H          -7.8054   61.4297   -1.1957 H         1 PHE         0.0474
    164 H          -9.5162   61.1637   -4.4623 H         1 PHE         0.0557
    165 H          -6.3496   59.6964   -1.9981 H         1 PHE         0.0557
    166 H          -9.2206   59.2476   -5.9845 H         1 PHE         0.0599
    167 H          -6.0482   57.7835   -3.5179 H         1 PHE         0.0599
    168 H          -7.4897   57.5499   -5.5107 H         1 PHE         0.0559
    169 H          -8.8432   64.8352   -3.4985 H         1 GLY         0.1881
    170 H          -9.6941   65.8994   -0.9500 H         1 GLY         0.0763
    171 H         -10.0813   66.5487   -2.5795 H         1 GLY         0.0763
    172 H          -6.8401   66.5051   -2.7094 H         1 GLN         0.1883
    173 H          -6.2019   68.7301   -0.9495 H         1 GLN         0.0801
    174 H          -4.6300   67.8798   -3.4130 H         1 GLN         0.0337
    175 H          -4.5598   66.9767   -1.8619 H         1 GLN         0.0337
    176 H          -3.5279   68.7418   -0.7311 H         1 GLN         0.0504
    177 H          -4.0500   69.9570   -1.9466 H         1 GLN         0.0504
    178 H          -0.3674   68.5906   -2.1419 H         1 GLN         0.1814
    179 H          -1.3764   68.6826   -0.7372 H         1 GLN         0.1814
    180 H          -7.9079   71.7240   -3.7221 H         1 PRO         0.0802
    181 H          -8.2306   73.1378   -1.8712 H         1 PRO         0.0313
    182 H          -6.8390   74.0223   -2.5839 H         1 PRO         0.0313
    183 H          -6.7467   73.1052   -0.0701 H         1 PRO         0.0287
    184 H          -5.3007   73.0369   -1.1337 H         1 PRO         0.0287
    185 H          -5.4041   70.7830   -0.5808 H         1 PRO         0.0524
    186 H          -7.1762   70.8302   -0.2907 H         1 PRO         0.0524
    187 H          -4.3910   72.7460   -6.3143 H         1 PRO         0.0802
    188 H          -5.9162   72.3536   -8.0900 H         1 PRO         0.0313
    189 H          -5.6912   74.1235   -8.2984 H         1 PRO         0.0313
    190 H          -8.1276   73.0087   -7.9109 H         1 PRO         0.0287
    191 H          -7.7005   74.6361   -7.2817 H         1 PRO         0.0287
    192 H          -8.1858   73.7990   -5.2113 H         1 PRO         0.0524
    193 H          -8.1794   72.1054   -5.8098 H         1 PRO         0.0524
    194 H          -3.3628   74.6878   -7.3348 H         1 LEU         0.1876
    195 H          -2.4182   76.7655   -7.1968 H         1 LEU         0.0748
    196 O1         -3.4102   77.7537   -4.3728 O.co2     1 LEU        -0.4120
    197 H          -3.9177   78.7089   -6.7943 H         1 LEU         0.0271
    198 H          -5.2204   77.5847   -6.2789 H         1 LEU         0.0271
    199 H          -4.6175   77.5456   -7.9706 H         1 LEU         0.0271
@<TRIPOS>BOND
     1    1    2 1  
     2    1    7 1  
     3    2    3 1  
     4    2    5 1  
     5    3    4 2  
     6    3    8 am 
     7    5    6 1  
     8    6    7 1  
     9    8    9 1  
    10    9   10 1  
    11    9   12 1  
    12   10   11 2  
    13   10   15 am 
    14   12   13 1  
    15   12   14 1  
    16   15   16 1  
    17   16   17 1  
    18   16   19 1  
    19   17   18 2  
    20   17   23 am 
    21   19   20 1  
    22   20   21 1  
    23   20   22 1  
    24   23   24 1  
    25   24   25 1  
    26   24   27 1  
    27   25   26 2  
    28   25   34 am 
    29   27   28 1  
    30   28   29 ar 
    31   28   30 ar 
    32   29   31 ar 
    33   30   32 ar 
    34   31   33 ar 
    35   32   33 ar 
    36   34   35 1  
    37   34   40 1  
    38   35   36 1  
    39   35   38 1  
    40   36   37 2  
    41   36   41 am 
    42   38   39 1  
    43   39   40 1  
    44   41   42 1  
    45   42   43 1  
    46   43   44 2  
    47   43   45 am 
    48   45   46 1  
    49   46   47 1  
    50   46   49 1  
    51   47   48 2  
    52   47   50 am 
    53   50   51 1  
    54   50   56 1  
    55   51   52 1  
    56   51   54 1  
    57   52   53 2  
    58   52   57 am 
    59   54   55 1  
    60   55   56 1  
    61   57   58 1  
    62   58   59 1  
    63   58   61 1  
    64   59   60 2  
    65   59   68 am 
    66   61   62 1  
    67   62   63 ar 
    68   62   64 ar 
    69   63   65 ar 
    70   64   66 ar 
    71   65   67 ar 
    72   66   67 ar 
    73   68   69 1  
    74   69   70 1  
    75   70   71 2  
    76   70   72 am 
    77   72   73 1  
    78   73   74 1  
    79   73   76 1  
    80   74   75 2  
    81   74   81 am 
    82   76   77 1  
    83   77   78 1  
    84   78   79 2  
    85   78   80 am 
    86   81   82 1  
    87   81   87 1  
    88   82   83 1  
    89   82   85 1  
    90   83   84 2  
    91   83   88 am 
    92   85   86 1  
    93   86   87 1  
    94   88   89 1  
    95   88   94 1  
    96   89   90 1  
    97   89   92 1  
    98   90   91 2  
    99   90   95 am 
   100   92   93 1  
   101   93   94 1  
   102   95   96 1  
   103   96   97 1  
   104   96   99 1  
   105   97   98 ar 
   106    1  100 1  
   107    1  101 1  
   108    2  102 1  
   109    5  103 1  
   110    5  104 1  
   111    6  105 1  
   112    6  106 1  
   113    7  107 1  
   114    7  108 1  
   115    8  109 1  
   116    9  110 1  
   117   12  111 1  
   118   13  112 1  
   119   13  113 1  
   120   13  114 1  
   121   14  115 1  
   122   14  116 1  
   123   14  117 1  
   124   15  118 1  
   125   16  119 1  
   126   19  120 1  
   127   19  121 1  
   128   20  122 1  
   129   21  123 1  
   130   21  124 1  
   131   21  125 1  
   132   22  126 1  
   133   22  127 1  
   134   22  128 1  
   135   23  129 1  
   136   24  130 1  
   137   27  131 1  
   138   27  132 1  
   139   29  133 1  
   140   30  134 1  
   141   31  135 1  
   142   32  136 1  
   143   33  137 1  
   144   35  138 1  
   145   38  139 1  
   146   38  140 1  
   147   39  141 1  
   148   39  142 1  
   149   40  143 1  
   150   40  144 1  
   151   41  145 1  
   152   42  146 1  
   153   42  147 1  
   154   45  148 1  
   155   46  149 1  
   156   49  150 1  
   157   49  151 1  
   158   49  152 1  
   159   51  153 1  
   160   54  154 1  
   161   54  155 1  
   162   55  156 1  
   163   55  157 1  
   164   56  158 1  
   165   56  159 1  
   166   57  160 1  
   167   58  161 1  
   168   61  162 1  
   169   61  163 1  
   170   63  164 1  
   171   64  165 1  
   172   65  166 1  
   173   66  167 1  
   174   67  168 1  
   175   68  169 1  
   176   69  170 1  
   177   69  171 1  
   178   72  172 1  
   179   73  173 1  
   180   76  174 1  
   181   76  175 1  
   182   77  176 1  
   183   77  177 1  
   184   80  178 1  
   185   80  179 1  
   186   82  180 1  
   187   85  181 1  
   188   85  182 1  
   189   86  183 1  
   190   86  184 1  
   191   87  185 1  
   192   87  186 1  
   193   89  187 1  
   194   92  188 1  
   195   92  189 1  
   196   93  190 1  
   197   93  191 1  
   198   94  192 1  
   199   94  193 1  
   200   95  194 1  
   201   96  195 1  
   202   97  196 ar 
   203   99  197 1  
   204   99  198 1  
   205   99  199 1  
@<TRIPOS>SUBSTRUCTURE
     1 PRO         1

