4u0b_ligand
  -I-interpret- 

200206  0  0  0  0  0  0  0  0999 V2000
   -7.6220   68.7740  -15.1550 N   0  3  0  0  0
   -8.3050   67.7590  -14.3550 C   0  0  0  0  0
   -8.4670   68.1590  -12.8870 C   0  0  0  0  0
   -7.8910   69.1560  -12.4450 O   0  0  0  0  0
   -7.3820   66.5440  -14.4810 C   0  0  0  0  0
   -6.0230   67.1290  -14.6690 C   0  0  0  0  0
   -6.2130   68.4240  -15.4110 C   0  0  0  0  0
   -9.2460   67.3760  -12.1470 N   0  0  0  0  0
   -9.4890   67.6390  -10.7280 C   0  0  0  0  0
   -8.2960   67.1870   -9.8890 C   0  0  0  0  0
   -7.8770   67.8890   -8.9690 O   0  0  0  0  0
  -10.7630   66.9210  -10.2220 C   0  0  0  0  0
  -10.9890   67.2020   -8.7390 C   0  0  0  0  0
  -11.9780   67.3470  -11.0380 C   0  0  0  0  0
   -7.7620   66.0110  -10.2170 N   0  0  0  0  0
   -6.6630   65.4060   -9.4710 C   0  0  0  0  0
   -5.4860   65.0880  -10.3900 C   0  0  0  0  0
   -5.6000   64.2450  -11.2820 O   0  0  0  0  0
   -7.1420   64.1230   -8.7850 C   0  0  0  0  0
   -8.2140   64.3000   -7.7060 C   0  0  0  0  0
   -8.8900   62.9790   -7.3760 C   0  0  0  0  0
   -7.6200   64.9210   -6.4510 C   0  0  0  0  0
   -4.3630   65.7700  -10.1700 N   0  0  0  0  0
   -3.1220   65.4620  -10.8760 C   0  0  0  0  0
   -2.4140   64.2990  -10.1810 C   0  0  0  0  0
   -2.5710   64.1200   -8.9710 O   0  0  0  0  0
   -2.1990   66.6780  -10.9090 C   0  0  0  0  0
   -2.7450   67.8340  -11.6940 C   0  0  0  0  0
   -3.5020   68.8180  -11.0700 C   0  0  0  0  0
   -2.4980   67.9430  -13.0560 C   0  0  0  0  0
   -4.0050   69.8880  -11.7910 C   0  0  0  0  0
   -2.9970   69.0110  -13.7830 C   0  0  0  0  0
   -3.7520   69.9850  -13.1490 C   0  0  0  0  0
   -1.6210   63.5120  -10.9340 N   0  0  0  0  0
   -0.9800   62.3420  -10.3310 C   0  0  0  0  0
    0.0210   62.7290   -9.2500 C   0  0  0  0  0
    0.8310   63.6300   -9.4630 O   0  0  0  0  0
   -0.2590   61.6730  -11.5100 C   0  0  0  0  0
   -0.7970   62.3150  -12.7440 C   0  0  0  0  0
   -1.2210   63.6900  -12.3400 C   0  0  0  0  0
   -0.0520   62.0590   -8.1010 N   0  0  0  0  0
    0.8390   62.3350   -6.9730 C   0  0  0  0  0
    0.1860   63.1090   -5.8400 C   0  0  0  0  0
    0.5820   62.9610   -4.6830 O   0  0  0  0  0
   -0.8080   63.9350   -6.1660 N   0  0  0  0  0
   -1.4930   64.7650   -5.1700 C   0  0  0  0  0
   -2.5090   63.9500   -4.3660 C   0  0  0  0  0
   -3.2260   63.1310   -4.9390 O   0  0  0  0  0
   -2.2140   65.9270   -5.8570 C   0  0  0  0  0
   -2.5870   64.1780   -3.0380 N   0  0  0  0  0
   -3.5870   63.4740   -2.2260 C   0  0  0  0  0
   -5.0300   63.7440   -2.6610 C   0  0  0  0  0
   -5.3160   64.7690   -3.2840 O   0  0  0  0  0
   -3.3590   64.0310   -0.8150 C   0  0  0  0  0
   -1.9710   64.5600   -0.8200 C   0  0  0  0  0
   -1.7220   65.0430   -2.2150 C   0  0  0  0  0
   -5.9240   62.8160   -2.3320 N   0  0  0  0  0
   -7.3480   62.9850   -2.6060 C   0  0  0  0  0
   -7.8830   64.1970   -1.8470 C   0  0  0  0  0
   -7.5780   64.3840   -0.6700 O   0  0  0  0  0
   -8.1330   61.7330   -2.2010 C   0  0  0  0  0
   -7.9470   60.5670   -3.1300 C   0  0  0  0  0
   -8.7520   60.4240   -4.2530 C   0  0  0  0  0
   -6.9800   59.6030   -2.8750 C   0  0  0  0  0
   -8.5890   59.3460   -5.1090 C   0  0  0  0  0
   -6.8110   58.5250   -3.7260 C   0  0  0  0  0
   -7.6180   58.3950   -4.8440 C   0  0  0  0  0
   -8.6650   65.0250   -2.5330 N   0  0  0  0  0
   -9.2720   66.2040   -1.9190 C   0  0  0  0  0
   -8.3410   67.3790   -1.6720 C   0  0  0  0  0
   -8.7360   68.3470   -1.0200 O   0  0  0  0  0
   -7.1130   67.3130   -2.1870 N   0  0  0  0  0
   -6.1620   68.4030   -1.9990 C   0  0  0  0  0
   -6.5490   69.5690   -2.9010 C   0  0  0  0  0
   -6.7950   69.3700   -4.0910 O   0  0  0  0  0
   -4.7340   67.9610   -2.3210 C   0  0  0  0  0
   -3.6800   68.9310   -1.8040 C   0  0  0  0  0
   -2.3460   68.7990   -2.5090 C   0  0  0  0  0
   -2.2750   68.8160   -3.7380 O   0  0  0  0  0
   -1.2750   68.6810   -1.7320 N   0  0  0  0  0
   -6.6030   70.7910   -2.3440 N   0  0  0  0  0
   -6.9740   71.9310   -3.1790 C   0  0  0  0  0
   -5.8780   72.2910   -4.1870 C   0  0  0  0  0
   -4.7040   72.0100   -3.9360 O   0  0  0  0  0
   -7.1730   73.0620   -2.1640 C   0  0  0  0  0
   -6.3320   72.6800   -0.9960 C   0  0  0  0  0
   -6.3630   71.1830   -0.9420 C   0  0  0  0  0
   -6.2590   72.8950   -5.3280 N   0  0  0  0  0
   -5.2780   73.3960   -6.2890 C   0  0  0  0  0
   -4.8410   74.8320   -5.9790 C   0  0  0  0  0
   -5.4390   75.4920   -5.1240 O   0  0  0  0  0
   -6.0400   73.3370   -7.6130 C   0  0  0  0  0
   -7.4640   73.5630   -7.2310 C   0  0  0  0  0
   -7.6400   73.0640   -5.8210 C   0  0  0  0  0
   -3.8040   75.2960   -6.6750 N   0  0  0  0  0
   -3.2780   76.6590   -6.5190 C   0  0  0  0  0
   -2.7900   76.9300   -5.0970 C   0  0  0  0  0
   -1.7990   76.3540   -4.6500 O   0  0  0  0  0
   -4.3330   77.6980   -6.9190 C   0  0  0  0  0
   -3.4102   77.7537   -4.3728 O   0  0  0  0  0
   -7.6423   69.6530  -14.6379 H   0  0  0  0  0
   -8.1000   68.8455  -16.0532 H   0  0  0  0  0
   -9.3235   67.5877  -14.7034 H   0  0  0  0  0
   -7.6677   65.8968  -15.3103 H   0  0  0  0  0
   -7.4324   65.8986  -13.6040 H   0  0  0  0  0
   -5.3802   66.4497  -15.2288 H   0  0  0  0  0
   -5.5350   67.2977  -13.7091 H   0  0  0  0  0
   -5.5254   69.1996  -15.0739 H   0  0  0  0  0
   -5.9965   68.3278  -16.4749 H   0  0  0  0  0
   -9.6883   66.5664  -12.5820 H   0  0  0  0  0
   -9.6310   68.7144  -10.6214 H   0  0  0  0  0
  -10.6220   65.8476  -10.3486 H   0  0  0  0  0
  -10.1323   66.8440   -8.1680 H   0  0  0  0  0
  -11.1055   68.2751   -8.5875 H   0  0  0  0  0
  -11.8901   66.6869   -8.4061 H   0  0  0  0  0
  -12.1177   68.4239  -10.9441 H   0  0  0  0  0
  -11.8191   67.0899  -12.0852 H   0  0  0  0  0
  -12.8630   66.8308  -10.6661 H   0  0  0  0  0
   -8.1373   65.5124  -11.0238 H   0  0  0  0  0
   -6.3295   66.1204   -8.7184 H   0  0  0  0  0
   -6.2710   63.6993   -8.2851 H   0  0  0  0  0
   -7.5908   63.5077   -9.5648 H   0  0  0  0  0
   -8.9718   64.9761   -8.1020 H   0  0  0  0  0
   -9.3632   62.5804   -8.2733 H   0  0  0  0  0
   -8.1446   62.2718   -7.0120 H   0  0  0  0  0
   -9.6451   63.1409   -6.6068 H   0  0  0  0  0
   -6.8342   64.2727   -6.0634 H   0  0  0  0  0
   -7.2005   65.8973   -6.6938 H   0  0  0  0  0
   -8.4011   65.0365   -5.6996 H   0  0  0  0  0
   -4.3700   66.5292   -9.4889 H   0  0  0  0  0
   -3.3660   65.1861  -11.9019 H   0  0  0  0  0
   -1.2715   66.3682  -11.3906 H   0  0  0  0  0
   -2.0709   67.0159   -9.8807 H   0  0  0  0  0
   -3.7022   68.7469  -10.0009 H   0  0  0  0  0
   -1.9046   67.1793  -13.5588 H   0  0  0  0  0
   -4.5991   70.6526  -11.2904 H   0  0  0  0  0
   -2.7963   69.0853  -14.8518 H   0  0  0  0  0
   -4.1462   70.8265  -13.7187 H   0  0  0  0  0
   -1.7036   61.6934   -9.8372 H   0  0  0  0  0
   -0.4335   60.5971  -11.5184 H   0  0  0  0  0
    0.8205   61.8048  -11.4368 H   0  0  0  0  0
   -1.6332   61.7475  -13.1524 H   0  0  0  0  0
   -0.0448   62.3489  -13.5321 H   0  0  0  0  0
   -0.4304   64.4300  -12.4644 H   0  0  0  0  0
   -2.0247   64.0845  -12.9617 H   0  0  0  0  0
   -0.7550   61.3264   -8.0036 H   0  0  0  0  0
    1.6575   62.9473   -7.3515 H   0  0  0  0  0
    1.1524   61.3731   -6.5672 H   0  0  0  0  0
   -1.1020   63.9916   -7.1411 H   0  0  0  0  0
   -0.7360   65.1495   -4.4865 H   0  0  0  0  0
   -1.4875   66.5378   -6.3928 H   0  0  0  0  0
   -2.9480   65.5329   -6.5598 H   0  0  0  0  0
   -2.7183   66.5350   -5.1059 H   0  0  0  0  0
   -3.4677   62.3941   -2.3135 H   0  0  0  0  0
   -3.4916   63.2616   -0.0544 H   0  0  0  0  0
   -4.0829   64.8080   -0.5693 H   0  0  0  0  0
   -1.2533   63.7915   -0.5330 H   0  0  0  0  0
   -1.8515   65.3651   -0.0950 H   0  0  0  0  0
   -1.9513   66.1015   -2.3379 H   0  0  0  0  0
   -0.6719   64.9757   -2.4993 H   0  0  0  0  0
   -5.6056   61.9615   -1.8750 H   0  0  0  0  0
   -7.4752   63.1419   -3.6771 H   0  0  0  0  0
   -9.1909   61.9950   -2.2193 H   0  0  0  0  0
   -7.7685   61.4263   -1.2206 H   0  0  0  0  0
   -9.5205   61.1678   -4.4634 H   0  0  0  0  0
   -6.3461   59.6969   -1.9932 H   0  0  0  0  0
   -9.2241   59.2471   -5.9893 H   0  0  0  0  0
   -6.0440   57.7794   -3.5168 H   0  0  0  0  0
   -7.4890   57.5453   -5.5144 H   0  0  0  0  0
   -8.8468   64.8314   -3.5178 H   0  0  0  0  0
   -9.6332   65.8882   -0.9403 H   0  0  0  0  0
  -10.0315   66.5563   -2.6170 H   0  0  0  0  0
   -6.8347   66.4890   -2.7198 H   0  0  0  0  0
   -6.1935   68.7077   -0.9529 H   0  0  0  0  0
   -4.6378   67.9133   -3.4057 H   0  0  0  0  0
   -4.5667   66.9994   -1.8359 H   0  0  0  0  0
   -3.5181   68.7096   -0.7491 H   0  0  0  0  0
   -4.0475   69.9417   -1.9815 H   0  0  0  0  0
   -0.3481   68.6000   -2.1500 H   0  0  0  0  0
   -1.3795   68.6714   -0.7174 H   0  0  0  0  0
   -7.8572   71.7283   -3.7848 H   0  0  0  0  0
   -8.2209   73.1785   -1.8877 H   0  0  0  0  0
   -6.8822   74.0294   -2.5734 H   0  0  0  0  0
   -6.7129   73.1178   -0.0733 H   0  0  0  0  0
   -5.3129   73.0517   -1.1030 H   0  0  0  0  0
   -5.4408   70.7608   -0.5428 H   0  0  0  0  0
   -7.1305   70.8058   -0.2661 H   0  0  0  0  0
   -4.3550   72.8162   -6.2823 H   0  0  0  0  0
   -5.8992   72.3849   -8.1247 H   0  0  0  0  0
   -5.6835   74.0819   -8.3245 H   0  0  0  0  0
   -8.1296   73.0297   -7.9096 H   0  0  0  0  0
   -7.7116   74.6227   -7.2937 H   0  0  0  0  0
   -8.2167   73.7555   -5.2066 H   0  0  0  0  0
   -8.2105   72.1362   -5.7789 H   0  0  0  0  0
   -3.3539   74.6756   -7.3480 H   0  0  0  0  0
   -2.4197   76.7451   -7.1853 H   0  0  0  0  0
   -4.6140   77.5459   -7.9611 H   0  0  0  0  0
   -5.2117   77.5846   -6.2841 H   0  0  0  0  0
   -3.9203   78.6992   -6.7950 H   0  0  0  0  0
   -4.1528   78.1136   -4.8633 H   0  0  0  0  0
  1  2  1  0  0  0
  1  7  1  0  0  0
  2  3  1  0  0  0
  2  5  1  0  0  0
  3  4  2  0  0  0
  3  8  1  0  0  0
  5  6  1  0  0  0
  6  7  1  0  0  0
  8  9  1  0  0  0
  9 10  1  0  0  0
  9 12  1  0  0  0
 10 11  2  0  0  0
 10 15  1  0  0  0
 12 13  1  0  0  0
 12 14  1  0  0  0
 15 16  1  0  0  0
 16 17  1  0  0  0
 16 19  1  0  0  0
 17 18  2  0  0  0
 17 23  1  0  0  0
 19 20  1  0  0  0
 20 21  1  0  0  0
 20 22  1  0  0  0
 23 24  1  0  0  0
 24 25  1  0  0  0
 24 27  1  0  0  0
 25 26  2  0  0  0
 25 34  1  0  0  0
 27 28  1  0  0  0
 28 29  4  0  0  0
 28 30  4  0  0  0
 29 31  4  0  0  0
 30 32  4  0  0  0
 31 33  4  0  0  0
 32 33  4  0  0  0
 34 35  1  0  0  0
 34 40  1  0  0  0
 35 36  1  0  0  0
 35 38  1  0  0  0
 36 37  2  0  0  0
 36 41  1  0  0  0
 38 39  1  0  0  0
 39 40  1  0  0  0
 41 42  1  0  0  0
 42 43  1  0  0  0
 43 44  2  0  0  0
 43 45  1  0  0  0
 45 46  1  0  0  0
 46 47  1  0  0  0
 46 49  1  0  0  0
 47 48  2  0  0  0
 47 50  1  0  0  0
 50 51  1  0  0  0
 50 56  1  0  0  0
 51 52  1  0  0  0
 51 54  1  0  0  0
 52 53  2  0  0  0
 52 57  1  0  0  0
 54 55  1  0  0  0
 55 56  1  0  0  0
 57 58  1  0  0  0
 58 59  1  0  0  0
 58 61  1  0  0  0
 59 60  2  0  0  0
 59 68  1  0  0  0
 61 62  1  0  0  0
 62 63  4  0  0  0
 62 64  4  0  0  0
 63 65  4  0  0  0
 64 66  4  0  0  0
 65 67  4  0  0  0
 66 67  4  0  0  0
 68 69  1  0  0  0
 69 70  1  0  0  0
 70 71  2  0  0  0
 70 72  1  0  0  0
 72 73  1  0  0  0
 73 74  1  0  0  0
 73 76  1  0  0  0
 74 75  2  0  0  0
 74 81  1  0  0  0
 76 77  1  0  0  0
 77 78  1  0  0  0
 78 79  2  0  0  0
 78 80  1  0  0  0
 81 82  1  0  0  0
 81 87  1  0  0  0
 82 83  1  0  0  0
 82 85  1  0  0  0
 83 84  2  0  0  0
 83 88  1  0  0  0
 85 86  1  0  0  0
 86 87  1  0  0  0
 88 89  1  0  0  0
 88 94  1  0  0  0
 89 90  1  0  0  0
 89 92  1  0  0  0
 90 91  2  0  0  0
 90 95  1  0  0  0
 92 93  1  0  0  0
 93 94  1  0  0  0
 95 96  1  0  0  0
 96 97  1  0  0  0
 96 99  1  0  0  0
 97 98  2  0  0  0
 97100  1  0  0  0
  1101  1  0  0  0
  1102  1  0  0  0
  2103  1  0  0  0
  5104  1  0  0  0
  5105  1  0  0  0
  6106  1  0  0  0
  6107  1  0  0  0
  7108  1  0  0  0
  7109  1  0  0  0
  8110  1  0  0  0
  9111  1  0  0  0
 12112  1  0  0  0
 13113  1  0  0  0
 13114  1  0  0  0
 13115  1  0  0  0
 14116  1  0  0  0
 14117  1  0  0  0
 14118  1  0  0  0
 15119  1  0  0  0
 16120  1  0  0  0
 19121  1  0  0  0
 19122  1  0  0  0
 20123  1  0  0  0
 21124  1  0  0  0
 21125  1  0  0  0
 21126  1  0  0  0
 22127  1  0  0  0
 22128  1  0  0  0
 22129  1  0  0  0
 23130  1  0  0  0
 24131  1  0  0  0
 27132  1  0  0  0
 27133  1  0  0  0
 29134  1  0  0  0
 30135  1  0  0  0
 31136  1  0  0  0
 32137  1  0  0  0
 33138  1  0  0  0
 35139  1  0  0  0
 38140  1  0  0  0
 38141  1  0  0  0
 39142  1  0  0  0
 39143  1  0  0  0
 40144  1  0  0  0
 40145  1  0  0  0
 41146  1  0  0  0
 42147  1  0  0  0
 42148  1  0  0  0
 45149  1  0  0  0
 46150  1  0  0  0
 49151  1  0  0  0
 49152  1  0  0  0
 49153  1  0  0  0
 51154  1  0  0  0
 54155  1  0  0  0
 54156  1  0  0  0
 55157  1  0  0  0
 55158  1  0  0  0
 56159  1  0  0  0
 56160  1  0  0  0
 57161  1  0  0  0
 58162  1  0  0  0
 61163  1  0  0  0
 61164  1  0  0  0
 63165  1  0  0  0
 64166  1  0  0  0
 65167  1  0  0  0
 66168  1  0  0  0
 67169  1  0  0  0
 68170  1  0  0  0
 69171  1  0  0  0
 69172  1  0  0  0
 72173  1  0  0  0
 73174  1  0  0  0
 76175  1  0  0  0
 76176  1  0  0  0
 77177  1  0  0  0
 77178  1  0  0  0
 80179  1  0  0  0
 80180  1  0  0  0
 82181  1  0  0  0
 85182  1  0  0  0
 85183  1  0  0  0
 86184  1  0  0  0
 86185  1  0  0  0
 87186  1  0  0  0
 87187  1  0  0  0
 89188  1  0  0  0
 92189  1  0  0  0
 92190  1  0  0  0
 93191  1  0  0  0
 93192  1  0  0  0
 94193  1  0  0  0
 94194  1  0  0  0
 95195  1  0  0  0
 96196  1  0  0  0
 99197  1  0  0  0
 99198  1  0  0  0
 99199  1  0  0  0
100200  1  0  0  0
M  END
$$$$
