3vjk_ligand
  -I-interpret- 

 62 66  0  0  0  0  0  0  0  0999 V2000
   47.4140   63.4950   34.8590 C   0  0  0  0  0
   46.1380   63.7000   34.2900 C   0  0  0  0  0
   46.1830   64.4610   33.1790 N   0  0  0  0  0
   47.5520   64.7540   33.0230 N   0  0  0  0  0
   48.2860   64.2030   34.0170 C   0  0  0  0  0
   47.8890   65.5280   31.9840 C   0  0  0  0  0
   48.8040   66.5880   32.0340 C   0  0  0  0  0
   49.0980   67.3800   30.9250 C   0  0  0  0  0
   48.4430   67.1560   29.7190 C   0  0  0  0  0
   47.5030   66.1340   29.6340 C   0  0  0  0  0
   47.2430   65.3510   30.7540 C   0  0  0  0  0
   44.9470   63.0710   34.9650 C   0  0  0  0  0
   49.6700   64.2700   34.2150 N   0  0  0  0  0
   50.5650   63.9250   33.0970 C   0  0  0  0  0
   51.8790   64.6990   33.2740 C   0  0  0  0  0
   52.4160   64.4870   34.6320 N   0  3  0  0  0
   51.5260   64.8350   35.7530 C   0  0  0  0  0
   50.2000   64.0680   35.5820 C   0  0  0  0  0
   53.7330   65.1320   34.7730 C   0  0  0  0  0
   54.6760   64.8000   33.6180 C   0  0  0  0  0
   55.9850   64.9930   34.2190 N   0  3  0  0  0
   55.9440   65.1260   35.6740 C   0  0  0  0  0
   54.5320   64.6540   35.9950 C   0  0  0  0  0
   57.0390   64.3510   36.3760 C   0  0  0  0  0
   57.5390   64.8160   37.5160 N   0  0  0  0  0
   57.0340   66.0430   38.1590 C   0  0  0  0  0
   57.8110   66.3710   39.4410 C   0  0  0  0  0
   58.6030   64.8690   39.8520 S   0  0  0  0  0
   58.6270   64.1530   38.2310 C   0  0  0  0  0
   57.4740   63.3280   35.8710 O   0  0  0  0  0
   47.6648   62.9183   35.7493 H   0  0  0  0  0
   49.3059   66.8019   32.9776 H   0  0  0  0  0
   49.8406   68.1741   31.0032 H   0  0  0  0  0
   48.6638   67.7748   28.8493 H   0  0  0  0  0
   46.9752   65.9485   28.6985 H   0  0  0  0  0
   46.4985   64.5593   30.6700 H   0  0  0  0  0
   45.0741   61.9887   34.9888 H   0  0  0  0  0
   44.8655   63.4510   35.9834 H   0  0  0  0  0
   44.0428   63.3198   34.4095 H   0  0  0  0  0
   50.0986   64.1925   32.1488 H   0  0  0  0  0
   50.7607   62.8527   33.0923 H   0  0  0  0  0
   51.6895   65.7623   33.1271 H   0  0  0  0  0
   52.6048   64.3418   32.5434 H   0  0  0  0  0
   52.5078   63.4742   34.7107 H   0  0  0  0  0
   51.3367   65.9084   35.7580 H   0  0  0  0  0
   51.9945   64.5615   36.6984 H   0  0  0  0  0
   50.3776   63.0048   35.7439 H   0  0  0  0  0
   49.4750   64.4400   36.3059 H   0  0  0  0  0
   53.4671   66.1873   34.8346 H   0  0  0  0  0
   54.5124   65.4234   32.7390 H   0  0  0  0  0
   54.5307   63.7949   33.2221 H   0  0  0  0  0
   56.3707   65.8590   33.8425 H   0  0  0  0  0
   56.5466   64.1697   34.0019 H   0  0  0  0  0
   56.1389   66.1377   36.0298 H   0  0  0  0  0
   54.4679   63.5772   36.1514 H   0  0  0  0  0
   54.1525   65.0539   36.9353 H   0  0  0  0  0
   55.9874   65.8883   38.4211 H   0  0  0  0  0
   57.1554   66.8718   37.4616 H   0  0  0  0  0
   57.1594   66.7262   40.2393 H   0  0  0  0  0
   58.5204   67.1859   39.2968 H   0  0  0  0  0
   59.5871   64.2993   37.7362 H   0  0  0  0  0
   58.4933   63.0717   38.2623 H   0  0  0  0  0
  1  2  4  0  0  0
  1  5  4  0  0  0
  2  3  4  0  0  0
  2 12  1  0  0  0
  3  4  4  0  0  0
  4  5  4  0  0  0
  4  6  1  0  0  0
  5 13  1  0  0  0
  6  7  4  0  0  0
  6 11  4  0  0  0
  7  8  4  0  0  0
  8  9  4  0  0  0
  9 10  4  0  0  0
 10 11  4  0  0  0
 13 14  1  0  0  0
 13 18  1  0  0  0
 14 15  1  0  0  0
 15 16  1  0  0  0
 16 17  1  0  0  0
 16 19  1  0  0  0
 17 18  1  0  0  0
 19 20  1  0  0  0
 19 23  1  0  0  0
 20 21  1  0  0  0
 21 22  1  0  0  0
 22 23  1  0  0  0
 22 24  1  0  0  0
 24 25  1  0  0  0
 24 30  2  0  0  0
 25 26  1  0  0  0
 25 29  1  0  0  0
 26 27  1  0  0  0
 27 28  1  0  0  0
 28 29  1  0  0  0
  1 31  1  0  0  0
  7 32  1  0  0  0
  8 33  1  0  0  0
  9 34  1  0  0  0
 10 35  1  0  0  0
 11 36  1  0  0  0
 12 37  1  0  0  0
 12 38  1  0  0  0
 12 39  1  0  0  0
 14 40  1  0  0  0
 14 41  1  0  0  0
 15 42  1  0  0  0
 15 43  1  0  0  0
 16 44  1  0  0  0
 17 45  1  0  0  0
 17 46  1  0  0  0
 18 47  1  0  0  0
 18 48  1  0  0  0
 19 49  1  0  0  0
 20 50  1  0  0  0
 20 51  1  0  0  0
 21 52  1  0  0  0
 21 53  1  0  0  0
 22 54  1  0  0  0
 23 55  1  0  0  0
 23 56  1  0  0  0
 26 57  1  0  0  0
 26 58  1  0  0  0
 27 59  1  0  0  0
 27 60  1  0  0  0
 29 61  1  0  0  0
 29 62  1  0  0  0
M  END
$$$$
