1nnu_ligand
  -I-interpret- 

 31 33  0  0  0  0  0  0  0  0999 V2000
   52.7650   89.7600   35.3370 C   0  0  0  0  0
   51.7250   90.6620   35.6210 C   0  0  0  0  0
   51.6960   91.9630   35.0530 C   0  0  0  0  0
   52.7410   92.3780   34.1650 C   0  0  0  0  0
   53.7990   91.4870   33.8570 C   0  0  0  0  0
   53.8070   90.1330   34.4710 C   0  0  0  0  0
   54.8590   89.2400   34.1750 C   0  0  0  0  0
   55.8910   89.6310   33.3040 C   0  0  0  0  0
   56.9020   88.7520   33.0300 O   0  0  0  0  0
   55.8900   90.9240   32.7090 C   0  0  0  0  0
   54.8540   91.8510   32.9810 C   0  0  0  0  0
   50.6230   92.7860   35.4250 O   0  0  0  0  0
   50.4140   94.1230   35.0190 C   0  0  0  0  0
   51.0880   95.1700   35.7230 C   0  0  0  0  0
   50.8850   96.5320   35.3760 C   0  0  0  0  0
   50.0040   96.8750   34.3260 C   0  0  0  0  0
   49.7480   98.5680   33.9330 Cl  0  0  0  0  0
   49.3280   95.8430   33.6060 C   0  0  0  0  0
   49.5350   94.4640   33.9500 C   0  0  0  0  0
   48.8760   93.4850   33.2600 O   0  0  0  0  0
   52.7632   88.7685   35.7897 H   0  0  0  0  0
   50.9227   90.3558   36.2924 H   0  0  0  0  0
   52.7223   93.3762   33.7276 H   0  0  0  0  0
   54.8714   88.2460   34.6222 H   0  0  0  0  0
   57.5249   89.1611   32.4248 H   0  0  0  0  0
   56.6984   91.2051   32.0340 H   0  0  0  0  0
   54.8673   92.8385   32.5198 H   0  0  0  0  0
   51.7673   94.9188   36.5376 H   0  0  0  0  0
   51.4107   97.3156   35.9216 H   0  0  0  0  0
   48.6519   96.1033   32.7916 H   0  0  0  0  0
   48.3306   93.8864   32.5796 H   0  0  0  0  0
  1  2  4  0  0  0
  1  6  4  0  0  0
  2  3  4  0  0  0
  3  4  4  0  0  0
  3 12  1  0  0  0
  4  5  4  0  0  0
  5  6  4  0  0  0
  5 11  4  0  0  0
  6  7  4  0  0  0
  7  8  4  0  0  0
  8  9  1  0  0  0
  8 10  4  0  0  0
 10 11  4  0  0  0
 12 13  1  0  0  0
 13 14  4  0  0  0
 13 19  4  0  0  0
 14 15  4  0  0  0
 15 16  4  0  0  0
 16 17  1  0  0  0
 16 18  4  0  0  0
 18 19  4  0  0  0
 19 20  1  0  0  0
  1 21  1  0  0  0
  2 22  1  0  0  0
  4 23  1  0  0  0
  7 24  1  0  0  0
  9 25  1  0  0  0
 10 26  1  0  0  0
 11 27  1  0  0  0
 14 28  1  0  0  0
 15 29  1  0  0  0
 18 30  1  0  0  0
 20 31  1  0  0  0
M  END
$$$$
