4mlx_ligand
  -I-interpret- 

 17 17  0  0  0  0  0  0  0  0999 V2000
   14.2950    0.4030   16.8530 S   0  0  0  0  0
   16.2840   -0.5490   14.8420 O   0  0  0  0  0
   16.6510    2.9010   13.9160 O   0  0  0  0  0
   16.7930    1.5440   13.9700 C   0  0  0  0  0
   16.1030    0.7470   14.8400 C   0  0  0  0  0
   15.1880    1.3460   15.7400 C   0  0  0  0  0
   15.0410    2.7260   15.6880 C   0  0  0  0  0
   15.7630    3.4550   14.7950 C   0  0  0  0  0
   15.5760    4.9240   14.7720 C   0  0  0  0  0
   14.6150   -0.8791   16.7024 H   0  0  0  0  0
   17.8268    1.4194   14.2923 H   0  0  0  0  0
   16.4228    1.2209   12.9970 H   0  0  0  0  0
   14.3464    3.2254   16.3634 H   0  0  0  0  0
   15.9198    2.3773   14.8403 H   0  0  0  0  0
   14.5349    5.1529   14.5444 H   0  0  0  0  0
   15.8356    5.3373   15.7466 H   0  0  0  0  0
   16.2204    5.3591   14.0081 H   0  0  0  0  0
  6  1  1  0  0  0
  5  2  2  0  0  0
  4  3  1  0  0  0
  3  8  1  0  0  0
  5  4  1  0  0  0
  5  6  1  0  0  0
  6  7  2  0  0  0
  7  8  1  0  0  0
  8  9  1  0  0  0
  1 10  1  0  0  0
  4 11  1  0  0  0
  4 12  1  0  0  0
  7 13  1  0  0  0
  8 14  1  0  0  0
  9 15  1  0  0  0
  9 16  1  0  0  0
  9 17  1  0  0  0
M  END
$$$$
