6bhi_ligand
  -I-interpret- 

137137  0  0  0  0  0  0  0  0999 V2000
   49.5250   -9.0230   65.1960 N   0  3  0  0  0
   50.5630   -7.9370   65.0120 C   0  0  0  0  0
   51.9760   -8.4730   64.8840 C   0  0  0  0  0
   52.4890   -9.1120   66.1740 C   0  0  0  0  0
   53.8500   -9.7430   65.8480 C   0  0  0  0  0
   54.3040  -10.5560   67.0450 C   0  0  0  0  0
   55.5420  -11.3070   66.8050 N   0  3  0  0  0
   50.2360   -7.1690   63.7490 C   0  0  0  0  0
   49.8320   -7.7420   62.7080 O   0  0  0  0  0
   55.6920  -12.2280   67.9490 C   0  0  0  0  0
   56.7260  -10.4150   66.7210 C   0  0  0  0  0
   55.4620  -12.1680   65.5890 C   0  0  0  0  0
   50.4570   -5.8780   63.8130 N   0  0  0  0  0
   49.9300   -4.9560   62.7890 C   0  0  0  0  0
   50.7840   -4.6840   61.5390 C   0  0  0  0  0
   50.3050   -4.0560   60.5910 O   0  0  0  0  0
   49.6980   -3.6140   63.4550 C   0  0  0  0  0
   52.0140   -5.1280   61.4870 N   0  0  0  0  0
   52.9320   -4.6390   60.4250 C   0  0  0  0  0
   52.5420   -4.9040   58.9690 C   0  0  0  0  0
   52.0830   -6.0080   58.5960 O   0  0  0  0  0
   54.3680   -5.1830   60.6350 C   0  0  0  0  0
   55.2700   -4.5600   59.7210 O   0  0  0  0  0
   54.4490   -6.6700   60.4460 C   0  0  0  0  0
   52.7290   -3.8750   58.1210 N   0  0  0  0  0
   52.6740   -4.0340   56.6860 C   0  0  0  0  0
   53.9450   -4.3570   55.9450 C   0  0  0  0  0
   53.9830   -4.4130   54.7240 O   0  0  0  0  0
   55.0410   -4.5510   56.7120 N   0  0  0  0  0
   56.2810   -4.8840   56.0960 C   0  0  0  0  0
   56.9420   -3.7730   55.3400 C   0  0  0  0  0
   56.5820   -2.6040   55.4820 O   0  0  0  0  0
   59.1060    0.1000   57.1330 O   0  0  0  0  0
   58.8360   -0.9610   57.6660 C   0  0  0  0  0
   57.4910   -1.1810   58.3240 C   0  0  0  0  0
   59.6400   -2.0360   57.6870 N   0  0  0  0  0
   60.9930   -1.9650   57.2150 C   0  0  0  0  0
   61.1560   -2.1200   55.7800 C   0  0  0  0  0
   60.8090   -3.5960   55.4340 C   0  0  0  0  0
   60.2890   -3.6570   53.9720 C   0  0  0  0  0
   58.8340   -3.1610   53.9130 C   0  0  0  0  0
   57.9490   -4.1260   54.5450 N   0  0  0  0  0
   58.5190   -2.7590   52.5200 C   0  0  0  0  0
   58.9990   -1.7470   52.0450 O   0  0  0  0  0
   57.7180   -3.5680   51.8370 N   0  0  0  0  0
   57.3640   -3.3340   50.4360 C   0  0  0  0  0
   55.8890   -3.6890   50.2480 C   0  0  0  0  0
   55.3720   -4.4280   51.0200 O   0  0  0  0  0
   58.2160   -4.1980   49.5130 C   0  0  0  0  0
   55.2410   -3.1540   49.1710 N   0  0  0  0  0
   53.8460   -3.4550   48.9910 C   0  0  0  0  0
   53.6270   -4.9200   48.8240 C   0  0  0  0  0
   54.5210   -5.6580   48.2920 O   0  0  0  0  0
   53.4540   -2.6960   47.7030 C   0  0  0  0  0
   54.4410   -1.6010   47.6300 C   0  0  0  0  0
   55.6940   -2.1280   48.2620 C   0  0  0  0  0
   52.4700   -5.3500   49.3140 N   0  0  0  0  0
   52.0340   -6.7210   49.1000 C   0  0  0  0  0
   51.9450   -7.0560   47.6140 C   0  0  0  0  0
   51.5050   -6.2460   46.8110 O   0  0  0  0  0
   50.7070   -6.9940   49.8370 C   0  0  0  0  0
   50.7810   -6.7820   51.3760 C   0  0  0  0  0
   52.4210   -8.2390   47.2570 N   0  0  0  0  0
   49.7325   -9.5498   66.0444 H   0  0  0  0  0
   48.6009   -8.5985   65.2754 H   0  0  0  0  0
   49.5444   -9.6500   64.3917 H   0  0  0  0  0
   50.5297   -7.3080   65.9016 H   0  0  0  0  0
   52.6298   -7.6342   64.6452 H   0  0  0  0  0
   51.9718   -9.2413   64.1108 H   0  0  0  0  0
   51.7901   -9.8657   66.5369 H   0  0  0  0  0
   52.5874   -8.3661   66.9627 H   0  0  0  0  0
   54.5791   -8.9624   65.6309 H   0  0  0  0  0
   53.7609  -10.3873   64.9733 H   0  0  0  0  0
   53.5193  -11.2791   67.2673 H   0  0  0  0  0
   54.4956   -9.8595   67.8612 H   0  0  0  0  0
   56.5900  -12.8307   67.8132 H   0  0  0  0  0
   55.7760  -11.6509   68.8698 H   0  0  0  0  0
   54.8203  -12.8800   68.0056 H   0  0  0  0  0
   56.8103   -9.8375   67.6416 H   0  0  0  0  0
   57.6242  -11.0174   66.5850 H   0  0  0  0  0
   56.6097   -9.7376   65.8750 H   0  0  0  0  0
   56.3745  -12.7579   65.5024 H   0  0  0  0  0
   54.6036  -12.8344   65.6731 H   0  0  0  0  0
   55.3498  -11.5384   64.7063 H   0  0  0  0  0
   51.0050   -5.5033   64.5874 H   0  0  0  0  0
   49.0429   -5.4666   62.4143 H   0  0  0  0  0
   48.9797   -3.7318   64.2663 H   0  0  0  0  0
   50.6408   -3.2401   63.8542 H   0  0  0  0  0
   49.3072   -2.9086   62.7216 H   0  0  0  0  0
   52.3418   -5.8077   62.1733 H   0  0  0  0  0
   52.8634   -3.5588   60.5534 H   0  0  0  0  0
   54.6426   -4.9512   61.6641 H   0  0  0  0  0
   56.1548   -4.9050   59.8611 H   0  0  0  0  0
   53.7931   -7.1625   61.1639 H   0  0  0  0  0
   54.1367   -6.9238   59.4330 H   0  0  0  0  0
   55.4758   -6.9997   60.6043 H   0  0  0  0  0
   52.9164   -2.9492   58.5058 H   0  0  0  0  0
   52.3632   -3.0613   56.3048 H   0  0  0  0  0
   52.0236   -4.8929   56.5208 H   0  0  0  0  0
   54.9802   -4.4594   57.7261 H   0  0  0  0  0
   56.0672   -5.6694   55.3711 H   0  0  0  0  0
   56.9628   -5.1621   56.8997 H   0  0  0  0  0
   57.3555   -0.4525   59.1234 H   0  0  0  0  0
   56.7011   -1.0600   57.5827 H   0  0  0  0  0
   57.4510   -2.1884   58.7382 H   0  0  0  0  0
   59.2817   -2.9211   58.0458 H   0  0  0  0  0
   61.5312   -2.7898   57.6821 H   0  0  0  0  0
   61.3604   -0.9700   57.4661 H   0  0  0  0  0
   62.1783   -1.8863   55.4825 H   0  0  0  0  0
   60.4993   -1.4355   55.2431 H   0  0  0  0  0
   60.0421   -3.9650   56.1150 H   0  0  0  0  0
   61.6977   -4.2187   55.5367 H   0  0  0  0  0
   60.3325   -4.6868   53.6175 H   0  0  0  0  0
   60.9114   -3.0214   53.3421 H   0  0  0  0  0
   58.6763   -2.2573   54.5016 H   0  0  0  0  0
   58.1072   -5.1185   54.3711 H   0  0  0  0  0
   57.3332   -4.3868   52.3081 H   0  0  0  0  0
   57.5431   -2.2881   50.1866 H   0  0  0  0  0
   59.2683   -3.9527   49.6567 H   0  0  0  0  0
   58.0514   -5.2497   49.7475 H   0  0  0  0  0
   57.9353   -4.0072   48.4772 H   0  0  0  0  0
   53.2480   -3.1583   49.8527 H   0  0  0  0  0
   52.4276   -2.3302   47.7313 H   0  0  0  0  0
   53.4751   -3.3351   46.8203 H   0  0  0  0  0
   54.0821   -0.7120   48.1486 H   0  0  0  0  0
   54.6177   -1.2982   46.5979 H   0  0  0  0  0
   56.3904   -2.5196   47.5205 H   0  0  0  0  0
   56.2508   -1.3450   48.7767 H   0  0  0  0  0
   51.8799   -4.7111   49.8469 H   0  0  0  0  0
   52.7869   -7.3852   49.5243 H   0  0  0  0  0
   50.4528   -8.0403   49.6672 H   0  0  0  0  0
   49.9715   -6.2893   49.4491 H   0  0  0  0  0
   51.5279   -7.4541   51.7986 H   0  0  0  0  0
   51.0592   -5.7493   51.5863 H   0  0  0  0  0
   49.8076   -6.9945   51.8180 H   0  0  0  0  0
   52.4313   -8.5089   46.2734 H   0  0  0  0  0
   52.7773   -8.8803   47.9656 H   0  0  0  0  0
  2  1  1  0  0  0
  2  3  1  0  0  0
  8  2  1  0  0  0
  3  4  1  0  0  0
  4  5  1  0  0  0
  5  6  1  0  0  0
  6  7  1  0  0  0
  7 10  1  0  0  0
  7 11  1  0  0  0
  7 12  1  0  0  0
  8  9  2  0  0  0
 13  8  1  0  0  0
 14 13  1  0  0  0
 15 14  1  0  0  0
 14 17  1  0  0  0
 15 16  2  0  0  0
 18 15  1  0  0  0
 19 18  1  0  0  0
 20 19  1  0  0  0
 19 22  1  0  0  0
 20 21  2  0  0  0
 25 20  1  0  0  0
 22 23  1  0  0  0
 22 24  1  0  0  0
 26 25  1  0  0  0
 27 26  1  0  0  0
 27 28  2  0  0  0
 29 27  1  0  0  0
 30 29  1  0  0  0
 31 30  1  0  0  0
 31 32  2  0  0  0
 42 31  1  0  0  0
 34 33  2  0  0  0
 34 35  1  0  0  0
 36 34  1  0  0  0
 37 36  1  0  0  0
 38 37  1  0  0  0
 39 38  1  0  0  0
 40 39  1  0  0  0
 41 40  1  0  0  0
 41 42  1  0  0  0
 41 43  1  0  0  0
 43 44  2  0  0  0
 43 45  1  0  0  0
 45 46  1  0  0  0
 46 47  1  0  0  0
 46 49  1  0  0  0
 47 48  2  0  0  0
 47 50  1  0  0  0
 50 51  1  0  0  0
 50 56  1  0  0  0
 51 52  1  0  0  0
 51 54  1  0  0  0
 52 53  2  0  0  0
 52 57  1  0  0  0
 54 55  1  0  0  0
 55 56  1  0  0  0
 57 58  1  0  0  0
 58 59  1  0  0  0
 58 61  1  0  0  0
 59 60  2  0  0  0
 59 63  1  0  0  0
 61 62  1  0  0  0
  1 64  1  0  0  0
  1 65  1  0  0  0
  1 66  1  0  0  0
  2 67  1  0  0  0
  3 68  1  0  0  0
  3 69  1  0  0  0
  4 70  1  0  0  0
  4 71  1  0  0  0
  5 72  1  0  0  0
  5 73  1  0  0  0
  6 74  1  0  0  0
  6 75  1  0  0  0
 10 76  1  0  0  0
 10 77  1  0  0  0
 10 78  1  0  0  0
 11 79  1  0  0  0
 11 80  1  0  0  0
 11 81  1  0  0  0
 12 82  1  0  0  0
 12 83  1  0  0  0
 12 84  1  0  0  0
 13 85  1  0  0  0
 14 86  1  0  0  0
 17 87  1  0  0  0
 17 88  1  0  0  0
 17 89  1  0  0  0
 18 90  1  0  0  0
 19 91  1  0  0  0
 22 92  1  0  0  0
 23 93  1  0  0  0
 24 94  1  0  0  0
 24 95  1  0  0  0
 24 96  1  0  0  0
 25 97  1  0  0  0
 26 98  1  0  0  0
 26 99  1  0  0  0
 29100  1  0  0  0
 30101  1  0  0  0
 30102  1  0  0  0
 35103  1  0  0  0
 35104  1  0  0  0
 35105  1  0  0  0
 36106  1  0  0  0
 37107  1  0  0  0
 37108  1  0  0  0
 38109  1  0  0  0
 38110  1  0  0  0
 39111  1  0  0  0
 39112  1  0  0  0
 40113  1  0  0  0
 40114  1  0  0  0
 41115  1  0  0  0
 42116  1  0  0  0
 45117  1  0  0  0
 46118  1  0  0  0
 49119  1  0  0  0
 49120  1  0  0  0
 49121  1  0  0  0
 51122  1  0  0  0
 54123  1  0  0  0
 54124  1  0  0  0
 55125  1  0  0  0
 55126  1  0  0  0
 56127  1  0  0  0
 56128  1  0  0  0
 57129  1  0  0  0
 58130  1  0  0  0
 61131  1  0  0  0
 61132  1  0  0  0
 62133  1  0  0  0
 62134  1  0  0  0
 62135  1  0  0  0
 63136  1  0  0  0
 63137  1  0  0  0
M  END
$$$$
