### 
### Created by X-TOOL on Mon Sep 10 21:13:30 2018
### 

@<TRIPOS>MOLECULE
6bhi_ligand
  137   137     1     0     0
SMALL
GAST_HUCK


@<TRIPOS>ATOM
      1 N          49.5250   -9.0230   65.1960 N.4       1 M3L         0.2379
      2 CA         50.5630   -7.9370   65.0120 C.3       1 M3L         0.0650
      3 CB         51.9760   -8.4730   64.8840 C.3       1 M3L         0.0080
      4 CG         52.4890   -9.1120   66.1740 C.3       1 M3L        -0.0410
      5 CD         53.8500   -9.7430   65.8480 C.3       1 M3L        -0.0121
      6 CE         54.3040  -10.5560   67.0450 C.3       1 M3L        -0.0309
      7 NZ         55.5420  -11.3070   66.8050 N.4       1 M3L         0.2369
      8 C          50.2360   -7.1690   63.7490 C.2       1 M3L         0.2267
      9 O          49.8320   -7.7420   62.7080 O.2       1 M3L        -0.3907
     10 CM1        55.6920  -12.2280   67.9490 C.3       1 M3L        -0.0418
     11 CM2        56.7260  -10.4150   66.7210 C.3       1 M3L        -0.0418
     12 CM3        55.4620  -12.1680   65.5890 C.3       1 M3L        -0.0418
     13 N          50.4570   -5.8780   63.8130 N.am      1 SER        -0.2613
     14 CA         49.9300   -4.9560   62.7890 C.3       1 SER         0.1283
     15 C          50.7840   -4.6840   61.5390 C.2       1 SER         0.2037
     16 O          50.3050   -4.0560   60.5910 O.2       1 SER        -0.3944
     17 CB         49.6980   -3.6140   63.4550 C.3       1 SER        -0.0244
     18 N          52.0140   -5.1280   61.4870 N.am      1 THR        -0.2613
     19 CA         52.9320   -4.6390   60.4250 C.3       1 THR         0.1565
     20 C          52.5420   -4.9040   58.9690 C.2       1 THR         0.2063
     21 O          52.0830   -6.0080   58.5960 O.2       1 THR        -0.3943
     22 CB         54.3680   -5.1830   60.6350 C.3       1 THR         0.0924
     23 OG1        55.2700   -4.5600   59.7210 O.3       1 THR        -0.3874
     24 CG2        54.4490   -6.6700   60.4460 C.3       1 THR        -0.0346
     25 N          52.7290   -3.8750   58.1210 N.am      1 GLY        -0.2663
     26 CA         52.6740   -4.0340   56.6860 C.3       1 GLY         0.1201
     27 C          53.9450   -4.3570   55.9450 C.2       1 GLY         0.2005
     28 O          53.9830   -4.4130   54.7240 O.2       1 GLY        -0.3947
     29 N          55.0410   -4.5510   56.7120 N.am      1 GLY        -0.2666
     30 CA         56.2810   -4.8840   56.0960 C.3       1 GLY         0.1201
     31 C          56.9420   -3.7730   55.3400 C.2       1 GLY         0.2007
     32 O          56.5820   -2.6040   55.4820 O.2       1 GLY        -0.3947
     33 OH         59.1060    0.1000   57.1330 O.2       1 ALY        -0.3974
     34 CH         58.8360   -0.9610   57.6660 C.2       1 ALY         0.1729
     35 CH3        57.4910   -1.1810   58.3240 C.3       1 ALY         0.0256
     36 NZ         59.6400   -2.0360   57.6870 N.am      1 ALY        -0.2872
     37 CE         60.9930   -1.9650   57.2150 C.3       1 ALY         0.0309
     38 CD         61.1560   -2.1200   55.7800 C.3       1 ALY        -0.0325
     39 CG         60.8090   -3.5960   55.4340 C.3       1 ALY        -0.0470
     40 CB         60.2890   -3.6570   53.9720 C.3       1 ALY        -0.0123
     41 CA         58.8340   -3.1610   53.9130 C.3       1 ALY         0.1310
     42 N          57.9490   -4.1260   54.5450 N.am      1 ALY        -0.2640
     43 C          58.5190   -2.7590   52.5200 C.2       1 ALY         0.2039
     44 O          58.9990   -1.7470   52.0450 O.2       1 ALY        -0.3944
     45 N          57.7180   -3.5680   51.8370 N.am      1 ALA        -0.2640
     46 CA         57.3640   -3.3340   50.4360 C.3       1 ALA         0.1284
     47 C          55.8890   -3.6890   50.2480 C.2       1 ALA         0.2061
     48 O          55.3720   -4.4280   51.0200 O.2       1 ALA        -0.3942
     49 CB         58.2160   -4.1980   49.5130 C.3       1 ALA        -0.0244
     50 N          55.2410   -3.1540   49.1710 N.am      1 PRO        -0.2498
     51 CA         53.8460   -3.4550   48.9910 C.3       1 PRO         0.1338
     52 C          53.6270   -4.9200   48.8240 C.2       1 PRO         0.2041
     53 O          54.5210   -5.6580   48.2920 O.2       1 PRO        -0.3944
     54 CB         53.4540   -2.6960   47.7030 C.3       1 PRO        -0.0104
     55 CG         54.4410   -1.6010   47.6300 C.3       1 PRO        -0.0281
     56 CD         55.6940   -2.1280   48.2620 C.3       1 PRO         0.0369
     57 N          52.4700   -5.3500   49.3140 N.am      1 ARG        -0.2637
     58 CA         52.0340   -6.7210   49.1000 C.3       1 ARG         0.1304
     59 C          51.9450   -7.0560   47.6140 C.2       1 ARG         0.1992
     60 O          51.5050   -6.2460   46.8110 O.2       1 ARG        -0.3947
     61 CB         50.7070   -6.9940   49.8370 C.3       1 ARG        -0.0153
     62 CG         50.7810   -6.7820   51.3760 C.3       1 ARG        -0.0610
     63 N          52.4210   -8.2390   47.2570 N.am      1 LYS        -0.2990
     64 H1         49.7291   -9.5443   66.0342 H         1 M3L         0.2015
     65 H2         49.5433   -9.6434   64.4017 H         1 M3L         0.2015
     66 H3         48.6113   -8.6047   65.2747 H         1 M3L         0.2015
     67 H4         50.5200   -7.2602   65.8781 H         1 M3L         0.1098
     68 H5         52.6438   -7.6414   64.6147 H         1 M3L         0.0346
     69 H6         51.9932   -9.2302   64.0863 H         1 M3L         0.0346
     70 H7         51.7865   -9.8850   66.5187 H         1 M3L         0.0270
     71 H8         52.6044   -8.3466   66.9555 H         1 M3L         0.0270
     72 H9         54.5845   -8.9519   65.6370 H         1 M3L         0.0317
     73 H10        53.7542  -10.3982   64.9696 H         1 M3L         0.0317
     74 H11        53.5080  -11.2698   67.3037 H         1 M3L         0.0815
     75 H12        54.4703   -9.8705   67.8891 H         1 M3L         0.0815
     76 H13        56.6095  -12.8218   67.8238 H         1 M3L         0.0778
     77 H14        54.8231  -12.9010   67.9944 H         1 M3L         0.0778
     78 H15        55.7553  -11.6475   68.8812 H         1 M3L         0.0778
     79 H16        56.6098   -9.7308   65.8675 H         1 M3L         0.0778
     80 H17        57.6332  -11.0217   66.5837 H         1 M3L         0.0778
     81 H18        56.8121   -9.8315   67.6495 H         1 M3L         0.0778
     82 H19        54.5821  -12.8242   65.6616 H         1 M3L         0.0778
     83 H20        56.3718  -12.7817   65.5137 H         1 M3L         0.0778
     84 H21        55.3730  -11.5330   64.6953 H         1 M3L         0.0778
     85 H22        50.9943   -5.5106   64.5722 H         1 SER         0.1884
     86 H23        48.9692   -5.3674   62.4462 H         1 SER         0.0797
     87 H24        49.3036   -2.9012   62.7159 H         1 SER         0.0277
     88 H25        50.6488   -3.2355   63.8583 H         1 SER         0.0277
     89 H26        48.9732   -3.7315   64.2740 H         1 SER         0.0277
     90 H27        52.3354   -5.7944   62.1598 H         1 THR         0.1884
     91 H28        52.9680   -3.5459   60.5422 H         1 THR         0.0826
     92 H29        54.6789   -4.9440   61.6627 H         1 THR         0.0639
     93 H30        55.2683   -3.6212   59.8665 H         1 THR         0.2101
     94 H31        55.4849   -7.0040   60.6055 H         1 THR         0.0257
     95 H32        54.1341   -6.9274   59.4240 H         1 THR         0.0257
     96 H33        53.7875   -7.1682   61.1700 H         1 THR         0.0257
     97 H34        52.9127   -2.9673   58.4983 H         1 GLY         0.1881
     98 H35        52.2874   -3.0918   56.2704 H         1 GLY         0.0763
     99 H36        51.9622   -4.8462   56.4772 H         1 GLY         0.0763
    100 H37        54.9814   -4.4612   57.7062 H         1 GLY         0.1881
    101 H38        56.0998   -5.7112   55.3939 H         1 GLY         0.0763
    102 H39        56.9727   -5.2167   56.8839 H         1 GLY         0.0763
    103 H40        57.4494   -2.1975   58.7424 H         1 ALY         0.0467
    104 H41        56.6929   -1.0592   57.5769 H         1 ALY         0.0467
    105 H42        57.3530   -0.4464   59.1310 H         1 ALY         0.0467
    106 H43        59.2887   -2.9037   58.0387 H         1 ALY         0.1850
    107 H44        61.5686   -2.7605   57.7108 H         1 ALY         0.0520
    108 H45        61.4019   -0.9844   57.5000 H         1 ALY         0.0520
    109 H46        62.1948   -1.8999   55.4928 H         1 ALY         0.0285
    110 H47        60.4762   -1.4385   55.2478 H         1 ALY         0.0285
    111 H48        60.0307   -3.9634   56.1190 H         1 ALY         0.0268
    112 H49        61.7091   -4.2206   55.5328 H         1 ALY         0.0268
    113 H50        60.3354   -4.6951   53.6113 H         1 ALY         0.0312
    114 H51        60.9181   -3.0187   53.3341 H         1 ALY         0.0312
    115 H52        58.7681   -2.2459   54.5198 H         1 ALY         0.0800
    116 H53        58.1041   -5.0991   54.3745 H         1 ALY         0.1883
    117 H54        57.3407   -4.3707   52.2989 H         1 ALA         0.1883
    118 H55        57.5245   -2.2740   50.1898 H         1 ALA         0.0797
    119 H56        57.9336   -4.0063   48.4673 H         1 ALA         0.0277
    120 H57        58.0508   -5.2597   49.7486 H         1 ALA         0.0277
    121 H58        59.2783   -3.9514   49.6570 H         1 ALA         0.0277
    122 H59        53.2590   -3.0945   49.8486 H         1 PRO         0.0802
    123 H60        52.4312   -2.2981   47.7777 H         1 PRO         0.0313
    124 H61        53.5291   -3.3515   46.8228 H         1 PRO         0.0313
    125 H62        54.0766   -0.7212   48.1806 H         1 PRO         0.0287
    126 H63        54.6289   -1.3256   46.5817 H         1 PRO         0.0287
    127 H64        56.3640   -2.5528   47.5000 H         1 PRO         0.0524
    128 H65        56.2186   -1.3300   48.8078 H         1 PRO         0.0524
    129 H66        51.8915   -4.7236   49.8364 H         1 ARG         0.1883
    130 H67        52.7957   -7.3826   49.5383 H         1 ARG         0.0800
    131 H68        50.4135   -8.0367   49.6456 H         1 ARG         0.0310
    132 H69        49.9408   -6.3170   49.4314 H         1 ARG         0.0310
    133 H70        49.7991   -6.9962   51.8232 H         1 ARG         0.0232
    134 H71        51.0617   -5.7401   51.5896 H         1 ARG         0.0232
    135 H72        51.5344   -7.4598   51.8037 H         1 ARG         0.0232
    136 H73        52.3930   -8.5205   46.2978 H         1 LYS         0.1815
    137 H74        52.8085   -8.8509   47.9466 H         1 LYS         0.1815
@<TRIPOS>BOND
     1    2    1 1  
     2    2    3 1  
     3    8    2 1  
     4    3    4 1  
     5    4    5 1  
     6    5    6 1  
     7    6    7 1  
     8    7   10 1  
     9    7   11 1  
    10    7   12 1  
    11    8    9 2  
    12   13    8 am 
    13   14   13 1  
    14   15   14 1  
    15   14   17 1  
    16   15   16 2  
    17   18   15 am 
    18   19   18 1  
    19   20   19 1  
    20   19   22 1  
    21   20   21 2  
    22   25   20 am 
    23   22   23 1  
    24   22   24 1  
    25   26   25 1  
    26   27   26 1  
    27   27   28 2  
    28   29   27 am 
    29   30   29 1  
    30   31   30 1  
    31   31   32 2  
    32   42   31 am 
    33   34   33 2  
    34   34   35 1  
    35   36   34 am 
    36   37   36 1  
    37   38   37 1  
    38   39   38 1  
    39   40   39 1  
    40   41   40 1  
    41   41   42 1  
    42   41   43 1  
    43   43   44 2  
    44   43   45 am 
    45   45   46 1  
    46   46   47 1  
    47   46   49 1  
    48   47   48 2  
    49   47   50 am 
    50   50   51 1  
    51   50   56 1  
    52   51   52 1  
    53   51   54 1  
    54   52   53 2  
    55   52   57 am 
    56   54   55 1  
    57   55   56 1  
    58   57   58 1  
    59   58   59 1  
    60   58   61 1  
    61   59   60 2  
    62   59   63 am 
    63   61   62 1  
    64    1   64 1  
    65    1   65 1  
    66    1   66 1  
    67    2   67 1  
    68    3   68 1  
    69    3   69 1  
    70    4   70 1  
    71    4   71 1  
    72    5   72 1  
    73    5   73 1  
    74    6   74 1  
    75    6   75 1  
    76   10   76 1  
    77   10   77 1  
    78   10   78 1  
    79   11   79 1  
    80   11   80 1  
    81   11   81 1  
    82   12   82 1  
    83   12   83 1  
    84   12   84 1  
    85   13   85 1  
    86   14   86 1  
    87   17   87 1  
    88   17   88 1  
    89   17   89 1  
    90   18   90 1  
    91   19   91 1  
    92   22   92 1  
    93   23   93 1  
    94   24   94 1  
    95   24   95 1  
    96   24   96 1  
    97   25   97 1  
    98   26   98 1  
    99   26   99 1  
   100   29  100 1  
   101   30  101 1  
   102   30  102 1  
   103   35  103 1  
   104   35  104 1  
   105   35  105 1  
   106   36  106 1  
   107   37  107 1  
   108   37  108 1  
   109   38  109 1  
   110   38  110 1  
   111   39  111 1  
   112   39  112 1  
   113   40  113 1  
   114   40  114 1  
   115   41  115 1  
   116   42  116 1  
   117   45  117 1  
   118   46  118 1  
   119   49  119 1  
   120   49  120 1  
   121   49  121 1  
   122   51  122 1  
   123   54  123 1  
   124   54  124 1  
   125   55  125 1  
   126   55  126 1  
   127   56  127 1  
   128   56  128 1  
   129   57  129 1  
   130   58  130 1  
   131   61  131 1  
   132   61  132 1  
   133   62  133 1  
   134   62  134 1  
   135   62  135 1  
   136   63  136 1  
   137   63  137 1  
@<TRIPOS>SUBSTRUCTURE
     1 M3L         1

