5ioz_ligand
  -I-interpret- 

 35 36  0  0  0  0  0  0  0  0999 V2000
   28.8010   15.6520   -1.8700 C   0  0  0  0  0
   30.8800   16.6170   -2.6860 C   0  0  0  0  0
   28.3450   14.2810   -1.4770 C   0  0  0  0  0
   27.3160   12.1830   -2.1480 C   0  0  0  0  0
   27.8020   10.9790   -2.9060 C   0  0  0  0  0
   28.4500    9.8390   -4.8360 C   0  0  0  0  0
   26.9050    9.7340   -2.9450 C   0  0  0  0  0
   28.2450   13.9060   -0.2850 O   0  0  0  0  0
   29.4480   16.3540   -0.6840 C   0  0  0  0  0
   29.8860   15.4780   -2.9530 C   0  0  0  0  0
   30.4360   17.2700   -1.3700 C   0  0  0  0  0
   28.0350   13.4530   -2.4820 N   0  0  0  0  0
   27.4670    8.9330   -4.1110 C   0  0  0  0  0
   28.2210   11.2490   -4.3480 C   0  0  0  0  0
   27.9510   16.2375   -2.2204 H   0  0  0  0  0
   30.8808   17.3386   -3.5030 H   0  0  0  0  0
   31.9003   16.2404   -2.6141 H   0  0  0  0  0
   27.4873   11.9863   -1.0897 H   0  0  0  0  0
   26.2688   12.3280   -2.4136 H   0  0  0  0  0
   28.6605   10.7529   -2.2735 H   0  0  0  0  0
   28.2955    9.7809   -5.9134 H   0  0  0  0  0
   29.4744    9.5284   -4.6306 H   0  0  0  0  0
   25.8511    9.9803   -3.0747 H   0  0  0  0  0
   26.9195    9.1772   -2.0081 H   0  0  0  0  0
   29.9118   15.6689    0.0257 H   0  0  0  0  0
   28.7351   16.8813   -0.0500 H   0  0  0  0  0
   29.4704   15.5254   -3.9596 H   0  0  0  0  0
   30.3623   14.4990   -2.9011 H   0  0  0  0  0
   29.9683   18.2332   -1.5738 H   0  0  0  0  0
   31.3007   17.4309   -0.7261 H   0  0  0  0  0
   28.2810   13.6802   -3.4455 H   0  0  0  0  0
   27.9630    8.0296   -3.7562 H   0  0  0  0  0
   26.6689    8.6135   -4.7811 H   0  0  0  0  0
   29.0890   11.9010   -4.4454 H   0  0  0  0  0
   27.4870   11.8080   -4.9284 H   0  0  0  0  0
  3  1  1  0  0  0
  1  9  1  0  0  0
  1 10  1  0  0  0
 10  2  1  0  0  0
  2 11  1  0  0  0
  3  8  2  0  0  0
 12  3  1  0  0  0
  5  4  1  0  0  0
  4 12  1  0  0  0
  5  7  1  0  0  0
 14  5  1  0  0  0
  6 13  1  0  0  0
  6 14  1  0  0  0
  7 13  1  0  0  0
  9 11  1  0  0  0
  1 15  1  0  0  0
  2 16  1  0  0  0
  2 17  1  0  0  0
  4 18  1  0  0  0
  4 19  1  0  0  0
  5 20  1  0  0  0
  6 21  1  0  0  0
  6 22  1  0  0  0
  7 23  1  0  0  0
  7 24  1  0  0  0
  9 25  1  0  0  0
  9 26  1  0  0  0
 10 27  1  0  0  0
 10 28  1  0  0  0
 11 29  1  0  0  0
 11 30  1  0  0  0
 12 31  1  0  0  0
 13 32  1  0  0  0
 13 33  1  0  0  0
 14 34  1  0  0  0
 14 35  1  0  0  0
M  END
$$$$
