3o9l_ligand
  -I-interpret- 

 86 90  0  0  0  0  0  0  0  0999 V2000
    3.1700    8.5520   -5.8500 Cl  0  0  0  0  0
    2.4500    8.1280   -4.2770 C   0  0  0  0  0
    3.2270    7.6570   -3.2240 C   0  0  0  0  0
    1.0720    8.2840   -4.1490 C   0  0  0  0  0
    4.6050    7.4750   -3.3050 O   0  0  0  0  0
    2.5730    7.3700   -2.0340 C   0  0  0  0  0
    0.4350    7.9790   -2.9550 C   0  0  0  0  0
    5.2240    6.4650   -4.1440 C   0  0  0  0  0
    3.5520    6.7760   -0.6740 Cl  0  0  0  0  0
    1.1910    7.5200   -1.8790 C   0  0  0  0  0
   -1.0480    8.1600   -2.8380 C   0  0  0  0  0
    6.1690    5.4700   -3.4420 C   0  0  0  0  0
    5.7820    5.5460   -2.0930 O   0  0  0  0  0
    6.3280    5.3000   -0.8600 C   0  0  0  0  0
    7.2710    6.2070   -0.3660 C   0  0  0  0  0
    5.8430    4.2770   -0.0400 C   0  0  0  0  0
    7.7830    6.0590    0.9230 C   0  0  0  0  0
    6.3640    4.1240    1.2430 C   0  0  0  0  0
    7.3400    5.0070    1.7380 C   0  0  0  0  0
    7.8180    4.8410    3.1530 C   0  0  0  0  0
    6.8440    5.6500    4.0740 C   0  0  0  0  0
    9.2870    5.2050    3.4030 C   0  0  0  0  0
    5.4120    5.2200    3.7880 C   0  0  0  0  0
    7.1980    5.5210    5.5650 C   0  0  0  0  0
    9.6130    5.1650    4.9020 C   0  0  0  0  0
    5.0270    4.1390    4.1980 O   0  0  0  0  0
    4.5570    5.9740    3.0690 N   0  0  0  0  0
    8.6090    5.8310    5.7490 N   0  3  0  0  0
    4.8650    7.2730    2.4280 C   0  0  0  0  0
    3.2210    5.4900    2.7210 C   0  0  0  0  0
    5.2180    8.3370    3.4610 C   0  0  0  0  0
    3.8240    8.2940    2.8590 C   0  0  0  0  0
    2.0530    5.7930    3.6390 C   0  0  0  0  0
    0.7790    5.5680    3.1300 C   0  0  0  0  0
    2.2040    6.2880    4.9310 C   0  0  0  0  0
    0.5990    4.9490    1.4690 Cl  0  0  0  0  0
   -0.3620    5.8270    3.8720 C   0  0  0  0  0
    1.0600    6.5430    5.6820 C   0  0  0  0  0
   -0.2090    6.3160    5.1640 C   0  0  0  0  0
    1.1730    7.0940    7.0750 C   0  0  0  0  0
    1.0700    8.6050    6.9450 C   0  0  0  0  0
    1.9420    9.2500    8.0050 C   0  0  0  0  0
    2.1120   10.6220    7.6730 O   0  0  0  0  0
    2.1000   11.4500    8.8330 C   0  0  0  0  0
    0.4888    8.6490   -4.9945 H   0  0  0  0  0
    5.8376    7.0063   -4.8641 H   0  0  0  0  0
    4.4069    5.8689   -4.5503 H   0  0  0  0  0
    0.7123    7.2810   -0.9293 H   0  0  0  0  0
   -1.3003    9.2053   -3.0163 H   0  0  0  0  0
   -1.5486    7.5331   -3.5759 H   0  0  0  0  0
   -1.3699    7.8728   -1.8370 H   0  0  0  0  0
    7.2203    5.7171   -3.5896 H   0  0  0  0  0
    6.0861    4.4603   -3.8442 H   0  0  0  0  0
    7.6076    7.0338   -0.9915 H   0  0  0  0  0
    5.0643    3.6052   -0.4011 H   0  0  0  0  0
    8.5279    6.7614    1.2972 H   0  0  0  0  0
    6.0098    3.3077    1.8725 H   0  0  0  0  0
    7.7965    3.7767    3.3874 H   0  0  0  0  0
    6.9501    6.7097    3.8419 H   0  0  0  0  0
    9.4664    6.2141    3.0319 H   0  0  0  0  0
    9.9199    4.4830    2.8870 H   0  0  0  0  0
    6.9994    4.5036    5.9021 H   0  0  0  0  0
    6.5915    6.2149    6.1470 H   0  0  0  0  0
   10.5567    5.6919    5.0427 H   0  0  0  0  0
    9.6439    4.1167    5.1992 H   0  0  0  0  0
    8.8215    5.5194    6.6967 H   0  0  0  0  0
    8.6894    6.8210    5.5168 H   0  0  0  0  0
    5.3100    6.9416    1.4898 H   0  0  0  0  0
    3.3086    4.4036    2.7350 H   0  0  0  0  0
    2.9777    5.9979    1.7878 H   0  0  0  0  0
    6.0063    9.0663    3.6474 H   0  0  0  0  0
    5.6824    8.3993    4.4452 H   0  0  0  0  0
    2.7881    8.3097    3.1979 H   0  0  0  0  0
    3.1133    8.9793    2.3971 H   0  0  0  0  0
    3.1953    6.4718    5.3453 H   0  0  0  0  0
   -1.3532    5.6519    3.4537 H   0  0  0  0  0
   -1.0887    6.5224    5.7737 H   0  0  0  0  0
    2.1168    6.8034    7.5365 H   0  0  0  0  0
    0.3851    6.7009    7.7175 H   0  0  0  0  0
    0.0343    8.9167    7.0803 H   0  0  0  0  0
    1.4051    8.9133    5.9547 H   0  0  0  0  0
    2.9113    8.7529    8.0435 H   0  0  0  0  0
    1.4691    9.1589    8.9828 H   0  0  0  0  0
    1.1465   11.3366    9.3489 H   0  0  0  0  0
    2.9116   11.1539    9.4976 H   0  0  0  0  0
    2.2327   12.4905    8.5365 H   0  0  0  0  0
  1  2  1  0  0  0
  2  3  4  0  0  0
  2  4  4  0  0  0
  3  5  1  0  0  0
  3  6  4  0  0  0
  4  7  4  0  0  0
  5  8  1  0  0  0
  6  9  1  0  0  0
  6 10  4  0  0  0
  7 10  4  0  0  0
  7 11  1  0  0  0
  8 12  1  0  0  0
 12 13  1  0  0  0
 13 14  1  0  0  0
 14 15  4  0  0  0
 14 16  4  0  0  0
 15 17  4  0  0  0
 16 18  4  0  0  0
 17 19  4  0  0  0
 18 19  4  0  0  0
 19 20  1  0  0  0
 20 21  1  0  0  0
 20 22  1  0  0  0
 21 23  1  0  0  0
 21 24  1  0  0  0
 22 25  1  0  0  0
 23 26  2  0  0  0
 23 27  1  0  0  0
 24 28  1  0  0  0
 25 28  1  0  0  0
 27 29  1  0  0  0
 27 30  1  0  0  0
 29 31  1  0  0  0
 29 32  1  0  0  0
 30 33  1  0  0  0
 31 32  1  0  0  0
 33 34  4  0  0  0
 33 35  4  0  0  0
 34 36  1  0  0  0
 34 37  4  0  0  0
 35 38  4  0  0  0
 37 39  4  0  0  0
 38 39  4  0  0  0
 38 40  1  0  0  0
 40 41  1  0  0  0
 41 42  1  0  0  0
 42 43  1  0  0  0
 43 44  1  0  0  0
  4 45  1  0  0  0
  8 46  1  0  0  0
  8 47  1  0  0  0
 10 48  1  0  0  0
 11 49  1  0  0  0
 11 50  1  0  0  0
 11 51  1  0  0  0
 12 52  1  0  0  0
 12 53  1  0  0  0
 15 54  1  0  0  0
 16 55  1  0  0  0
 17 56  1  0  0  0
 18 57  1  0  0  0
 20 58  1  0  0  0
 21 59  1  0  0  0
 22 60  1  0  0  0
 22 61  1  0  0  0
 24 62  1  0  0  0
 24 63  1  0  0  0
 25 64  1  0  0  0
 25 65  1  0  0  0
 28 66  1  0  0  0
 28 67  1  0  0  0
 29 68  1  0  0  0
 30 69  1  0  0  0
 30 70  1  0  0  0
 31 71  1  0  0  0
 31 72  1  0  0  0
 32 73  1  0  0  0
 32 74  1  0  0  0
 35 75  1  0  0  0
 37 76  1  0  0  0
 39 77  1  0  0  0
 40 78  1  0  0  0
 40 79  1  0  0  0
 41 80  1  0  0  0
 41 81  1  0  0  0
 42 82  1  0  0  0
 42 83  1  0  0  0
 44 84  1  0  0  0
 44 85  1  0  0  0
 44 86  1  0  0  0
M  END
$$$$
