6qzh_ligand
  -I-interpret- 

 62 64  0  0  0  0  0  0  0  0999 V2000
  -14.0650  -14.8450  -21.2780 N   0  0  0  0  0
  -19.4710  -17.3550  -17.1930 N   0  0  0  0  0
  -15.4200  -15.0070  -19.2350 C   0  0  0  0  0
  -16.8360  -14.0430  -17.5480 C   0  0  0  0  0
  -15.9430  -13.8670  -18.6020 C   0  0  0  0  0
  -15.8240  -16.2800  -18.7860 C   0  0  0  0  0
  -16.7340  -16.4370  -17.7280 C   0  0  0  0  0
  -15.5690  -12.4740  -19.0390 C   0  0  0  0  0
  -18.1780  -21.7580  -16.0260 C   0  0  0  0  0
  -17.9480  -22.8030  -17.0580 C   0  0  0  0  0
  -16.0420  -21.8040  -14.6540 C   0  0  0  0  0
  -17.9380  -24.4390  -18.5630 C   0  0  0  0  0
  -16.6870  -23.9640  -18.4500 C   0  0  0  0  0
  -15.3890  -24.2990  -19.0900 C   0  0  0  0  0
  -14.0890  -14.9080  -19.9390 C   0  0  0  0  0
  -18.4270  -18.1380  -17.0900 C   0  0  0  0  0
  -18.6780  -19.5000  -16.6960 C   0  0  0  0  0
  -17.5420  -22.0990  -14.6450 C   0  0  0  0  0
  -17.7520  -23.5800  -14.3290 C   0  0  0  0  0
  -18.2000  -21.2660  -13.5440 C   0  0  0  0  0
  -18.7490  -23.6930  -17.6700 C   0  0  0  0  0
  -15.2740  -14.8760  -22.0940 C   0  0  0  0  0
  -12.8110  -14.7290  -22.0150 C   0  0  0  0  0
  -17.2290  -15.2940  -17.1110 C   0  0  0  0  0
  -17.1440  -17.7320  -17.3310 N   0  0  0  0  0
  -19.9480  -19.7550  -16.4970 N   0  0  0  0  0
  -17.7460  -20.4660  -16.5300 N   0  0  0  0  0
  -13.0760  -14.8880  -19.2650 O   0  0  0  0  0
  -15.3260  -17.3980  -19.3740 O   0  0  0  0  0
  -21.3780  -17.8540  -15.5990 O   0  0  0  0  0
  -21.6130  -18.4880  -17.9360 O   0  0  0  0  0
  -16.6640  -22.9500  -17.5260 O   0  0  0  0  0
  -20.7640  -18.3280  -16.7990 S   0  0  0  0  0
  -17.2398  -13.1619  -17.0494 H   0  0  0  0  0
  -14.4921  -12.3396  -18.9375 H   0  0  0  0  0
  -15.8577  -12.3315  -20.0804 H   0  0  0  0  0
  -16.0877  -11.7470  -18.4141 H   0  0  0  0  0
  -19.2500  -21.7177  -15.8330 H   0  0  0  0  0
  -15.5592  -22.4063  -15.4235 H   0  0  0  0  0
  -15.8822  -20.7466  -14.8649 H   0  0  0  0  0
  -15.6189  -22.0495  -13.6799 H   0  0  0  0  0
  -18.2679  -25.2457  -19.2176 H   0  0  0  0  0
  -15.1377  -25.3380  -18.8768 H   0  0  0  0  0
  -15.4694  -24.1571  -20.1677 H   0  0  0  0  0
  -14.6108  -23.6469  -18.6935 H   0  0  0  0  0
  -18.8200  -23.7956  -14.2975 H   0  0  0  0  0
  -17.2804  -24.1857  -15.1028 H   0  0  0  0  0
  -17.3047  -23.8109  -13.3622 H   0  0  0  0  0
  -18.0530  -20.2067  -13.7547 H   0  0  0  0  0
  -19.2669  -21.4867  -13.5117 H   0  0  0  0  0
  -17.7473  -21.5130  -12.5837 H   0  0  0  0  0
  -19.8200  -23.8177  -17.5099 H   0  0  0  0  0
  -15.8099  -15.8075  -21.9119 H   0  0  0  0  0
  -15.9106  -14.0315  -21.8301 H   0  0  0  0  0
  -15.0015  -14.8121  -23.1475 H   0  0  0  0  0
  -12.2973  -13.8159  -21.7141 H   0  0  0  0  0
  -12.1810  -15.5910  -21.7955 H   0  0  0  0  0
  -13.0212  -14.6937  -23.0840 H   0  0  0  0  0
  -17.9289  -15.3845  -16.2803 H   0  0  0  0  0
  -16.4105  -18.4309  -17.2131 H   0  0  0  0  0
  -16.7660  -20.2919  -16.7528 H   0  0  0  0  0
  -15.7011  -18.1744  -18.9519 H   0  0  0  0  0
 15  1  1  0  0  0
  1 22  1  0  0  0
  1 23  1  0  0  0
 16  2  2  0  0  0
  2 33  1  0  0  0
  3  5  4  0  0  0
  6  3  4  0  0  0
  3 15  1  0  0  0
  4  5  4  0  0  0
 24  4  4  0  0  0
  5  8  1  0  0  0
  7  6  4  0  0  0
  6 29  1  0  0  0
  7 24  4  0  0  0
 25  7  1  0  0  0
  9 10  1  0  0  0
  9 18  1  0  0  0
 27  9  1  0  0  0
 10 21  4  0  0  0
 10 32  4  0  0  0
 18 11  1  0  0  0
 13 12  4  0  0  0
 21 12  4  0  0  0
 13 14  1  0  0  0
 32 13  4  0  0  0
 15 28  2  0  0  0
 17 16  1  0  0  0
 16 25  1  0  0  0
 17 26  2  0  0  0
 17 27  1  0  0  0
 18 19  1  0  0  0
 18 20  1  0  0  0
 26 33  1  0  0  0
 33 30  2  0  0  0
 33 31  2  0  0  0
  4 34  1  0  0  0
  8 35  1  0  0  0
  8 36  1  0  0  0
  8 37  1  0  0  0
  9 38  1  0  0  0
 11 39  1  0  0  0
 11 40  1  0  0  0
 11 41  1  0  0  0
 12 42  1  0  0  0
 14 43  1  0  0  0
 14 44  1  0  0  0
 14 45  1  0  0  0
 19 46  1  0  0  0
 19 47  1  0  0  0
 19 48  1  0  0  0
 20 49  1  0  0  0
 20 50  1  0  0  0
 20 51  1  0  0  0
 21 52  1  0  0  0
 22 53  1  0  0  0
 22 54  1  0  0  0
 22 55  1  0  0  0
 23 56  1  0  0  0
 23 57  1  0  0  0
 23 58  1  0  0  0
 24 59  1  0  0  0
 25 60  1  0  0  0
 27 61  1  0  0  0
 29 62  1  0  0  0
M  END
$$$$
