3hek_ligand
  -I-interpret- 

 54 57  0  0  0  0  0  0  0  0999 V2000
   16.9690   -0.4100   48.8480 C   0  0  0  0  0
   16.1420   -1.4760   49.3160 C   0  0  0  0  0
   14.7780   -1.2440   49.6580 C   0  0  0  0  0
   14.2410    0.0590   49.5400 C   0  0  0  0  0
   16.7140   -2.8390   49.4510 C   0  0  0  0  0
   17.0310   -3.3320   50.7390 N   0  0  0  0  0
   17.6240   -4.6650   50.8180 C   0  0  0  0  0
   17.8800   -3.5970   52.9560 C   0  0  0  0  0
   15.7410   -2.4550   52.8050 C   0  0  0  0  0
   13.3210   -2.0780   54.3040 C   0  0  0  0  0
   12.0600   -1.9040   55.1180 C   0  0  0  0  0
    9.0440   -0.9360   53.2160 C   0  0  0  0  0
    9.8710   -1.0440   55.4910 C   0  0  0  0  0
   14.5870    2.3950   48.9580 O   0  0  0  0  0
   15.0620    1.1230   49.0810 C   0  0  0  0  0
   16.4250    0.8980   48.7300 C   0  0  0  0  0
   18.2870   -0.6460   48.5160 O   0  0  0  0  0
   12.5950    0.3110   49.9670 Cl  0  0  0  0  0
   16.9110   -3.4590   48.4080 O   0  0  0  0  0
   17.8450   -4.9660   52.2860 C   0  0  0  0  0
   17.0730   -2.6250   52.0540 C   0  0  0  0  0
   14.6870   -3.4280   52.7600 C   0  0  0  0  0
   13.4970   -3.2420   53.4990 C   0  0  0  0  0
   10.9750   -1.1050   54.5460 N   0  3  0  0  0
   10.3990   -1.6160   53.2880 C   0  0  0  0  0
    8.7320   -0.5690   54.6530 C   0  0  0  0  0
    7.5690   -1.1170   55.0700 F   0  0  0  0  0
    8.6170    0.7660   54.7720 F   0  0  0  0  0
   14.3540   -1.0980   54.3500 C   0  0  0  0  0
   15.5520   -1.2810   53.6100 C   0  0  0  0  0
   14.1529   -2.0654   50.0082 H   0  0  0  0  0
   18.5663   -4.7006   50.2712 H   0  0  0  0  0
   16.9651   -5.4072   50.3674 H   0  0  0  0  0
   18.9074   -3.2514   53.0705 H   0  0  0  0  0
   17.4443   -3.6463   53.9539 H   0  0  0  0  0
   12.3684   -1.3700   56.0168 H   0  0  0  0  0
   11.6498   -2.9074   55.2323 H   0  0  0  0  0
    8.2821   -1.5845   52.7835 H   0  0  0  0  0
    9.0572   -0.0631   52.5633 H   0  0  0  0  0
   10.0756   -0.3855   56.3352 H   0  0  0  0  0
    9.6713   -2.0039   55.9673 H   0  0  0  0  0
   15.2872    2.9671   48.6356 H   0  0  0  0  0
   17.0445    1.7213   48.3744 H   0  0  0  0  0
   18.6935    0.1728   48.2229 H   0  0  0  0  0
   18.7647   -5.5264   52.4539 H   0  0  0  0  0
   17.0593   -5.6010   52.6954 H   0  0  0  0  0
   17.4525   -1.6213   51.8624 H   0  0  0  0  0
   14.8059   -4.3220   52.1479 H   0  0  0  0  0
   12.7084   -3.9931   53.4535 H   0  0  0  0  0
   11.4081   -0.2032   54.3471 H   0  0  0  0  0
   11.0237   -1.3948   52.4226 H   0  0  0  0  0
   10.3218   -2.7032   53.2754 H   0  0  0  0  0
   14.2239   -0.2021   54.9571 H   0  0  0  0  0
   16.3349   -0.5238   53.6534 H   0  0  0  0  0
  2  1  4  0  0  0
  1 16  4  0  0  0
  1 17  1  0  0  0
  2  3  4  0  0  0
  5  2  1  0  0  0
  3  4  4  0  0  0
  4 15  4  0  0  0
  4 18  1  0  0  0
  6  5  1  0  0  0
  5 19  2  0  0  0
  6  7  1  0  0  0
 21  6  1  0  0  0
 20  7  1  0  0  0
  8 20  1  0  0  0
 21  8  1  0  0  0
  9 21  1  0  0  0
 22  9  4  0  0  0
  9 30  4  0  0  0
 10 11  1  0  0  0
 23 10  4  0  0  0
 10 29  4  0  0  0
 11 24  1  0  0  0
 12 25  1  0  0  0
 26 12  1  0  0  0
 24 13  1  0  0  0
 13 26  1  0  0  0
 15 14  1  0  0  0
 16 15  4  0  0  0
 22 23  4  0  0  0
 24 25  1  0  0  0
 26 27  1  0  0  0
 26 28  1  0  0  0
 29 30  4  0  0  0
  3 31  1  0  0  0
  7 32  1  0  0  0
  7 33  1  0  0  0
  8 34  1  0  0  0
  8 35  1  0  0  0
 11 36  1  0  0  0
 11 37  1  0  0  0
 12 38  1  0  0  0
 12 39  1  0  0  0
 13 40  1  0  0  0
 13 41  1  0  0  0
 14 42  1  0  0  0
 16 43  1  0  0  0
 17 44  1  0  0  0
 20 45  1  0  0  0
 20 46  1  0  0  0
 21 47  1  0  0  0
 22 48  1  0  0  0
 23 49  1  0  0  0
 24 50  1  0  0  0
 25 51  1  0  0  0
 25 52  1  0  0  0
 29 53  1  0  0  0
 30 54  1  0  0  0
M  END
$$$$
