2j4g_ligand
  -I-interpret- 

 33 34  0  0  0  0  0  0  0  0999 V2000
    1.2970   -6.2080   33.6630 C   0  0  0  0  0
    1.8600   -7.5520   33.1280 C   0  0  0  0  0
    2.7330   -7.3380   31.8630 C   0  0  0  0  0
    2.0920   -6.3480   30.8720 C   0  0  0  0  0
    1.7590   -5.0090   31.5850 C   0  0  0  0  0
    1.0410   -3.9750   30.6770 C   0  0  0  0  0
    3.3530   -7.2160   35.0740 C   0  0  0  0  0
    4.4070   -7.5420   36.1190 C   0  0  0  0  0
    5.8910   -6.5100   37.9350 C   0  0  0  0  0
    2.7290   -8.0480   34.2350 N   0  0  0  0  0
    3.0930   -8.5780   31.2660 O   0  0  0  0  0
    3.0670   -6.1740   29.8600 O   0  0  0  0  0
    0.8890   -5.2840   32.6810 O   0  0  0  0  0
   -0.1480   -4.5550   30.1570 O   0  0  0  0  0
    2.6050   -5.7290   34.7420 S   0  0  0  0  0
    4.7710   -6.2720   36.9150 C   0  0  0  0  0
    0.3347   -6.2811   34.1697 H   0  0  0  0  0
    1.0601   -8.2385   32.8505 H   0  0  0  0  0
    3.6634   -6.8675   32.1808 H   0  0  0  0  0
    1.1495   -6.7104   30.4616 H   0  0  0  0  0
    2.7120   -4.5773   31.8910 H   0  0  0  0  0
    1.6987   -3.6908   29.8556 H   0  0  0  0  0
    0.7908   -3.0883   31.2595 H   0  0  0  0  0
    5.2996   -7.9218   35.6218 H   0  0  0  0  0
    4.0132   -8.2936   36.8032 H   0  0  0  0  0
    5.5754   -7.2715   38.6482 H   0  0  0  0  0
    6.7883   -6.8465   37.4156 H   0  0  0  0  0
    6.1027   -5.5806   38.4637 H   0  0  0  0  0
    3.4852   -9.1496   31.9301 H   0  0  0  0  0
    3.2474   -7.0193   29.4423 H   0  0  0  0  0
   -0.5943   -3.9175   29.5948 H   0  0  0  0  0
    3.8831   -5.9553   37.4623 H   0  0  0  0  0
    5.1200   -5.5220   36.2052 H   0  0  0  0  0
  2  1  1  0  0  0
  1 13  1  0  0  0
  1 15  1  0  0  0
  2  3  1  0  0  0
 10  2  1  0  0  0
  3  4  1  0  0  0
  3 11  1  0  0  0
  4  5  1  0  0  0
  4 12  1  0  0  0
  5  6  1  0  0  0
 13  5  1  0  0  0
  6 14  1  0  0  0
  7  8  1  0  0  0
  7 10  2  0  0  0
  7 15  1  0  0  0
  8 16  1  0  0  0
 16  9  1  0  0  0
  1 17  1  0  0  0
  2 18  1  0  0  0
  3 19  1  0  0  0
  4 20  1  0  0  0
  5 21  1  0  0  0
  6 22  1  0  0  0
  6 23  1  0  0  0
  8 24  1  0  0  0
  8 25  1  0  0  0
  9 26  1  0  0  0
  9 27  1  0  0  0
  9 28  1  0  0  0
 11 29  1  0  0  0
 12 30  1  0  0  0
 14 31  1  0  0  0
 16 32  1  0  0  0
 16 33  1  0  0  0
M  END
$$$$
