5m7t_ligand
  -I-interpret- 

 46 48  0  0  0  0  0  0  0  0999 V2000
  -21.6870   -2.8290   24.3790 O   0  0  0  0  0
  -22.5930   -2.1400   24.7960 C   0  0  0  0  0
  -23.7360   -1.7580   23.9110 C   0  0  0  0  0
  -22.5920   -1.6610   26.0300 N   0  0  0  0  0
  -21.4960   -1.8290   26.9670 C   0  0  0  0  0
  -20.1740   -1.1410   26.5230 C   0  0  0  0  0
  -20.1890    0.1670   27.1040 O   0  0  0  0  0
  -18.8620   -1.9200   26.8630 C   0  0  0  0  0
  -17.6870   -1.2970   26.2860 O   0  0  0  0  0
  -19.0100   -3.3770   26.3610 C   0  0  0  0  0
  -17.7870   -4.2740   26.5090 C   0  0  0  0  0
  -17.4880   -4.3820   27.9020 O   0  0  0  0  0
  -21.2670   -3.2490   27.3470 C   0  0  0  0  0
  -20.1510   -3.9480   27.1170 N   0  0  0  0  0
  -20.2950   -5.1640   27.6680 C   0  0  0  0  0
  -21.5370   -5.1960   28.2660 C   0  0  0  0  0
  -22.1040   -4.0150   28.0560 N   0  0  0  0  0
  -22.1570   -6.3220   28.9990 C   0  0  0  0  0
  -23.3460   -6.4370   28.8570 O   0  0  0  0  0
  -21.3560   -7.1100   29.7230 N   0  0  0  0  0
  -21.6460   -8.3090   30.3070 C   0  0  0  0  0
  -20.5730   -8.9920   30.9100 C   0  0  0  0  0
  -20.7600  -10.2340   31.5280 C   0  0  0  0  0
  -22.0280  -10.8140   31.5490 C   0  0  0  0  0
  -23.1020  -10.1550   30.9490 C   0  0  0  0  0
  -22.9120   -8.9190   30.3330 C   0  0  0  0  0
  -23.3599   -1.1958   23.0563 H   0  0  0  0  0
  -24.2401   -2.6590   23.5615 H   0  0  0  0  0
  -24.4383   -1.1417   24.4723 H   0  0  0  0  0
  -23.4125   -1.1415   26.3420 H   0  0  0  0  0
  -21.8263   -1.3034   27.8629 H   0  0  0  0  0
  -20.1484   -1.1088   25.4338 H   0  0  0  0  0
  -21.0086    0.6097   26.8718 H   0  0  0  0  0
  -18.7190   -1.9050   27.9435 H   0  0  0  0  0
  -17.6128   -0.3959   26.6088 H   0  0  0  0  0
  -19.1593   -3.3393   25.2819 H   0  0  0  0  0
  -16.9391   -3.8479   25.9727 H   0  0  0  0  0
  -17.9882   -5.2593   26.0885 H   0  0  0  0  0
  -16.7188   -4.9441   28.0204 H   0  0  0  0  0
  -19.5663   -5.9743   27.6466 H   0  0  0  0  0
  -20.4033   -6.7708   29.8565 H   0  0  0  0  0
  -19.5786   -8.5457   30.8954 H   0  0  0  0  0
  -19.9169  -10.7463   31.9915 H   0  0  0  0  0
  -22.1798  -11.7790   32.0325 H   0  0  0  0  0
  -24.0931  -10.6085   30.9621 H   0  0  0  0  0
  -23.7587   -8.4176   29.8641 H   0  0  0  0  0
  1  2  2  0  0  0
  2  3  1  0  0  0
  2  4  1  0  0  0
  4  5  1  0  0  0
  5  6  1  0  0  0
  5 13  1  0  0  0
  6  7  1  0  0  0
  6  8  1  0  0  0
  8  9  1  0  0  0
  8 10  1  0  0  0
 10 11  1  0  0  0
 10 14  1  0  0  0
 11 12  1  0  0  0
 13 14  4  0  0  0
 13 17  4  0  0  0
 14 15  4  0  0  0
 15 16  4  0  0  0
 16 17  4  0  0  0
 16 18  1  0  0  0
 18 19  2  0  0  0
 18 20  1  0  0  0
 20 21  1  0  0  0
 21 22  4  0  0  0
 21 26  4  0  0  0
 22 23  4  0  0  0
 23 24  4  0  0  0
 24 25  4  0  0  0
 25 26  4  0  0  0
  3 27  1  0  0  0
  3 28  1  0  0  0
  3 29  1  0  0  0
  4 30  1  0  0  0
  5 31  1  0  0  0
  6 32  1  0  0  0
  7 33  1  0  0  0
  8 34  1  0  0  0
  9 35  1  0  0  0
 10 36  1  0  0  0
 11 37  1  0  0  0
 11 38  1  0  0  0
 12 39  1  0  0  0
 15 40  1  0  0  0
 20 41  1  0  0  0
 22 42  1  0  0  0
 23 43  1  0  0  0
 24 44  1  0  0  0
 25 45  1  0  0  0
 26 46  1  0  0  0
M  END
$$$$
