4xg6_ligand
  -I-interpret- 

 52 55  0  0  0  0  0  0  0  0999 V2000
    4.6000   -2.7880    6.5410 C   0  0  0  0  0
    5.7010   -2.3220    5.8210 C   0  0  0  0  0
    5.4300   -1.4500    4.7550 C   0  0  0  0  0
    4.1790   -1.1080    4.4170 N   0  0  0  0  0
    3.3910   -2.4130    6.1370 N   0  0  0  0  0
   -1.3620   -2.4840    8.4000 C   0  0  0  0  0
   -0.9670   -1.7030    7.1370 C   0  0  0  0  0
    0.3020   -1.9000    6.6060 C   0  0  0  0  0
   -1.8400   -0.7880    6.5380 C   0  0  0  0  0
   -1.4400   -0.0910    5.3950 C   0  0  0  0  0
   -2.3750    0.9060    4.7080 C   0  0  0  0  0
   -0.1720   -0.2920    4.8690 C   0  0  0  0  0
    0.7240   -1.1410    5.5120 C   0  0  0  0  0
    1.8740   -1.3830    4.8760 N   0  0  0  0  0
    3.1620   -1.5330    5.1820 C   0  0  0  0  0
    4.5830   -3.6610    7.5550 N   0  0  0  0  0
    3.4680   -4.0350    8.2040 C   0  0  0  0  0
    5.5650   -4.3020    7.9550 N   0  0  0  0  0
    5.1580   -5.1060    8.9240 C   0  0  0  0  0
    6.0570   -6.0360    9.7130 C   0  0  0  0  0
    3.7960   -4.9370    9.1150 C   0  0  0  0  0
    2.8230   -5.6810   10.0660 C   0  0  0  0  0
    2.3010   -6.6840    9.1450 N   0  3  0  0  0
    1.1050   -6.4640    8.3290 C   0  0  0  0  0
    1.4640   -7.7160    9.8400 C   0  0  0  0  0
    0.7920   -7.9310    8.4820 C   0  0  0  0  0
   -0.6110   -8.0130    8.5870 O   0  0  0  0  0
    6.7187   -2.6198    6.0734 H   0  0  0  0  0
    6.2626   -1.0383    4.1845 H   0  0  0  0  0
   -1.3075   -3.5534    8.1963 H   0  0  0  0  0
   -0.6780   -2.2319    9.2103 H   0  0  0  0  0
   -2.3798   -2.2188    8.6862 H   0  0  0  0  0
    0.9668   -2.6454    7.0424 H   0  0  0  0  0
   -2.8298   -0.6194    6.9621 H   0  0  0  0  0
   -3.2800    0.3909    4.3858 H   0  0  0  0  0
   -2.6366    1.6989    5.4086 H   0  0  0  0  0
   -1.8723    1.3361    3.8417 H   0  0  0  0  0
    0.1229    0.2158    3.9507 H   0  0  0  0  0
    1.7230   -1.4805    3.8720 H   0  0  0  0  0
    2.4629   -3.6591    8.0126 H   0  0  0  0  0
    6.5327   -6.7428    9.0331 H   0  0  0  0  0
    6.8216   -5.4521   10.2254 H   0  0  0  0  0
    5.4612   -6.5798   10.4461 H   0  0  0  0  0
    2.0639   -5.0475   10.5250 H   0  0  0  0  0
    3.2883   -6.0877   10.9639 H   0  0  0  0  0
    3.1951   -6.8157    8.6721 H   0  0  0  0  0
    1.1726   -6.0024    7.3439 H   0  0  0  0  0
    0.3735   -5.7013    8.5962 H   0  0  0  0  0
    0.8954   -7.4937   10.7430 H   0  0  0  0  0
    1.9028   -8.5353   10.4094 H   0  0  0  0  0
    1.0625   -8.7493    7.8147 H   0  0  0  0  0
   -0.8701   -8.9319    8.6872 H   0  0  0  0  0
  1  2  4  0  0  0
  5  1  4  0  0  0
  1 16  1  0  0  0
  3  2  4  0  0  0
  4  3  4  0  0  0
 15  4  4  0  0  0
 15  5  4  0  0  0
  7  6  1  0  0  0
  8  7  4  0  0  0
  7  9  4  0  0  0
 13  8  4  0  0  0
 10  9  4  0  0  0
 10 11  1  0  0  0
 12 10  4  0  0  0
 13 12  4  0  0  0
 14 13  1  0  0  0
 14 15  1  0  0  0
 16 17  4  0  0  0
 16 18  4  0  0  0
 17 21  4  0  0  0
 18 19  4  0  0  0
 19 20  1  0  0  0
 19 21  4  0  0  0
 21 22  1  0  0  0
 22 23  1  0  0  0
 23 24  1  0  0  0
 23 25  1  0  0  0
 24 26  1  0  0  0
 25 26  1  0  0  0
 26 27  1  0  0  0
  2 28  1  0  0  0
  3 29  1  0  0  0
  6 30  1  0  0  0
  6 31  1  0  0  0
  6 32  1  0  0  0
  8 33  1  0  0  0
  9 34  1  0  0  0
 11 35  1  0  0  0
 11 36  1  0  0  0
 11 37  1  0  0  0
 12 38  1  0  0  0
 14 39  1  0  0  0
 17 40  1  0  0  0
 20 41  1  0  0  0
 20 42  1  0  0  0
 20 43  1  0  0  0
 22 44  1  0  0  0
 22 45  1  0  0  0
 23 46  1  0  0  0
 24 47  1  0  0  0
 24 48  1  0  0  0
 25 49  1  0  0  0
 25 50  1  0  0  0
 26 51  1  0  0  0
 27 52  1  0  0  0
M  END
$$$$
