1hyo_ligand
  -I-interpret- 

 20 19  0  0  0  0  0  0  0  0999 V2000
   47.4330   44.7450   61.8840 O   0  0  0  0  0
   47.6030   43.5510   62.1160 C   0  0  0  0  0
   47.1170   43.1040   63.1270 O   0  0  0  0  0
   48.3800   42.7230   61.1120 C   0  0  0  0  0
   47.9740   42.9670   59.6700 C   0  0  0  0  0
   48.0730   43.9910   59.0670 O   0  0  0  0  0
   47.3170   41.8060   58.9220 C   0  0  0  0  0
   45.4820   42.0780   58.9770 P   0  0  0  0  0
   45.1150   43.0380   57.9080 O   0  0  0  0  0
   45.1120   42.5280   60.3260 O   0  0  0  0  0
   44.8680   40.5860   58.7290 C   0  0  0  0  0
   47.8652   44.9740   61.0580 H   0  0  0  0  0
   48.1805   41.6743   61.3324 H   0  0  0  0  0
   49.4298   43.0010   61.2051 H   0  0  0  0  0
   47.5765   40.8555   59.3882 H   0  0  0  0  0
   47.6670   41.7693   57.8904 H   0  0  0  0  0
   45.3832   42.6849   57.0565 H   0  0  0  0  0
   45.2747   39.8991   59.4712 H   0  0  0  0  0
   43.7825   40.6213   58.8210 H   0  0  0  0  0
   45.1383   40.2448   57.7297 H   0  0  0  0  0
  2  1  1  0  0  0
  2  4  1  0  0  0
  2  3  2  0  0  0
  4  5  1  0  0  0
  5  7  1  0  0  0
  5  6  2  0  0  0
  7  8  1  0  0  0
  8 11  1  0  0  0
  8 10  2  0  0  0
  8  9  1  0  0  0
  1 12  1  0  0  0
  4 13  1  0  0  0
  4 14  1  0  0  0
  7 15  1  0  0  0
  7 16  1  0  0  0
  9 17  1  0  0  0
 11 18  1  0  0  0
 11 19  1  0  0  0
 11 20  1  0  0  0
M  END
$$$$
