3w69_ligand
  -I-interpret- 

 91 96  0  0  0  0  0  0  0  0999 V2000
  -11.6910    5.1590   -2.7940 Cl  0  0  0  0  0
  -11.9990    4.5860   -4.4470 C   0  0  0  0  0
  -12.1200    3.2220   -4.6540 C   0  0  0  0  0
  -12.3730    2.7630   -5.9290 C   0  0  0  0  0
  -12.1160    5.5140   -5.4860 C   0  0  0  0  0
  -12.3550    5.0490   -6.7700 C   0  0  0  0  0
  -12.5040    3.6720   -6.9930 C   0  0  0  0  0
  -12.7710    3.1690   -8.3860 C   0  0  0  0  0
  -11.6310    2.2120   -8.7560 C   0  0  0  0  0
  -14.1480    2.4720   -8.5720 C   0  0  0  0  0
  -15.0920    3.0560   -7.5640 C   0  0  0  0  0
  -15.5350    2.2850   -6.4800 C   0  0  0  0  0
  -16.3860    2.8330   -5.5200 C   0  0  0  0  0
  -16.7790    4.1510   -5.6370 C   0  0  0  0  0
  -17.8320    4.8800   -4.3920 Cl  0  0  0  0  0
  -16.3380    4.9440   -6.7080 C   0  0  0  0  0
  -15.5090    4.3840   -7.6720 C   0  0  0  0  0
  -14.4140    2.9180   -9.9530 N   0  3  0  0  0
  -15.2530    2.5100  -10.9390 C   0  0  0  0  0
  -16.2440    1.4060  -10.9040 C   0  0  0  0  0
  -17.3920    1.8310  -10.0050 C   0  0  0  0  0
  -15.5670    0.1150  -10.4690 C   0  0  0  0  0
  -12.8170    4.3080   -9.3190 N   0  0  0  0  0
  -13.6590    3.9440  -10.3160 C   0  0  0  0  0
  -13.8860    4.5990  -11.8890 S   0  0  0  0  0
  -15.0940    3.3920  -12.1190 C   0  0  0  0  0
  -15.7730    3.2070  -13.4130 C   0  0  0  0  0
  -15.6370    2.0620  -13.8170 O   0  0  0  0  0
  -16.3900    4.1380  -14.1400 N   0  0  0  0  0
  -16.7310    3.8260  -15.5240 C   0  0  0  0  0
  -17.3430    5.1240  -16.0150 C   0  0  0  0  0
  -17.4330    6.0950  -14.8600 C   0  0  0  0  0
  -16.7320    5.4740  -13.6640 C   0  0  0  0  0
  -17.7610    5.3080  -12.5560 C   0  0  0  0  0
  -17.8470    6.5830  -11.7500 C   0  0  0  0  0
  -15.5270    3.4510  -16.3690 C   0  0  0  0  0
  -14.4050    3.8640  -16.0550 O   0  0  0  0  0
  -15.7380    2.6470  -17.4280 N   0  0  0  0  0
  -17.0530    2.1070  -17.7640 C   0  0  0  0  0
  -17.4550    2.5800  -19.1660 C   0  0  0  0  0
  -17.8150    4.0720  -19.2560 C   0  0  0  0  0
  -16.3780    2.2210  -20.1020 N   0  0  0  0  0
  -16.6900    1.5610  -21.2430 C   0  0  0  0  0
  -18.1440    1.3530  -21.5560 C   0  0  0  0  0
  -15.8330    1.1470  -22.0090 O   0  0  0  0  0
  -15.0270    2.6890  -19.7220 C   0  0  0  0  0
  -14.6650    2.2000  -18.3210 C   0  0  0  0  0
  -12.0170    2.5237   -3.8234 H   0  0  0  0  0
  -12.4716    1.6931   -6.1124 H   0  0  0  0  0
  -12.0212    6.5821   -5.2904 H   0  0  0  0  0
  -12.4268    5.7496   -7.6019 H   0  0  0  0  0
  -11.7885    1.8348   -9.7664 H   0  0  0  0  0
  -10.6814    2.7451   -8.7097 H   0  0  0  0  0
  -11.6158    1.3784   -8.0539 H   0  0  0  0  0
  -14.2199    1.3930   -8.4356 H   0  0  0  0  0
  -15.2116    1.2483   -6.3865 H   0  0  0  0  0
  -16.7372    2.2262   -4.6855 H   0  0  0  0  0
  -16.6427    5.9879   -6.7825 H   0  0  0  0  0
  -15.1815    4.9863   -8.5194 H   0  0  0  0  0
  -16.6569    1.2034  -11.8922 H   0  0  0  0  0
  -17.0128    2.0281   -9.0023 H   0  0  0  0  0
  -17.8501    2.7352  -10.4058 H   0  0  0  0  0
  -18.1341    1.0337   -9.9640 H   0  0  0  0  0
  -14.7752   -0.1344  -11.1754 H   0  0  0  0  0
  -15.1403    0.2472   -9.4747 H   0  0  0  0  0
  -16.3021   -0.6895  -10.4463 H   0  0  0  0  0
  -12.3160    5.1922   -9.2320 H   0  0  0  0  0
  -17.3879    2.9592  -15.5958 H   0  0  0  0  0
  -18.3398    4.9327  -16.4123 H   0  0  0  0  0
  -16.7211    5.5480  -16.8034 H   0  0  0  0  0
  -18.4769    6.2968  -14.6199 H   0  0  0  0  0
  -16.9570    7.0390  -15.1254 H   0  0  0  0  0
  -15.8826    6.0532  -13.3018 H   0  0  0  0  0
  -17.4627    4.4867  -11.9044 H   0  0  0  0  0
  -18.7346    5.0905  -12.9952 H   0  0  0  0  0
  -16.8731    6.8005  -11.3114 H   0  0  0  0  0
  -18.1448    7.4041  -12.4020 H   0  0  0  0  0
  -18.5849    6.4610  -10.9571 H   0  0  0  0  0
  -17.7865    2.4570  -17.0376 H   0  0  0  0  0
  -17.0150    1.0178  -17.7444 H   0  0  0  0  0
  -18.3809    2.0708  -19.4336 H   0  0  0  0  0
  -18.6569    4.2817  -18.5962 H   0  0  0  0  0
  -16.9561    4.6706  -18.9527 H   0  0  0  0  0
  -18.0864    4.3177  -20.2827 H   0  0  0  0  0
  -18.3829    1.8354  -22.5038 H   0  0  0  0  0
  -18.3496    0.2850  -21.6285 H   0  0  0  0  0
  -18.7511    1.7881  -20.7621 H   0  0  0  0  0
  -15.0147    3.7789  -19.7305 H   0  0  0  0  0
  -14.3022    2.2929  -20.4333 H   0  0  0  0  0
  -14.5704    1.1143  -18.3011 H   0  0  0  0  0
  -13.7033    2.6043  -18.0051 H   0  0  0  0  0
  1  2  1  0  0  0
  2  3  4  0  0  0
  2  5  4  0  0  0
  3  4  4  0  0  0
  4  7  4  0  0  0
  5  6  4  0  0  0
  6  7  4  0  0  0
  7  8  1  0  0  0
  8  9  1  0  0  0
  8 10  1  0  0  0
  8 23  1  0  0  0
 10 11  1  0  0  0
 10 18  1  0  0  0
 11 12  4  0  0  0
 11 17  4  0  0  0
 12 13  4  0  0  0
 13 14  4  0  0  0
 14 15  1  0  0  0
 14 16  4  0  0  0
 16 17  4  0  0  0
 18 19  4  0  0  0
 18 24  4  0  0  0
 19 20  1  0  0  0
 19 26  4  0  0  0
 20 21  1  0  0  0
 20 22  1  0  0  0
 23 24  1  0  0  0
 24 25  4  0  0  0
 25 26  4  0  0  0
 26 27  1  0  0  0
 27 28  2  0  0  0
 27 29  1  0  0  0
 29 30  1  0  0  0
 29 33  1  0  0  0
 30 31  1  0  0  0
 30 36  1  0  0  0
 31 32  1  0  0  0
 32 33  1  0  0  0
 33 34  1  0  0  0
 34 35  1  0  0  0
 36 37  2  0  0  0
 36 38  1  0  0  0
 38 39  1  0  0  0
 38 47  1  0  0  0
 39 40  1  0  0  0
 40 41  1  0  0  0
 40 42  1  0  0  0
 42 43  1  0  0  0
 42 46  1  0  0  0
 43 44  1  0  0  0
 43 45  2  0  0  0
 46 47  1  0  0  0
  3 48  1  0  0  0
  4 49  1  0  0  0
  5 50  1  0  0  0
  6 51  1  0  0  0
  9 52  1  0  0  0
  9 53  1  0  0  0
  9 54  1  0  0  0
 10 55  1  0  0  0
 12 56  1  0  0  0
 13 57  1  0  0  0
 16 58  1  0  0  0
 17 59  1  0  0  0
 20 60  1  0  0  0
 21 61  1  0  0  0
 21 62  1  0  0  0
 21 63  1  0  0  0
 22 64  1  0  0  0
 22 65  1  0  0  0
 22 66  1  0  0  0
 23 67  1  0  0  0
 30 68  1  0  0  0
 31 69  1  0  0  0
 31 70  1  0  0  0
 32 71  1  0  0  0
 32 72  1  0  0  0
 33 73  1  0  0  0
 34 74  1  0  0  0
 34 75  1  0  0  0
 35 76  1  0  0  0
 35 77  1  0  0  0
 35 78  1  0  0  0
 39 79  1  0  0  0
 39 80  1  0  0  0
 40 81  1  0  0  0
 41 82  1  0  0  0
 41 83  1  0  0  0
 41 84  1  0  0  0
 44 85  1  0  0  0
 44 86  1  0  0  0
 44 87  1  0  0  0
 46 88  1  0  0  0
 46 89  1  0  0  0
 47 90  1  0  0  0
 47 91  1  0  0  0
M  END
$$$$
