5zef_ligand
  -I-interpret- 

 20 19  0  0  0  0  0  0  0  0999 V2000
   -3.9400  -19.6220   11.7860 N   0  3  0  0  0
   -3.0240  -19.8310   12.9060 C   0  0  0  0  0
   -1.7650  -18.9400   12.7590 C   0  0  0  0  0
   -2.0640  -17.4370   12.6960 C   0  0  0  0  0
   -0.8120  -16.5610   12.7280 C   0  0  0  0  0
   -3.7270  -19.5930   14.2520 C   0  0  0  0  0
   -4.9130  -19.1720   14.1110 O   0  0  0  0  0
   -2.9220  -19.8870   15.1760 O   0  0  0  0  0
   -3.4460  -19.7868   10.9090 H   0  0  0  0  0
   -4.7234  -20.2706   11.8634 H   0  0  0  0  0
   -4.2875  -18.6632   11.8069 H   0  0  0  0  0
   -2.7005  -20.8717   12.8885 H   0  0  0  0  0
   -1.2854  -19.2127   11.8189 H   0  0  0  0  0
   -1.1464  -19.1087   13.6404 H   0  0  0  0  0
   -2.6606  -17.1859   13.5730 H   0  0  0  0  0
   -2.5728  -17.2447   11.7514 H   0  0  0  0  0
   -0.2644  -16.7457   13.6522 H   0  0  0  0  0
   -0.1788  -16.8031   11.8745 H   0  0  0  0  0
   -1.1030  -15.5117   12.6801 H   0  0  0  0  0
   -5.1138  -19.0917   13.1757 H   0  0  0  0  0
  1  2  1  0  0  0
  2  3  1  0  0  0
  2  6  1  0  0  0
  3  4  1  0  0  0
  4  5  1  0  0  0
  6  7  1  0  0  0
  6  8  2  0  0  0
  1  9  1  0  0  0
  1 10  1  0  0  0
  1 11  1  0  0  0
  2 12  1  0  0  0
  3 13  1  0  0  0
  3 14  1  0  0  0
  4 15  1  0  0  0
  4 16  1  0  0  0
  5 17  1  0  0  0
  5 18  1  0  0  0
  5 19  1  0  0  0
  7 20  1  0  0  0
M  END
$$$$
