2gm9_ligand
  -I-interpret- 

 34 37  0  0  0  0  0  0  0  0999 V2000
    8.4090  109.4230   20.0190 Cl  0  0  0  0  0
    9.3650  109.2080   21.4500 C   0  0  0  0  0
    9.0730  109.6900   22.7380 C   0  0  0  0  0
   10.0940  109.2700   23.5910 C   0  0  0  0  0
   10.3880  109.4250   24.9590 C   0  0  0  0  0
   11.6020  108.7310   25.1520 C   0  0  0  0  0
   11.9340  108.2100   23.9010 N   0  0  0  0  0
   11.0330  108.5370   22.9750 C   0  0  0  0  0
   10.8210  108.2610   21.3320 S   0  0  0  0  0
   12.4830  108.4900   26.3220 C   0  0  0  0  0
   13.6500  108.0820   26.1080 O   0  0  0  0  0
   12.0030  108.6990   27.6230 N   0  0  0  0  0
   12.8180  108.4690   28.8370 C   0  0  0  0  0
   12.0530  107.9280   30.0480 C   0  0  0  0  0
   12.9410  107.8980   31.2730 C   0  0  0  0  0
   12.8360  106.8850   32.2470 C   0  0  0  0  0
   13.6900  106.8680   33.3500 C   0  0  0  0  0
   14.6550  107.8770   33.5210 C   0  0  0  0  0
   14.7740  108.9100   32.5790 C   0  0  0  0  0
   13.9190  108.9140   31.4610 C   0  0  0  0  0
   14.0530  109.9110   30.4900 N   0  0  0  0  0
   13.5610  109.7660   29.2100 C   0  0  0  0  0
   13.7340  110.6710   28.4100 O   0  0  0  0  0
    8.2044  110.2853   23.0197 H   0  0  0  0  0
    9.8052  109.9635   25.7063 H   0  0  0  0  0
   11.0438  109.0260   27.7385 H   0  0  0  0  0
   13.5178  107.6755   28.5747 H   0  0  0  0  0
   11.7202  106.9133   29.8295 H   0  0  0  0  0
   11.2016  108.5792   30.2462 H   0  0  0  0  0
   12.0802  106.1072   32.1375 H   0  0  0  0  0
   13.6089  106.0669   34.0847 H   0  0  0  0  0
   15.3134  107.8563   34.3894 H   0  0  0  0  0
   15.5167  109.6968   32.7109 H   0  0  0  0  0
   14.5320  110.7769   30.7374 H   0  0  0  0  0
  1  2  1  0  0  0
  2  3  4  0  0  0
  2  9  4  0  0  0
  3  4  4  0  0  0
  4  5  4  0  0  0
  4  8  4  0  0  0
  5  6  4  0  0  0
  6  7  4  0  0  0
  6 10  1  0  0  0
  7  8  4  0  0  0
  8  9  4  0  0  0
 10 11  2  0  0  0
 10 12  1  0  0  0
 12 13  1  0  0  0
 13 14  1  0  0  0
 13 22  1  0  0  0
 14 15  1  0  0  0
 15 16  4  0  0  0
 15 20  4  0  0  0
 16 17  4  0  0  0
 17 18  4  0  0  0
 18 19  4  0  0  0
 19 20  4  0  0  0
 20 21  1  0  0  0
 21 22  1  0  0  0
 22 23  2  0  0  0
  3 24  1  0  0  0
  5 25  1  0  0  0
 12 26  1  0  0  0
 13 27  1  0  0  0
 14 28  1  0  0  0
 14 29  1  0  0  0
 16 30  1  0  0  0
 17 31  1  0  0  0
 18 32  1  0  0  0
 19 33  1  0  0  0
 21 34  1  0  0  0
M  END
$$$$
