3lq5_ligand
  -I-interpret- 

 61 64  0  0  0  0  0  0  0  0999 V2000
   55.3360  -17.5040  -11.3650 N   0  0  0  0  0
   52.5640  -20.6300  -12.4950 O   0  0  0  0  0
   53.9860  -17.4670  -11.4850 C   0  0  0  0  0
   53.1850  -18.5830  -11.0300 N   0  0  0  0  0
   53.3860  -16.3350  -11.9370 N   0  0  0  0  0
   54.1220  -15.2610  -12.2740 C   0  0  0  0  0
   55.4730  -15.3040  -12.1610 C   0  0  0  0  0
   56.0670  -16.4410  -11.7000 C   0  0  0  0  0
   57.4890  -16.5040  -11.4960 N   0  0  0  0  0
   55.9610  -14.1320  -12.5600 N   0  0  0  0  0
   54.9160  -13.3570  -12.9260 C   0  0  0  0  0
   52.4200  -13.6060  -12.9800 C   0  0  0  0  0
   53.7810  -14.0610  -12.7440 N   0  0  0  0  0
   59.3820  -17.8390  -12.1210 C   0  0  0  0  0
   51.6790  -14.3280  -14.1040 C   0  0  0  0  0
   51.5930  -13.4670  -11.7050 C   0  0  0  0  0
   52.0570  -19.2990  -10.4650 C   0  0  0  0  0
   50.7890  -18.4390  -10.5570 C   0  0  0  0  0
   49.4790  -19.1140  -10.1560 C   0  0  0  0  0
   51.8790  -20.5580  -11.2750 C   0  0  0  0  0
   61.1020  -19.7340  -15.3930 C   0  0  0  0  0
   61.8240  -18.9440  -16.2670 N   0  0  0  0  0
   60.1650  -17.1100  -13.0120 C   0  0  0  0  0
   60.9340  -21.1080  -15.6340 C   0  0  0  0  0
   60.7360  -17.7670  -14.0950 C   0  0  0  0  0
   61.5130  -21.6670  -16.7460 C   0  0  0  0  0
   60.5150  -19.1370  -14.2840 C   0  0  0  0  0
   62.2370  -20.8740  -17.6090 C   0  0  0  0  0
   59.7060  -19.8630  -13.3830 C   0  0  0  0  0
   62.3990  -19.4980  -17.3760 C   0  0  0  0  0
   59.1250  -19.2070  -12.2890 C   0  0  0  0  0
   58.7250  -17.0630  -11.0090 C   0  0  0  0  0
   52.3750  -21.4710  -12.9177 H   0  0  0  0  0
   53.8119  -19.3597  -11.2400 H   0  0  0  0  0
   57.8102  -15.6628  -11.9753 H   0  0  0  0  0
   54.9801  -12.3366  -13.3039 H   0  0  0  0  0
   52.5529  -12.5938  -13.3619 H   0  0  0  0  0
   52.2197  -14.1911  -15.0405 H   0  0  0  0  0
   51.6158  -15.3911  -13.8716 H   0  0  0  0  0
   50.6747  -13.9152  -14.1991 H   0  0  0  0  0
   51.5318  -14.4341  -11.2059 H   0  0  0  0  0
   52.0684  -12.7440  -11.0421 H   0  0  0  0  0
   50.5902  -13.1239  -11.9595 H   0  0  0  0  0
   52.2343  -19.5318   -9.4150 H   0  0  0  0  0
   50.6814  -18.1704  -11.6079 H   0  0  0  0  0
   50.9311  -17.6151   -9.8576 H   0  0  0  0  0
   49.3035  -19.9755  -10.8004 H   0  0  0  0  0
   49.5434  -19.4418   -9.1185 H   0  0  0  0  0
   48.6584  -18.4047  -10.2640 H   0  0  0  0  0
   52.2773  -21.3660  -10.6614 H   0  0  0  0  0
   50.8191  -20.6042  -11.5251 H   0  0  0  0  0
   60.3272  -16.0425  -12.8626 H   0  0  0  0  0
   60.3516  -21.7219  -14.9470 H   0  0  0  0  0
   61.3577  -17.2146  -14.7995 H   0  0  0  0  0
   61.4005  -22.7327  -16.9451 H   0  0  0  0  0
   62.6936  -21.3234  -18.4908 H   0  0  0  0  0
   59.5341  -20.9282  -13.5374 H   0  0  0  0  0
   62.9737  -18.8827  -18.0682 H   0  0  0  0  0
   58.4896  -19.7467  -11.5868 H   0  0  0  0  0
   58.5232  -17.7252  -10.1671 H   0  0  0  0  0
   59.3863  -16.2621  -10.6782 H   0  0  0  0  0
  1  3  4  0  0  0
  8  1  4  0  0  0
 20  2  1  0  0  0
  3  4  1  0  0  0
  3  5  4  0  0  0
  4 17  1  0  0  0
  6  5  4  0  0  0
  7  6  4  0  0  0
  6 13  4  0  0  0
  8  7  4  0  0  0
  7 10  4  0  0  0
  9  8  1  0  0  0
 32  9  1  0  0  0
 10 11  4  0  0  0
 11 13  4  0  0  0
 13 12  1  0  0  0
 12 15  1  0  0  0
 12 16  1  0  0  0
 23 14  4  0  0  0
 14 31  4  0  0  0
 14 32  1  0  0  0
 17 18  1  0  0  0
 17 20  1  0  0  0
 18 19  1  0  0  0
 21 22  4  0  0  0
 21 24  4  0  0  0
 27 21  1  0  0  0
 22 30  4  0  0  0
 25 23  4  0  0  0
 24 26  4  0  0  0
 25 27  4  0  0  0
 26 28  4  0  0  0
 27 29  4  0  0  0
 28 30  4  0  0  0
 29 31  4  0  0  0
  2 33  1  0  0  0
  4 34  1  0  0  0
  9 35  1  0  0  0
 11 36  1  0  0  0
 12 37  1  0  0  0
 15 38  1  0  0  0
 15 39  1  0  0  0
 15 40  1  0  0  0
 16 41  1  0  0  0
 16 42  1  0  0  0
 16 43  1  0  0  0
 17 44  1  0  0  0
 18 45  1  0  0  0
 18 46  1  0  0  0
 19 47  1  0  0  0
 19 48  1  0  0  0
 19 49  1  0  0  0
 20 50  1  0  0  0
 20 51  1  0  0  0
 23 52  1  0  0  0
 24 53  1  0  0  0
 25 54  1  0  0  0
 26 55  1  0  0  0
 28 56  1  0  0  0
 29 57  1  0  0  0
 30 58  1  0  0  0
 31 59  1  0  0  0
 32 60  1  0  0  0
 32 61  1  0  0  0
M  END
$$$$
