5u5h_ligand
  -I-interpret- 

 47 49  0  0  0  0  0  0  0  0999 V2000
   -5.0760    4.9770   21.4120 C   0  0  0  0  0
   -4.0030    4.6080   22.2390 C   0  0  0  0  0
   -2.8750    5.4490   22.2960 C   0  0  0  0  0
   -1.5300    8.1830   24.0100 C   0  0  0  0  0
   -1.2870    9.4180   24.9340 C   0  0  0  0  0
   -1.9420   10.6700   24.3970 C   0  0  0  0  0
   -2.1360   11.8310   25.0610 C   0  0  0  0  0
   -3.0740   11.9030   23.0650 C   0  0  0  0  0
   -1.6900   12.3130   26.4210 C   0  0  0  0  0
   -0.8210   13.5800   26.1960 C   0  0  0  0  0
   -2.9370   12.6280   27.2970 C   0  0  0  0  0
   -3.0150    3.0150   23.8820 C   0  0  0  0  0
   -2.7860    6.6010   21.5030 C   0  0  0  0  0
   -3.8460    6.9180   20.6450 C   0  0  0  0  0
   -4.9970    6.1240   20.6170 C   0  0  0  0  0
   -3.7810    8.0000   19.8740 F   0  0  0  0  0
   -1.4730    7.4190   21.5090 C   0  0  0  0  0
   -2.5790    9.6440   22.2370 C   0  0  0  0  0
   -1.4550    8.6170   22.5230 C   0  0  0  0  0
   -2.5230   10.7410   23.2100 N   0  0  0  0  0
   -2.8690   12.5950   24.0920 N   0  0  0  0  0
   -3.7130   12.3160   22.0150 N   0  0  0  0  0
   -4.1050    3.4810   23.0730 O   0  0  0  0  0
   -5.9773    4.3645   21.3898 H   0  0  0  0  0
   -2.0554    5.1992   22.9698 H   0  0  0  0  0
   -2.5168    7.7680   24.2151 H   0  0  0  0  0
   -0.7655    7.4309   24.2050 H   0  0  0  0  0
   -0.2128    9.5941   24.9894 H   0  0  0  0  0
   -1.7193    9.2012   25.9108 H   0  0  0  0  0
   -1.1076   11.5547   26.9443 H   0  0  0  0  0
    0.0395   13.3238   25.5779 H   0  0  0  0  0
   -1.4162   14.3428   25.6941 H   0  0  0  0  0
   -0.4784   13.9597   27.1586 H   0  0  0  0  0
   -3.5322   13.4031   26.8142 H   0  0  0  0  0
   -3.5371   11.7252   27.4105 H   0  0  0  0  0
   -2.6121   12.9756   28.2777 H   0  0  0  0  0
   -2.1713    2.7602   23.2407 H   0  0  0  0  0
   -2.7197    3.7998   24.5784 H   0  0  0  0  0
   -3.3291    2.1324   24.4391 H   0  0  0  0  0
   -5.8333    6.3999   19.9746 H   0  0  0  0  0
   -1.3582    7.8441   20.5119 H   0  0  0  0  0
   -0.6752    6.7383   21.8062 H   0  0  0  0  0
   -3.5455    9.1462   22.3159 H   0  0  0  0  0
   -2.4450   10.0495   21.2342 H   0  0  0  0  0
   -0.4843    9.0868   22.3646 H   0  0  0  0  0
   -3.8152   11.7029   21.2062 H   0  0  0  0  0
   -4.1134   13.2540   21.9978 H   0  0  0  0  0
  2  1  4  0  0  0
 15  1  4  0  0  0
  3  2  4  0  0  0
  2 23  1  0  0  0
 13  3  4  0  0  0
  4  5  1  0  0  0
 19  4  1  0  0  0
  5  6  1  0  0  0
  6  7  4  0  0  0
  6 20  4  0  0  0
  7  9  1  0  0  0
  7 21  4  0  0  0
 20  8  4  0  0  0
  8 21  4  0  0  0
  8 22  1  0  0  0
  9 10  1  0  0  0
  9 11  1  0  0  0
 23 12  1  0  0  0
 13 14  4  0  0  0
 17 13  1  0  0  0
 14 15  4  0  0  0
 14 16  1  0  0  0
 17 19  1  0  0  0
 19 18  1  0  0  0
 18 20  1  0  0  0
  1 24  1  0  0  0
  3 25  1  0  0  0
  4 26  1  0  0  0
  4 27  1  0  0  0
  5 28  1  0  0  0
  5 29  1  0  0  0
  9 30  1  0  0  0
 10 31  1  0  0  0
 10 32  1  0  0  0
 10 33  1  0  0  0
 11 34  1  0  0  0
 11 35  1  0  0  0
 11 36  1  0  0  0
 12 37  1  0  0  0
 12 38  1  0  0  0
 12 39  1  0  0  0
 15 40  1  0  0  0
 17 41  1  0  0  0
 17 42  1  0  0  0
 18 43  1  0  0  0
 18 44  1  0  0  0
 19 45  1  0  0  0
 22 46  1  0  0  0
 22 47  1  0  0  0
M  END
$$$$
