3tge_ligand
  -I-interpret- 

 67 70  0  0  0  0  0  0  0  0999 V2000
   20.8840  -12.5400   16.9910 C   0  0  0  0  0
   20.8210  -11.5500   18.1050 N   0  3  0  0  0
   19.8020  -14.1890   18.3880 O   0  0  0  0  0
   20.9370  -13.9530   17.6010 C   0  0  0  0  0
   20.1680   -8.8560   12.3830 N   0  0  0  0  0
   13.8060   -3.3740    9.9730 O   0  0  0  0  0
   19.6920  -13.2780   19.4470 C   0  0  0  0  0
   20.3650   -8.2420   15.1820 N   0  0  0  0  0
   21.7320  -10.4940   12.7060 O   0  0  0  0  0
   19.6090  -11.8340   18.9310 C   0  0  0  0  0
   14.6180   -4.1550   11.9200 N   0  0  0  0  0
   20.8750   -7.1760   10.0350 O   0  0  0  0  0
   19.5130   -7.5490   14.3140 C   0  0  0  0  0
   17.8040   -5.8310   14.1370 N   0  0  0  0  0
   19.3930   -7.8240   12.9390 C   0  0  0  0  0
   21.9290   -9.9770   15.4170 N   0  0  0  0  0
   21.0480   -9.5920   13.1840 C   0  0  0  0  0
   21.0790   -9.2180   14.6400 C   0  0  0  0  0
   16.7160   -5.3770   12.0240 C   0  0  0  0  0
   15.5670   -4.8190   12.6100 C   0  0  0  0  0
   14.8320   -4.0330   10.5710 C   0  0  0  0  0
   15.9600   -4.5250    9.9010 C   0  0  0  0  0
   16.9080   -5.1960   10.6560 C   0  0  0  0  0
   18.6930   -6.5270   14.8550 C   0  0  0  0  0
   17.6980   -6.1260   12.8020 C   0  0  0  0  0
   18.4730   -7.0940   12.1730 C   0  0  0  0  0
   13.9260   -3.1390    8.5890 C   0  0  0  0  0
   20.0470   -9.1940   10.9490 C   0  0  0  0  0
   21.1660   -8.5530   10.1100 C   0  0  0  0  0
   21.8690   -6.4590    9.3310 C   0  0  0  0  0
   21.3930   -5.0070    9.2730 C   0  0  0  0  0
   20.2510   -4.8430    8.2870 C   0  0  0  0  0
   22.0340   -9.7480   16.8580 C   0  0  0  0  0
   20.7440  -10.1460   17.6050 C   0  0  0  0  0
   21.7710  -12.3621   16.3829 H   0  0  0  0  0
   20.0056  -12.4411   16.3533 H   0  0  0  0  0
   21.6749  -11.6405   18.6554 H   0  0  0  0  0
   21.8259  -14.0363   18.2264 H   0  0  0  0  0
   20.9686  -14.6863   16.7952 H   0  0  0  0  0
   20.5749  -13.3713   20.0793 H   0  0  0  0  0
   18.7824  -13.5010   20.0047 H   0  0  0  0  0
   18.7110  -11.7080   18.3262 H   0  0  0  0  0
   19.5638  -11.1423   19.7722 H   0  0  0  0  0
   22.4918  -10.7076   14.9811 H   0  0  0  0  0
   15.4352   -4.9296   13.6863 H   0  0  0  0  0
   16.0866   -4.3852    8.8274 H   0  0  0  0  0
   17.8076   -5.5838   10.1780 H   0  0  0  0  0
   18.7923   -6.2952   15.9154 H   0  0  0  0  0
   18.3674   -7.2818   11.1045 H   0  0  0  0  0
   14.8153   -2.5378    8.3996 H   0  0  0  0  0
   14.0117   -4.0915    8.0661 H   0  0  0  0  0
   13.0435   -2.6065    8.2343 H   0  0  0  0  0
   19.0907   -8.8148   10.5887 H   0  0  0  0  0
   20.1213  -10.2766   10.8463 H   0  0  0  0  0
   22.1407   -8.7204   10.5684 H   0  0  0  0  0
   21.2092   -8.9964    9.1152 H   0  0  0  0  0
   22.0093   -6.8653    8.3293 H   0  0  0  0  0
   22.8345   -6.5348    9.8311 H   0  0  0  0  0
   22.2245   -4.3808    8.9497 H   0  0  0  0  0
   21.0424   -4.7159   10.2632 H   0  0  0  0  0
   20.5854   -5.1400    7.2930 H   0  0  0  0  0
   19.4150   -5.4717    8.5934 H   0  0  0  0  0
   19.9353   -3.7999    8.2689 H   0  0  0  0  0
   22.2068   -8.6842   17.0213 H   0  0  0  0  0
   22.8508  -10.3600   17.2407 H   0  0  0  0  0
   20.6163   -9.4795   18.4580 H   0  0  0  0  0
   19.9042  -10.0682   16.9146 H   0  0  0  0  0
  2  1  1  0  0  0
  1  4  1  0  0  0
  2 10  1  0  0  0
 34  2  1  0  0  0
  4  3  1  0  0  0
  7  3  1  0  0  0
  5 15  1  0  0  0
 17  5  1  0  0  0
  5 28  1  0  0  0
 21  6  1  0  0  0
  6 27  1  0  0  0
 10  7  1  0  0  0
  8 13  1  0  0  0
 18  8  2  0  0  0
 17  9  2  0  0  0
 20 11  4  0  0  0
 11 21  4  0  0  0
 29 12  1  0  0  0
 12 30  1  0  0  0
 13 15  4  0  0  0
 13 24  4  0  0  0
 24 14  4  0  0  0
 14 25  4  0  0  0
 15 26  4  0  0  0
 16 18  1  0  0  0
 33 16  1  0  0  0
 18 17  1  0  0  0
 19 20  4  0  0  0
 19 23  4  0  0  0
 25 19  1  0  0  0
 22 21  4  0  0  0
 23 22  4  0  0  0
 26 25  4  0  0  0
 28 29  1  0  0  0
 30 31  1  0  0  0
 31 32  1  0  0  0
 33 34  1  0  0  0
  1 35  1  0  0  0
  1 36  1  0  0  0
  2 37  1  0  0  0
  4 38  1  0  0  0
  4 39  1  0  0  0
  7 40  1  0  0  0
  7 41  1  0  0  0
 10 42  1  0  0  0
 10 43  1  0  0  0
 16 44  1  0  0  0
 20 45  1  0  0  0
 22 46  1  0  0  0
 23 47  1  0  0  0
 24 48  1  0  0  0
 26 49  1  0  0  0
 27 50  1  0  0  0
 27 51  1  0  0  0
 27 52  1  0  0  0
 28 53  1  0  0  0
 28 54  1  0  0  0
 29 55  1  0  0  0
 29 56  1  0  0  0
 30 57  1  0  0  0
 30 58  1  0  0  0
 31 59  1  0  0  0
 31 60  1  0  0  0
 32 61  1  0  0  0
 32 62  1  0  0  0
 32 63  1  0  0  0
 33 64  1  0  0  0
 33 65  1  0  0  0
 34 66  1  0  0  0
 34 67  1  0  0  0
M  END
$$$$
