6f94_ligand
  -I-interpret- 

 55 57  0  0  0  0  0  0  0  0999 V2000
   59.2820   22.8480   61.4970 C   0  0  0  0  0
   60.1280   23.9440   61.2950 C   0  0  0  0  0
   60.2770   24.9090   62.2940 C   0  0  0  0  0
   60.8280   24.0850   60.0980 C   0  0  0  0  0
   61.6690   25.1850   59.9170 C   0  0  0  0  0
   61.8230   26.1440   60.9240 C   0  0  0  0  0
   61.1030   26.0410   62.1320 C   0  0  0  0  0
   61.1520   26.8590   63.2170 N   0  0  0  0  0
   61.4860   28.1850   63.2960 C   0  0  0  0  0
   61.9350   29.0170   62.2480 C   0  0  0  0  0
   62.2600   30.3710   62.4610 C   0  0  0  0  0
   62.7020   31.2710   61.5620 N   0  0  0  0  0
   63.4270   30.9490   60.4620 C   0  0  0  0  0
   63.6590   29.7930   60.1170 O   0  0  0  0  0
   63.8630   31.9990   59.7340 N   0  0  0  0  0
   64.6500   31.8780   58.4930 C   0  0  0  0  0
   65.7730   32.9190   58.5040 C   0  0  0  0  0
   62.1510   30.8760   63.6940 N   0  0  0  0  0
   61.7210   30.1070   64.7610 C   0  0  0  0  0
   61.3970   28.7530   64.6070 C   0  0  0  0  0
   60.9340   28.0440   65.7380 C   0  0  0  0  0
   60.0710   27.1820   65.5840 O   0  0  0  0  0
   61.3930   28.4030   66.9660 N   0  0  0  0  0
   60.9090   27.7900   68.0550 C   0  0  0  0  0
   61.7700   27.1080   68.9090 C   0  0  0  0  0
   61.2540   26.4880   70.0480 C   0  0  0  0  0
   62.0980   25.7790   70.8950 C   0  0  0  0  0
   59.8850   26.5530   70.3450 C   0  0  0  0  0
   59.0210   27.2420   69.4990 C   0  0  0  0  0
   59.5430   27.8650   68.3640 C   0  0  0  0  0
   59.6254   22.2800   62.3616 H   0  0  0  0  0
   58.2664   23.2023   61.6735 H   0  0  0  0  0
   59.2974   22.2109   60.6127 H   0  0  0  0  0
   59.7359   24.7828   63.2318 H   0  0  0  0  0
   60.7197   23.3415   59.3083 H   0  0  0  0  0
   62.2125   25.2979   58.9790 H   0  0  0  0  0
   62.5067   26.9794   60.7732 H   0  0  0  0  0
   60.9031   26.4201   64.1035 H   0  0  0  0  0
   62.0330   28.6001   61.2457 H   0  0  0  0  0
   62.4781   32.2539   61.7177 H   0  0  0  0  0
   63.6332   32.9365   60.0637 H   0  0  0  0  0
   64.0032   32.0474   57.6322 H   0  0  0  0  0
   65.0793   30.8782   58.4286 H   0  0  0  0  0
   65.3405   33.9175   58.5672 H   0  0  0  0  0
   66.4185   32.7461   59.3651 H   0  0  0  0  0
   66.3565   32.8318   57.5875 H   0  0  0  0  0
   61.6322   30.5662   65.7456 H   0  0  0  0  0
   62.0998   29.1327   67.0579 H   0  0  0  0  0
   62.8368   27.0584   68.6907 H   0  0  0  0  0
   62.5675   24.9661   70.3410 H   0  0  0  0  0
   62.8666   26.4475   71.2829 H   0  0  0  0  0
   61.5194   25.3694   71.7230 H   0  0  0  0  0
   59.4975   26.0638   71.2387 H   0  0  0  0  0
   57.9547   27.2943   69.7189 H   0  0  0  0  0
   58.8759   28.4206   67.7050 H   0  0  0  0  0
  1  2  1  0  0  0
  2  3  4  0  0  0
  2  4  4  0  0  0
  3  7  4  0  0  0
  4  5  4  0  0  0
  5  6  4  0  0  0
  6  7  4  0  0  0
  7  8  1  0  0  0
  8  9  1  0  0  0
  9 10  4  0  0  0
  9 20  4  0  0  0
 10 11  4  0  0  0
 11 12  1  0  0  0
 11 18  4  0  0  0
 12 13  1  0  0  0
 13 14  2  0  0  0
 13 15  1  0  0  0
 15 16  1  0  0  0
 16 17  1  0  0  0
 18 19  4  0  0  0
 19 20  4  0  0  0
 20 21  1  0  0  0
 21 22  2  0  0  0
 21 23  1  0  0  0
 23 24  1  0  0  0
 24 25  4  0  0  0
 24 30  4  0  0  0
 25 26  4  0  0  0
 26 27  1  0  0  0
 26 28  4  0  0  0
 28 29  4  0  0  0
 29 30  4  0  0  0
  1 31  1  0  0  0
  1 32  1  0  0  0
  1 33  1  0  0  0
  3 34  1  0  0  0
  4 35  1  0  0  0
  5 36  1  0  0  0
  6 37  1  0  0  0
  8 38  1  0  0  0
 10 39  1  0  0  0
 12 40  1  0  0  0
 15 41  1  0  0  0
 16 42  1  0  0  0
 16 43  1  0  0  0
 17 44  1  0  0  0
 17 45  1  0  0  0
 17 46  1  0  0  0
 19 47  1  0  0  0
 23 48  1  0  0  0
 25 49  1  0  0  0
 27 50  1  0  0  0
 27 51  1  0  0  0
 27 52  1  0  0  0
 28 53  1  0  0  0
 29 54  1  0  0  0
 30 55  1  0  0  0
M  END
$$$$
