1qq9_ligand
  -I-interpret- 

 21 20  0  0  0  0  0  0  0  0999 V2000
   16.1610   15.7560   51.9030 N   0  3  0  0  0
   15.0840   16.7390   51.5960 C   0  0  0  0  0
   13.8460   15.9300   51.3670 C   0  0  0  0  0
   12.7950   16.5100   51.4240 O   0  0  0  0  0
   15.4010   17.5300   50.3170 C   0  0  0  0  0
   16.1830   18.8460   50.5020 C   0  0  0  0  0
   17.8520   18.6530   51.0630 S   0  0  0  0  0
   18.6140   17.8140   49.5560 C   0  0  0  0  0
   13.8650   14.7210   51.1540 O   0  0  0  0  0
   15.9231   15.2477   52.7547 H   0  0  0  0  0
   16.2514   15.0993   51.1278 H   0  0  0  0  0
   17.0432   16.2505   52.0359 H   0  0  0  0  0
   14.9776   17.4556   52.4104 H   0  0  0  0  0
   14.4390   17.8072   49.8859 H   0  0  0  0  0
   16.0350   16.8835   49.7102 H   0  0  0  0  0
   15.6584   19.4188   51.2667 H   0  0  0  0  0
   16.2334   19.3223   49.5228 H   0  0  0  0  0
   18.0992   16.8720   49.3671 H   0  0  0  0  0
   18.5117   18.4658   48.6884 H   0  0  0  0  0
   19.6701   17.6210   49.7445 H   0  0  0  0  0
   14.7745   14.4141   51.1392 H   0  0  0  0  0
  2  3  1  0  0  0
  2  5  1  0  0  0
  2  1  1  0  0  0
  5  6  1  0  0  0
  6  7  1  0  0  0
  7  8  1  0  0  0
  3  9  1  0  0  0
  3  4  2  0  0  0
  1 10  1  0  0  0
  1 11  1  0  0  0
  1 12  1  0  0  0
  2 13  1  0  0  0
  5 14  1  0  0  0
  5 15  1  0  0  0
  6 16  1  0  0  0
  6 17  1  0  0  0
  8 18  1  0  0  0
  8 19  1  0  0  0
  8 20  1  0  0  0
  9 21  1  0  0  0
M  END
$$$$
