### 
### Created by X-TOOL on Sun Sep  9 21:51:09 2018
### 

@<TRIPOS>MOLECULE
3c14_ligand
    9     8     1     0     0
SMALL
GAST_HUCK


@<TRIPOS>ATOM
      1 P1          0.7510    7.4390  -24.8520 P.3       1 NON         0.2382
      2 O1          0.6060    8.0710  -23.4820 O.co2     1 NON        -0.5497
      3 O2          0.2110    8.3580  -25.9240 O.co2     1 NON        -0.5497
      4 O3          2.2130    7.1820  -25.1230 O.co2     1 NON        -0.5497
      5 O          -0.0270    6.0260  -24.8890 O.3       1 NON        -0.1780
      6 P2         -1.4480    5.8080  -24.1590 P.3       1 NON         0.2382
      7 O4         -2.2720    4.8860  -25.0220 O.co2     1 NON        -0.5497
      8 O5         -1.2520    5.1800  -22.7930 O.co2     1 NON        -0.5497
      9 O6         -2.1770    7.1250  -24.0170 O.co2     1 NON        -0.5497
@<TRIPOS>BOND
     1    1    2 ar 
     2    1    3 ar 
     3    1    4 ar 
     4    1    5 1  
     5    5    6 1  
     6    6    7 ar 
     7    6    8 ar 
     8    6    9 ar 
@<TRIPOS>SUBSTRUCTURE
     1 NON         1

