### 
### Created by X-TOOL on Mon Sep 10 21:13:05 2018
### 

@<TRIPOS>MOLECULE
3uvl_ligand
  126   126     1     0     0
SMALL
GAST_HUCK


@<TRIPOS>ATOM
      1 N          -5.6210   32.1770    6.5890 N.4       1 GLY         0.2357
      2 CA         -5.9730   33.3030    5.7370 C.3       1 GLY         0.0545
      3 C          -6.9970   32.9530    4.6770 C.2       1 GLY         0.2237
      4 O          -7.6430   33.8450    4.1350 O.2       1 GLY        -0.3910
      5 N          -7.1750   31.6600    4.3860 N.am      1 SER        -0.2591
      6 CA         -8.1560   31.2170    3.4000 C.3       1 SER         0.1540
      7 C          -9.0370   30.1400    4.0160 C.2       1 SER         0.2062
      8 O          -8.5050   29.1980    4.6070 O.2       1 SER        -0.3943
      9 CB         -7.4580   30.7580    2.1180 C.3       1 SER         0.0843
     10 OG         -8.1330   29.7200    1.4340 O.3       1 SER        -0.3903
     11 N         -10.3810   30.2720    3.8870 N.am      1 ALA        -0.2639
     12 CA        -11.3300   29.3050    4.4820 C.3       1 ALA         0.1282
     13 C         -11.1150   27.8710    4.0200 C.2       1 ALA         0.2036
     14 O         -11.2010   26.9520    4.8310 O.2       1 ALA        -0.3944
     15 CB        -12.7870   29.7300    4.2480 C.3       1 ALA        -0.0244
     16 N         -10.7980   27.6770    2.7430 N.am      1 ARG        -0.2637
     17 CA        -10.6020   26.3230    2.2120 C.3       1 ARG         0.1311
     18 C          -9.3920   25.5960    2.8190 C.2       1 ARG         0.2039
     19 O          -9.3860   24.3650    2.8740 O.2       1 ARG        -0.3944
     20 CB        -10.5080   26.3590    0.6790 C.3       1 ARG        -0.0092
     21 CG        -10.6610   24.9860    0.0340 C.3       1 ARG        -0.0156
     22 CD        -10.4650   25.0210   -1.4630 C.3       1 ARG         0.0627
     23 NE        -11.5260   25.7590   -2.1550 N.pl3     1 ARG        -0.2723
     24 CZ        -12.6120   25.2010   -2.6760 C.cat     1 ARG         0.2882
     25 NH1       -12.7980   23.8870   -2.5900 N.pl3     1 ARG        -0.2849
     26 NH2       -13.4970   25.9430   -3.3310 N.pl3     1 ARG        -0.2849
     27 N          -8.3770   26.3610    3.2560 N.am      1 ALA        -0.2640
     28 CA         -7.1340   25.8510    3.8280 C.3       1 ALA         0.1282
     29 C          -7.2860   25.4550    5.2960 C.2       1 ALA         0.2036
     30 O          -6.3570   24.8760    5.8610 O.2       1 ALA        -0.3944
     31 CB         -6.0250   26.8890    3.6660 C.3       1 ALA        -0.0244
     32 N          -8.4650   25.7570    5.9020 N.am      1 GLU        -0.2636
     33 CA         -8.8090   25.4650    7.3000 C.3       1 GLU         0.1327
     34 C          -9.7500   24.2540    7.3710 C.2       1 GLU         0.2065
     35 O         -10.6720   24.1650    6.5460 O.2       1 GLU        -0.3942
     36 CB         -9.4730   26.6830    7.9770 C.3       1 GLU        -0.0008
     37 CG         -8.7080   27.9910    7.8530 C.3       1 GLU         0.0044
     38 CD         -7.3230   28.0530    8.4650 C.2       1 GLU         0.0350
     39 OE1        -7.0070   27.2110    9.3380 O.co2     1 GLU        -0.5690
     40 OE2        -6.5520   28.9580    8.0710 O.co2     1 GLU        -0.5690
     41 N          -9.5350   23.3150    8.3310 N.am      1 PRO        -0.2498
     42 CA        -10.3880   22.1190    8.3940 C.3       1 PRO         0.1338
     43 C         -11.7730   22.3980    8.9720 C.2       1 PRO         0.2041
     44 O         -11.9550   23.3730    9.7080 O.2       1 PRO        -0.3944
     45 CB         -9.5970   21.1820    9.3170 C.3       1 PRO        -0.0104
     46 CG         -8.8740   22.0880   10.2200 C.3       1 PRO        -0.0281
     47 CD         -8.4910   23.2730    9.3780 C.3       1 PRO         0.0369
     48 N         -12.7470   21.5360    8.6430 N.am      1 LYS        -0.2637
     49 CA        -14.0840   21.6970    9.2060 C.3       1 LYS         0.1309
     50 C         -14.0190   21.1140   10.6170 C.2       1 LYS         0.2033
     51 O         -13.8590   19.9040   10.7710 O.2       1 LYS        -0.3944
     52 CB        -15.1550   21.0060    8.3490 C.3       1 LYS        -0.0122
     53 CG        -16.5500   21.5030    8.6760 C.3       1 LYS        -0.0440
     54 CD        -17.6110   20.8460    7.8040 C.3       1 LYS        -0.0124
     55 CE        -19.0070   20.9710    8.3910 C.3       1 LYS        -0.0354
     56 NZ        -19.1050   20.3760    9.7550 N.4       1 LYS         0.2185
     57 N         -14.0160   21.9980   11.6280 N.am      1 MET        -0.2698
     58 CA        -13.9350   21.6320   13.0420 C.3       1 MET         0.0916
     59 C         -15.3120   21.2900   13.5950 C.2       1 MET         0.0598
     60 O         -15.9240   20.3240   13.1470 O.co2     1 MET        -0.5666
     61 CB        -13.2920   22.7640   13.8560 C.3       1 MET        -0.0300
     62 H          -4.9312   32.4763    7.2782 H         1 GLY         0.2012
     63 H          -6.4566   31.8395    7.0669 H         1 GLY         0.2012
     64 H          -5.2294   31.4288    6.0170 H         1 GLY         0.2012
     65 H          -5.0662   33.6263    5.2259 H         1 GLY         0.1061
     66 H          -6.4067   34.0750    6.3727 H         1 GLY         0.1061
     67 H          -6.6081   30.9621    4.8676 H         1 SER         0.1885
     68 H          -8.8029   32.0465    3.1144 H         1 SER         0.0823
     69 H          -6.4789   30.3732    2.4035 H         1 SER         0.0606
     70 H          -7.4197   31.6157    1.4464 H         1 SER         0.0606
     71 H          -9.0111   30.0192    1.1871 H         1 SER         0.2097
     72 H         -10.7500   31.0648    3.3620 H         1 ALA         0.1883
     73 H         -11.1228   29.3200    5.5520 H         1 ALA         0.0797
     74 H         -12.9570   30.7058    4.7030 H         1 ALA         0.0277
     75 H         -12.9794   29.7887    3.1767 H         1 ALA         0.0277
     76 H         -13.4551   28.9961    4.6988 H         1 ALA         0.0277
     77 H         -10.6896   28.4805    2.1241 H         1 ARG         0.1883
     78 H         -11.4772   25.7442    2.5070 H         1 ARG         0.0800
     79 H          -9.5198   26.7377    0.4180 H         1 ARG         0.0313
     80 H         -11.3201   26.9874    0.3135 H         1 ARG         0.0313
     81 H         -11.6737   24.6344    0.2311 H         1 ARG         0.0301
     82 H          -9.8991   24.3308    0.4563 H         1 ARG         0.0301
     83 H         -10.4798   23.9936   -1.8267 H         1 ARG         0.0689
     84 H          -9.5199   25.5250   -1.6653 H         1 ARG         0.0689
     85 H         -11.4227   26.7700   -2.2421 H         1 ARG         0.2642
     86 H         -12.1046   23.3033   -2.1222 H         1 ARG         0.2615
     87 H         -13.6341   23.4629   -2.9919 H         1 ARG         0.2615
     88 H         -13.3438   26.9460   -3.4355 H         1 ARG         0.2615
     89 H         -14.3301   25.5100   -3.7297 H         1 ARG         0.2615
     90 H          -8.4828   27.3728    3.1827 H         1 ALA         0.1883
     91 H          -6.8694   24.9449    3.2830 H         1 ALA         0.0797
     92 H          -5.8759   27.0972    2.6065 H         1 ALA         0.0277
     93 H          -6.3096   27.8064    4.1813 H         1 ALA         0.0277
     94 H          -5.1009   26.5015    4.0950 H         1 ALA         0.0277
     95 H          -9.1721   26.2272    5.3369 H         1 GLU         0.1883
     96 H          -7.8857   25.2378    7.8329 H         1 GLU         0.0801
     97 H          -9.5321   26.4552    9.0413 H         1 GLU         0.0330
     98 H         -10.4312   26.8331    7.4797 H         1 GLU         0.0330
     99 H          -9.3005   28.7295    8.3931 H         1 GLU         0.0433
    100 H          -8.5632   28.1457    6.7838 H         1 GLU         0.0433
    101 H         -10.5870   21.7112    7.4030 H         1 PRO         0.0802
    102 H          -8.9218   20.5317    8.7608 H         1 PRO         0.0313
    103 H         -10.2468   20.4947    9.8588 H         1 PRO         0.0313
    104 H          -7.9976   21.6053   10.6524 H         1 PRO         0.0287
    105 H          -9.4918   22.3836   11.0680 H         1 PRO         0.0287
    106 H          -8.4464   24.1958    9.9565 H         1 PRO         0.0524
    107 H          -7.4885   23.1785    8.9605 H         1 PRO         0.0524
    108 H         -12.5533   20.7685    7.9997 H         1 LYS         0.1883
    109 H         -14.3753   22.7471    9.2287 H         1 LYS         0.0800
    110 H         -15.1173   19.9359    8.5530 H         1 LYS         0.0312
    111 H         -14.9501   21.2285    7.3018 H         1 LYS         0.0312
    112 H         -16.5791   22.5775    8.4955 H         1 LYS         0.0269
    113 H         -16.7639   21.2561    9.7159 H         1 LYS         0.0269
    114 H         -17.3727   19.7852    7.7268 H         1 LYS         0.0317
    115 H         -17.6075   21.3468    6.8359 H         1 LYS         0.0317
    116 H         -19.6965   20.4351    7.7387 H         1 LYS         0.0813
    117 H         -19.2472   22.0315    8.4674 H         1 LYS         0.0813
    118 H         -20.0571   20.4845   10.1044 H         1 LYS         0.1994
    119 H         -18.8690   19.3847    9.7100 H         1 LYS         0.1994
    120 H         -18.4557   20.8533   10.3803 H         1 LYS         0.1994
    121 H         -14.0740   22.9893   11.3947 H         1 MET         0.1875
    122 H         -13.3065   20.7455   13.1272 H         1 MET         0.0723
    123 O         -15.8209   21.9944   14.5074 O.co2     1 MET        -0.5666
    124 H         -12.2862   22.9534   13.4810 H         1 MET         0.0270
    125 H         -13.8939   23.6675   13.7579 H         1 MET         0.0270
    126 H         -13.2411   22.4719   14.9049 H         1 MET         0.0270
@<TRIPOS>BOND
     1    1    2 1  
     2    2    3 1  
     3    3    4 2  
     4    3    5 am 
     5    5    6 1  
     6    6    7 1  
     7    6    9 1  
     8    7    8 2  
     9    7   11 am 
    10    9   10 1  
    11   11   12 1  
    12   12   13 1  
    13   12   15 1  
    14   13   14 2  
    15   13   16 am 
    16   16   17 1  
    17   17   18 1  
    18   17   20 1  
    19   18   19 2  
    20   18   27 am 
    21   20   21 1  
    22   21   22 1  
    23   22   23 1  
    24   23   24 ar 
    25   24   25 ar 
    26   24   26 ar 
    27   27   28 1  
    28   28   29 1  
    29   28   31 1  
    30   29   30 2  
    31   29   32 am 
    32   32   33 1  
    33   33   34 1  
    34   33   36 1  
    35   34   35 2  
    36   34   41 am 
    37   36   37 1  
    38   37   38 1  
    39   38   39 ar 
    40   38   40 ar 
    41   41   42 1  
    42   41   47 1  
    43   42   43 1  
    44   42   45 1  
    45   43   44 2  
    46   43   48 am 
    47   45   46 1  
    48   46   47 1  
    49   48   49 1  
    50   49   50 1  
    51   49   52 1  
    52   50   51 2  
    53   50   57 am 
    54   52   53 1  
    55   53   54 1  
    56   54   55 1  
    57   55   56 1  
    58   57   58 1  
    59   58   59 1  
    60   58   61 1  
    61   59   60 ar 
    62    1   62 1  
    63    1   63 1  
    64    1   64 1  
    65    2   65 1  
    66    2   66 1  
    67    5   67 1  
    68    6   68 1  
    69    9   69 1  
    70    9   70 1  
    71   10   71 1  
    72   11   72 1  
    73   12   73 1  
    74   15   74 1  
    75   15   75 1  
    76   15   76 1  
    77   16   77 1  
    78   17   78 1  
    79   20   79 1  
    80   20   80 1  
    81   21   81 1  
    82   21   82 1  
    83   22   83 1  
    84   22   84 1  
    85   23   85 1  
    86   25   86 1  
    87   25   87 1  
    88   26   88 1  
    89   26   89 1  
    90   27   90 1  
    91   28   91 1  
    92   31   92 1  
    93   31   93 1  
    94   31   94 1  
    95   32   95 1  
    96   33   96 1  
    97   36   97 1  
    98   36   98 1  
    99   37   99 1  
   100   37  100 1  
   101   42  101 1  
   102   45  102 1  
   103   45  103 1  
   104   46  104 1  
   105   46  105 1  
   106   47  106 1  
   107   47  107 1  
   108   48  108 1  
   109   49  109 1  
   110   52  110 1  
   111   52  111 1  
   112   53  112 1  
   113   53  113 1  
   114   54  114 1  
   115   54  115 1  
   116   55  116 1  
   117   55  117 1  
   118   56  118 1  
   119   56  119 1  
   120   56  120 1  
   121   57  121 1  
   122   58  122 1  
   123   59  123 ar 
   124   61  124 1  
   125   61  125 1  
   126   61  126 1  
@<TRIPOS>SUBSTRUCTURE
     1 GLY         1

