3uvl_ligand
  -I-interpret- 

127127  0  0  0  0  0  0  0  0999 V2000
   -5.6210   32.1770    6.5890 N   0  3  0  0  0
   -5.9730   33.3030    5.7370 C   0  0  0  0  0
   -6.9970   32.9530    4.6770 C   0  0  0  0  0
   -7.6430   33.8450    4.1350 O   0  0  0  0  0
   -7.1750   31.6600    4.3860 N   0  0  0  0  0
   -8.1560   31.2170    3.4000 C   0  0  0  0  0
   -9.0370   30.1400    4.0160 C   0  0  0  0  0
   -8.5050   29.1980    4.6070 O   0  0  0  0  0
   -7.4580   30.7580    2.1180 C   0  0  0  0  0
   -8.1330   29.7200    1.4340 O   0  0  0  0  0
  -10.3810   30.2720    3.8870 N   0  0  0  0  0
  -11.3300   29.3050    4.4820 C   0  0  0  0  0
  -11.1150   27.8710    4.0200 C   0  0  0  0  0
  -11.2010   26.9520    4.8310 O   0  0  0  0  0
  -12.7870   29.7300    4.2480 C   0  0  0  0  0
  -10.7980   27.6770    2.7430 N   0  0  0  0  0
  -10.6020   26.3230    2.2120 C   0  0  0  0  0
   -9.3920   25.5960    2.8190 C   0  0  0  0  0
   -9.3860   24.3650    2.8740 O   0  0  0  0  0
  -10.5080   26.3590    0.6790 C   0  0  0  0  0
  -10.6610   24.9860    0.0340 C   0  0  0  0  0
  -10.4650   25.0210   -1.4630 C   0  0  0  0  0
  -11.5260   25.7590   -2.1550 N   0  0  0  0  0
  -12.6120   25.2010   -2.6760 C   0  0  0  0  0
  -12.7980   23.8870   -2.5900 N   0  0  0  0  0
  -13.4970   25.9430   -3.3310 N   0  0  0  0  0
   -8.3770   26.3610    3.2560 N   0  0  0  0  0
   -7.1340   25.8510    3.8280 C   0  0  0  0  0
   -7.2860   25.4550    5.2960 C   0  0  0  0  0
   -6.3570   24.8760    5.8610 O   0  0  0  0  0
   -6.0250   26.8890    3.6660 C   0  0  0  0  0
   -8.4650   25.7570    5.9020 N   0  0  0  0  0
   -8.8090   25.4650    7.3000 C   0  0  0  0  0
   -9.7500   24.2540    7.3710 C   0  0  0  0  0
  -10.6720   24.1650    6.5460 O   0  0  0  0  0
   -9.4730   26.6830    7.9770 C   0  0  0  0  0
   -8.7080   27.9910    7.8530 C   0  0  0  0  0
   -7.3230   28.0530    8.4650 C   0  0  0  0  0
   -7.0070   27.2110    9.3380 O   0  0  0  0  0
   -6.5520   28.9580    8.0710 O   0  0  0  0  0
   -9.5350   23.3150    8.3310 N   0  0  0  0  0
  -10.3880   22.1190    8.3940 C   0  0  0  0  0
  -11.7730   22.3980    8.9720 C   0  0  0  0  0
  -11.9550   23.3730    9.7080 O   0  0  0  0  0
   -9.5970   21.1820    9.3170 C   0  0  0  0  0
   -8.8740   22.0880   10.2200 C   0  0  0  0  0
   -8.4910   23.2730    9.3780 C   0  0  0  0  0
  -12.7470   21.5360    8.6430 N   0  0  0  0  0
  -14.0840   21.6970    9.2060 C   0  0  0  0  0
  -14.0190   21.1140   10.6170 C   0  0  0  0  0
  -13.8590   19.9040   10.7710 O   0  0  0  0  0
  -15.1550   21.0060    8.3490 C   0  0  0  0  0
  -16.5500   21.5030    8.6760 C   0  0  0  0  0
  -17.6110   20.8460    7.8040 C   0  0  0  0  0
  -19.0070   20.9710    8.3910 C   0  0  0  0  0
  -19.1050   20.3760    9.7550 N   0  3  0  0  0
  -14.0160   21.9980   11.6280 N   0  0  0  0  0
  -13.9350   21.6320   13.0420 C   0  0  0  0  0
  -15.3120   21.2900   13.5950 C   0  0  0  0  0
  -15.9240   20.3240   13.1470 O   0  0  0  0  0
  -13.2920   22.7640   13.8560 C   0  0  0  0  0
  -15.8209   21.9944   14.5074 O   0  0  0  0  0
   -4.9312   32.4763    7.2782 H   0  0  0  0  0
   -6.4566   31.8395    7.0669 H   0  0  0  0  0
   -5.2294   31.4288    6.0170 H   0  0  0  0  0
   -5.0662   33.6263    5.2259 H   0  0  0  0  0
   -6.4067   34.0750    6.3727 H   0  0  0  0  0
   -6.6081   30.9621    4.8676 H   0  0  0  0  0
   -8.8029   32.0465    3.1144 H   0  0  0  0  0
   -6.4789   30.3732    2.4035 H   0  0  0  0  0
   -7.4197   31.6157    1.4464 H   0  0  0  0  0
   -7.6400   29.4851    0.6445 H   0  0  0  0  0
  -10.7500   31.0648    3.3620 H   0  0  0  0  0
  -11.1228   29.3200    5.5520 H   0  0  0  0  0
  -12.9570   30.7058    4.7030 H   0  0  0  0  0
  -12.9794   29.7887    3.1767 H   0  0  0  0  0
  -13.4551   28.9961    4.6988 H   0  0  0  0  0
  -10.6896   28.4805    2.1241 H   0  0  0  0  0
  -11.4772   25.7442    2.5070 H   0  0  0  0  0
   -9.5198   26.7377    0.4180 H   0  0  0  0  0
  -11.3201   26.9874    0.3135 H   0  0  0  0  0
  -11.6737   24.6344    0.2311 H   0  0  0  0  0
   -9.8991   24.3308    0.4563 H   0  0  0  0  0
  -10.4798   23.9936   -1.8267 H   0  0  0  0  0
   -9.5199   25.5250   -1.6653 H   0  0  0  0  0
  -11.4227   26.7700   -2.2421 H   0  0  0  0  0
  -13.6148   23.4580   -3.0250 H   0  0  0  0  0
  -12.1239   23.3082   -2.0890 H   0  0  0  0  0
  -13.3438   26.9460   -3.4355 H   0  0  0  0  0
   -8.4828   27.3728    3.1827 H   0  0  0  0  0
   -6.8694   24.9449    3.2830 H   0  0  0  0  0
   -5.8759   27.0972    2.6065 H   0  0  0  0  0
   -6.3096   27.8064    4.1813 H   0  0  0  0  0
   -5.1009   26.5015    4.0950 H   0  0  0  0  0
   -9.1721   26.2272    5.3369 H   0  0  0  0  0
   -7.8857   25.2378    7.8329 H   0  0  0  0  0
   -9.5321   26.4552    9.0413 H   0  0  0  0  0
  -10.4312   26.8331    7.4797 H   0  0  0  0  0
   -9.3005   28.7295    8.3931 H   0  0  0  0  0
   -8.5632   28.1457    6.7838 H   0  0  0  0  0
   -7.7437   26.6137    9.4864 H   0  0  0  0  0
  -10.5870   21.7112    7.4030 H   0  0  0  0  0
   -8.9218   20.5317    8.7608 H   0  0  0  0  0
  -10.2468   20.4947    9.8588 H   0  0  0  0  0
   -7.9976   21.6053   10.6524 H   0  0  0  0  0
   -9.4918   22.3836   11.0680 H   0  0  0  0  0
   -8.4464   24.1958    9.9565 H   0  0  0  0  0
   -7.4885   23.1785    8.9605 H   0  0  0  0  0
  -12.5533   20.7685    7.9997 H   0  0  0  0  0
  -14.3753   22.7471    9.2287 H   0  0  0  0  0
  -15.1173   19.9359    8.5530 H   0  0  0  0  0
  -14.9501   21.2285    7.3018 H   0  0  0  0  0
  -16.5791   22.5775    8.4955 H   0  0  0  0  0
  -16.7639   21.2561    9.7159 H   0  0  0  0  0
  -17.3727   19.7852    7.7268 H   0  0  0  0  0
  -17.6075   21.3468    6.8359 H   0  0  0  0  0
  -19.6965   20.4351    7.7387 H   0  0  0  0  0
  -19.2472   22.0315    8.4674 H   0  0  0  0  0
  -20.0571   20.4845   10.1044 H   0  0  0  0  0
  -18.8690   19.3847    9.7100 H   0  0  0  0  0
  -18.4557   20.8533   10.3803 H   0  0  0  0  0
  -14.0740   22.9893   11.3947 H   0  0  0  0  0
  -13.3065   20.7455   13.1272 H   0  0  0  0  0
  -12.2862   22.9534   13.4810 H   0  0  0  0  0
  -13.8939   23.6675   13.7579 H   0  0  0  0  0
  -13.2411   22.4719   14.9049 H   0  0  0  0  0
  -15.2152   22.7022   14.7392 H   0  0  0  0  0
  1  2  1  0  0  0
  2  3  1  0  0  0
  3  4  2  0  0  0
  3  5  1  0  0  0
  5  6  1  0  0  0
  6  7  1  0  0  0
  6  9  1  0  0  0
  7  8  2  0  0  0
  7 11  1  0  0  0
  9 10  1  0  0  0
 11 12  1  0  0  0
 12 13  1  0  0  0
 12 15  1  0  0  0
 13 14  2  0  0  0
 13 16  1  0  0  0
 16 17  1  0  0  0
 17 18  1  0  0  0
 17 20  1  0  0  0
 18 19  2  0  0  0
 18 27  1  0  0  0
 20 21  1  0  0  0
 21 22  1  0  0  0
 22 23  1  0  0  0
 23 24  1  0  0  0
 24 25  1  0  0  0
 24 26  2  0  0  0
 27 28  1  0  0  0
 28 29  1  0  0  0
 28 31  1  0  0  0
 29 30  2  0  0  0
 29 32  1  0  0  0
 32 33  1  0  0  0
 33 34  1  0  0  0
 33 36  1  0  0  0
 34 35  2  0  0  0
 34 41  1  0  0  0
 36 37  1  0  0  0
 37 38  1  0  0  0
 38 39  1  0  0  0
 38 40  2  0  0  0
 41 42  1  0  0  0
 41 47  1  0  0  0
 42 43  1  0  0  0
 42 45  1  0  0  0
 43 44  2  0  0  0
 43 48  1  0  0  0
 45 46  1  0  0  0
 46 47  1  0  0  0
 48 49  1  0  0  0
 49 50  1  0  0  0
 49 52  1  0  0  0
 50 51  2  0  0  0
 50 57  1  0  0  0
 52 53  1  0  0  0
 53 54  1  0  0  0
 54 55  1  0  0  0
 55 56  1  0  0  0
 57 58  1  0  0  0
 58 59  1  0  0  0
 58 61  1  0  0  0
 59 60  2  0  0  0
 59 62  1  0  0  0
  1 63  1  0  0  0
  1 64  1  0  0  0
  1 65  1  0  0  0
  2 66  1  0  0  0
  2 67  1  0  0  0
  5 68  1  0  0  0
  6 69  1  0  0  0
  9 70  1  0  0  0
  9 71  1  0  0  0
 10 72  1  0  0  0
 11 73  1  0  0  0
 12 74  1  0  0  0
 15 75  1  0  0  0
 15 76  1  0  0  0
 15 77  1  0  0  0
 16 78  1  0  0  0
 17 79  1  0  0  0
 20 80  1  0  0  0
 20 81  1  0  0  0
 21 82  1  0  0  0
 21 83  1  0  0  0
 22 84  1  0  0  0
 22 85  1  0  0  0
 23 86  1  0  0  0
 25 87  1  0  0  0
 25 88  1  0  0  0
 26 89  1  0  0  0
 27 90  1  0  0  0
 28 91  1  0  0  0
 31 92  1  0  0  0
 31 93  1  0  0  0
 31 94  1  0  0  0
 32 95  1  0  0  0
 33 96  1  0  0  0
 36 97  1  0  0  0
 36 98  1  0  0  0
 37 99  1  0  0  0
 37100  1  0  0  0
 39101  1  0  0  0
 42102  1  0  0  0
 45103  1  0  0  0
 45104  1  0  0  0
 46105  1  0  0  0
 46106  1  0  0  0
 47107  1  0  0  0
 47108  1  0  0  0
 48109  1  0  0  0
 49110  1  0  0  0
 52111  1  0  0  0
 52112  1  0  0  0
 53113  1  0  0  0
 53114  1  0  0  0
 54115  1  0  0  0
 54116  1  0  0  0
 55117  1  0  0  0
 55118  1  0  0  0
 56119  1  0  0  0
 56120  1  0  0  0
 56121  1  0  0  0
 57122  1  0  0  0
 58123  1  0  0  0
 61124  1  0  0  0
 61125  1  0  0  0
 61126  1  0  0  0
 62127  1  0  0  0
M  END
$$$$
