6ibl_ligand
  -I-interpret- 

 50 51  0  0  0  0  0  0  0  0999 V2000
  -43.2490   29.9130  -10.7280 C   0  0  0  0  0
  -42.7880   28.4540  -10.5480 C   0  0  0  0  0
  -42.8250   28.0070   -9.0710 C   0  0  0  0  0
  -44.1100   27.3100   -8.6750 C   0  0  0  0  0
  -44.3070   25.9610   -8.9610 C   0  0  0  0  0
  -45.4760   25.3060   -8.6050 C   0  0  0  0  0
  -46.4850   26.0080   -7.9480 C   0  0  0  0  0
  -46.2990   27.3560   -7.6430 C   0  0  0  0  0
  -45.1220   27.9940   -8.0120 C   0  0  0  0  0
  -47.6710   25.4130   -7.5910 O   0  0  0  0  0
  -48.3530   24.5630   -8.5190 C   0  0  0  0  0
  -41.4380   28.2310  -11.1180 N   0  3  0  0  0
  -41.3380   28.4510  -12.5650 C   0  0  0  0  0
  -40.1850   27.6880  -13.2140 C   0  0  0  0  0
  -40.1340   28.0380  -14.6980 C   0  0  0  0  0
  -41.1770   27.6580  -15.5430 C   0  0  0  0  0
  -41.1410   27.9620  -16.9020 C   0  0  0  0  0
  -40.0410   28.6420  -17.4380 C   0  0  0  0  0
  -39.0040   29.0290  -16.5920 C   0  0  0  0  0
  -39.0590   28.7290  -15.2450 C   0  0  0  0  0
  -40.0390   28.9150  -18.7630 O   0  0  0  0  0
  -42.1660   27.6170  -17.8110 N   0  0  0  0  0
  -43.2330   26.8460  -17.6110 C   0  0  0  0  0
  -44.2890   26.9450  -18.2180 O   0  0  0  0  0
  -38.9950   27.9670  -12.4870 O   0  0  0  0  0
  -42.5488   30.5788  -10.2235 H   0  0  0  0  0
  -43.2805   30.1543  -11.7905 H   0  0  0  0  0
  -44.2427   30.0345  -10.2969 H   0  0  0  0  0
  -43.4997   27.8399  -11.0997 H   0  0  0  0  0
  -42.7396   28.9041   -8.4578 H   0  0  0  0  0
  -42.0117   27.2959   -8.9262 H   0  0  0  0  0
  -43.5231   25.4069   -9.4772 H   0  0  0  0  0
  -45.6051   24.2489   -8.8374 H   0  0  0  0  0
  -47.0767   27.9083   -7.1155 H   0  0  0  0  0
  -44.9895   29.0502   -7.7774 H   0  0  0  0  0
  -48.6018   25.1314   -9.4152 H   0  0  0  0  0
  -47.7073   23.7262   -8.7855 H   0  0  0  0  0
  -49.2674   24.1864   -8.0605 H   0  0  0  0  0
  -41.2032   27.2527  -10.9500 H   0  0  0  0  0
  -40.8133   28.9029  -10.6722 H   0  0  0  0  0
  -41.1606   29.5145  -12.7250 H   0  0  0  0  0
  -42.2640   28.0955  -13.0170 H   0  0  0  0  0
  -40.3197   26.6072  -13.1712 H   0  0  0  0  0
  -42.0305   27.1166  -15.1349 H   0  0  0  0  0
  -38.1473   29.5698  -16.9941 H   0  0  0  0  0
  -38.2408   29.0412  -14.5960 H   0  0  0  0  0
  -39.2311   29.3805  -18.9914 H   0  0  0  0  0
  -42.0766   28.0120  -18.7472 H   0  0  0  0  0
  -43.1591   26.0693  -16.8498 H   0  0  0  0  0
  -38.2603   27.4934  -12.8840 H   0  0  0  0  0
  1  2  1  0  0  0
  2  3  1  0  0  0
  2 12  1  0  0  0
  3  4  1  0  0  0
  4  5  4  0  0  0
  4  9  4  0  0  0
  5  6  4  0  0  0
  6  7  4  0  0  0
  7  8  4  0  0  0
  7 10  1  0  0  0
  8  9  4  0  0  0
 10 11  1  0  0  0
 12 13  1  0  0  0
 13 14  1  0  0  0
 14 15  1  0  0  0
 14 25  1  0  0  0
 15 16  4  0  0  0
 15 20  4  0  0  0
 16 17  4  0  0  0
 17 18  4  0  0  0
 17 22  1  0  0  0
 18 19  4  0  0  0
 18 21  1  0  0  0
 19 20  4  0  0  0
 22 23  1  0  0  0
 23 24  2  0  0  0
  1 26  1  0  0  0
  1 27  1  0  0  0
  1 28  1  0  0  0
  2 29  1  0  0  0
  3 30  1  0  0  0
  3 31  1  0  0  0
  5 32  1  0  0  0
  6 33  1  0  0  0
  8 34  1  0  0  0
  9 35  1  0  0  0
 11 36  1  0  0  0
 11 37  1  0  0  0
 11 38  1  0  0  0
 12 39  1  0  0  0
 12 40  1  0  0  0
 13 41  1  0  0  0
 13 42  1  0  0  0
 14 43  1  0  0  0
 16 44  1  0  0  0
 19 45  1  0  0  0
 20 46  1  0  0  0
 21 47  1  0  0  0
 22 48  1  0  0  0
 23 49  1  0  0  0
 25 50  1  0  0  0
M  END
$$$$
