6fr0_ligand
  -I-interpret- 

 61 64  0  0  0  0  0  0  0  0999 V2000
  -14.5480  -17.3810    3.4160 C   0  0  0  0  0
  -20.4610  -11.8680   -4.6810 C   0  0  0  0  0
  -10.4420  -12.4600   -1.4980 C   0  0  0  0  0
  -15.6110  -12.2370   -3.0850 C   0  0  0  0  0
  -15.2880  -22.3950   -5.6540 C   0  0  0  0  0
  -14.4020  -23.0540   -4.9060 C   0  0  0  0  0
  -15.3750  -21.1270   -5.2050 C   0  0  0  0  0
  -11.1190  -14.8190    1.4060 C   0  0  0  0  0
  -12.0090  -15.8440    1.7320 C   0  0  0  0  0
  -14.1560  -17.2570   -1.9630 C   0  0  0  0  0
  -16.0720  -16.6370   -3.2940 C   0  0  0  0  0
  -15.1240  -15.0710   -1.7560 C   0  0  0  0  0
  -12.2480  -14.5770   -0.7090 C   0  0  0  0  0
  -13.6470  -17.9290    2.3120 C   0  0  0  0  0
  -20.3640  -13.2870   -4.1280 C   0  0  0  0  0
  -10.2890  -13.1720   -0.1490 C   0  0  0  0  0
  -14.3240  -19.8810   -3.4170 C   0  0  0  0  0
  -15.1090  -17.6050   -2.9330 C   0  0  0  0  0
  -11.2320  -14.1730    0.1730 C   0  0  0  0  0
  -14.1460  -15.9810   -1.3500 C   0  0  0  0  0
  -16.1040  -15.3580   -2.7190 C   0  0  0  0  0
  -16.8730  -13.0950   -3.2700 C   0  0  0  0  0
  -13.0240  -16.2220    0.8430 C   0  0  0  0  0
  -14.5540  -20.9820   -4.1650 C   0  0  0  0  0
  -13.1610  -15.6020   -0.3950 C   0  0  0  0  0
  -17.0530  -14.4330   -3.0970 C   0  0  0  0  0
  -18.3530  -14.6710   -3.3970 C   0  0  0  0  0
  -15.1780  -18.8260   -3.5800 N   0  0  0  0  0
  -18.9730  -13.5390   -3.7360 N   0  0  0  0  0
   -9.3130  -12.9160    0.5670 O   0  0  0  0  0
  -13.3770  -19.9020   -2.6440 O   0  0  0  0  0
  -18.9360  -15.7610   -3.3700 O   0  0  0  0  0
  -13.9340  -17.2300    1.1000 O   0  0  0  0  0
  -13.9200  -22.1260   -3.9610 O   0  0  0  0  0
  -18.0410  -12.5020   -3.6570 O   0  0  0  0  0
  -14.3542  -16.3163    3.5464 H   0  0  0  0  0
  -15.5916  -17.5304    3.1392 H   0  0  0  0  0
  -14.3392  -17.9064    4.3479 H   0  0  0  0  0
  -20.1558  -11.1582   -3.9122 H   0  0  0  0  0
  -19.8062  -11.7714   -5.5470 H   0  0  0  0  0
  -21.4900  -11.6645   -4.9774 H   0  0  0  0  0
  -10.5024  -11.3840   -1.3347 H   0  0  0  0  0
   -9.5803  -12.6856   -2.1263 H   0  0  0  0  0
  -11.3517  -12.8059   -1.9889 H   0  0  0  0  0
  -15.2689  -12.3141   -2.0530 H   0  0  0  0  0
  -14.8293  -12.5934   -3.7559 H   0  0  0  0  0
  -15.8431  -11.1972   -3.3155 H   0  0  0  0  0
  -15.8489  -22.8127   -6.4901 H   0  0  0  0  0
  -14.1096  -24.0993   -5.0054 H   0  0  0  0  0
  -16.0122  -20.3480   -5.6237 H   0  0  0  0  0
  -10.3404  -14.5246    2.1097 H   0  0  0  0  0
  -11.9132  -16.3563    2.6893 H   0  0  0  0  0
  -13.4026  -17.9897   -1.6737 H   0  0  0  0  0
  -16.8175  -16.8931   -4.0468 H   0  0  0  0  0
  -15.1266  -14.0814   -1.2991 H   0  0  0  0  0
  -12.3329  -14.0775   -1.6741 H   0  0  0  0  0
  -13.8310  -18.9950    2.1779 H   0  0  0  0  0
  -12.6007  -17.7877    2.5828 H   0  0  0  0  0
  -20.6725  -14.0047   -4.8881 H   0  0  0  0  0
  -21.0198  -13.3956   -3.2641 H   0  0  0  0  0
  -15.9417  -18.9514   -4.2444 H   0  0  0  0  0
 14  1  1  0  0  0
 15  2  1  0  0  0
 16  3  1  0  0  0
 22  4  1  0  0  0
  6  5  4  0  0  0
  7  5  4  0  0  0
 34  6  4  0  0  0
 24  7  4  0  0  0
  9  8  4  0  0  0
 19  8  4  0  0  0
 23  9  4  0  0  0
 18 10  4  0  0  0
 20 10  4  0  0  0
 11 18  4  0  0  0
 21 11  4  0  0  0
 12 20  4  0  0  0
 21 12  4  0  0  0
 13 19  4  0  0  0
 25 13  4  0  0  0
 33 14  1  0  0  0
 29 15  1  0  0  0
 19 16  1  0  0  0
 16 30  2  0  0  0
 17 24  1  0  0  0
 28 17  1  0  0  0
 17 31  2  0  0  0
 18 28  1  0  0  0
 20 25  1  0  0  0
 26 21  1  0  0  0
 26 22  2  0  0  0
 22 35  1  0  0  0
 25 23  4  0  0  0
 23 33  1  0  0  0
 24 34  4  0  0  0
 27 26  1  0  0  0
 27 29  1  0  0  0
 27 32  2  0  0  0
 29 35  1  0  0  0
  1 36  1  0  0  0
  1 37  1  0  0  0
  1 38  1  0  0  0
  2 39  1  0  0  0
  2 40  1  0  0  0
  2 41  1  0  0  0
  3 42  1  0  0  0
  3 43  1  0  0  0
  3 44  1  0  0  0
  4 45  1  0  0  0
  4 46  1  0  0  0
  4 47  1  0  0  0
  5 48  1  0  0  0
  6 49  1  0  0  0
  7 50  1  0  0  0
  8 51  1  0  0  0
  9 52  1  0  0  0
 10 53  1  0  0  0
 11 54  1  0  0  0
 12 55  1  0  0  0
 13 56  1  0  0  0
 14 57  1  0  0  0
 14 58  1  0  0  0
 15 59  1  0  0  0
 15 60  1  0  0  0
 28 61  1  0  0  0
M  END
$$$$
