2yb0_ligand
  -I-interpret- 

 28 29  0  0  0  0  0  0  0  0999 V2000
  -17.1760   35.0590   -7.7030 N   0  0  0  0  0
  -17.8380   34.2480   -6.7500 C   0  0  0  0  0
  -17.3030   34.0450   -5.5520 N   0  0  0  0  0
  -16.1110   34.5640   -5.2500 C   0  0  0  0  0
  -15.4460   35.3580   -6.1610 C   0  0  0  0  0
  -16.0000   35.6010   -7.4020 C   0  0  0  0  0
  -18.9370   33.7270   -6.9920 O   0  0  0  0  0
  -15.5950   34.3580   -4.1340 O   0  0  0  0  0
  -17.8060   35.3360   -8.9850 C   0  0  0  0  0
  -18.9480   36.3090   -8.7590 C   0  0  0  0  0
  -19.1180   36.9830  -10.1040 C   0  0  0  0  0
  -17.8060   36.7540  -10.8220 C   0  0  0  0  0
  -20.1660   36.3940  -10.8810 O   0  0  0  0  0
  -16.9920   35.9750   -9.9570 O   0  0  0  0  0
  -17.1150   38.0630  -11.2070 C   0  0  0  0  0
  -18.0320   39.0050  -11.8060 O   0  0  0  0  0
  -17.8052   33.4899   -4.8592 H   0  0  0  0  0
  -14.4816   35.7943   -5.9007 H   0  0  0  0  0
  -15.4800   36.2290   -8.1255 H   0  0  0  0  0
  -18.0831   34.3517   -9.3624 H   0  0  0  0  0
  -18.7356   37.0209   -7.9614 H   0  0  0  0  0
  -19.8585   35.8108   -8.4259 H   0  0  0  0  0
  -19.3757   38.0335   -9.9696 H   0  0  0  0  0
  -17.9845   36.2347  -11.7635 H   0  0  0  0  0
  -20.2360   36.8525  -11.7215 H   0  0  0  0  0
  -16.3368   37.8355  -11.9355 H   0  0  0  0  0
  -16.7089   38.5127  -10.3009 H   0  0  0  0  0
  -17.5600   39.8098  -12.0320 H   0  0  0  0  0
  1  2  1  0  0  0
  1  6  1  0  0  0
  1  9  1  0  0  0
  2  3  1  0  0  0
  2  7  2  0  0  0
  3  4  1  0  0  0
  4  5  1  0  0  0
  4  8  2  0  0  0
  5  6  2  0  0  0
  9 10  1  0  0  0
  9 14  1  0  0  0
 10 11  1  0  0  0
 11 12  1  0  0  0
 11 13  1  0  0  0
 12 14  1  0  0  0
 12 15  1  0  0  0
 15 16  1  0  0  0
  3 17  1  0  0  0
  5 18  1  0  0  0
  6 19  1  0  0  0
  9 20  1  0  0  0
 10 21  1  0  0  0
 10 22  1  0  0  0
 11 23  1  0  0  0
 12 24  1  0  0  0
 13 25  1  0  0  0
 15 26  1  0  0  0
 15 27  1  0  0  0
 16 28  1  0  0  0
M  END
$$$$
