1fta_ligand
  -I-interpret- 

 37 39  0  0  0  0  0  0  0  0999 V2000
   14.6600   60.0770   16.7220 P   0  0  0  0  0
   14.1710   59.3310   15.5260 O   0  0  0  0  0
   13.7400   61.2400   16.9390 O   0  0  0  0  0
   14.5240   59.1690   17.9490 O   0  0  0  0  0
   16.1470   60.5340   16.5300 O   0  0  0  0  0
   16.4080   61.6450   15.6150 C   0  0  0  0  0
   17.8510   61.7280   15.5580 C   0  0  0  0  0
   18.3840   61.8870   16.8940 O   0  0  0  0  0
   18.4340   60.4150   15.0070 C   0  0  0  0  0
   18.7420   60.4570   13.6240 O   0  0  0  0  0
   19.6440   60.1380   15.9060 C   0  0  0  0  0
   20.8820   60.4040   15.2610 O   0  0  0  0  0
   19.4190   60.9940   17.1840 C   0  0  0  0  0
   19.0940   60.1790   18.4260 N   0  0  0  0  0
   17.8710   59.6220   18.7140 C   0  0  0  0  0
   17.9640   58.6650   19.6930 N   0  0  0  0  0
   19.3050   58.5690   19.9340 C   0  0  0  0  0
   19.9530   57.5990   20.7210 C   0  0  0  0  0
   19.3060   56.8340   21.5720 N   0  0  0  0  0
   21.3100   57.7680   20.7990 N   0  0  0  0  0
   21.9470   58.4600   19.7950 C   0  0  0  0  0
   21.3370   59.4330   19.0610 N   0  0  0  0  0
   19.9900   59.3740   19.0450 C   0  0  0  0  0
   14.0323   61.7392   17.7051 H   0  0  0  0  0
   14.8354   59.6363   18.7276 H   0  0  0  0  0
   15.9563   62.5754   15.9591 H   0  0  0  0  0
   15.9669   61.4799   14.6320 H   0  0  0  0  0
   18.1149   62.5721   14.9209 H   0  0  0  0  0
   17.7079   59.6029   15.0428 H   0  0  0  0  0
   19.0993   59.6088   13.3510 H   0  0  0  0  0
   19.7166   59.0799   16.1575 H   0  0  0  0  0
   21.6035   60.2149   15.8653 H   0  0  0  0  0
   20.3487   61.5079   17.4284 H   0  0  0  0  0
   16.9397   59.9061   18.2240 H   0  0  0  0  0
   18.2965   56.9319   21.6803 H   0  0  0  0  0
   19.8135   56.1425   22.1240 H   0  0  0  0  0
   22.9873   58.2191   19.5765 H   0  0  0  0  0
  1  2  2  0  0  0
  1  3  1  0  0  0
  1  4  1  0  0  0
  1  5  1  0  0  0
  5  6  1  0  0  0
  6  7  1  0  0  0
  7  8  1  0  0  0
  7  9  1  0  0  0
  8 13  1  0  0  0
  9 10  1  0  0  0
  9 11  1  0  0  0
 11 12  1  0  0  0
 11 13  1  0  0  0
 13 14  1  0  0  0
 14 15  4  0  0  0
 14 23  4  0  0  0
 15 16  4  0  0  0
 16 17  4  0  0  0
 17 18  4  0  0  0
 17 23  4  0  0  0
 18 19  1  0  0  0
 18 20  4  0  0  0
 20 21  4  0  0  0
 21 22  4  0  0  0
 22 23  4  0  0  0
  3 24  1  0  0  0
  4 25  1  0  0  0
  6 26  1  0  0  0
  6 27  1  0  0  0
  7 28  1  0  0  0
  9 29  1  0  0  0
 10 30  1  0  0  0
 11 31  1  0  0  0
 12 32  1  0  0  0
 13 33  1  0  0  0
 15 34  1  0  0  0
 19 35  1  0  0  0
 19 36  1  0  0  0
 21 37  1  0  0  0
M  END
$$$$
