### 
### Created by X-TOOL on Mon Sep 10 21:12:45 2018
### 

@<TRIPOS>MOLECULE
1fta_ligand
   35    37     1     0     0
SMALL
GAST_HUCK


@<TRIPOS>ATOM
      1 P          14.6600   60.0770   16.7220 P.3       1 AMP         0.2008
      2 O1P        14.1710   59.3310   15.5260 O.co2     1 AMP        -0.5537
      3 O2P        13.7400   61.2400   16.9390 O.co2     1 AMP        -0.5537
      4 O3P        14.5240   59.1690   17.9490 O.co2     1 AMP        -0.5537
      5 O5'        16.1470   60.5340   16.5300 O.3       1 AMP        -0.2734
      6 C5'        16.4080   61.6450   15.6150 C.3       1 AMP         0.1072
      7 C4'        17.8510   61.7280   15.5580 C.3       1 AMP         0.1182
      8 O4'        18.3840   61.8870   16.8940 O.3       1 AMP        -0.3365
      9 C3'        18.4340   60.4150   15.0070 C.3       1 AMP         0.1149
     10 O3'        18.7420   60.4570   13.6240 O.3       1 AMP        -0.3864
     11 C2'        19.6440   60.1380   15.9060 C.3       1 AMP         0.1385
     12 O2'        20.8820   60.4040   15.2610 O.3       1 AMP        -0.3836
     13 C1'        19.4190   60.9940   17.1840 C.3       1 AMP         0.2010
     14 N9         19.0940   60.1790   18.4260 N.pl3     1 AMP        -0.1919
     15 C8         17.8710   59.6220   18.7140 C.2       1 AMP         0.1123
     16 N7         17.9640   58.6650   19.6930 N.2       1 AMP        -0.2958
     17 C5         19.3050   58.5690   19.9340 C.ar      1 AMP         0.1045
     18 C6         19.9530   57.5990   20.7210 C.ar      1 AMP         0.1298
     19 N6         19.3060   56.8340   21.5720 N.pl3     1 AMP        -0.3152
     20 N1         21.3100   57.7680   20.7990 N.ar      1 AMP        -0.2698
     21 C2         21.9470   58.4600   19.7950 C.ar      1 AMP         0.0533
     22 N3         21.3370   59.4330   19.0610 N.ar      1 AMP        -0.2714
     23 C4         19.9900   59.3740   19.0450 C.ar      1 AMP         0.1613
     24 H1         15.9788   62.5799   16.0045 H         1 AMP         0.0639
     25 H2         15.9899   61.4364   14.6192 H         1 AMP         0.0639
     26 H3         18.1491   62.5750   14.9226 H         1 AMP         0.0650
     27 H4         17.6957   59.6117   15.1469 H         1 AMP         0.0648
     28 H5         19.3842   61.1386   13.4643 H         1 AMP         0.2100
     29 H6         19.6423   59.0746   16.1875 H         1 AMP         0.0676
     30 H7         20.9607   59.8543   14.4902 H         1 AMP         0.2101
     31 H8         20.3384   61.5622   17.3886 H         1 AMP         0.0996
     32 H9         16.9406   59.9058   18.2244 H         1 AMP         0.1349
     33 H10        19.8184   56.1357   22.1294 H         1 AMP         0.1820
     34 H11        18.2866   56.9329   21.6814 H         1 AMP         0.1820
     35 H12        22.9816   58.2204   19.5777 H         1 AMP         0.0996
@<TRIPOS>BOND
     1    1    2 ar 
     2    1    3 ar 
     3    1    4 ar 
     4    1    5 1  
     5    5    6 1  
     6    6    7 1  
     7    7    8 1  
     8    7    9 1  
     9    8   13 1  
    10    9   10 1  
    11    9   11 1  
    12   11   12 1  
    13   11   13 1  
    14   13   14 1  
    15   14   15 1  
    16   14   23 1  
    17   15   16 2  
    18   16   17 1  
    19   17   18 ar 
    20   17   23 ar 
    21   18   19 1  
    22   18   20 ar 
    23   20   21 ar 
    24   21   22 ar 
    25   22   23 ar 
    26    6   24 1  
    27    6   25 1  
    28    7   26 1  
    29    9   27 1  
    30   10   28 1  
    31   11   29 1  
    32   12   30 1  
    33   13   31 1  
    34   15   32 1  
    35   19   33 1  
    36   19   34 1  
    37   21   35 1  
@<TRIPOS>SUBSTRUCTURE
     1 AMP         1

