4mw9_ligand
  -I-interpret- 

 41 42  0  0  0  0  0  0  0  0999 V2000
  -45.3800   13.9750   13.1040 O   0  0  0  0  0
  -44.1630   13.9170   13.0020 C   0  0  0  0  0
  -43.3540   14.7610   13.7210 N   0  0  0  0  0
  -43.8040   15.7980   14.5730 C   0  0  0  0  0
  -42.8410   16.7390   15.0590 C   0  0  0  0  0
  -43.3660   17.6940   15.8370 C   0  0  0  0  0
  -45.0500   17.4810   15.9920 S   0  0  0  0  0
  -45.0650   16.0920   15.0170 C   0  0  0  0  0
  -43.5480   13.0270   12.2060 N   0  0  0  0  0
  -44.3060   12.0910   11.3850 C   0  0  0  0  0
  -43.4350   11.3260   10.4220 C   0  0  0  0  0
  -43.2280   12.0310    9.1090 C   0  0  0  0  0
  -41.9850   11.6250    8.4540 N   0  3  0  0  0
  -41.8230   12.1170    7.0810 C   0  0  0  0  0
  -41.1980   13.4840    7.1140 C   0  0  0  0  0
  -39.8360   13.6380    7.1660 C   0  0  0  0  0
  -39.3100   14.9200    7.1850 C   0  0  0  0  0
  -37.9380   15.0910    7.2130 C   0  0  0  0  0
  -36.8030   15.2700    7.2420 C   0  0  0  0  0
  -40.1210   16.0390    7.1640 C   0  0  0  0  0
  -41.4790   15.8700    7.1110 C   0  0  0  0  0
  -42.0240   14.5880    7.0840 C   0  0  0  0  0
  -42.3461   14.6303   13.6343 H   0  0  0  0  0
  -41.7794   16.6833   14.8182 H   0  0  0  0  0
  -42.7958   18.4960   16.3059 H   0  0  0  0  0
  -45.9569   15.5131   14.7771 H   0  0  0  0  0
  -42.5287   13.0056   12.1753 H   0  0  0  0  0
  -45.0267   12.6644   10.8019 H   0  0  0  0  0
  -44.7821   11.3710   12.0506 H   0  0  0  0  0
  -43.9332   10.3799   10.2106 H   0  0  0  0  0
  -42.4568   11.2081   10.8881 H   0  0  0  0  0
  -43.1745   13.1021    9.3039 H   0  0  0  0  0
  -44.0579   11.7732    8.4511 H   0  0  0  0  0
  -41.9960   10.6063    8.4039 H   0  0  0  0  0
  -41.2197   12.0186    9.0016 H   0  0  0  0  0
  -42.7975   12.1728    6.5958 H   0  0  0  0  0
  -41.1813   11.4356    6.5224 H   0  0  0  0  0
  -39.1796   12.7682    7.1919 H   0  0  0  0  0
  -39.6872   17.0387    7.1892 H   0  0  0  0  0
  -42.1349   16.7403    7.0899 H   0  0  0  0  0
  -43.1052   14.4574    7.0391 H   0  0  0  0  0
  1  2  2  0  0  0
  2  3  1  0  0  0
  2  9  1  0  0  0
  3  4  1  0  0  0
  4  5  4  0  0  0
  4  8  4  0  0  0
  5  6  4  0  0  0
  6  7  4  0  0  0
  7  8  4  0  0  0
  9 10  1  0  0  0
 10 11  1  0  0  0
 11 12  1  0  0  0
 12 13  1  0  0  0
 13 14  1  0  0  0
 14 15  1  0  0  0
 15 16  4  0  0  0
 15 22  4  0  0  0
 16 17  4  0  0  0
 17 18  1  0  0  0
 17 20  4  0  0  0
 18 19  3  0  0  0
 20 21  4  0  0  0
 21 22  4  0  0  0
  3 23  1  0  0  0
  5 24  1  0  0  0
  6 25  1  0  0  0
  8 26  1  0  0  0
  9 27  1  0  0  0
 10 28  1  0  0  0
 10 29  1  0  0  0
 11 30  1  0  0  0
 11 31  1  0  0  0
 12 32  1  0  0  0
 12 33  1  0  0  0
 13 34  1  0  0  0
 13 35  1  0  0  0
 14 36  1  0  0  0
 14 37  1  0  0  0
 16 38  1  0  0  0
 20 39  1  0  0  0
 21 40  1  0  0  0
 22 41  1  0  0  0
M  END
$$$$
