### 
### Created by X-TOOL on Mon Sep 10 21:12:51 2018
### 

@<TRIPOS>MOLECULE
1ru1_ligand
   45    47     1     0     0
SMALL
GAST_HUCK


@<TRIPOS>ATOM
      1 PG          9.7880   -3.5710    9.9220 P.3       1 APC         0.2050
      2 O1G        10.1840   -2.2190   10.3700 O.co2     1 APC        -0.5889
      3 O2G        10.8670   -4.3210    9.1410 O.co2     1 APC        -0.5889
      4 O3G         8.4910   -3.5320    9.1350 O.co2     1 APC        -0.5889
      5 PB          8.4870   -4.1590   12.3790 P.3       1 APC         0.2111
      6 O1B         7.3730   -3.3240   11.7950 O.co2     1 APC        -0.5572
      7 O2B         8.1280   -5.4270   13.1010 O.co2     1 APC        -0.5572
      8 O3B         9.5400   -4.5170   11.2260 O.3       1 APC        -0.1814
      9 PA          8.4450   -2.7690   15.0150 P.3       1 APC         0.1405
     10 O1A         6.9870   -2.6150   14.6580 O.co2     1 APC        -0.6193
     11 O2A         8.7380   -3.7350   16.1200 O.co2     1 APC        -0.6193
     12 C3A         9.4070   -3.1740   13.5620 C.3       1 APC         0.1358
     13 O5          8.8340   -1.2880   15.4460 O.3       1 APC        -0.2758
     14 C5         10.0490   -0.8860   16.1610 C.3       1 APC         0.1108
     15 C4         10.1790    0.6090   16.1260 C.3       1 APC         0.1190
     16 O4         10.1930    1.0640   14.7590 O.3       1 APC        -0.3364
     17 C3          9.2310    1.4640   16.8610 C.3       1 APC         0.1150
     18 O3          9.4760    1.5580   18.2330 O.3       1 APC        -0.3864
     19 C2          9.3590    2.7890   16.1370 C.3       1 APC         0.1385
     20 O2         10.0240    3.7890   16.9660 O.3       1 APC        -0.3836
     21 C1         10.2650    2.5070   14.9290 C.3       1 APC         0.2010
     22 N9          9.8510    3.0540   13.6420 N.pl3     1 APC        -0.1919
     23 C8         10.7740    3.7340   12.7960 C.2       1 APC         0.1123
     24 N7         10.1770    4.1450   11.6790 N.2       1 APC        -0.2958
     25 C5          8.8410    3.7060   11.8330 C.ar      1 APC         0.1045
     26 C6          7.7680    3.8730   10.9400 C.ar      1 APC         0.1298
     27 N6          7.8960    4.4900    9.8030 N.pl3     1 APC        -0.3152
     28 N1          6.5280    3.3360   11.3380 N.ar      1 APC        -0.2698
     29 C2          6.4150    2.7180   12.4880 C.ar      1 APC         0.0533
     30 N3          7.4350    2.4980   13.4560 N.ar      1 APC        -0.2714
     31 C4          8.6510    3.0480   13.0200 C.ar      1 APC         0.1613
     32 H1          9.7196   -2.2388   13.0745 H         1 APC         0.0719
     33 H2         10.2970   -3.7396   13.8751 H         1 APC         0.0719
     34 H3         10.9262   -1.3416   15.6783 H         1 APC         0.0650
     35 H4          9.9884   -1.2243   17.2059 H         1 APC         0.0650
     36 H5         11.1667    0.8213   16.5612 H         1 APC         0.0651
     37 H6          8.2113    1.0706   16.7366 H         1 APC         0.0648
     38 H7          9.4265    0.6929   18.6224 H         1 APC         0.2100
     39 H8          8.3709    3.1548   15.8209 H         1 APC         0.0676
     40 H9         10.0884    4.6056   16.4848 H         1 APC         0.2101
     41 H10        11.2877    2.8440   15.1539 H         1 APC         0.0996
     42 H11        11.8250    3.8956   13.0310 H         1 APC         0.1349
     43 H12         7.0840    4.5907    9.1774 H         1 APC         0.1820
     44 H13         8.8095    4.8782    9.5277 H         1 APC         0.1820
     45 H14         5.4321    2.3299   12.7297 H         1 APC         0.0996
@<TRIPOS>BOND
     1    1    2 ar 
     2    1    3 ar 
     3    1    4 ar 
     4    8    1 1  
     5    5    6 ar 
     6    5    7 ar 
     7    5    8 1  
     8   12    5 1  
     9    9   10 ar 
    10    9   11 ar 
    11    9   12 1  
    12    9   13 1  
    13   13   14 1  
    14   14   15 1  
    15   15   16 1  
    16   15   17 1  
    17   16   21 1  
    18   17   18 1  
    19   17   19 1  
    20   19   20 1  
    21   19   21 1  
    22   21   22 1  
    23   22   23 1  
    24   22   31 1  
    25   23   24 2  
    26   24   25 1  
    27   25   26 ar 
    28   25   31 ar 
    29   26   27 1  
    30   26   28 ar 
    31   28   29 ar 
    32   29   30 ar 
    33   30   31 ar 
    34   12   32 1  
    35   12   33 1  
    36   14   34 1  
    37   14   35 1  
    38   15   36 1  
    39   17   37 1  
    40   18   38 1  
    41   19   39 1  
    42   20   40 1  
    43   21   41 1  
    44   23   42 1  
    45   27   43 1  
    46   27   44 1  
    47   29   45 1  
@<TRIPOS>SUBSTRUCTURE
     1 APC         1

