1ru1_ligand
  -I-interpret- 

 49 51  0  0  0  0  0  0  0  0999 V2000
    9.7880   -3.5710    9.9220 P   0  0  0  0  0
   10.1840   -2.2190   10.3700 O   0  0  0  0  0
   10.8670   -4.3210    9.1410 O   0  0  0  0  0
    8.4910   -3.5320    9.1350 O   0  0  0  0  0
    8.4870   -4.1590   12.3790 P   0  0  0  0  0
    7.3730   -3.3240   11.7950 O   0  0  0  0  0
    8.1280   -5.4270   13.1010 O   0  0  0  0  0
    9.5400   -4.5170   11.2260 O   0  0  0  0  0
    8.4450   -2.7690   15.0150 P   0  0  0  0  0
    6.9870   -2.6150   14.6580 O   0  0  0  0  0
    8.7380   -3.7350   16.1200 O   0  0  0  0  0
    9.4070   -3.1740   13.5620 C   0  0  0  0  0
    8.8340   -1.2880   15.4460 O   0  0  0  0  0
   10.0490   -0.8860   16.1610 C   0  0  0  0  0
   10.1790    0.6090   16.1260 C   0  0  0  0  0
   10.1930    1.0640   14.7590 O   0  0  0  0  0
    9.2310    1.4640   16.8610 C   0  0  0  0  0
    9.4760    1.5580   18.2330 O   0  0  0  0  0
    9.3590    2.7890   16.1370 C   0  0  0  0  0
   10.0240    3.7890   16.9660 O   0  0  0  0  0
   10.2650    2.5070   14.9290 C   0  0  0  0  0
    9.8510    3.0540   13.6420 N   0  0  0  0  0
   10.7740    3.7340   12.7960 C   0  0  0  0  0
   10.1770    4.1450   11.6790 N   0  0  0  0  0
    8.8410    3.7060   11.8330 C   0  0  0  0  0
    7.7680    3.8730   10.9400 C   0  0  0  0  0
    7.8960    4.4900    9.8030 N   0  0  0  0  0
    6.5280    3.3360   11.3380 N   0  0  0  0  0
    6.4150    2.7180   12.4880 C   0  0  0  0  0
    7.4350    2.4980   13.4560 N   0  0  0  0  0
    8.6510    3.0480   13.0200 C   0  0  0  0  0
   10.5345   -5.1851    8.8872 H   0  0  0  0  0
    8.2593   -4.4214    8.8579 H   0  0  0  0  0
    7.7457   -2.5499   11.3666 H   0  0  0  0  0
    6.8989   -1.9792   13.9441 H   0  0  0  0  0
    9.6882   -2.2404   13.0747 H   0  0  0  0  0
   10.2711   -3.7557   13.8830 H   0  0  0  0  0
   10.9181   -1.3375   15.6826 H   0  0  0  0  0
    9.9888   -1.2212   17.1964 H   0  0  0  0  0
   11.1104    0.7380   16.6774 H   0  0  0  0  0
    8.2189    1.0593   16.8549 H   0  0  0  0  0
    8.8183    2.1296   18.6359 H   0  0  0  0  0
    8.3735    3.1712   15.8709 H   0  0  0  0  0
   10.0891    4.6142   16.4797 H   0  0  0  0  0
   11.2309    2.9603   15.1518 H   0  0  0  0  0
   11.8259    3.8958   13.0312 H   0  0  0  0  0
    8.8006    4.8744    9.5304 H   0  0  0  0  0
    7.0918    4.5897    9.1835 H   0  0  0  0  0
    5.4267    2.3277   12.7311 H   0  0  0  0  0
  1  2  2  0  0  0
  1  3  1  0  0  0
  1  4  1  0  0  0
  8  1  1  0  0  0
  5  6  1  0  0  0
  5  7  2  0  0  0
  5  8  1  0  0  0
 12  5  1  0  0  0
  9 10  1  0  0  0
  9 11  2  0  0  0
  9 12  1  0  0  0
  9 13  1  0  0  0
 13 14  1  0  0  0
 14 15  1  0  0  0
 15 16  1  0  0  0
 15 17  1  0  0  0
 16 21  1  0  0  0
 17 18  1  0  0  0
 17 19  1  0  0  0
 19 20  1  0  0  0
 19 21  1  0  0  0
 21 22  1  0  0  0
 22 23  4  0  0  0
 22 31  4  0  0  0
 23 24  4  0  0  0
 24 25  4  0  0  0
 25 26  4  0  0  0
 25 31  4  0  0  0
 26 27  1  0  0  0
 26 28  4  0  0  0
 28 29  4  0  0  0
 29 30  4  0  0  0
 30 31  4  0  0  0
  3 32  1  0  0  0
  4 33  1  0  0  0
  6 34  1  0  0  0
 10 35  1  0  0  0
 12 36  1  0  0  0
 12 37  1  0  0  0
 14 38  1  0  0  0
 14 39  1  0  0  0
 15 40  1  0  0  0
 17 41  1  0  0  0
 18 42  1  0  0  0
 19 43  1  0  0  0
 20 44  1  0  0  0
 21 45  1  0  0  0
 23 46  1  0  0  0
 27 47  1  0  0  0
 27 48  1  0  0  0
 29 49  1  0  0  0
M  END
$$$$
