4ui3_ligand
  -I-interpret- 

 30 32  0  0  0  0  0  0  0  0999 V2000
  -39.3940   -9.0720    6.2270 F   0  0  0  0  0
  -39.0670  -10.4430    6.4290 C   0  0  0  0  0
  -39.9530  -11.1790    5.6740 F   0  0  0  0  0
  -37.7580  -10.7510    5.8600 F   0  0  0  0  0
  -39.0790  -10.7610    7.8490 C   0  0  0  0  0
  -39.7660  -11.8670    8.3780 C   0  0  0  0  0
  -39.7730  -12.1570    9.7680 C   0  0  0  0  0
  -39.0520  -11.3610   10.6840 C   0  0  0  0  0
  -38.3580  -10.2560   10.1480 C   0  0  0  0  0
  -38.3810   -9.9610    8.7730 C   0  0  0  0  0
  -39.0730  -11.6590   12.0970 C   0  0  0  0  0
  -39.9120  -12.6260   12.5680 N   0  0  0  0  0
  -39.9710  -12.9170   13.8950 C   0  0  0  0  0
  -40.8620  -13.9300   14.2840 C   0  0  0  0  0
  -40.9800  -14.2450   15.6500 C   0  0  0  0  0
  -40.2030  -13.5390   16.5830 C   0  0  0  0  0
  -39.2830  -12.5470   16.1940 C   0  0  0  0  0
  -39.1680  -12.2200   14.8560 C   0  0  0  0  0
  -38.2990  -11.2130   14.4210 C   0  0  0  0  0
  -37.5490  -10.5740   15.1730 O   0  0  0  0  0
  -38.2670  -10.9390   13.0440 N   0  0  0  0  0
  -40.3110  -12.5233    7.6995 H   0  0  0  0  0
  -40.3453  -13.0094   10.1342 H   0  0  0  0  0
  -37.7879   -9.6127   10.8183 H   0  0  0  0  0
  -37.8414   -9.0855    8.4117 H   0  0  0  0  0
  -41.4528  -14.4638   13.5396 H   0  0  0  0  0
  -41.6650  -15.0262   15.9797 H   0  0  0  0  0
  -40.3160  -13.7666   17.6430 H   0  0  0  0  0
  -38.6683  -12.0425   16.9395 H   0  0  0  0  0
  -37.6492  -10.2022   12.7037 H   0  0  0  0  0
  1  2  1  0  0  0
  2  3  1  0  0  0
  2  4  1  0  0  0
  2  5  1  0  0  0
  5  6  4  0  0  0
  5 10  4  0  0  0
  6  7  4  0  0  0
  7  8  4  0  0  0
  8  9  4  0  0  0
  8 11  1  0  0  0
  9 10  4  0  0  0
 11 12  2  0  0  0
 11 21  1  0  0  0
 12 13  1  0  0  0
 13 14  4  0  0  0
 13 18  4  0  0  0
 14 15  4  0  0  0
 15 16  4  0  0  0
 16 17  4  0  0  0
 17 18  4  0  0  0
 18 19  1  0  0  0
 19 20  2  0  0  0
 19 21  1  0  0  0
  6 22  1  0  0  0
  7 23  1  0  0  0
  9 24  1  0  0  0
 10 25  1  0  0  0
 14 26  1  0  0  0
 15 27  1  0  0  0
 16 28  1  0  0  0
 17 29  1  0  0  0
 21 30  1  0  0  0
M  END
$$$$
