5jop_ligand
  -I-interpret- 

 93 96  0  0  0  0  0  0  0  0999 V2000
  -28.0560   74.2880   45.2710 C   0  0  0  0  0
  -29.2390   74.8070   44.4590 C   0  0  0  0  0
  -29.9620   75.9010   45.2690 C   0  0  0  0  0
  -30.4980   75.4270   46.6380 C   0  0  0  0  0
  -29.3880   74.7840   47.4370 C   0  0  0  0  0
  -30.3470   74.0390   48.3960 C   0  0  0  0  0
  -27.5850   73.1850   44.4560 O   0  0  0  0  0
  -28.7160   75.4250   43.2760 O   0  0  0  0  0
  -30.9870   76.5110   44.4710 O   0  0  0  0  0
  -31.4950   74.3600   46.8470 O   0  0  0  0  0
  -28.5070   73.8700   46.6170 O   0  0  0  0  0
  -29.3410   73.5290   49.3100 O   0  0  0  0  0
  -25.3720   70.2240   45.3000 C   0  0  0  0  0
  -26.6910   70.9570   44.9980 C   0  0  0  0  0
  -26.4230   72.4690   44.9290 C   0  0  0  0  0
  -25.3570   72.8290   43.8820 C   0  0  0  0  0
  -24.8880   74.2900   43.9670 C   0  0  0  0  0
  -24.3050   70.6090   44.2770 C   0  0  0  0  0
  -22.9960   70.2050   44.7070 O   0  0  0  0  0
  -25.5250   68.7990   45.2450 O   0  0  0  0  0
  -27.6730   70.7620   46.0160 O   0  0  0  0  0
  -24.1950   72.0640   44.2600 O   0  0  0  0  0
  -24.9650   74.6750   42.5950 O   0  0  0  0  0
  -19.0660   70.0180   45.8380 C   0  0  0  0  0
  -19.2390   68.6560   46.5670 C   0  0  0  0  0
  -19.7250   67.5380   45.6040 C   0  0  0  0  0
  -21.0190   68.0740   44.9700 C   0  0  0  0  0
  -20.7780   69.3970   44.2130 C   0  0  0  0  0
  -22.0220   70.0420   43.6040 C   0  0  0  0  0
  -16.8000   68.0810   46.4510 C   0  0  0  0  0
  -15.5910   67.7450   47.3480 C   0  0  0  0  0
  -17.9320   68.3060   47.1520 N   0  0  0  0  0
  -18.7110   71.0320   46.7850 O   0  0  0  0  0
  -19.9950   66.3740   46.4340 O   0  0  0  0  0
  -21.4930   67.1360   43.9420 O   0  0  0  0  0
  -20.3290   70.4030   45.2060 O   0  0  0  0  0
  -16.7230   68.0850   45.2100 O   0  0  0  0  0
  -22.8450   66.6850   44.1510 C   0  0  0  0  0
  -23.1740   65.8740   42.8780 C   0  0  0  0  0
  -24.4090   64.9640   43.0980 C   0  0  0  0  0
  -24.3950   64.1340   44.4090 C   0  0  0  0  0
  -24.1170   65.0880   45.5870 C   0  0  0  0  0
  -24.0120   64.4050   46.9540 C   0  0  0  0  0
  -23.4790   66.8480   41.8410 O   0  0  0  0  0
  -24.4610   64.0920   41.9600 O   0  0  0  0  0
  -23.3220   63.1760   44.3780 O   0  0  0  0  0
  -22.8520   65.8050   45.3200 O   0  0  0  0  0
  -23.9450   65.4500   47.9240 O   0  0  0  0  0
  -27.2706   75.0190   45.4630 H   0  0  0  0  0
  -29.9224   73.9915   44.2223 H   0  0  0  0  0
  -29.2111   76.6512   45.5167 H   0  0  0  0  0
  -30.9590   76.3838   46.8833 H   0  0  0  0  0
  -28.6316   75.4320   47.8798 H   0  0  0  0  0
  -30.9919   73.2908   47.9351 H   0  0  0  0  0
  -31.1330   74.6453   48.8462 H   0  0  0  0  0
  -28.2580   74.7668   42.7482 H   0  0  0  0  0
  -30.6138   76.7904   43.6318 H   0  0  0  0  0
  -32.3099   74.5921   46.3956 H   0  0  0  0  0
  -29.7682   73.0190   50.0021 H   0  0  0  0  0
  -25.0767   70.5193   46.3068 H   0  0  0  0  0
  -27.0651   70.5534   44.0571 H   0  0  0  0  0
  -26.1231   72.7358   45.9424 H   0  0  0  0  0
  -25.7714   72.6446   42.8909 H   0  0  0  0  0
  -23.8983   74.4129   44.4069 H   0  0  0  0  0
  -25.4862   74.9093   44.6353 H   0  0  0  0  0
  -24.5903   70.1505   43.3302 H   0  0  0  0  0
  -24.6831   68.3802   45.4384 H   0  0  0  0  0
  -28.4736   71.2372   45.7819 H   0  0  0  0  0
  -24.6916   75.5908   42.5050 H   0  0  0  0  0
  -18.2839   69.9158   45.0857 H   0  0  0  0  0
  -20.0032   68.7462   47.3389 H   0  0  0  0  0
  -19.0104   67.2697   44.8258 H   0  0  0  0  0
  -21.7283   68.2098   45.7864 H   0  0  0  0  0
  -20.0793   69.1425   43.4160 H   0  0  0  0  0
  -21.7805   71.0041   43.1522 H   0  0  0  0  0
  -22.4339   69.4200   42.8093 H   0  0  0  0  0
  -15.2428   66.7368   47.1236 H   0  0  0  0  0
  -14.7893   68.4585   47.1573 H   0  0  0  0  0
  -15.8895   67.8031   48.3947 H   0  0  0  0  0
  -17.8784   68.2275   48.1676 H   0  0  0  0  0
  -18.6055   71.8706   46.3298 H   0  0  0  0  0
  -20.3002   65.6515   45.8804 H   0  0  0  0  0
  -23.5593   67.4909   44.3197 H   0  0  0  0  0
  -22.3349   65.2319   42.6102 H   0  0  0  0  0
  -25.2889   65.5991   43.2013 H   0  0  0  0  0
  -25.3526   63.6244   44.5155 H   0  0  0  0  0
  -24.9753   65.7572   45.6476 H   0  0  0  0  0
  -23.1295   63.7673   47.0053 H   0  0  0  0  0
  -24.8709   63.7587   47.1348 H   0  0  0  0  0
  -23.6913   66.3891   41.0250 H   0  0  0  0  0
  -25.2134   63.5018   42.0447 H   0  0  0  0  0
  -23.3234   62.6691   45.1933 H   0  0  0  0  0
  -23.8779   65.0667   48.8016 H   0  0  0  0  0
  1  2  1  0  0  0
  7  1  1  0  0  0
  1 11  1  0  0  0
  2  3  1  0  0  0
  2  8  1  0  0  0
  3  4  1  0  0  0
  3  9  1  0  0  0
  5  4  1  0  0  0
  4 10  1  0  0  0
  5  6  1  0  0  0
 11  5  1  0  0  0
  6 12  1  0  0  0
 15  7  1  0  0  0
 13 14  1  0  0  0
 18 13  1  0  0  0
 13 20  1  0  0  0
 14 15  1  0  0  0
 14 21  1  0  0  0
 16 15  1  0  0  0
 16 17  1  0  0  0
 22 16  1  0  0  0
 17 23  1  0  0  0
 19 18  1  0  0  0
 18 22  1  0  0  0
 29 19  1  0  0  0
 25 24  1  0  0  0
 24 33  1  0  0  0
 24 36  1  0  0  0
 25 26  1  0  0  0
 32 25  1  0  0  0
 26 27  1  0  0  0
 26 34  1  0  0  0
 27 28  1  0  0  0
 27 35  1  0  0  0
 28 29  1  0  0  0
 36 28  1  0  0  0
 30 31  1  0  0  0
 30 32  1  0  0  0
 30 37  2  0  0  0
 35 38  1  0  0  0
 38 39  1  0  0  0
 38 47  1  0  0  0
 39 40  1  0  0  0
 39 44  1  0  0  0
 40 41  1  0  0  0
 40 45  1  0  0  0
 41 42  1  0  0  0
 41 46  1  0  0  0
 42 43  1  0  0  0
 42 47  1  0  0  0
 43 48  1  0  0  0
  1 49  1  0  0  0
  2 50  1  0  0  0
  3 51  1  0  0  0
  4 52  1  0  0  0
  5 53  1  0  0  0
  6 54  1  0  0  0
  6 55  1  0  0  0
  8 56  1  0  0  0
  9 57  1  0  0  0
 10 58  1  0  0  0
 12 59  1  0  0  0
 13 60  1  0  0  0
 14 61  1  0  0  0
 15 62  1  0  0  0
 16 63  1  0  0  0
 17 64  1  0  0  0
 17 65  1  0  0  0
 18 66  1  0  0  0
 20 67  1  0  0  0
 21 68  1  0  0  0
 23 69  1  0  0  0
 24 70  1  0  0  0
 25 71  1  0  0  0
 26 72  1  0  0  0
 27 73  1  0  0  0
 28 74  1  0  0  0
 29 75  1  0  0  0
 29 76  1  0  0  0
 31 77  1  0  0  0
 31 78  1  0  0  0
 31 79  1  0  0  0
 32 80  1  0  0  0
 33 81  1  0  0  0
 34 82  1  0  0  0
 38 83  1  0  0  0
 39 84  1  0  0  0
 40 85  1  0  0  0
 41 86  1  0  0  0
 42 87  1  0  0  0
 43 88  1  0  0  0
 43 89  1  0  0  0
 44 90  1  0  0  0
 45 91  1  0  0  0
 46 92  1  0  0  0
 48 93  1  0  0  0
M  END
$$$$
