1b5g_ligand
  -I-interpret- 

 78 82  0  0  0  0  0  0  0  0999 V2000
   16.4090  -12.7630   20.1670 C   0  0  0  0  0
   15.9940  -13.7530   19.5710 O   0  0  0  0  0
   17.7970  -12.7800   20.8170 C   0  0  0  0  0
   18.9650  -12.7520   19.8060 C   0  0  0  0  0
   19.4410  -14.2310   19.7100 C   0  0  0  0  0
   19.3420  -14.6980   21.1760 C   0  0  0  0  0
   19.3860  -16.2100   21.4240 C   0  0  0  0  0
   18.7590  -16.6540   22.7340 C   0  0  0  0  0
   17.4970  -15.8880   23.1740 C   0  0  0  0  0
   17.2390  -14.5030   22.5070 C   0  0  0  0  0
   16.1710  -13.9540   22.7370 O   0  0  0  0  0
   18.0630  -14.0350   21.5470 N   0  0  0  0  0
   17.4410  -15.7980   24.6440 N   0  3  0  0  0
   16.2530  -16.6920   22.7090 C   0  0  0  0  0
   16.4480  -18.1420   23.1610 C   0  0  0  0  0
   17.3280  -18.9820   22.4920 C   0  0  0  0  0
   17.5160  -20.3040   22.9380 C   0  0  0  0  0
   16.8030  -20.7720   24.0410 C   0  0  0  0  0
   15.8810  -19.9380   24.6970 C   0  0  0  0  0
   15.6990  -18.6270   24.2420 C   0  0  0  0  0
   15.6720  -11.6230   20.2770 N   0  0  0  0  0
   14.3470  -11.5840   19.6000 C   0  0  0  0  0
   14.5720  -10.7420   18.3200 C   0  0  0  0  0
   13.5590  -10.2060   17.7980 O   0  0  0  0  0
   13.3210  -10.7920   20.4900 C   0  0  0  0  0
   13.0360  -11.7540   21.6670 C   0  0  0  0  0
   12.0530  -11.2570   22.6120 C   0  0  0  0  0
   11.6180  -12.3610   23.4780 N   0  0  0  0  0
   10.6290  -12.1130   24.3290 C   0  0  0  0  0
   10.4870  -10.8120   24.6690 N   0  0  0  0  0
    9.8180  -13.0660   24.7960 N   0  0  0  0  0
   15.6140  -11.2400   17.2720 C   0  0  0  0  0
   16.8080  -10.9240   17.1060 N   0  0  0  0  0
   17.4220  -11.6190   16.0750 C   0  0  0  0  0
   18.7580  -11.4790   15.6340 C   0  0  0  0  0
   19.2140  -12.2400   14.5300 C   0  0  0  0  0
   18.3480  -13.1380   13.8870 C   0  0  0  0  0
   17.0050  -13.2580   14.3220 C   0  0  0  0  0
   16.5980  -12.4800   15.4120 C   0  0  0  0  0
   15.0320  -12.4580   16.0840 S   0  0  0  0  0
   17.7639  -11.8921   21.4484 H   0  0  0  0  0
   19.7662  -12.0873   20.1290 H   0  0  0  0  0
   18.6545  -12.3613   18.8370 H   0  0  0  0  0
   20.4420  -14.3351   19.2914 H   0  0  0  0  0
   18.8433  -14.8323   19.0250 H   0  0  0  0  0
   20.2060  -14.4300   21.7841 H   0  0  0  0  0
   20.4372  -16.4959   21.4613 H   0  0  0  0  0
   18.8161  -16.6806   20.6228 H   0  0  0  0  0
   19.5079  -16.4784   23.5063 H   0  0  0  0  0
   18.4530  -17.6903   22.5906 H   0  0  0  0  0
   16.6014  -15.2890   24.9205 H   0  0  0  0  0
   17.4165  -16.7376   25.0403 H   0  0  0  0  0
   18.2665  -15.3053   24.9850 H   0  0  0  0  0
   16.1490  -16.6409   21.6252 H   0  0  0  0  0
   15.3448  -16.2754   23.1446 H   0  0  0  0  0
   17.8734  -18.6179   21.6213 H   0  0  0  0  0
   18.2172  -20.9601   22.4223 H   0  0  0  0  0
   16.9614  -21.7901   24.3966 H   0  0  0  0  0
   15.3138  -20.3084   25.5510 H   0  0  0  0  0
   14.9709  -17.9797   24.7309 H   0  0  0  0  0
   16.0168  -10.8220   20.8061 H   0  0  0  0  0
   13.9702  -12.5888   19.4088 H   0  0  0  0  0
   15.0997   -9.9221   18.8072 H   0  0  0  0  0
   13.8248   -9.7148   17.0172 H   0  0  0  0  0
   12.4166  -10.5248   19.9435 H   0  0  0  0  0
   13.7150   -9.8322   20.8240 H   0  0  0  0  0
   13.9711  -11.8837   22.2119 H   0  0  0  0  0
   12.6383  -12.6756   21.2419 H   0  0  0  0  0
   11.1958  -10.8548   22.0721 H   0  0  0  0  0
   12.4947  -10.4668   23.2191 H   0  0  0  0  0
   12.0574  -13.2801   23.4278 H   0  0  0  0  0
    9.7400  -10.5293   25.3033 H   0  0  0  0  0
   11.1269  -10.1133   24.2911 H   0  0  0  0  0
    9.9449  -14.0338   24.5000 H   0  0  0  0  0
   19.4331  -10.7894   16.1407 H   0  0  0  0  0
   20.2398  -12.1280   14.1789 H   0  0  0  0  0
   18.7081  -13.7421   13.0543 H   0  0  0  0  0
   16.3108  -13.9347   13.8237 H   0  0  0  0  0
  1  2  2  0  0  0
  1  3  1  0  0  0
  1 21  1  0  0  0
  3  4  1  0  0  0
  3 12  1  0  0  0
  4  5  1  0  0  0
  5  6  1  0  0  0
  6  7  1  0  0  0
  6 12  1  0  0  0
  7  8  1  0  0  0
  8  9  1  0  0  0
  9 10  1  0  0  0
  9 13  1  0  0  0
  9 14  1  0  0  0
 10 11  2  0  0  0
 10 12  1  0  0  0
 14 15  1  0  0  0
 15 16  4  0  0  0
 15 20  4  0  0  0
 16 17  4  0  0  0
 17 18  4  0  0  0
 18 19  4  0  0  0
 19 20  4  0  0  0
 21 22  1  0  0  0
 22 23  1  0  0  0
 22 25  1  0  0  0
 23 24  1  0  0  0
 23 32  1  0  0  0
 25 26  1  0  0  0
 26 27  1  0  0  0
 27 28  1  0  0  0
 28 29  1  0  0  0
 29 30  1  0  0  0
 29 31  2  0  0  0
 32 33  4  0  0  0
 32 40  4  0  0  0
 33 34  4  0  0  0
 34 35  4  0  0  0
 34 39  4  0  0  0
 35 36  4  0  0  0
 36 37  4  0  0  0
 37 38  4  0  0  0
 38 39  4  0  0  0
 39 40  4  0  0  0
  3 41  1  0  0  0
  4 42  1  0  0  0
  4 43  1  0  0  0
  5 44  1  0  0  0
  5 45  1  0  0  0
  6 46  1  0  0  0
  7 47  1  0  0  0
  7 48  1  0  0  0
  8 49  1  0  0  0
  8 50  1  0  0  0
 13 51  1  0  0  0
 13 52  1  0  0  0
 13 53  1  0  0  0
 14 54  1  0  0  0
 14 55  1  0  0  0
 16 56  1  0  0  0
 17 57  1  0  0  0
 18 58  1  0  0  0
 19 59  1  0  0  0
 20 60  1  0  0  0
 21 61  1  0  0  0
 22 62  1  0  0  0
 23 63  1  0  0  0
 24 64  1  0  0  0
 25 65  1  0  0  0
 25 66  1  0  0  0
 26 67  1  0  0  0
 26 68  1  0  0  0
 27 69  1  0  0  0
 27 70  1  0  0  0
 28 71  1  0  0  0
 30 72  1  0  0  0
 30 73  1  0  0  0
 31 74  1  0  0  0
 35 75  1  0  0  0
 36 76  1  0  0  0
 37 77  1  0  0  0
 38 78  1  0  0  0
M  END
$$$$
