6mm5_ligand
  -I-interpret- 

213213  0  0  0  0  0  0  0  0999 V2000
   11.9900    3.4090   30.7220 N   0  3  0  0  0
   10.8330    4.1930   30.1960 C   0  0  0  0  0
    9.9060    3.2670   29.4090 C   0  0  0  0  0
   10.2920    2.8070   28.3170 O   0  0  0  0  0
   11.3230    5.3270   29.2930 C   0  0  0  0  0
   10.2080    6.1870   28.6830 C   0  0  0  0  0
    9.2620    6.7030   29.7530 C   0  0  0  0  0
   10.7870    7.3420   27.8870 C   0  0  0  0  0
    8.7140    3.0270   29.9450 N   0  0  0  0  0
    7.7380    2.1150   29.3160 C   0  0  0  0  0
    7.1700    2.7790   28.0660 C   0  0  0  0  0
    6.7660    3.9780   28.0700 O   0  0  0  0  0
    6.6400    1.7400   30.3120 C   0  0  0  0  0
    5.6120    0.8440   29.6720 C   0  0  0  0  0
    5.9740   -0.3840   29.1310 C   0  0  0  0  0
    4.2940    1.2560   29.5380 C   0  0  0  0  0
    5.0420   -1.2020   28.5100 C   0  0  0  0  0
    3.3530    0.4530   28.9200 C   0  0  0  0  0
    3.7220   -0.7800   28.4030 C   0  0  0  0  0
    2.7710   -1.5200   27.7450 O   0  0  0  0  0
    7.1480    2.0230   26.9820 N   0  0  0  0  0
    6.5160    2.4630   25.7290 C   0  0  0  0  0
    5.0060    2.1940   25.8190 C   0  0  0  0  0
    4.6140    1.0160   25.8400 O   0  0  0  0  0
    7.2140    1.7800   24.5570 C   0  0  0  0  0
    6.6640    2.2330   23.2340 C   0  0  0  0  0
    5.5970    2.8540   23.1670 O   0  0  0  0  0
    7.3720    1.8920   22.1710 N   0  0  0  0  0
    4.1710    3.2410   25.8010 N   0  0  0  0  0
    2.7220    3.0780   26.0890 C   0  0  0  0  0
    1.9150    2.8740   24.8180 C   0  0  0  0  0
    0.6680    2.7950   24.9350 O   0  0  0  0  0
    2.1960    4.2560   26.9140 C   0  0  0  0  0
    2.5370    4.1220   28.3850 C   0  0  0  0  0
    2.0940    5.3250   29.1920 C   0  0  0  0  0
    2.9210    6.4700   28.8840 N   0  0  0  0  0
    2.4790    7.7160   28.8530 C   0  0  0  0  0
    1.1860    7.9810   29.0280 N   0  0  0  0  0
    3.3430    8.6780   28.6130 N   0  0  0  0  0
    2.5830    2.6980   23.6710 N   0  0  0  0  0
    1.9440    2.3720   22.3810 C   0  0  0  0  0
    1.1970    1.0420   22.4520 C   0  0  0  0  0
    1.6370    0.1290   23.1970 O   0  0  0  0  0
    2.9900    2.3100   21.2660 C   0  0  0  0  0
    3.8030    3.4740   21.4070 O   0  0  0  0  0
    2.3740    2.2680   19.8950 C   0  0  0  0  0
    0.1210    0.9400   21.6690 N   0  0  0  0  0
   -0.7490   -0.2590   21.5990 C   0  0  0  0  0
    0.0960   -1.4260   21.0770 C   0  0  0  0  0
    1.0120   -1.2060   20.2720 O   0  0  0  0  0
   -2.0070   -0.0390   20.7500 C   0  0  0  0  0
   -1.8080   -0.2700   19.2610 C   0  0  0  0  0
   -3.0410   -0.0640   18.3860 C   0  0  0  0  0
   -4.0100   -1.1570   18.4670 N   0  0  0  0  0
   -5.0690   -1.1490   19.2700 C   0  0  0  0  0
   -5.8910   -2.1830   19.2960 N   0  0  0  0  0
   -5.2810   -0.1100   20.0580 N   0  0  0  0  0
   -0.2120   -2.6260   21.5530 N   0  0  0  0  0
    0.6260   -3.8300   21.3580 C   0  0  0  0  0
   -0.0030   -4.7480   20.3030 C   0  0  0  0  0
   -1.2070   -4.9650   20.2790 O   0  0  0  0  0
    0.8420   -4.5140   22.7070 C   0  0  0  0  0
    1.7170   -3.7270   23.6650 C   0  0  0  0  0
    1.4430   -4.0230   25.1120 C   0  0  0  0  0
    0.1050   -3.6390   25.5410 N   0  0  0  0  0
   -0.2580   -3.5550   26.8100 C   0  0  0  0  0
    0.6190   -3.8430   27.7560 N   0  0  0  0  0
   -1.4910   -3.1530   27.1230 N   0  0  0  0  0
    0.8670   -5.3290   19.4900 N   0  0  0  0  0
    0.5690   -6.3090   18.4280 C   0  0  0  0  0
    0.6700   -7.7190   19.0050 C   0  0  0  0  0
    1.6660   -8.0440   19.6900 O   0  0  0  0  0
    1.5640   -6.0960   17.2570 C   0  0  0  0  0
    1.3760   -4.7320   16.5860 C   0  0  0  0  0
    1.4860   -7.2300   16.2550 C   0  0  0  0  0
    2.5120   -4.3400   15.6250 C   0  0  0  0  0
   -0.3210   -8.5340   18.7030 N   0  0  0  0  0
   -0.3550   -9.9730   19.0370 C   0  0  0  0  0
    0.0010  -10.7570   17.7720 C   0  0  0  0  0
   -0.4850  -10.3770   16.6810 O   0  0  0  0  0
   -1.7030  -10.3690   19.5530 C   0  0  0  0  0
   -2.0620   -9.6040   20.6940 O   0  0  0  0  0
    0.7630  -11.8310   17.9410 N   0  0  0  0  0
    1.3650  -12.6160   16.8290 C   0  0  0  0  0
    1.3700  -14.0890   17.2200 C   0  0  0  0  0
    1.4570  -14.3840   18.4110 O   0  0  0  0  0
    2.8220  -12.2010   16.5640 C   0  0  0  0  0
    2.9430  -10.7690   16.0640 C   0  0  0  0  0
    4.3640  -10.3630   15.7470 C   0  0  0  0  0
    5.0470  -10.9860   14.9350 O   0  0  0  0  0
    4.8170   -9.3010   16.3950 N   0  0  0  0  0
    1.3190  -14.9590   16.2280 N   0  0  0  0  0
    1.3690  -16.4210   16.4250 C   0  0  0  0  0
    2.5740  -16.9290   15.6510 C   0  0  0  0  0
    2.7020  -16.5720   14.4660 O   0  0  0  0  0
    0.0210  -17.0640   16.0980 C   0  0  0  0  0
    0.1210  -18.4340   16.4780 O   0  0  0  0  0
   -0.3780  -16.9210   14.6530 C   0  0  0  0  0
    3.4060  -17.7010   16.3540 N   0  0  0  0  0
    4.8180  -18.0470   16.0360 C   0  0  0  0  0
    5.6390  -16.7660   15.8660 C   0  0  0  0  0
    5.8680  -16.1120   16.8870 O   0  0  0  0  0
    4.9010  -18.9450   14.8470 C   0  0  0  0  0
    4.0280  -20.0440   15.0210 O   0  0  0  0  0
    6.0070  -16.4880   14.7210 O   0  0  0  0  0
   11.6463    2.6584   31.3210 H   0  0  0  0  0
   12.5122    3.0107   29.9416 H   0  0  0  0  0
   12.5990    4.0243   31.2614 H   0  0  0  0  0
   10.2888    4.6272   31.0347 H   0  0  0  0  0
   11.8570    4.8640   28.4632 H   0  0  0  0  0
   11.9300    5.9869   29.9129 H   0  0  0  0  0
    9.6381    5.5521   28.0046 H   0  0  0  0  0
    9.8054    7.3635   30.4287 H   0  0  0  0  0
    8.4478    7.2534   29.2816 H   0  0  0  0  0
    8.8562    5.8612   30.3140 H   0  0  0  0  0
    9.9777    7.8944   27.4097 H   0  0  0  0  0
   11.3352    8.0045   28.5568 H   0  0  0  0  0
   11.4626    6.9537   27.1248 H   0  0  0  0  0
    8.4650    3.4882   30.8201 H   0  0  0  0  0
    8.2305    1.1886   29.0204 H   0  0  0  0  0
    6.1473    2.6522   30.6485 H   0  0  0  0  0
    7.0939    1.2088   31.1486 H   0  0  0  0  0
    7.0118   -0.7109   29.1961 H   0  0  0  0  0
    3.9951    2.2295   29.9266 H   0  0  0  0  0
    5.3427   -2.1697   28.1084 H   0  0  0  0  0
    2.3194    0.7896   28.8390 H   0  0  0  0  0
    1.9284   -1.0615   27.7819 H   0  0  0  0  0
    7.5848    1.1019   27.0157 H   0  0  0  0  0
    6.6271    3.5346   25.5636 H   0  0  0  0  0
    7.0533    0.7054   24.6434 H   0  0  0  0  0
    8.2724    2.0380   24.5929 H   0  0  0  0  0
    7.0437    2.1416   21.2381 H   0  0  0  0  0
    8.2465    1.3793   22.2837 H   0  0  0  0  0
    4.5367    4.1685   25.5854 H   0  0  0  0  0
    2.6003    2.1740   26.6858 H   0  0  0  0  0
    1.1105    4.2794   26.8182 H   0  0  0  0  0
    2.6619    5.1674   26.5394 H   0  0  0  0  0
    3.6200    4.0364   28.4738 H   0  0  0  0  0
    2.0180    3.2456   28.7732 H   0  0  0  0  0
    2.1872    5.0947   30.2533 H   0  0  0  0  0
    1.0585    5.5576   28.9436 H   0  0  0  0  0
    3.9065    6.3067   28.6778 H   0  0  0  0  0
    0.8511    8.9431   28.9768 H   0  0  0  0  0
    0.5303    7.2219   29.2133 H   0  0  0  0  0
    4.3257    8.4536   28.4567 H   0  0  0  0  0
    3.5982    2.7954   23.6899 H   0  0  0  0  0
    1.2261    3.1623   22.1616 H   0  0  0  0  0
    3.5701    1.3919   21.3594 H   0  0  0  0  0
    4.4773    3.4767   20.7237 H   0  0  0  0  0
    1.7408    1.3849   19.8095 H   0  0  0  0  0
    1.7728    3.1640   19.7406 H   0  0  0  0  0
    3.1634    2.2247   19.1446 H   0  0  0  0  0
   -0.1184    1.7382   21.0808 H   0  0  0  0  0
   -1.1236   -0.4835   22.5977 H   0  0  0  0  0
   -2.2994    1.0035   20.8757 H   0  0  0  0  0
   -2.7515   -0.7595   21.0887 H   0  0  0  0  0
   -1.5213   -1.3155   19.1474 H   0  0  0  0  0
   -1.0712    0.4627   18.9318 H   0  0  0  0  0
   -2.7006   -0.0066   17.3521 H   0  0  0  0  0
   -3.5402    0.8401   18.7345 H   0  0  0  0  0
   -3.8644   -1.9729   17.8724 H   0  0  0  0  0
   -6.6931   -2.1812   19.9262 H   0  0  0  0  0
   -5.7236   -2.9831   18.6859 H   0  0  0  0  0
   -4.6342    0.6786   20.0473 H   0  0  0  0  0
   -1.0771   -2.7241   22.0844 H   0  0  0  0  0
    1.6085   -3.5562   20.9736 H   0  0  0  0  0
    1.3458   -5.4608   22.5125 H   0  0  0  0  0
   -0.1362   -4.6205   23.1758 H   0  0  0  0  0
    1.5094   -2.6693   23.5030 H   0  0  0  0  0
    2.7519   -4.0046   23.4651 H   0  0  0  0  0
    2.1545   -3.4476   25.7043 H   0  0  0  0  0
    1.5340   -5.1006   25.2487 H   0  0  0  0  0
   -0.5886   -3.4235   24.8249 H   0  0  0  0  0
    1.5658   -4.1269   27.5044 H   0  0  0  0  0
   -1.7658   -3.0650   28.1013 H   0  0  0  0  0
   -2.1589   -2.9336   26.3840 H   0  0  0  0  0
    1.8465   -5.0715   19.6111 H   0  0  0  0  0
   -0.4430   -6.1733   18.0465 H   0  0  0  0  0
    2.5681   -6.1020   17.6811 H   0  0  0  0  0
    1.3528   -3.9841   17.3786 H   0  0  0  0  0
    0.4607   -4.7869   15.9966 H   0  0  0  0  0
    1.7298   -8.1692   16.7515 H   0  0  0  0  0
    0.4765   -7.2843   15.8475 H   0  0  0  0  0
    2.1958   -7.0493   15.4478 H   0  0  0  0  0
    3.4529   -4.3003   16.1738 H   0  0  0  0  0
    2.5850   -5.0813   14.8292 H   0  0  0  0  0
    2.2999   -3.3617   15.1936 H   0  0  0  0  0
   -1.1204   -8.1440   18.2038 H   0  0  0  0  0
    0.3640  -10.1925   19.8262 H   0  0  0  0  0
   -1.6716  -11.4212   19.8358 H   0  0  0  0  0
   -2.4405  -10.1925   18.7700 H   0  0  0  0  0
   -2.9286   -9.8788   21.0024 H   0  0  0  0  0
    0.9480  -12.1384   18.8958 H   0  0  0  0  0
    0.7750  -12.4332   15.9309 H   0  0  0  0  0
    3.2227  -12.8596   15.7934 H   0  0  0  0  0
    3.3673  -12.2741   17.5050 H   0  0  0  0  0
    2.5822  -10.1125   16.8558 H   0  0  0  0  0
    2.3657  -10.6924   15.1426 H   0  0  0  0  0
    5.7672   -8.9694   16.2292 H   0  0  0  0  0
    4.2158   -8.8145   17.0600 H   0  0  0  0  0
    1.2410  -14.6021   15.2757 H   0  0  0  0  0
    1.5180  -16.7073   17.4661 H   0  0  0  0  0
   -0.7682  -16.5519   16.6484 H   0  0  0  0  0
   -0.7085  -18.8787   16.2891 H   0  0  0  0  0
   -0.4505  -15.8632   14.4004 H   0  0  0  0  0
    0.3727  -17.3961   14.0214 H   0  0  0  0  0
   -1.3440  -17.4006   14.4950 H   0  0  0  0  0
    3.0283  -18.1020   17.2125 H   0  0  0  0  0
    5.2457  -18.6071   16.8676 H   0  0  0  0  0
    5.9230  -19.3079   14.7377 H   0  0  0  0  0
    4.6125  -18.3910   13.9537 H   0  0  0  0  0
    4.0835  -20.6198   14.2548 H   0  0  0  0  0
    5.6947  -17.1622   14.1132 H   0  0  0  0  0
  1  2  1  0  0  0
  2  3  1  0  0  0
  2  5  1  0  0  0
  3  4  2  0  0  0
  3  9  1  0  0  0
  5  6  1  0  0  0
  6  7  1  0  0  0
  6  8  1  0  0  0
  9 10  1  0  0  0
 10 11  1  0  0  0
 10 13  1  0  0  0
 11 12  2  0  0  0
 11 21  1  0  0  0
 13 14  1  0  0  0
 14 15  4  0  0  0
 14 16  4  0  0  0
 15 17  4  0  0  0
 16 18  4  0  0  0
 17 19  4  0  0  0
 18 19  4  0  0  0
 19 20  1  0  0  0
 21 22  1  0  0  0
 22 23  1  0  0  0
 22 25  1  0  0  0
 23 24  2  0  0  0
 23 29  1  0  0  0
 25 26  1  0  0  0
 26 27  2  0  0  0
 26 28  1  0  0  0
 29 30  1  0  0  0
 30 31  1  0  0  0
 30 33  1  0  0  0
 31 32  2  0  0  0
 31 40  1  0  0  0
 33 34  1  0  0  0
 34 35  1  0  0  0
 35 36  1  0  0  0
 36 37  1  0  0  0
 37 38  1  0  0  0
 37 39  2  0  0  0
 40 41  1  0  0  0
 41 42  1  0  0  0
 41 44  1  0  0  0
 42 43  2  0  0  0
 42 47  1  0  0  0
 44 45  1  0  0  0
 44 46  1  0  0  0
 47 48  1  0  0  0
 48 49  1  0  0  0
 48 51  1  0  0  0
 49 50  2  0  0  0
 49 58  1  0  0  0
 51 52  1  0  0  0
 52 53  1  0  0  0
 53 54  1  0  0  0
 54 55  1  0  0  0
 55 56  1  0  0  0
 55 57  2  0  0  0
 58 59  1  0  0  0
 59 60  1  0  0  0
 59 62  1  0  0  0
 60 61  2  0  0  0
 60 69  1  0  0  0
 62 63  1  0  0  0
 63 64  1  0  0  0
 64 65  1  0  0  0
 65 66  1  0  0  0
 66 67  2  0  0  0
 66 68  1  0  0  0
 69 70  1  0  0  0
 70 71  1  0  0  0
 70 73  1  0  0  0
 71 72  2  0  0  0
 71 77  1  0  0  0
 73 74  1  0  0  0
 73 75  1  0  0  0
 74 76  1  0  0  0
 77 78  1  0  0  0
 78 79  1  0  0  0
 78 81  1  0  0  0
 79 80  2  0  0  0
 79 83  1  0  0  0
 81 82  1  0  0  0
 83 84  1  0  0  0
 84 85  1  0  0  0
 84 87  1  0  0  0
 85 86  2  0  0  0
 85 92  1  0  0  0
 87 88  1  0  0  0
 88 89  1  0  0  0
 89 90  2  0  0  0
 89 91  1  0  0  0
 92 93  1  0  0  0
 93 94  1  0  0  0
 93 96  1  0  0  0
 94 95  2  0  0  0
 94 99  1  0  0  0
 96 97  1  0  0  0
 96 98  1  0  0  0
 99100  1  0  0  0
100101  1  0  0  0
100103  1  0  0  0
101102  2  0  0  0
101105  1  0  0  0
103104  1  0  0  0
  1106  1  0  0  0
  1107  1  0  0  0
  1108  1  0  0  0
  2109  1  0  0  0
  5110  1  0  0  0
  5111  1  0  0  0
  6112  1  0  0  0
  7113  1  0  0  0
  7114  1  0  0  0
  7115  1  0  0  0
  8116  1  0  0  0
  8117  1  0  0  0
  8118  1  0  0  0
  9119  1  0  0  0
 10120  1  0  0  0
 13121  1  0  0  0
 13122  1  0  0  0
 15123  1  0  0  0
 16124  1  0  0  0
 17125  1  0  0  0
 18126  1  0  0  0
 20127  1  0  0  0
 21128  1  0  0  0
 22129  1  0  0  0
 25130  1  0  0  0
 25131  1  0  0  0
 28132  1  0  0  0
 28133  1  0  0  0
 29134  1  0  0  0
 30135  1  0  0  0
 33136  1  0  0  0
 33137  1  0  0  0
 34138  1  0  0  0
 34139  1  0  0  0
 35140  1  0  0  0
 35141  1  0  0  0
 36142  1  0  0  0
 38143  1  0  0  0
 38144  1  0  0  0
 39145  1  0  0  0
 40146  1  0  0  0
 41147  1  0  0  0
 44148  1  0  0  0
 45149  1  0  0  0
 46150  1  0  0  0
 46151  1  0  0  0
 46152  1  0  0  0
 47153  1  0  0  0
 48154  1  0  0  0
 51155  1  0  0  0
 51156  1  0  0  0
 52157  1  0  0  0
 52158  1  0  0  0
 53159  1  0  0  0
 53160  1  0  0  0
 54161  1  0  0  0
 56162  1  0  0  0
 56163  1  0  0  0
 57164  1  0  0  0
 58165  1  0  0  0
 59166  1  0  0  0
 62167  1  0  0  0
 62168  1  0  0  0
 63169  1  0  0  0
 63170  1  0  0  0
 64171  1  0  0  0
 64172  1  0  0  0
 65173  1  0  0  0
 67174  1  0  0  0
 68175  1  0  0  0
 68176  1  0  0  0
 69177  1  0  0  0
 70178  1  0  0  0
 73179  1  0  0  0
 74180  1  0  0  0
 74181  1  0  0  0
 75182  1  0  0  0
 75183  1  0  0  0
 75184  1  0  0  0
 76185  1  0  0  0
 76186  1  0  0  0
 76187  1  0  0  0
 77188  1  0  0  0
 78189  1  0  0  0
 81190  1  0  0  0
 81191  1  0  0  0
 82192  1  0  0  0
 83193  1  0  0  0
 84194  1  0  0  0
 87195  1  0  0  0
 87196  1  0  0  0
 88197  1  0  0  0
 88198  1  0  0  0
 91199  1  0  0  0
 91200  1  0  0  0
 92201  1  0  0  0
 93202  1  0  0  0
 96203  1  0  0  0
 97204  1  0  0  0
 98205  1  0  0  0
 98206  1  0  0  0
 98207  1  0  0  0
 99208  1  0  0  0
100209  1  0  0  0
103210  1  0  0  0
103211  1  0  0  0
104212  1  0  0  0
105213  1  0  0  0
M  END
$$$$
