### 
### Created by X-TOOL on Mon Aug  2 16:14:56 2021
### 

@<TRIPOS>MOLECULE
6mm5_ligand
  215   215     1     0     0
SMALL
GAST_HUCK


@<TRIPOS>ATOM
      1 N          11.9900    3.4090   30.7220 N.4       1 LEU         0.2379
      2 CA         10.8330    4.1930   30.1960 C.3       1 LEU         0.0652
      3 C           9.9060    3.2670   29.4090 C.2       1 LEU         0.2268
      4 O          10.2920    2.8070   28.3170 O.2       1 LEU        -0.3907
      5 CB         11.3230    5.3270   29.2930 C.3       1 LEU         0.0102
      6 CG         10.2080    6.1870   28.6830 C.3       1 LEU        -0.0394
      7 CD1         9.2620    6.7030   29.7530 C.3       1 LEU        -0.0623
      8 CD2        10.7870    7.3420   27.8870 C.3       1 LEU        -0.0623
      9 N           8.7140    3.0270   29.9450 N.am      1 LEU        -0.2594
     10 CA          7.7380    2.1150   29.3160 C.3       1 LEU         0.1391
     11 C           7.1700    2.7790   28.0660 C.2       1 LEU         0.2059
     12 O           6.7660    3.9780   28.0700 O.2       1 LEU        -0.3942
     13 CB          6.6400    1.7400   30.3120 C.3       1 LEU         0.0164
     14 CG          5.6120    0.8440   29.6720 C.ar      1 LEU        -0.0493
     15 CD1         5.9740   -0.3840   29.1310 C.ar      1 LEU        -0.0685
     16 CD2         4.2940    1.2560   29.5380 C.ar      1 LEU        -0.0685
     17 CE1         5.0420   -1.2020   28.5100 C.ar      1 LEU        -0.0398
     18 CE2         3.3530    0.4530   28.9200 C.ar      1 LEU        -0.0398
     19 CZ          3.7220   -0.7800   28.4030 C.ar      1 LEU         0.0805
     20 OH          2.7710   -1.5200   27.7450 O.3       1 LEU        -0.3376
     21 N           7.1480    2.0230   26.9820 N.am      1 LEU        -0.2615
     22 CA          6.5160    2.4630   25.7290 C.3       1 LEU         0.1476
     23 C           5.0060    2.1940   25.8190 C.2       1 LEU         0.2063
     24 O           4.6140    1.0160   25.8400 O.2       1 LEU        -0.3942
     25 CB          7.2140    1.7800   24.5570 C.3       1 LEU         0.0773
     26 CG          6.6640    2.2330   23.2340 C.2       1 LEU         0.1780
     27 OD1         5.5970    2.8540   23.1670 O.2       1 LEU        -0.3970
     28 ND2         7.3720    1.8920   22.1710 N.am      1 LEU        -0.3007
     29 N           4.1710    3.2410   25.8010 N.am      1 LEU        -0.2636
     30 CA          2.7220    3.0780   26.0890 C.3       1 LEU         0.1311
     31 C           1.9150    2.8740   24.8180 C.2       1 LEU         0.2040
     32 O           0.6680    2.7950   24.9350 O.2       1 LEU        -0.3944
     33 CB          2.1960    4.2560   26.9140 C.3       1 LEU        -0.0092
     34 CG          2.5370    4.1220   28.3850 C.3       1 LEU        -0.0156
     35 CD          2.0940    5.3250   29.1920 C.3       1 LEU         0.0627
     36 NE          2.9210    6.4700   28.8840 N.pl3     1 LEU        -0.2723
     37 CZ          2.4790    7.7160   28.8530 C.cat     1 LEU         0.2882
     38 NH1         1.1860    7.9810   29.0280 N.pl3     1 LEU        -0.2849
     39 NH2         3.3430    8.6780   28.6130 N.pl3     1 LEU        -0.2849
     40 N           2.5830    2.6980   23.6710 N.am      1 LEU        -0.2613
     41 CA          1.9440    2.3720   22.3810 C.3       1 LEU         0.1565
     42 C           1.1970    1.0420   22.4520 C.2       1 LEU         0.2065
     43 O           1.6370    0.1290   23.1970 O.2       1 LEU        -0.3943
     44 CB          2.9900    2.3100   21.2660 C.3       1 LEU         0.0924
     45 OG1         3.8030    3.4740   21.4070 O.3       1 LEU        -0.3874
     46 CG2         2.3740    2.2680   19.8950 C.3       1 LEU        -0.0346
     47 N           0.1210    0.9400   21.6690 N.am      1 LEU        -0.2636
     48 CA         -0.7490   -0.2590   21.5990 C.3       1 LEU         0.1311
     49 C           0.0960   -1.4260   21.0770 C.2       1 LEU         0.2039
     50 O           1.0120   -1.2060   20.2720 O.2       1 LEU        -0.3944
     51 CB         -2.0070   -0.0390   20.7500 C.3       1 LEU        -0.0092
     52 CG         -1.8080   -0.2700   19.2610 C.3       1 LEU        -0.0156
     53 CD         -3.0410   -0.0640   18.3860 C.3       1 LEU         0.0627
     54 NE         -4.0100   -1.1570   18.4670 N.pl3     1 LEU        -0.2723
     55 CZ         -5.0690   -1.1490   19.2700 C.cat     1 LEU         0.2882
     56 NH1        -5.8910   -2.1830   19.2960 N.pl3     1 LEU        -0.2849
     57 NH2        -5.2810   -0.1100   20.0580 N.pl3     1 LEU        -0.2849
     58 N          -0.2120   -2.6260   21.5530 N.am      1 LEU        -0.2637
     59 CA          0.6260   -3.8300   21.3580 C.3       1 LEU         0.1311
     60 C          -0.0030   -4.7480   20.3030 C.2       1 LEU         0.2039
     61 O          -1.2070   -4.9650   20.2790 O.2       1 LEU        -0.3944
     62 CB          0.8420   -4.5140   22.7070 C.3       1 LEU        -0.0092
     63 CG          1.7170   -3.7270   23.6650 C.3       1 LEU        -0.0156
     64 CD          1.4430   -4.0230   25.1120 C.3       1 LEU         0.0627
     65 NE          0.1050   -3.6390   25.5410 N.pl3     1 LEU        -0.2723
     66 CZ         -0.2580   -3.5550   26.8100 C.cat     1 LEU         0.2882
     67 NH1         0.6190   -3.8430   27.7560 N.pl3     1 LEU        -0.2849
     68 NH2        -1.4910   -3.1530   27.1230 N.pl3     1 LEU        -0.2849
     69 N           0.8670   -5.3290   19.4900 N.am      1 LEU        -0.2635
     70 CA          0.5690   -6.3090   18.4280 C.3       1 LEU         0.1335
     71 C           0.6700   -7.7190   19.0050 C.2       1 LEU         0.2042
     72 O           1.6660   -8.0440   19.6900 O.2       1 LEU        -0.3944
     73 CB          1.5640   -6.0960   17.2570 C.3       1 LEU        -0.0037
     74 CG1         1.3760   -4.7320   16.5860 C.3       1 LEU        -0.0491
     75 CG2         1.4860   -7.2300   16.2550 C.3       1 LEU        -0.0582
     76 CD1         2.5120   -4.3400   15.6250 C.3       1 LEU        -0.0648
     77 N          -0.3210   -8.5340   18.7030 N.am      1 LEU        -0.2616
     78 CA         -0.3550   -9.9730   19.0370 C.3       1 LEU         0.1539
     79 C           0.0010  -10.7570   17.7720 C.2       1 LEU         0.2062
     80 O          -0.4850  -10.3770   16.6810 O.2       1 LEU        -0.3943
     81 CB         -1.7030  -10.3690   19.5530 C.3       1 LEU         0.0843
     82 OG         -2.0620   -9.6040   20.6940 O.3       1 LEU        -0.3903
     83 N           0.7630  -11.8310   17.9410 N.am      1 LEU        -0.2635
     84 CA          1.3650  -12.6160   16.8290 C.3       1 LEU         0.1330
     85 C           1.3700  -14.0890   17.2200 C.2       1 LEU         0.2041
     86 O           1.4570  -14.3840   18.4110 O.2       1 LEU        -0.3944
     87 CB          2.8220  -12.2010   16.5640 C.3       1 LEU         0.0045
     88 CG          2.9430  -10.7690   16.0640 C.3       1 LEU         0.0412
     89 CD          4.3640  -10.3630   15.7470 C.2       1 LEU         0.1737
     90 OE1         5.0470  -10.9860   14.9350 O.2       1 LEU        -0.3973
     91 NE2         4.8170   -9.3010   16.3950 N.am      1 LEU        -0.3009
     92 N           1.3190  -14.9590   16.2280 N.am      1 LEU        -0.2613
     93 CA          1.3690  -16.4210   16.4250 C.3       1 LEU         0.1564
     94 C           2.5740  -16.9290   15.6510 C.2       1 LEU         0.2060
     95 O           2.7020  -16.5720   14.4660 O.2       1 LEU        -0.3943
     96 CB          0.0210  -17.0640   16.0980 C.3       1 LEU         0.0924
     97 OG1         0.1210  -18.4340   16.4780 O.3       1 LEU        -0.3874
     98 CG2        -0.3780  -16.9210   14.6530 C.3       1 LEU        -0.0346
     99 N           3.4060  -17.7010   16.3540 N.am      1 LEU        -0.2672
    100 CA          4.8180  -18.0470   16.0360 C.3       1 LEU         0.1173
    101 C           5.6390  -16.7660   15.8660 C.2       1 LEU         0.0623
    102 O           5.8680  -16.1120   16.8870 O.co2     1 LEU        -0.5665
    103 CB          4.9010  -18.9450   14.8470 C.3       1 LEU         0.0789
    104 OG          4.0280  -20.0440   15.0210 O.3       1 LEU        -0.3910
    105 OXT         6.0070  -16.4880   14.7210 O.co2     1 LEU        -0.5665
    106 H1         12.6014    4.0196   31.2410 H         1 LEU         0.2015
    107 H2         12.4971    3.0009   29.9523 H         1 LEU         0.2015
    108 H3         11.6526    2.6774   31.3277 H         1 LEU         0.2015
    109 H4         10.2781    4.6246   31.0420 H         1 LEU         0.1098
    110 H5         11.9030    4.8838   28.4702 H         1 LEU         0.0348
    111 H6         11.9745    5.9829   29.8892 H         1 LEU         0.0348
    112 H7          9.6300    5.5533   27.9943 H         1 LEU         0.0299
    113 H8          8.4766    7.3141   29.2843 H         1 LEU         0.0232
    114 H9          9.8229    7.3165   30.4734 H         1 LEU         0.0232
    115 H10         8.8012    5.8522   30.2763 H         1 LEU         0.0232
    116 H11        11.4690    6.9514   27.1174 H         1 LEU         0.0232
    117 H12        11.3406    8.0114   28.5619 H         1 LEU         0.0232
    118 H13         9.9712    7.9004   27.4047 H         1 LEU         0.0232
    119 H14         8.4699    3.4791   30.8029 H         1 LEU         0.1886
    120 H15         8.2579    1.1935   29.0151 H         1 LEU         0.0821
    121 H16         6.1469    2.6574   30.6657 H         1 LEU         0.0453
    122 H17         7.0931    1.2147   31.1657 H         1 LEU         0.0453
    123 H18         7.0061   -0.7091   29.1958 H         1 LEU         0.0530
    124 H19         3.9967    2.2242   29.9245 H         1 LEU         0.0530
    125 H20         5.3411   -2.1643   28.1106 H         1 LEU         0.0525
    126 H21         2.3251    0.7878   28.8395 H         1 LEU         0.0525
    127 H22         3.1567   -2.3348   27.4454 H         1 LEU         0.2458
    128 H23         7.5762    1.1199   27.0150 H         1 LEU         0.1885
    129 H24         6.6586    3.5481   25.6185 H         1 LEU         0.0826
    130 H25         7.0754    0.6924   24.6457 H         1 LEU         0.0551
    131 H26         8.2874    2.0172   24.5955 H         1 LEU         0.0551
    132 H27         7.0644    2.1605   21.2582 H         1 LEU         0.1814
    133 H28         8.2152    1.3655   22.2797 H         1 LEU         0.1814
    134 H29         4.5295    4.1503   25.5896 H         1 LEU         0.1883
    135 H30         2.6063    2.1699   26.6989 H         1 LEU         0.0800
    136 H31         1.1023    4.3033   26.8068 H         1 LEU         0.0313
    137 H32         2.6427    5.1850   26.5300 H         1 LEU         0.0313
    138 H33         3.6266    4.0104   28.4864 H         1 LEU         0.0301
    139 H34         2.0380    3.2262   28.7832 H         1 LEU         0.0301
    140 H35         2.1795    5.0939   30.2640 H         1 LEU         0.0689
    141 H36         1.0468    5.5585   28.9496 H         1 LEU         0.0689
    142 H37         3.9162    6.3051   28.6758 H         1 LEU         0.2642
    143 H38         0.8518    8.9549   29.0021 H         1 LEU         0.2615
    144 H39         0.5199    7.2121   29.1893 H         1 LEU         0.2615
    145 H40         4.3395    8.4539   28.4803 H         1 LEU         0.2615
    146 H41         3.0232    9.6555   28.5578 H         1 LEU         0.2615
    147 H42         3.5783    2.7935   23.6895 H         1 LEU         0.1884
    148 H43         1.2214    3.1663   22.1426 H         1 LEU         0.0826
    149 H44         3.6068    1.4089   21.3985 H         1 LEU         0.0639
    150 H45         4.2171    3.4680   22.2620 H         1 LEU         0.2101
    151 H46         3.1697    2.2243   19.1367 H         1 LEU         0.0257
    152 H47         1.7670    3.1718   19.7379 H         1 LEU         0.0257
    153 H48         1.7347    1.3771   19.8074 H         1 LEU         0.0257
    154 H49        -0.1137    1.7225   21.0923 H         1 LEU         0.1883
    155 H50        -1.0805   -0.5010   22.6196 H         1 LEU         0.0800
    156 H51        -2.3430    0.9983   20.8953 H         1 LEU         0.0313
    157 H52        -2.7862   -0.7299   21.1041 H         1 LEU         0.0313
    158 H53        -1.4657   -1.3062   19.1231 H         1 LEU         0.0301
    159 H54        -1.0279    0.4232   18.9133 H         1 LEU         0.0301
    160 H55        -2.7126    0.0319   17.3406 H         1 LEU         0.0689
    161 H56        -3.5387    0.8651   18.7008 H         1 LEU         0.0689
    162 H57        -3.8629   -1.9809   17.8666 H         1 LEU         0.2642
    163 H58        -6.7108   -2.1736   19.9195 H         1 LEU         0.2615
    164 H59        -5.7120   -2.9985   18.6928 H         1 LEU         0.2615
    165 H60        -4.6376    0.6940   20.0345 H         1 LEU         0.2615
    166 H61        -6.0897   -0.1039   20.6959 H         1 LEU         0.2615
    167 H62        -1.0601   -2.7222   22.0740 H         1 LEU         0.1883
    168 H63         1.6091   -3.5129   20.9800 H         1 LEU         0.0800
    169 H64         1.3163   -5.4902   22.5279 H         1 LEU         0.0313
    170 H65        -0.1398   -4.6646   23.1796 H         1 LEU         0.0313
    171 H66         1.5456   -2.6544   23.4911 H         1 LEU         0.0301
    172 H67         2.7690   -3.9692   23.4538 H         1 LEU         0.0301
    173 H68         2.1751   -3.4757   25.7239 H         1 LEU         0.0689
    174 H69         1.5639   -5.1041   25.2751 H         1 LEU         0.0689
    175 H70        -0.5954   -3.4214   24.8179 H         1 LEU         0.2642
    176 H71         0.3463   -3.7807   28.7473 H         1 LEU         0.2615
    177 H72         1.5751   -4.1297   27.5019 H         1 LEU         0.2615
    178 H73        -2.1655   -2.9315   26.3767 H         1 LEU         0.2615
    179 H74        -1.7685   -3.0642   28.1109 H         1 LEU         0.2615
    180 H75         1.8273   -5.0766   19.6087 H         1 LEU         0.1883
    181 H76        -0.4548   -6.1486   18.0592 H         1 LEU         0.0803
    182 H77         2.5772   -6.1088   17.6851 H         1 LEU         0.0345
    183 H78         1.3105   -3.9664   17.3731 H         1 LEU         0.0267
    184 H79         0.4350   -4.7543   16.0168 H         1 LEU         0.0267
    185 H80         1.6255   -8.1891   16.7752 H         1 LEU         0.0235
    186 H81         2.2744   -7.1054   15.4981 H         1 LEU         0.0235
    187 H82         0.5015   -7.2188   15.7644 H         1 LEU         0.0235
    188 H83         2.2991   -3.3528   15.1890 H         1 LEU         0.0230
    189 H84         2.5867   -5.0874   14.8214 H         1 LEU         0.0230
    190 H85         3.4622   -4.2995   16.1776 H         1 LEU         0.0230
    191 H86        -1.1047   -8.1516   18.2135 H         1 LEU         0.1884
    192 H87         0.3939  -10.1822   19.8151 H         1 LEU         0.0823
    193 H88        -1.6834  -11.4341   19.8271 H         1 LEU         0.0606
    194 H89        -2.4511  -10.2073   18.7630 H         1 LEU         0.0606
    195 H90        -2.9196   -9.8759   20.9992 H         1 LEU         0.2097
    196 H91         0.9444  -12.1324   18.8771 H         1 LEU         0.1883
    197 H92         0.7694  -12.4687   15.9160 H         1 LEU         0.0801
    198 H93         3.2478  -12.8754   15.8064 H         1 LEU         0.0337
    199 H94         3.3909  -12.2959   17.5007 H         1 LEU         0.0337
    200 H95         2.5523  -10.0943   16.8400 H         1 LEU         0.0504
    201 H96         2.3388  -10.6662   15.1506 H         1 LEU         0.0504
    202 H97         5.7491   -8.9768   16.2336 H         1 LEU         0.1814
    203 H98         4.2270   -8.8231   17.0458 H         1 LEU         0.1814
    204 H99         1.2425  -14.6091   15.2944 H         1 LEU         0.1884
    205 H100        1.5585  -16.6210   17.4899 H         1 LEU         0.0826
    206 H101       -0.7557  -16.5791   16.7076 H         1 LEU         0.0639
    207 H102       -0.6999  -18.8741   16.2910 H         1 LEU         0.2101
    208 H103       -1.3528  -17.4047   14.4922 H         1 LEU         0.0257
    209 H104        0.3788  -17.4001   14.0145 H         1 LEU         0.0257
    210 H105       -0.4516  -15.8538   14.3968 H         1 LEU         0.0257
    211 H106        3.0357  -18.0941   17.1957 H         1 LEU         0.1876
    212 H107        5.2329  -18.5980   16.8929 H         1 LEU         0.0749
    213 H108        5.9324  -19.3108   14.7357 H         1 LEU         0.0599
    214 H109        4.6108  -18.3861   13.9451 H         1 LEU         0.0599
    215 H110        4.0829  -20.6138   14.2628 H         1 LEU         0.2096
@<TRIPOS>BOND
     1    1    2 1  
     2    2    3 1  
     3    2    5 1  
     4    3    4 2  
     5    3    9 am 
     6    5    6 1  
     7    6    7 1  
     8    6    8 1  
     9    9   10 1  
    10   10   11 1  
    11   10   13 1  
    12   11   12 2  
    13   11   21 am 
    14   13   14 1  
    15   14   15 ar 
    16   14   16 ar 
    17   15   17 ar 
    18   16   18 ar 
    19   17   19 ar 
    20   18   19 ar 
    21   19   20 1  
    22   21   22 1  
    23   22   23 1  
    24   22   25 1  
    25   23   24 2  
    26   23   29 am 
    27   25   26 1  
    28   26   27 2  
    29   26   28 am 
    30   29   30 1  
    31   30   31 1  
    32   30   33 1  
    33   31   32 2  
    34   31   40 am 
    35   33   34 1  
    36   34   35 1  
    37   35   36 1  
    38   36   37 ar 
    39   37   38 ar 
    40   37   39 ar 
    41   40   41 1  
    42   41   42 1  
    43   41   44 1  
    44   42   43 2  
    45   42   47 am 
    46   44   45 1  
    47   44   46 1  
    48   47   48 1  
    49   48   49 1  
    50   48   51 1  
    51   49   50 2  
    52   49   58 am 
    53   51   52 1  
    54   52   53 1  
    55   53   54 1  
    56   54   55 ar 
    57   55   56 ar 
    58   55   57 ar 
    59   58   59 1  
    60   59   60 1  
    61   59   62 1  
    62   60   61 2  
    63   60   69 am 
    64   62   63 1  
    65   63   64 1  
    66   64   65 1  
    67   65   66 ar 
    68   66   67 ar 
    69   66   68 ar 
    70   69   70 1  
    71   70   71 1  
    72   70   73 1  
    73   71   72 2  
    74   71   77 am 
    75   73   74 1  
    76   73   75 1  
    77   74   76 1  
    78   77   78 1  
    79   78   79 1  
    80   78   81 1  
    81   79   80 2  
    82   79   83 am 
    83   81   82 1  
    84   83   84 1  
    85   84   85 1  
    86   84   87 1  
    87   85   86 2  
    88   85   92 am 
    89   87   88 1  
    90   88   89 1  
    91   89   90 2  
    92   89   91 am 
    93   92   93 1  
    94   93   94 1  
    95   93   96 1  
    96   94   95 2  
    97   94   99 am 
    98   96   97 1  
    99   96   98 1  
   100   99  100 1  
   101  100  101 1  
   102  100  103 1  
   103  101  102 ar 
   104  101  105 ar 
   105  103  104 1  
   106    1  106 1  
   107    1  107 1  
   108    1  108 1  
   109    2  109 1  
   110    5  110 1  
   111    5  111 1  
   112    6  112 1  
   113    7  113 1  
   114    7  114 1  
   115    7  115 1  
   116    8  116 1  
   117    8  117 1  
   118    8  118 1  
   119    9  119 1  
   120   10  120 1  
   121   13  121 1  
   122   13  122 1  
   123   15  123 1  
   124   16  124 1  
   125   17  125 1  
   126   18  126 1  
   127   20  127 1  
   128   21  128 1  
   129   22  129 1  
   130   25  130 1  
   131   25  131 1  
   132   28  132 1  
   133   28  133 1  
   134   29  134 1  
   135   30  135 1  
   136   33  136 1  
   137   33  137 1  
   138   34  138 1  
   139   34  139 1  
   140   35  140 1  
   141   35  141 1  
   142   36  142 1  
   143   38  143 1  
   144   38  144 1  
   145   39  145 1  
   146   39  146 1  
   147   40  147 1  
   148   41  148 1  
   149   44  149 1  
   150   45  150 1  
   151   46  151 1  
   152   46  152 1  
   153   46  153 1  
   154   47  154 1  
   155   48  155 1  
   156   51  156 1  
   157   51  157 1  
   158   52  158 1  
   159   52  159 1  
   160   53  160 1  
   161   53  161 1  
   162   54  162 1  
   163   56  163 1  
   164   56  164 1  
   165   57  165 1  
   166   57  166 1  
   167   58  167 1  
   168   59  168 1  
   169   62  169 1  
   170   62  170 1  
   171   63  171 1  
   172   63  172 1  
   173   64  173 1  
   174   64  174 1  
   175   65  175 1  
   176   67  176 1  
   177   67  177 1  
   178   68  178 1  
   179   68  179 1  
   180   69  180 1  
   181   70  181 1  
   182   73  182 1  
   183   74  183 1  
   184   74  184 1  
   185   75  185 1  
   186   75  186 1  
   187   75  187 1  
   188   76  188 1  
   189   76  189 1  
   190   76  190 1  
   191   77  191 1  
   192   78  192 1  
   193   81  193 1  
   194   81  194 1  
   195   82  195 1  
   196   83  196 1  
   197   84  197 1  
   198   87  198 1  
   199   87  199 1  
   200   88  200 1  
   201   88  201 1  
   202   91  202 1  
   203   91  203 1  
   204   92  204 1  
   205   93  205 1  
   206   96  206 1  
   207   97  207 1  
   208   98  208 1  
   209   98  209 1  
   210   98  210 1  
   211   99  211 1  
   212  100  212 1  
   213  103  213 1  
   214  103  214 1  
   215  104  215 1  
@<TRIPOS>SUBSTRUCTURE
     1 LEU         1

