2h2j_ligand
  -I-interpret- 

 52 54  0  0  0  0  0  0  0  0999 V2000
   71.0100  132.8580   50.4890 N   0  3  0  0  0
   70.0900  131.7690   50.7610 C   0  0  0  0  0
   69.2700  131.3780   49.5140 C   0  0  0  0  0
   68.1230  130.9130   49.6630 O   0  0  0  0  0
   69.7780  131.5600   48.3990 O   0  0  0  0  0
   69.1190  132.1230   51.9170 C   0  0  0  0  0
   69.6810  132.6070   53.2630 C   0  0  0  0  0
   69.2630  131.8320   54.5420 C   0  0  0  0  0
   69.8300  132.5760   55.6890 N   0  3  0  0  0
   69.8860  130.4090   54.7160 C   0  0  0  0  0
   70.6990  129.7160   53.6370 C   0  0  0  0  0
   71.8220  130.4710   53.1520 O   0  0  0  0  0
   71.2070  128.3410   54.0850 C   0  0  0  0  0
   70.5260  127.2840   53.3860 O   0  0  0  0  0
   72.6540  128.3140   53.7730 C   0  0  0  0  0
   72.8760  127.1990   52.8990 O   0  0  0  0  0
   72.9830  129.6280   53.0720 C   0  0  0  0  0
   74.1600  130.3030   53.6930 N   0  0  0  0  0
   74.2130  131.3930   54.5270 C   0  0  0  0  0
   75.3850  131.7820   54.9360 N   0  0  0  0  0
   76.2370  130.8480   54.3040 C   0  0  0  0  0
   77.6570  130.6540   54.3040 C   0  0  0  0  0
   78.4880  131.4400   54.9820 N   0  0  0  0  0
   78.1690  129.6150   53.5620 N   0  0  0  0  0
   77.3250  128.8120   52.8710 C   0  0  0  0  0
   75.9780  128.8880   52.7930 N   0  0  0  0  0
   75.4900  129.9340   53.5450 C   0  0  0  0  0
   71.6326  132.5929   49.7258 H   0  0  0  0  0
   70.4819  133.6898   50.2253 H   0  0  0  0  0
   71.5599  133.0539   51.3255 H   0  0  0  0  0
   70.7046  130.9180   51.0546 H   0  0  0  0  0
   67.9226  130.8526   50.5999 H   0  0  0  0  0
   68.6162  131.1845   52.1507 H   0  0  0  0  0
   68.5406  132.9670   51.5413 H   0  0  0  0  0
   69.2925  133.6169   53.3945 H   0  0  0  0  0
   70.7615  132.4844   53.1884 H   0  0  0  0  0
   68.1790  131.7377   54.4774 H   0  0  0  0  0
   69.5804  132.1021   56.5570 H   0  0  0  0  0
   70.8455  132.6129   55.6003 H   0  0  0  0  0
   69.4535  133.5240   55.6974 H   0  0  0  0  0
   69.0099  129.7678   54.8130 H   0  0  0  0  0
   70.6129  130.5554   55.5149 H   0  0  0  0  0
   69.9881  129.6118   52.8173 H   0  0  0  0  0
   71.0215  128.1861   55.1479 H   0  0  0  0  0
   70.8623  126.4359   53.6846 H   0  0  0  0  0
   73.2803  128.2085   54.6588 H   0  0  0  0  0
   73.8082  127.1503   52.6747 H   0  0  0  0  0
   73.2451  129.4300   52.0327 H   0  0  0  0  0
   73.3060  131.9132   54.8350 H   0  0  0  0  0
   78.1210  132.2178   55.5304 H   0  0  0  0  0
   79.4925  131.2652   54.9537 H   0  0  0  0  0
   77.7904  128.0034   52.3074 H   0  0  0  0  0
  1  2  1  0  0  0
  2  3  1  0  0  0
  2  6  1  0  0  0
  3  4  1  0  0  0
  3  5  2  0  0  0
  6  7  1  0  0  0
  7  8  1  0  0  0
  8  9  1  0  0  0
  8 10  1  0  0  0
 10 11  1  0  0  0
 11 12  1  0  0  0
 11 13  1  0  0  0
 12 17  1  0  0  0
 13 14  1  0  0  0
 13 15  1  0  0  0
 15 16  1  0  0  0
 15 17  1  0  0  0
 17 18  1  0  0  0
 18 19  4  0  0  0
 18 27  4  0  0  0
 19 20  4  0  0  0
 20 21  4  0  0  0
 21 22  4  0  0  0
 21 27  4  0  0  0
 22 23  1  0  0  0
 22 24  4  0  0  0
 24 25  4  0  0  0
 25 26  4  0  0  0
 26 27  4  0  0  0
  1 28  1  0  0  0
  1 29  1  0  0  0
  1 30  1  0  0  0
  2 31  1  0  0  0
  4 32  1  0  0  0
  6 33  1  0  0  0
  6 34  1  0  0  0
  7 35  1  0  0  0
  7 36  1  0  0  0
  8 37  1  0  0  0
  9 38  1  0  0  0
  9 39  1  0  0  0
  9 40  1  0  0  0
 10 41  1  0  0  0
 10 42  1  0  0  0
 11 43  1  0  0  0
 13 44  1  0  0  0
 14 45  1  0  0  0
 15 46  1  0  0  0
 16 47  1  0  0  0
 17 48  1  0  0  0
 19 49  1  0  0  0
 23 50  1  0  0  0
 23 51  1  0  0  0
 25 52  1  0  0  0
M  END
$$$$
