5mim_ligand
  -I-interpret- 

 80 83  0  0  0  0  0  0  0  0999 V2000
   58.6160  -31.7850   -6.8990 N   0  0  0  0  0
   59.4790  -32.3110   -7.7790 C   0  0  0  0  0
   60.5610  -32.9620   -7.3300 N   0  0  0  0  0
   59.2600  -32.1930   -9.1050 N   0  0  0  0  0
   58.1040  -31.5080   -9.7150 C   0  0  0  0  0
   58.3650  -30.0070   -9.8260 C   0  0  0  0  0
   57.1410  -29.3350  -10.4660 C   0  0  0  0  0
   58.6030  -29.4750   -8.4950 O   0  0  0  0  0
   59.5550  -28.4950   -8.4260 C   0  0  0  0  0
   59.8430  -27.6980   -9.5260 C   0  0  0  0  0
   60.8110  -26.7070   -9.4420 C   0  0  0  0  0
   61.5020  -26.4870   -8.2550 C   0  0  0  0  0
   61.2220  -27.2870   -7.1520 C   0  0  0  0  0
   60.2530  -28.2860   -7.2380 C   0  0  0  0  0
   62.4410  -25.5390   -8.1660 N   0  0  0  0  0
   62.3840  -24.2780   -8.6460 C   0  0  0  0  0
   63.4320  -23.4640   -8.4670 N   0  0  0  0  0
   61.2980  -23.8100   -9.2820 N   0  0  0  0  0
   57.8390  -32.0800  -11.1090 C   0  0  0  0  0
   56.5990  -31.4160  -11.6950 C   0  0  0  0  0
   56.2720  -31.9910  -13.0130 N   0  0  0  0  0
   55.0370  -31.9480  -13.5310 C   0  0  0  0  0
   53.9260  -31.9520  -12.6910 C   0  0  0  0  0
   52.6460  -31.9010  -13.2350 C   0  0  0  0  0
   52.4700  -31.8440  -14.6170 C   0  0  0  0  0
   53.5800  -31.8430  -15.4600 C   0  0  0  0  0
   54.8590  -31.8890  -14.9130 C   0  0  0  0  0
   51.2320  -31.8060  -15.1210 N   0  0  0  0  0
   50.3960  -32.8630  -15.0990 C   0  0  0  0  0
   49.1560  -32.7630  -15.5960 N   0  0  0  0  0
   50.8030  -34.0300  -14.5740 N   0  0  0  0  0
   56.8440  -29.9260  -11.8400 C   0  0  0  0  0
   55.6440  -29.3400  -12.3530 O   0  0  0  0  0
   55.7840  -28.5860  -13.4800 C   0  0  0  0  0
   54.7170  -28.5070  -14.3710 C   0  0  0  0  0
   54.8220  -27.7450  -15.5270 C   0  0  0  0  0
   56.9560  -27.8900  -13.7410 C   0  0  0  0  0
   57.0620  -27.1230  -14.8990 C   0  0  0  0  0
   55.9940  -27.0410  -15.7900 C   0  0  0  0  0
   56.1230  -26.3110  -16.9030 N   0  0  0  0  0
   55.3150  -25.3240  -17.3150 C   0  0  0  0  0
   55.5930  -24.6900  -18.4620 N   0  0  0  0  0
   54.2470  -24.9560  -16.5940 N   0  0  0  0  0
   57.7871  -31.2915   -7.2303 H   0  0  0  0  0
   60.7214  -33.0534   -6.3269 H   0  0  0  0  0
   61.2241  -33.3661   -7.9914 H   0  0  0  0  0
   59.9463  -32.6093   -9.7343 H   0  0  0  0  0
   57.2335  -31.6691   -9.0791 H   0  0  0  0  0
   59.2389  -29.8125  -10.4478 H   0  0  0  0  0
   57.3487  -28.2713  -10.5820 H   0  0  0  0  0
   56.2770  -29.4994   -9.8221 H   0  0  0  0  0
   59.3053  -27.8517  -10.4616 H   0  0  0  0  0
   61.0322  -26.0943  -10.3159 H   0  0  0  0  0
   61.7617  -27.1325   -6.2177 H   0  0  0  0  0
   60.0397  -28.9085   -6.3690 H   0  0  0  0  0
   63.2992  -25.7982   -7.6795 H   0  0  0  0  0
   64.2594  -23.7989   -7.9735 H   0  0  0  0  0
   61.2802  -22.8479   -9.6203 H   0  0  0  0  0
   60.4909  -24.4166   -9.4268 H   0  0  0  0  0
   57.6794  -33.1560  -11.0388 H   0  0  0  0  0
   58.6968  -31.8865  -11.7531 H   0  0  0  0  0
   55.7599  -31.5903  -11.0215 H   0  0  0  0  0
   57.0142  -32.4385  -13.5508 H   0  0  0  0  0
   54.0587  -31.9950  -11.6100 H   0  0  0  0  0
   51.7767  -31.9056  -12.5774 H   0  0  0  0  0
   53.4472  -31.8064  -16.5413 H   0  0  0  0  0
   55.7286  -31.8788  -15.5701 H   0  0  0  0  0
   50.9050  -30.9363  -15.5418 H   0  0  0  0  0
   48.8365  -31.8808  -15.9960 H   0  0  0  0  0
   50.1700  -34.8296  -14.5563 H   0  0  0  0  0
   51.7451  -34.1168  -14.1929 H   0  0  0  0  0
   57.6849  -29.7328  -12.5060 H   0  0  0  0  0
   53.7938  -29.0465  -14.1598 H   0  0  0  0  0
   53.9882  -27.6981  -16.2275 H   0  0  0  0  0
   57.7908  -27.9434  -13.0422 H   0  0  0  0  0
   57.9857  -26.5839  -15.1093 H   0  0  0  0  0
   56.9200  -26.5281  -17.5013 H   0  0  0  0  0
   56.4104  -24.9603  -19.0090 H   0  0  0  0  0
   53.6495  -24.1959  -16.9191 H   0  0  0  0  0
   54.0316  -25.4360  -15.7201 H   0  0  0  0  0
  1  2  2  0  0  0
  2  3  1  0  0  0
  2  4  1  0  0  0
  4  5  1  0  0  0
  5  6  1  0  0  0
  5 19  1  0  0  0
  6  7  1  0  0  0
  6  8  1  0  0  0
  7 32  1  0  0  0
  8  9  1  0  0  0
  9 10  4  0  0  0
  9 14  4  0  0  0
 10 11  4  0  0  0
 11 12  4  0  0  0
 12 13  4  0  0  0
 12 15  1  0  0  0
 13 14  4  0  0  0
 15 16  1  0  0  0
 16 17  2  0  0  0
 16 18  1  0  0  0
 19 20  1  0  0  0
 20 21  1  0  0  0
 20 32  1  0  0  0
 21 22  1  0  0  0
 22 23  4  0  0  0
 22 27  4  0  0  0
 23 24  4  0  0  0
 24 25  4  0  0  0
 25 26  4  0  0  0
 25 28  1  0  0  0
 26 27  4  0  0  0
 28 29  1  0  0  0
 29 30  2  0  0  0
 29 31  1  0  0  0
 32 33  1  0  0  0
 33 34  1  0  0  0
 34 35  4  0  0  0
 34 37  4  0  0  0
 35 36  4  0  0  0
 36 39  4  0  0  0
 37 38  4  0  0  0
 38 39  4  0  0  0
 39 40  1  0  0  0
 40 41  1  0  0  0
 41 42  2  0  0  0
 41 43  1  0  0  0
  1 44  1  0  0  0
  3 45  1  0  0  0
  3 46  1  0  0  0
  4 47  1  0  0  0
  5 48  1  0  0  0
  6 49  1  0  0  0
  7 50  1  0  0  0
  7 51  1  0  0  0
 10 52  1  0  0  0
 11 53  1  0  0  0
 13 54  1  0  0  0
 14 55  1  0  0  0
 15 56  1  0  0  0
 17 57  1  0  0  0
 18 58  1  0  0  0
 18 59  1  0  0  0
 19 60  1  0  0  0
 19 61  1  0  0  0
 20 62  1  0  0  0
 21 63  1  0  0  0
 23 64  1  0  0  0
 24 65  1  0  0  0
 26 66  1  0  0  0
 27 67  1  0  0  0
 28 68  1  0  0  0
 30 69  1  0  0  0
 31 70  1  0  0  0
 31 71  1  0  0  0
 32 72  1  0  0  0
 35 73  1  0  0  0
 36 74  1  0  0  0
 37 75  1  0  0  0
 38 76  1  0  0  0
 40 77  1  0  0  0
 42 78  1  0  0  0
 43 79  1  0  0  0
 43 80  1  0  0  0
M  END
$$$$
