4ahu_ligand
  -I-interpret- 

 18 19  0  0  0  0  0  0  0  0999 V2000
  -16.7460   18.1670    1.2830 C   0  0  0  0  0
  -17.7150   18.5320    0.3550 C   0  0  0  0  0
  -18.0010   19.8650    0.1180 C   0  0  0  0  0
  -17.3330   20.8640    0.7900 C   0  0  0  0  0
  -16.3540   20.5380    1.7160 C   0  0  0  0  0
  -16.0780   19.1950    1.9530 C   0  0  0  0  0
  -15.1340   18.6220    2.7950 N   0  0  0  0  0
  -15.1930   17.2650    2.6960 C   0  0  0  0  0
  -16.1790   16.9370    1.7720 C   0  0  0  0  0
  -16.5350   15.4530    1.4080 C   0  0  0  0  0
  -17.4080   15.2070    0.5020 O   0  0  0  0  0
  -15.9570   14.5480    2.0920 O   0  0  0  0  0
  -18.2554   17.7594   -0.1920 H   0  0  0  0  0
  -18.7667   20.1281   -0.6117 H   0  0  0  0  0
  -17.5734   21.9090    0.5944 H   0  0  0  0  0
  -15.8109   21.3189    2.2482 H   0  0  0  0  0
  -14.5734   16.5572    3.2467 H   0  0  0  0  0
  -17.7097   16.0331    0.1171 H   0  0  0  0  0
  1  2  4  0  0  0
  1  6  4  0  0  0
  1  9  4  0  0  0
  2  3  4  0  0  0
  3  4  4  0  0  0
  4  5  4  0  0  0
  5  6  4  0  0  0
  6  7  4  0  0  0
  7  8  4  0  0  0
  8  9  4  0  0  0
  9 10  1  0  0  0
 10 11  1  0  0  0
 10 12  2  0  0  0
  2 13  1  0  0  0
  3 14  1  0  0  0
  4 15  1  0  0  0
  5 16  1  0  0  0
  8 17  1  0  0  0
 11 18  1  0  0  0
M  END
$$$$
