4drp_ligand
  -I-interpret- 

 91 94  0  0  0  0  0  0  0  0999 V2000
    6.3080    4.3020   15.4620 C   0  0  0  0  0
    5.3530    4.1490   14.2620 C   0  0  0  0  0
    5.9440    3.2750   13.1380 C   0  0  0  0  0
    6.1540    1.8100   13.6210 C   0  0  0  0  0
    6.6890    0.9120   12.4910 C   0  0  0  0  0
    5.7800    0.9530   11.2550 C   0  0  0  0  0
    5.5870    2.3990   10.7570 C   0  0  0  0  0
    5.0600    3.3290   11.8740 C   0  0  0  0  0
    3.7330    2.8820   12.1960 O   0  0  0  0  0
    5.0320    4.8060   11.3710 C   0  0  0  0  0
    6.0720    5.4170   11.1010 O   0  0  0  0  0
    3.6820    5.5450   11.3210 C   0  0  0  0  0
    3.3220    6.1830   12.3170 O   0  0  0  0  0
    2.9060    5.4950   10.2220 N   0  0  0  0  0
    3.3910    4.7100    9.0390 C   0  0  0  0  0
    3.2580    5.5740    7.7900 C   0  0  0  0  0
    1.8190    6.1090    7.6720 C   0  0  0  0  0
    1.4280    6.9690    8.8860 C   0  0  0  0  0
    1.5690    6.1600   10.1880 C   0  0  0  0  0
    0.4370    5.1090   10.2630 C   0  0  0  0  0
   -0.7510    5.4370   10.1040 O   0  0  0  0  0
    0.7870    3.8100   10.5320 O   0  0  0  0  0
   -0.2630    2.7900   10.5760 C   0  0  0  0  0
   -0.4830    2.5070   12.0410 C   0  0  0  0  0
   -1.7880    1.7490   12.2510 C   0  0  0  0  0
   -3.0640    2.6270   12.2000 C   0  0  0  0  0
   -3.3830    3.5220   13.2340 C   0  0  0  0  0
   -3.9250    2.4910   11.1140 C   0  0  0  0  0
   -5.1070    3.2530   11.0490 C   0  0  0  0  0
   -5.4050    4.1600   12.0930 C   0  0  0  0  0
   -6.5350    4.9260   12.0650 O   0  0  0  0  0
   -7.6430    4.4320   11.2500 C   0  0  0  0  0
   -4.5460    4.3050   13.1950 C   0  0  0  0  0
   -4.9100    5.2160   14.1820 O   0  0  0  0  0
   -4.1870    5.2120   15.4400 C   0  0  0  0  0
    0.2790    1.5810    9.7950 C   0  0  0  0  0
    1.4600    0.9720   10.2170 C   0  0  0  0  0
   -0.4060    1.0900    8.6810 C   0  0  0  0  0
    0.1190    0.0050    7.9790 C   0  0  0  0  0
    1.3080   -0.5920    8.4000 C   0  0  0  0  0
    1.9840   -0.1160    9.5260 C   0  0  0  0  0
    3.1440   -0.6580   10.0010 O   0  0  0  0  0
    3.6990   -1.7450    9.2130 C   0  0  0  0  0
    3.0620   -3.1170    9.4090 C   0  0  0  0  0
    3.4590   -4.0270    8.6540 O   0  0  0  0  0
    2.1650   -3.2610   10.2780 O   0  0  0  0  0
    6.5232    3.3191   15.8811 H   0  0  0  0  0
    7.2357    4.7676   15.1293 H   0  0  0  0  0
    5.8381    4.9272   16.2213 H   0  0  0  0  0
    5.1695    5.1421   13.8519 H   0  0  0  0  0
    4.4433    3.6657   14.6181 H   0  0  0  0  0
    6.9219    3.6788   12.8756 H   0  0  0  0  0
    5.1928    1.4145   13.9493 H   0  0  0  0  0
    6.8834    1.8156   14.4310 H   0  0  0  0  0
    6.7261   -0.1143   12.8562 H   0  0  0  0  0
    7.6763    1.2733   12.2034 H   0  0  0  0  0
    4.8063    0.5435   11.5239 H   0  0  0  0  0
    6.2446    0.3692   10.4604 H   0  0  0  0  0
    4.8553    2.3871    9.9491 H   0  0  0  0  0
    6.5537    2.7777   10.4252 H   0  0  0  0  0
    3.3690    3.4371   12.8896 H   0  0  0  0  0
    2.7956    3.8038    8.9271 H   0  0  0  0  0
    4.4338    4.4281    9.1845 H   0  0  0  0  0
    3.4907    4.9728    6.9111 H   0  0  0  0  0
    3.9489    6.4142    7.8594 H   0  0  0  0  0
    1.1400    5.2578    7.6222 H   0  0  0  0  0
    1.7564    6.7296    6.7781 H   0  0  0  0  0
    0.3907    7.2854    8.7764 H   0  0  0  0  0
    2.0884    7.8348    8.9339 H   0  0  0  0  0
    1.4896    6.8252   11.0478 H   0  0  0  0  0
   -1.2152    3.0759   10.1290 H   0  0  0  0  0
   -0.5337    3.4532   12.5797 H   0  0  0  0  0
    0.3422    1.8985   12.4109 H   0  0  0  0  0
   -1.7436    1.3123   13.2487 H   0  0  0  0  0
   -1.8684    1.0259   11.4394 H   0  0  0  0  0
   -2.7107    3.6103   14.0874 H   0  0  0  0  0
   -3.6832    1.7930   10.3125 H   0  0  0  0  0
   -5.7857    3.1452   10.2029 H   0  0  0  0  0
   -7.3186    4.3439   10.2131 H   0  0  0  0  0
   -7.9560    3.4550   11.6184 H   0  0  0  0  0
   -8.4779    5.1299   11.3128 H   0  0  0  0  0
   -4.2909    4.2361   15.9142 H   0  0  0  0  0
   -3.1328    5.4158   15.2524 H   0  0  0  0  0
   -4.5961    5.9811   16.0952 H   0  0  0  0  0
    1.9782    1.3522   11.0974 H   0  0  0  0  0
   -1.3416    1.5502    8.3634 H   0  0  0  0  0
   -0.4003   -0.3772    7.1002 H   0  0  0  0  0
    1.7132   -1.4380    7.8448 H   0  0  0  0  0
    4.7384   -1.8459    9.5254 H   0  0  0  0  0
    3.5312   -1.4792    8.1693 H   0  0  0  0  0
    2.0280   -2.4284   10.7358 H   0  0  0  0  0
  1  2  1  0  0  0
  2  3  1  0  0  0
  3  4  1  0  0  0
  3  8  1  0  0  0
  4  5  1  0  0  0
  5  6  1  0  0  0
  6  7  1  0  0  0
  7  8  1  0  0  0
  8  9  1  0  0  0
  8 10  1  0  0  0
 10 11  2  0  0  0
 10 12  1  0  0  0
 12 13  2  0  0  0
 12 14  1  0  0  0
 14 15  1  0  0  0
 14 19  1  0  0  0
 15 16  1  0  0  0
 16 17  1  0  0  0
 17 18  1  0  0  0
 18 19  1  0  0  0
 19 20  1  0  0  0
 20 21  2  0  0  0
 20 22  1  0  0  0
 22 23  1  0  0  0
 23 24  1  0  0  0
 23 36  1  0  0  0
 24 25  1  0  0  0
 25 26  1  0  0  0
 26 27  4  0  0  0
 26 28  4  0  0  0
 27 33  4  0  0  0
 28 29  4  0  0  0
 29 30  4  0  0  0
 30 31  1  0  0  0
 30 33  4  0  0  0
 31 32  1  0  0  0
 33 34  1  0  0  0
 34 35  1  0  0  0
 36 37  4  0  0  0
 36 38  4  0  0  0
 37 41  4  0  0  0
 38 39  4  0  0  0
 39 40  4  0  0  0
 40 41  4  0  0  0
 41 42  1  0  0  0
 42 43  1  0  0  0
 43 44  1  0  0  0
 44 45  2  0  0  0
 44 46  1  0  0  0
  1 47  1  0  0  0
  1 48  1  0  0  0
  1 49  1  0  0  0
  2 50  1  0  0  0
  2 51  1  0  0  0
  3 52  1  0  0  0
  4 53  1  0  0  0
  4 54  1  0  0  0
  5 55  1  0  0  0
  5 56  1  0  0  0
  6 57  1  0  0  0
  6 58  1  0  0  0
  7 59  1  0  0  0
  7 60  1  0  0  0
  9 61  1  0  0  0
 15 62  1  0  0  0
 15 63  1  0  0  0
 16 64  1  0  0  0
 16 65  1  0  0  0
 17 66  1  0  0  0
 17 67  1  0  0  0
 18 68  1  0  0  0
 18 69  1  0  0  0
 19 70  1  0  0  0
 23 71  1  0  0  0
 24 72  1  0  0  0
 24 73  1  0  0  0
 25 74  1  0  0  0
 25 75  1  0  0  0
 27 76  1  0  0  0
 28 77  1  0  0  0
 29 78  1  0  0  0
 32 79  1  0  0  0
 32 80  1  0  0  0
 32 81  1  0  0  0
 35 82  1  0  0  0
 35 83  1  0  0  0
 35 84  1  0  0  0
 37 85  1  0  0  0
 38 86  1  0  0  0
 39 87  1  0  0  0
 40 88  1  0  0  0
 43 89  1  0  0  0
 43 90  1  0  0  0
 46 91  1  0  0  0
M  END
$$$$
