1xoq_ligand
  -I-interpret- 

 40 42  0  0  0  0  0  0  0  0999 V2000
   14.4670   29.3330   55.4470 O   0  0  0  0  0
   12.2940   34.0110   50.5240 C   0  0  0  0  0
   13.2130   34.7760   51.4750 C   0  0  0  0  0
   13.4880   33.3980   51.0880 C   0  0  0  0  0
   14.3680   28.2670   54.8280 C   0  0  0  0  0
   14.1730   28.3350   53.3630 C   0  0  0  0  0
   14.1450   27.2090   52.5320 C   0  0  0  0  0
   13.9400   27.3560   51.1490 C   0  0  0  0  0
   13.7900   28.6400   50.5920 C   0  0  0  0  0
   13.5900   28.8740   49.2590 O   0  0  0  0  0
   13.9070   27.8890   48.2820 C   0  0  0  0  0
   13.0380   26.8940   48.3900 F   0  0  0  0  0
   15.1600   27.4650   48.4490 F   0  0  0  0  0
   13.8040   29.7510   51.4160 C   0  0  0  0  0
   13.6450   30.9910   50.8550 O   0  0  0  0  0
   13.9570   32.1060   51.6840 C   0  0  0  0  0
   14.0010   29.5930   52.7940 C   0  0  0  0  0
   14.4570   27.0870   55.4590 N   0  0  0  0  0
   14.6180   26.9290   56.8680 C   0  0  0  0  0
   15.7500   26.3280   57.4250 C   0  0  0  0  0
   17.0390   25.8210   56.4070 Cl  0  0  0  0  0
   15.8430   26.1570   58.8080 C   0  0  0  0  0
   14.8460   26.5700   59.6120 N   0  0  0  0  0
   13.7380   27.1360   59.1220 C   0  0  0  0  0
   13.5970   27.3190   57.7410 C   0  0  0  0  0
   12.1660   28.0480   57.1000 Cl  0  0  0  0  0
   11.8040   34.1408   49.5591 H   0  0  0  0  0
   11.2344   33.7943   50.3882 H   0  0  0  0  0
   13.1537   35.3912   52.3728 H   0  0  0  0  0
   13.7223   35.7371   51.5451 H   0  0  0  0  0
   14.3284   32.7891   50.7547 H   0  0  0  0  0
   14.2825   26.2153   52.9584 H   0  0  0  0  0
   13.8972   26.4755   50.5079 H   0  0  0  0  0
   13.8381   28.3116   47.2796 H   0  0  0  0  0
   13.4538   31.9700   52.6413 H   0  0  0  0  0
   15.0402   32.1554   51.7949 H   0  0  0  0  0
   14.0199   30.4748   53.4344 H   0  0  0  0  0
   14.4059   26.2415   54.8908 H   0  0  0  0  0
   16.7273   25.6868   59.2382 H   0  0  0  0  0
   12.9445   27.4550   59.7978 H   0  0  0  0  0
  5  1  2  0  0  0
  3  2  1  0  0  0
  4  2  1  0  0  0
  4  3  1  0  0  0
 16  4  1  0  0  0
  6  5  1  0  0  0
  5 18  1  0  0  0
  6  7  4  0  0  0
 17  6  4  0  0  0
  8  7  4  0  0  0
  9  8  4  0  0  0
  9 10  1  0  0  0
 14  9  4  0  0  0
 10 11  1  0  0  0
 11 12  1  0  0  0
 11 13  1  0  0  0
 15 14  1  0  0  0
 14 17  4  0  0  0
 15 16  1  0  0  0
 18 19  1  0  0  0
 19 20  4  0  0  0
 19 25  4  0  0  0
 20 21  1  0  0  0
 20 22  4  0  0  0
 22 23  4  0  0  0
 23 24  4  0  0  0
 24 25  4  0  0  0
 25 26  1  0  0  0
  2 27  1  0  0  0
  2 28  1  0  0  0
  3 29  1  0  0  0
  3 30  1  0  0  0
  4 31  1  0  0  0
  7 32  1  0  0  0
  8 33  1  0  0  0
 11 34  1  0  0  0
 16 35  1  0  0  0
 16 36  1  0  0  0
 17 37  1  0  0  0
 18 38  1  0  0  0
 22 39  1  0  0  0
 24 40  1  0  0  0
M  END
$$$$
