4f14_ligand
  -I-interpret- 

163168  0  0  0  0  0  0  0  0999 V2000
  -11.3440   10.2110    5.5190 N   0  3  0  0  0
  -10.6210    9.0610    6.0850 C   0  0  0  0  0
   -9.4100    9.5400    6.9120 C   0  0  0  0  0
   -9.0440   10.7250    6.8640 O   0  0  0  0  0
  -10.2370    8.2650    4.8350 C   0  0  0  0  0
  -11.3340    8.5590    3.8760 C   0  0  0  0  0
  -11.7020    9.9800    4.1030 C   0  0  0  0  0
   -8.8280    8.6450    7.7160 N   0  0  0  0  0
   -7.8140    9.0940    8.6780 C   0  0  0  0  0
   -6.4390    9.2990    8.0250 C   0  0  0  0  0
   -6.1660    8.8060    6.9360 O   0  0  0  0  0
   -7.7560    7.9350    9.6840 C   0  0  0  0  0
   -8.1790    6.7480    8.9110 C   0  0  0  0  0
   -9.2060    7.2380    7.9320 C   0  0  0  0  0
   -5.5270   10.0050    8.7130 N   0  0  0  0  0
   -4.1700   10.1440    8.1770 C   0  0  0  0  0
   -3.4690    8.7970    8.1410 C   0  0  0  0  0
   -3.7650    7.9040    8.9230 O   0  0  0  0  0
   -3.4810   11.0830    9.1620 C   0  0  0  0  0
   -4.3350   11.1170   10.3430 C   0  0  0  0  0
   -5.7010   10.6860    9.9990 C   0  0  0  0  0
   -2.5360    8.6400    7.2200 N   0  0  0  0  0
   -1.7230    7.4350    7.1740 C   0  0  0  0  0
   -0.4400    7.6740    7.9670 C   0  0  0  0  0
   -0.0350    8.8220    8.2120 O   0  0  0  0  0
   -1.4010    7.0190    5.7260 C   0  0  0  0  0
   -0.7210    8.1010    5.0900 O   0  0  0  0  0
   -2.6690    6.6850    4.9640 C   0  0  0  0  0
    0.1590    6.5770    8.4100 N   0  0  0  0  0
    1.4040    6.6070    9.1630 C   0  0  0  0  0
    2.5920    6.5160    8.2140 C   0  0  0  0  0
    2.4470    6.1100    7.0620 O   0  0  0  0  0
    1.4310    5.4540   10.1630 C   0  0  0  0  0
    0.3090    5.4290   11.1970 C   0  0  0  0  0
    0.5590    4.3460   12.2390 C   0  0  0  0  0
    0.1840    6.7810   11.8470 C   0  0  0  0  0
    3.7830    6.9000    8.6920 N   0  0  0  0  0
    4.9570    6.7780    7.8260 C   0  0  0  0  0
    5.0750    5.3690    7.2660 C   0  0  0  0  0
    4.7800    4.3880    7.9520 O   0  0  0  0  0
    6.1180    7.1130    8.7640 C   0  0  0  0  0
    5.5120    8.0380    9.7610 C   0  0  0  0  0
    4.1210    7.5080    9.9890 C   0  0  0  0  0
    5.4820    5.2800    6.0090 N   0  0  0  0  0
    5.5500    3.9980    5.3290 C   0  0  0  0  0
    6.9730    3.4640    5.3350 C   0  0  0  0  0
    7.9180    4.1760    4.9820 O   0  0  0  0  0
    5.0170    4.1230    3.9010 C   0  0  0  0  0
    5.0090    2.8210    3.1250 C   0  0  0  0  0
    4.3640    2.9930    1.7660 C   0  0  0  0  0
    5.0780    4.0500    0.9500 C   0  0  0  0  0
    4.4960    4.1390   -0.4090 N   0  3  0  0  0
    7.1380    2.1990    5.7410 N   0  0  0  0  0
    8.4820    1.6550    5.9340 C   0  0  0  0  0
    9.1430    1.2240    4.6270 C   0  0  0  0  0
    8.4610    0.7850    3.6950 O   0  0  0  0  0
    8.2230    0.4390    6.8200 C   0  0  0  0  0
    6.8860   -0.0500    6.3680 C   0  0  0  0  0
    6.0940    1.1940    6.0030 C   0  0  0  0  0
   10.4620    1.3530    4.5610 N   0  0  0  0  0
   11.2280    0.7550    3.4740 C   0  0  0  0  0
   11.6240   -0.6250    3.9820 C   0  0  0  0  0
   12.3410   -0.7380    4.9750 O   0  0  0  0  0
   12.4710    1.5780    3.1440 C   0  0  0  0  0
   11.1400   -1.6730    3.3240 N   0  0  0  0  0
   11.2880   -3.0260    3.8610 C   0  0  0  0  0
   12.5560   -3.7370    3.3900 C   0  0  0  0  0
   12.9370   -3.6330    2.2250 O   0  0  0  0  0
   10.0520   -3.8670    3.5280 C   0  0  0  0  0
   13.2120   -4.4750    4.3020 N   0  0  0  0  0
   12.8140   -4.6430    5.7040 C   0  0  0  0  0
   13.4250   -3.5750    6.6100 C   0  0  0  0  0
   13.1072   -3.5617    7.8292 O   0  0  0  0  0
   13.3820   -6.0240    6.0660 C   0  0  0  0  0
   14.2280   -6.4610    4.8750 C   0  0  0  0  0
   14.3960   -5.2860    3.9810 C   0  0  0  0  0
   14.2309   -2.7243    6.1470 O   0  0  0  0  0
  -10.7393   11.0308    5.5705 H   0  0  0  0  0
  -12.2029   10.3476    6.0520 H   0  0  0  0  0
  -11.1959    8.4571    6.7871 H   0  0  0  0  0
  -10.1371    7.1985    5.0368 H   0  0  0  0  0
   -9.2591    8.5491    4.4464 H   0  0  0  0  0
  -12.1866    7.8989    4.0352 H   0  0  0  0  0
  -11.0157    8.3919    2.8470 H   0  0  0  0  0
  -11.1823   10.6581    3.4261 H   0  0  0  0  0
  -12.7557   10.1745    3.9027 H   0  0  0  0  0
   -8.0659   10.0579    9.1203 H   0  0  0  0  0
   -8.4002    8.1108   10.5455 H   0  0  0  0  0
   -6.7588    7.8118   10.1064 H   0  0  0  0  0
   -8.5905    5.9776    9.5632 H   0  0  0  0  0
   -7.3337    6.2874    8.3998 H   0  0  0  0  0
   -9.2129    6.6598    7.0080 H   0  0  0  0  0
  -10.2246    7.1307    8.3050 H   0  0  0  0  0
   -4.1569   10.5227    7.1550 H   0  0  0  0  0
   -3.3527   12.0785    8.7369 H   0  0  0  0  0
   -2.4784   10.7331    9.4079 H   0  0  0  0  0
   -4.3698   12.1363   10.7276 H   0  0  0  0  0
   -3.9280   10.4421   11.0959 H   0  0  0  0  0
   -6.1408   10.0404   10.7591 H   0  0  0  0  0
   -6.4013   11.5192    9.9408 H   0  0  0  0  0
   -2.3830    9.3754    6.5299 H   0  0  0  0  0
   -2.2853    6.6147    7.6202 H   0  0  0  0  0
   -0.7735    6.1278    5.7349 H   0  0  0  0  0
   -0.5123    7.8585    4.1849 H   0  0  0  0  0
   -3.1830    5.8615    5.4597 H   0  0  0  0  0
   -3.3190    7.5597    4.9416 H   0  0  0  0  0
   -2.4132    6.3946    3.9450 H   0  0  0  0  0
   -0.2714    5.6732    8.2146 H   0  0  0  0  0
    1.4692    7.5479    9.7094 H   0  0  0  0  0
    2.3589    5.5612   10.7247 H   0  0  0  0  0
    1.3238    4.5413    9.5768 H   0  0  0  0  0
   -0.6290    5.1950   10.6935 H   0  0  0  0  0
    0.6066    3.3744   11.7472 H   0  0  0  0  0
    1.5025    4.5438   12.7476 H   0  0  0  0  0
   -0.2539    4.3476   12.9651 H   0  0  0  0  0
    1.1229    7.0342   12.3393 H   0  0  0  0  0
   -0.0423    7.5287   11.0868 H   0  0  0  0  0
   -0.6188    6.7556   12.5839 H   0  0  0  0  0
    4.9209    7.4295    6.9529 H   0  0  0  0  0
    6.9603    7.5627    8.2383 H   0  0  0  0  0
    6.5466    6.2248    9.2282 H   0  0  0  0  0
    5.4984    9.0669    9.4015 H   0  0  0  0  0
    6.0888    8.0699   10.6854 H   0  0  0  0  0
    4.0689    6.7987   10.8150 H   0  0  0  0  0
    3.4166    8.2840   10.2886 H   0  0  0  0  0
    5.7527    6.1269    5.5091 H   0  0  0  0  0
    4.9220    3.2865    5.8651 H   0  0  0  0  0
    5.6765    4.8097    3.3704 H   0  0  0  0  0
    3.9834    4.4617    3.9719 H   0  0  0  0  0
    4.4368    2.0847    3.6894 H   0  0  0  0  0
    6.0398    2.4972    2.9809 H   0  0  0  0  0
    3.3293    3.3044    1.9092 H   0  0  0  0  0
    4.4204    2.0445    1.2319 H   0  0  0  0  0
    6.1310    3.7811    0.8668 H   0  0  0  0  0
    4.9673    5.0143    1.4460 H   0  0  0  0  0
    4.9891    4.8549   -0.9425 H   0  0  0  0  0
    4.5909    3.2381   -0.8779 H   0  0  0  0  0
    3.5086    4.3850   -0.3393 H   0  0  0  0  0
    9.1646    2.3911    6.3585 H   0  0  0  0  0
    8.2381    0.6870    7.8813 H   0  0  0  0  0
    8.9987   -0.3203    6.7211 H   0  0  0  0  0
    6.3875   -0.6230    7.1499 H   0  0  0  0  0
    6.9770   -0.7264    5.5181 H   0  0  0  0  0
    5.4396    1.0370    5.1456 H   0  0  0  0  0
    5.4074    1.4997    6.7925 H   0  0  0  0  0
   10.9496    1.8809    5.2849 H   0  0  0  0  0
   10.6436    0.7092    2.5550 H   0  0  0  0  0
   12.1712    2.5818    2.8431 H   0  0  0  0  0
   13.1105    1.6371    4.0247 H   0  0  0  0  0
   13.0156    1.1006    2.3294 H   0  0  0  0  0
   10.6601   -1.5328    2.4349 H   0  0  0  0  0
   11.3829   -2.9175    4.9414 H   0  0  0  0  0
    9.1692   -3.4031    3.9679 H   0  0  0  0  0
    9.9333   -3.9235    2.4460 H   0  0  0  0  0
   10.1770   -4.8708    3.9340 H   0  0  0  0  0
   11.7356   -4.5546    5.8357 H   0  0  0  0  0
   12.4889   -4.2746    8.0054 H   0  0  0  0  0
   12.5828   -6.7383    6.2637 H   0  0  0  0  0
   13.9794   -5.9770    6.9765 H   0  0  0  0  0
   13.7378   -7.2753    4.3413 H   0  0  0  0  0
   15.1997   -6.8210    5.2131 H   0  0  0  0  0
   15.3348   -4.7560    4.1417 H   0  0  0  0  0
   14.4580   -5.5552    2.9266 H   0  0  0  0  0
  1  2  1  0  0  0
  1  7  1  0  0  0
  2  3  1  0  0  0
  2  5  1  0  0  0
  3  4  2  0  0  0
  3  8  1  0  0  0
  5  6  1  0  0  0
  6  7  1  0  0  0
  8  9  1  0  0  0
  8 14  1  0  0  0
  9 10  1  0  0  0
  9 12  1  0  0  0
 10 11  2  0  0  0
 10 15  1  0  0  0
 12 13  1  0  0  0
 13 14  1  0  0  0
 15 16  1  0  0  0
 15 21  1  0  0  0
 16 17  1  0  0  0
 16 19  1  0  0  0
 17 18  2  0  0  0
 17 22  1  0  0  0
 19 20  1  0  0  0
 20 21  1  0  0  0
 22 23  1  0  0  0
 23 24  1  0  0  0
 23 26  1  0  0  0
 24 25  2  0  0  0
 24 29  1  0  0  0
 26 27  1  0  0  0
 26 28  1  0  0  0
 29 30  1  0  0  0
 30 31  1  0  0  0
 30 33  1  0  0  0
 31 32  2  0  0  0
 31 37  1  0  0  0
 33 34  1  0  0  0
 34 35  1  0  0  0
 34 36  1  0  0  0
 37 38  1  0  0  0
 37 43  1  0  0  0
 38 39  1  0  0  0
 38 41  1  0  0  0
 39 40  2  0  0  0
 39 44  1  0  0  0
 41 42  1  0  0  0
 42 43  1  0  0  0
 44 45  1  0  0  0
 45 46  1  0  0  0
 45 48  1  0  0  0
 46 47  2  0  0  0
 46 53  1  0  0  0
 48 49  1  0  0  0
 49 50  1  0  0  0
 50 51  1  0  0  0
 51 52  1  0  0  0
 53 54  1  0  0  0
 53 59  1  0  0  0
 54 55  1  0  0  0
 54 57  1  0  0  0
 55 56  2  0  0  0
 55 60  1  0  0  0
 57 58  1  0  0  0
 58 59  1  0  0  0
 60 61  1  0  0  0
 61 62  1  0  0  0
 61 64  1  0  0  0
 62 63  2  0  0  0
 62 65  1  0  0  0
 65 66  1  0  0  0
 66 67  1  0  0  0
 66 69  1  0  0  0
 67 68  2  0  0  0
 67 70  1  0  0  0
 70 71  1  0  0  0
 70 76  1  0  0  0
 71 72  1  0  0  0
 71 74  1  0  0  0
 72 73  1  0  0  0
 74 75  1  0  0  0
 75 76  1  0  0  0
 72 77  2  0  0  0
  1 78  1  0  0  0
  1 79  1  0  0  0
  2 80  1  0  0  0
  5 81  1  0  0  0
  5 82  1  0  0  0
  6 83  1  0  0  0
  6 84  1  0  0  0
  7 85  1  0  0  0
  7 86  1  0  0  0
  9 87  1  0  0  0
 12 88  1  0  0  0
 12 89  1  0  0  0
 13 90  1  0  0  0
 13 91  1  0  0  0
 14 92  1  0  0  0
 14 93  1  0  0  0
 16 94  1  0  0  0
 19 95  1  0  0  0
 19 96  1  0  0  0
 20 97  1  0  0  0
 20 98  1  0  0  0
 21 99  1  0  0  0
 21100  1  0  0  0
 22101  1  0  0  0
 23102  1  0  0  0
 26103  1  0  0  0
 27104  1  0  0  0
 28105  1  0  0  0
 28106  1  0  0  0
 28107  1  0  0  0
 29108  1  0  0  0
 30109  1  0  0  0
 33110  1  0  0  0
 33111  1  0  0  0
 34112  1  0  0  0
 35113  1  0  0  0
 35114  1  0  0  0
 35115  1  0  0  0
 36116  1  0  0  0
 36117  1  0  0  0
 36118  1  0  0  0
 38119  1  0  0  0
 41120  1  0  0  0
 41121  1  0  0  0
 42122  1  0  0  0
 42123  1  0  0  0
 43124  1  0  0  0
 43125  1  0  0  0
 44126  1  0  0  0
 45127  1  0  0  0
 48128  1  0  0  0
 48129  1  0  0  0
 49130  1  0  0  0
 49131  1  0  0  0
 50132  1  0  0  0
 50133  1  0  0  0
 51134  1  0  0  0
 51135  1  0  0  0
 52136  1  0  0  0
 52137  1  0  0  0
 52138  1  0  0  0
 54139  1  0  0  0
 57140  1  0  0  0
 57141  1  0  0  0
 58142  1  0  0  0
 58143  1  0  0  0
 59144  1  0  0  0
 59145  1  0  0  0
 60146  1  0  0  0
 61147  1  0  0  0
 64148  1  0  0  0
 64149  1  0  0  0
 64150  1  0  0  0
 65151  1  0  0  0
 66152  1  0  0  0
 69153  1  0  0  0
 69154  1  0  0  0
 69155  1  0  0  0
 71156  1  0  0  0
 73157  1  0  0  0
 74158  1  0  0  0
 74159  1  0  0  0
 75160  1  0  0  0
 75161  1  0  0  0
 76162  1  0  0  0
 76163  1  0  0  0
M  END
$$$$
