### 
### Created by X-TOOL on Mon Sep 10 21:13:08 2018
### 

@<TRIPOS>MOLECULE
4f14_ligand
  162   167     1     0     0
SMALL
GAST_HUCK


@<TRIPOS>ATOM
      1 N         -11.3440   10.2110    5.5190 N.4       1 PRO         0.2461
      2 CA        -10.6210    9.0610    6.0850 C.3       1 PRO         0.0671
      3 C          -9.4100    9.5400    6.9120 C.2       1 PRO         0.2293
      4 O          -9.0440   10.7250    6.8640 O.2       1 PRO        -0.3905
      5 CB        -10.2370    8.2650    4.8350 C.3       1 PRO         0.0127
      6 CG        -11.3340    8.5590    3.8760 C.3       1 PRO        -0.0053
      7 CD        -11.7020    9.9800    4.1030 C.3       1 PRO        -0.0313
      8 N          -8.8280    8.6450    7.7160 N.am      1 PRO        -0.2471
      9 CA         -7.8140    9.0940    8.6780 C.3       1 PRO         0.1341
     10 C          -6.4390    9.2990    8.0250 C.2       1 PRO         0.2066
     11 O          -6.1660    8.8060    6.9360 O.2       1 PRO        -0.3942
     12 CB         -7.7560    7.9350    9.6840 C.3       1 PRO        -0.0104
     13 CG         -8.1790    6.7480    8.9110 C.3       1 PRO        -0.0281
     14 CD         -9.2060    7.2380    7.9320 C.3       1 PRO         0.0371
     15 N          -5.5270   10.0050    8.7130 N.am      1 PRO        -0.2498
     16 CA         -4.1700   10.1440    8.1770 C.3       1 PRO         0.1338
     17 C          -3.4690    8.7970    8.1410 C.2       1 PRO         0.2042
     18 O          -3.7650    7.9040    8.9230 O.2       1 PRO        -0.3944
     19 CB         -3.4810   11.0830    9.1620 C.3       1 PRO        -0.0104
     20 CG         -4.3350   11.1170   10.3430 C.3       1 PRO        -0.0281
     21 CD         -5.7010   10.6860    9.9990 C.3       1 PRO         0.0369
     22 N          -2.5360    8.6400    7.2200 N.am      1 THR        -0.2613
     23 CA         -1.7230    7.4350    7.1740 C.3       1 THR         0.1565
     24 C          -0.4400    7.6740    7.9670 C.2       1 THR         0.2065
     25 O          -0.0350    8.8220    8.2120 O.2       1 THR        -0.3943
     26 CB         -1.4010    7.0190    5.7260 C.3       1 THR         0.0924
     27 OG1        -0.7210    8.1010    5.0900 O.3       1 THR        -0.3874
     28 CG2        -2.6690    6.6850    4.9640 C.3       1 THR        -0.0346
     29 N           0.1590    6.5770    8.4100 N.am      1 LEU        -0.2636
     30 CA          1.4040    6.6070    9.1630 C.3       1 LEU         0.1314
     31 C           2.5920    6.5160    8.2140 C.2       1 LEU         0.2064
     32 O           2.4470    6.1100    7.0620 O.2       1 LEU        -0.3942
     33 CB          1.4310    5.4540   10.1630 C.3       1 LEU        -0.0101
     34 CG          0.3090    5.4290   11.1970 C.3       1 LEU        -0.0425
     35 CD1         0.5590    4.3460   12.2390 C.3       1 LEU        -0.0625
     36 CD2         0.1840    6.7810   11.8470 C.3       1 LEU        -0.0625
     37 N           3.7830    6.9000    8.6920 N.am      1 PRO        -0.2498
     38 CA          4.9570    6.7780    7.8260 C.3       1 PRO         0.1338
     39 C           5.0750    5.3690    7.2660 C.2       1 PRO         0.2041
     40 O           4.7800    4.3880    7.9520 O.2       1 PRO        -0.3944
     41 CB          6.1180    7.1130    8.7640 C.3       1 PRO        -0.0104
     42 CG          5.5120    8.0380    9.7610 C.3       1 PRO        -0.0281
     43 CD          4.1210    7.5080    9.9890 C.3       1 PRO         0.0369
     44 N           5.4820    5.2800    6.0090 N.am      1 LYS        -0.2637
     45 CA          5.5500    3.9980    5.3290 C.3       1 LYS         0.1312
     46 C           6.9730    3.4640    5.3350 C.2       1 LYS         0.2064
     47 O           7.9180    4.1760    4.9820 O.2       1 LYS        -0.3942
     48 CB          5.0170    4.1230    3.9010 C.3       1 LYS        -0.0122
     49 CG          5.0090    2.8210    3.1250 C.3       1 LYS        -0.0440
     50 CD          4.3640    2.9930    1.7660 C.3       1 LYS        -0.0124
     51 CE          5.0780    4.0500    0.9500 C.3       1 LYS        -0.0354
     52 NZ          4.4960    4.1390   -0.4090 N.4       1 LYS         0.2185
     53 N           7.1380    2.1990    5.7410 N.am      1 PRO        -0.2498
     54 CA          8.4820    1.6550    5.9340 C.3       1 PRO         0.1338
     55 C           9.1430    1.2240    4.6270 C.2       1 PRO         0.2041
     56 O           8.4610    0.7850    3.6950 O.2       1 PRO        -0.3944
     57 CB          8.2230    0.4390    6.8200 C.3       1 PRO        -0.0104
     58 CG          6.8860   -0.0500    6.3680 C.3       1 PRO        -0.0281
     59 CD          6.0940    1.1940    6.0030 C.3       1 PRO         0.0369
     60 N          10.4620    1.3530    4.5610 N.am      1 LYS        -0.2640
     61 CA         11.2280    0.7550    3.4740 C.3       1 LYS         0.1282
     62 C          11.6240   -0.6250    3.9820 C.2       1 LYS         0.2036
     63 O          12.3410   -0.7380    4.9750 O.2       1 LYS        -0.3944
     64 CB         12.4710    1.5780    3.1440 C.3       1 LYS        -0.0244
     65 N          11.1400   -1.6730    3.3240 N.am      1 LEU        -0.2640
     66 CA         11.2880   -3.0260    3.8610 C.3       1 LEU         0.1283
     67 C          12.5560   -3.7370    3.3900 C.2       1 LEU         0.2056
     68 O          12.9370   -3.6330    2.2250 O.2       1 LEU        -0.3942
     69 CB         10.0520   -3.8670    3.5280 C.3       1 LEU        -0.0244
     70 N          13.2120   -4.4750    4.3020 N.am      1 PRO        -0.2556
     71 CA         12.8140   -4.6430    5.7040 C.3       1 PRO         0.0972
     72 C          13.4250   -3.5750    6.6100 C.2       1 PRO         0.0603
     73 O          13.1072   -3.5617    7.8292 O.co2     1 PRO        -0.5666
     74 CB         13.3820   -6.0240    6.0660 C.3       1 PRO        -0.0159
     75 CG         14.2280   -6.4610    4.8750 C.3       1 PRO        -0.0288
     76 CD         14.3960   -5.2860    3.9810 C.3       1 PRO         0.0362
     77 O          14.2309   -2.7243    6.1470 O.co2     1 PRO        -0.5666
     78 H1        -10.7580   11.0289    5.5798 H         1 PRO         0.2035
     79 H2        -12.1874   10.3617    6.0500 H         1 PRO         0.2035
     80 H3        -11.2778    8.4619    6.7328 H         1 PRO         0.1099
     81 H4        -10.1877    7.1885    5.0558 H         1 PRO         0.0347
     82 H5         -9.2684    8.6026    4.4377 H         1 PRO         0.0347
     83 H6        -12.1969    7.9046    4.0691 H         1 PRO         0.0320
     84 H7        -10.9878    8.4138    2.8421 H         1 PRO         0.0320
     85 H8        -11.1290   10.6446    3.4397 H         1 PRO         0.0814
     86 H9        -12.7783   10.1377    3.9394 H         1 PRO         0.0814
     87 H10        -8.1276   10.0285    9.1663 H         1 PRO         0.0802
     88 H11        -8.4423    8.1157   10.5244 H         1 PRO         0.0313
     89 H12        -6.7332    7.8044   10.0673 H         1 PRO         0.0313
     90 H13        -8.6177    5.9926    9.5795 H         1 PRO         0.0287
     91 H14        -7.3206    6.3123    8.3788 H         1 PRO         0.0287
     92 H15        -9.1570    6.6685    6.9922 H         1 PRO         0.0524
     93 H16       -10.2191    7.1629    8.3538 H         1 PRO         0.0524
     94 H17        -4.1883   10.5783    7.1665 H         1 PRO         0.0802
     95 H18        -3.3862   12.0897    8.7290 H         1 PRO         0.0313
     96 H19        -2.4831   10.7001    9.4220 H         1 PRO         0.0313
     97 H20        -4.3670   12.1430   10.7382 H         1 PRO         0.0287
     98 H21        -3.9235   10.4421   11.1079 H         1 PRO         0.0287
     99 H22        -6.0997    9.9975   10.7585 H         1 PRO         0.0524
    100 H23        -6.3734   11.5508    9.8989 H         1 PRO         0.0524
    101 H24        -2.3860    9.3610    6.5435 H         1 THR         0.1884
    102 H25        -2.2841    6.6166    7.6488 H         1 THR         0.0826
    103 H26        -0.7488    6.1333    5.7392 H         1 THR         0.0639
    104 H27        -0.5145    7.8610    4.1944 H         1 THR         0.2101
    105 H28        -2.4121    6.3917    3.9354 H         1 THR         0.0257
    106 H29        -3.3258    7.5670    4.9406 H         1 THR         0.0257
    107 H30        -3.1887    5.8539    5.4632 H         1 THR         0.0257
    108 H31        -0.2630    5.6909    8.2184 H         1 LEU         0.1883
    109 H32         1.4638    7.5567    9.7147 H         1 LEU         0.0800
    110 H33         2.3862    5.5039   10.7062 H         1 LEU         0.0315
    111 H34         1.3821    4.5146    9.5928 H         1 LEU         0.0315
    112 H35        -0.6358    5.2011   10.6818 H         1 LEU         0.0298
    113 H36        -0.2608    4.3466   12.9724 H         1 LEU         0.0232
    114 H37         1.5110    4.5445   12.7531 H         1 LEU         0.0232
    115 H38         0.6072    3.3649   11.7439 H         1 LEU         0.0232
    116 H39         0.0043    7.5437   11.0750 H         1 LEU         0.0232
    117 H40         1.1138    7.0164   12.3855 H         1 LEU         0.0232
    118 H41        -0.6575    6.7709   12.5554 H         1 LEU         0.0232
    119 H42         4.9080    7.4959    6.9940 H         1 PRO         0.0802
    120 H43         6.9344    7.6068    8.2166 H         1 PRO         0.0313
    121 H44         6.5011    6.2054    9.2534 H         1 PRO         0.0313
    122 H45         5.4749    9.0634    9.3645 H         1 PRO         0.0287
    123 H46         6.0880    8.0278   10.6981 H         1 PRO         0.0287
    124 H47         4.1107    6.7570   10.7926 H         1 PRO         0.0524
    125 H48         3.4237    8.3214   10.2383 H         1 PRO         0.0524
    126 H49         5.7474    6.1103    5.5189 H         1 LYS         0.1883
    127 H50         4.9133    3.2844    5.8725 H         1 LYS         0.0800
    128 H51         5.6473    4.8436    3.3593 H         1 LYS         0.0312
    129 H52         3.9855    4.5020    3.9496 H         1 LYS         0.0312
    130 H53         4.4463    2.0675    3.6956 H         1 LYS         0.0269
    131 H54         6.0455    2.4790    2.9886 H         1 LYS         0.0269
    132 H55         3.3147    3.2934    1.9024 H         1 LYS         0.0317
    133 H56         4.4041    2.0354    1.2262 H         1 LYS         0.0317
    134 H57         6.1433    3.7875    0.8708 H         1 LYS         0.0813
    135 H58         4.9766    5.0238    1.4514 H         1 LYS         0.0813
    136 H59         4.9826    4.8463   -0.9372 H         1 LYS         0.1994
    137 H60         3.5201    4.3821   -0.3414 H         1 LYS         0.1994
    138 H61         4.5892    3.2492   -0.8734 H         1 LYS         0.1994
    139 H62         9.1278    2.3870    6.4410 H         1 PRO         0.0802
    140 H63         8.1974    0.7255    7.8817 H         1 PRO         0.0313
    141 H64         8.9944   -0.3299    6.6661 H         1 PRO         0.0313
    142 H65         6.3847   -0.5995    7.1784 H         1 PRO         0.0287
    143 H66         6.9939   -0.7064    5.4920 H         1 PRO         0.0287
    144 H67         5.4805    1.0209    5.1066 H         1 PRO         0.0524
    145 H68         5.4467    1.5068    6.8356 H         1 PRO         0.0524
    146 H69        10.9400    1.8705    5.2707 H         1 LYS         0.1883
    147 H70        10.6036    0.6678    2.5726 H         1 LYS         0.0797
    148 H71        13.0215    1.0971    2.3220 H         1 LYS         0.0277
    149 H72        13.1173    1.6383    4.0321 H         1 LYS         0.0277
    150 H73        12.1698    2.5914    2.8401 H         1 LYS         0.0277
    151 H74        10.6695   -1.5355    2.4524 H         1 LEU         0.1883
    152 H75        11.3516   -2.9372    4.9556 H         1 LEU         0.0797
    153 H76        10.1769   -4.8804    3.9373 H         1 LEU         0.0277
    154 H77         9.9311   -3.9249    2.4362 H         1 LEU         0.0277
    155 H78         9.1603   -3.3999    3.9714 H         1 LEU         0.0277
    156 H79        11.7187   -4.6242    5.8033 H         1 PRO         0.0728
    157 H80        12.5645   -6.7400    6.2363 H         1 PRO         0.0306
    158 H81        14.0038   -5.9555    6.9708 H         1 PRO         0.0306
    159 H82        13.7208   -7.2733    4.3338 H         1 PRO         0.0286
    160 H83        15.2115   -6.8101    5.2227 H         1 PRO         0.0286
    161 H84        15.3247   -4.7422    4.2084 H         1 PRO         0.0524
    162 H85        14.3973   -5.5875    2.9231 H         1 PRO         0.0524
@<TRIPOS>BOND
     1    1    2 1  
     2    1    7 1  
     3    2    3 1  
     4    2    5 1  
     5    3    4 2  
     6    3    8 am 
     7    5    6 1  
     8    6    7 1  
     9    8    9 1  
    10    8   14 1  
    11    9   10 1  
    12    9   12 1  
    13   10   11 2  
    14   10   15 am 
    15   12   13 1  
    16   13   14 1  
    17   15   16 1  
    18   15   21 1  
    19   16   17 1  
    20   16   19 1  
    21   17   18 2  
    22   17   22 am 
    23   19   20 1  
    24   20   21 1  
    25   22   23 1  
    26   23   24 1  
    27   23   26 1  
    28   24   25 2  
    29   24   29 am 
    30   26   27 1  
    31   26   28 1  
    32   29   30 1  
    33   30   31 1  
    34   30   33 1  
    35   31   32 2  
    36   31   37 am 
    37   33   34 1  
    38   34   35 1  
    39   34   36 1  
    40   37   38 1  
    41   37   43 1  
    42   38   39 1  
    43   38   41 1  
    44   39   40 2  
    45   39   44 am 
    46   41   42 1  
    47   42   43 1  
    48   44   45 1  
    49   45   46 1  
    50   45   48 1  
    51   46   47 2  
    52   46   53 am 
    53   48   49 1  
    54   49   50 1  
    55   50   51 1  
    56   51   52 1  
    57   53   54 1  
    58   53   59 1  
    59   54   55 1  
    60   54   57 1  
    61   55   56 2  
    62   55   60 am 
    63   57   58 1  
    64   58   59 1  
    65   60   61 1  
    66   61   62 1  
    67   61   64 1  
    68   62   63 2  
    69   62   65 am 
    70   65   66 1  
    71   66   67 1  
    72   66   69 1  
    73   67   68 2  
    74   67   70 am 
    75   70   71 1  
    76   70   76 1  
    77   71   72 1  
    78   71   74 1  
    79   72   73 ar 
    80   74   75 1  
    81   75   76 1  
    82   72   77 ar 
    83    1   78 1  
    84    1   79 1  
    85    2   80 1  
    86    5   81 1  
    87    5   82 1  
    88    6   83 1  
    89    6   84 1  
    90    7   85 1  
    91    7   86 1  
    92    9   87 1  
    93   12   88 1  
    94   12   89 1  
    95   13   90 1  
    96   13   91 1  
    97   14   92 1  
    98   14   93 1  
    99   16   94 1  
   100   19   95 1  
   101   19   96 1  
   102   20   97 1  
   103   20   98 1  
   104   21   99 1  
   105   21  100 1  
   106   22  101 1  
   107   23  102 1  
   108   26  103 1  
   109   27  104 1  
   110   28  105 1  
   111   28  106 1  
   112   28  107 1  
   113   29  108 1  
   114   30  109 1  
   115   33  110 1  
   116   33  111 1  
   117   34  112 1  
   118   35  113 1  
   119   35  114 1  
   120   35  115 1  
   121   36  116 1  
   122   36  117 1  
   123   36  118 1  
   124   38  119 1  
   125   41  120 1  
   126   41  121 1  
   127   42  122 1  
   128   42  123 1  
   129   43  124 1  
   130   43  125 1  
   131   44  126 1  
   132   45  127 1  
   133   48  128 1  
   134   48  129 1  
   135   49  130 1  
   136   49  131 1  
   137   50  132 1  
   138   50  133 1  
   139   51  134 1  
   140   51  135 1  
   141   52  136 1  
   142   52  137 1  
   143   52  138 1  
   144   54  139 1  
   145   57  140 1  
   146   57  141 1  
   147   58  142 1  
   148   58  143 1  
   149   59  144 1  
   150   59  145 1  
   151   60  146 1  
   152   61  147 1  
   153   64  148 1  
   154   64  149 1  
   155   64  150 1  
   156   65  151 1  
   157   66  152 1  
   158   69  153 1  
   159   69  154 1  
   160   69  155 1  
   161   71  156 1  
   162   74  157 1  
   163   74  158 1  
   164   75  159 1  
   165   75  160 1  
   166   76  161 1  
   167   76  162 1  
@<TRIPOS>SUBSTRUCTURE
     1 PRO         1

