2o9r_ligand
  -I-interpret- 

 45 46  0  0  0  0  0  0  0  0999 V2000
   65.3670   28.9520   38.5140 C   0  0  0  0  0
   66.0880   30.2680   39.0630 C   0  0  0  0  0
   67.6750   30.1560   38.9440 C   0  0  0  0  0
   68.2380   28.7800   39.4850 C   0  0  0  0  0
   67.5450   27.6000   38.6620 C   0  0  0  0  0
   67.8930   26.1240   39.0250 C   0  0  0  0  0
   65.6530   31.3750   38.3430 O   0  0  0  0  0
   68.2550   31.2380   39.6650 O   0  0  0  0  0
   69.6200   28.7700   39.3640 O   0  0  0  0  0
   66.1290   27.7370   38.9250 O   0  0  0  0  0
   67.1440   25.6890   40.2130 O   0  0  0  0  0
   60.2370   26.6000   36.7610 C   0  0  0  0  0
   61.0690   25.9140   37.9090 C   0  0  0  0  0
   61.8200   27.0180   38.7870 C   0  0  0  0  0
   62.7950   27.9300   37.8840 C   0  0  0  0  0
   61.9080   28.5630   36.6980 C   0  0  0  0  0
   62.7450   29.2890   35.5370 C   0  0  0  0  0
   59.5640   25.5990   35.8840 O   0  0  0  0  0
   60.2040   25.0870   38.7500 O   0  0  0  0  0
   62.5060   26.1530   39.7970 O   0  0  0  0  0
   63.6250   29.3140   38.7590 S   0  0  0  0  0
   61.1670   27.4660   35.9550 O   0  0  0  0  0
   62.5100   28.7650   34.2000 O   0  0  0  0  0
   65.3780   28.6591   37.4641 H   0  0  0  0  0
   65.8286   30.3778   40.1160 H   0  0  0  0  0
   67.9400   30.2013   37.8877 H   0  0  0  0  0
   68.0073   28.6418   40.5413 H   0  0  0  0  0
   67.8989   27.7243   37.6386 H   0  0  0  0  0
   68.9599   26.0561   39.2374 H   0  0  0  0  0
   67.6246   25.4826   38.1855 H   0  0  0  0  0
   64.6981   31.4454   38.4125 H   0  0  0  0  0
   67.9073   32.0675   39.3295 H   0  0  0  0  0
   69.9900   29.4944   39.8738 H   0  0  0  0  0
   67.3725   24.7796   40.4187 H   0  0  0  0  0
   59.4477   27.2034   37.2094 H   0  0  0  0  0
   61.8183   25.2670   37.4528 H   0  0  0  0  0
   61.1843   27.7711   39.2526 H   0  0  0  0  0
   63.5932   27.2707   37.5430 H   0  0  0  0  0
   61.2739   29.2830   37.2153 H   0  0  0  0  0
   63.8001   29.1298   35.7594 H   0  0  0  0  0
   62.4344   30.3338   35.5276 H   0  0  0  0  0
   59.0693   26.0559   35.1998 H   0  0  0  0  0
   60.7286   24.6783   39.4423 H   0  0  0  0  0
   63.0064   26.7051   40.4024 H   0  0  0  0  0
   63.0454   29.2508   33.5684 H   0  0  0  0  0
  1  2  1  0  0  0
  1 10  1  0  0  0
 21  1  1  0  0  0
  2  3  1  0  0  0
  2  7  1  0  0  0
  3  4  1  0  0  0
  3  8  1  0  0  0
  5  4  1  0  0  0
  4  9  1  0  0  0
  5  6  1  0  0  0
 10  5  1  0  0  0
  6 11  1  0  0  0
 13 12  1  0  0  0
 12 18  1  0  0  0
 12 22  1  0  0  0
 14 13  1  0  0  0
 13 19  1  0  0  0
 15 14  1  0  0  0
 14 20  1  0  0  0
 15 16  1  0  0  0
 15 21  1  0  0  0
 16 17  1  0  0  0
 16 22  1  0  0  0
 17 23  1  0  0  0
  1 24  1  0  0  0
  2 25  1  0  0  0
  3 26  1  0  0  0
  4 27  1  0  0  0
  5 28  1  0  0  0
  6 29  1  0  0  0
  6 30  1  0  0  0
  7 31  1  0  0  0
  8 32  1  0  0  0
  9 33  1  0  0  0
 11 34  1  0  0  0
 12 35  1  0  0  0
 13 36  1  0  0  0
 14 37  1  0  0  0
 15 38  1  0  0  0
 16 39  1  0  0  0
 17 40  1  0  0  0
 17 41  1  0  0  0
 18 42  1  0  0  0
 19 43  1  0  0  0
 20 44  1  0  0  0
 23 45  1  0  0  0
M  END
$$$$
