1abt_ligand
  -I-interpret- 

123127  0  0  0  0  0  0  0  0999 V2000
   -2.7010    7.6930    8.8020 N   0  3  0  0  0
   -3.9840    6.9580    8.9060 C   0  0  0  0  0
   -4.2990    6.1360    7.6380 C   0  0  0  0  0
   -4.8670    6.6220    6.6600 O   0  0  0  0  0
   -5.0990    7.9470    9.2680 C   0  0  0  0  0
   -6.4020    7.2300    9.6480 C   0  0  0  0  0
   -7.4730    8.2330   10.0830 C   0  0  0  0  0
   -8.8100    7.5420   10.3560 C   0  0  0  0  0
   -8.7250    6.6180   11.4980 N   0  3  0  0  0
   -3.8810    4.8830    7.7180 N   0  0  0  0  0
   -3.8780    3.9320    6.5890 C   0  0  0  0  0
   -4.1940    2.5160    7.0900 C   0  0  0  0  0
   -3.8830    2.1590    8.2250 O   0  0  0  0  0
   -2.5170    3.9420    5.8880 C   0  0  0  0  0
   -2.1050    5.3190    5.3770 C   0  0  0  0  0
   -1.3580    6.2040    6.0400 N   0  0  0  0  0
   -2.4960    5.8910    4.2380 C   0  0  0  0  0
   -1.3270    7.3310    5.3410 C   0  0  0  0  0
   -2.0290    7.1440    4.2320 N   0  0  0  0  0
   -4.7800    1.7420    6.1910 N   0  0  0  0  0
   -5.2450    0.3720    6.4880 C   0  0  0  0  0
   -4.4200   -0.7450    5.8420 C   0  0  0  0  0
   -3.8880   -0.6030    4.7380 O   0  0  0  0  0
   -6.7020    0.2410    6.0460 C   0  0  0  0  0
   -7.6890    0.6330    7.1400 C   0  0  0  0  0
   -8.3210   -0.2520    7.8980 C   0  0  0  0  0
   -8.0370    1.8980    7.5910 C   0  0  0  0  0
   -9.0410    0.3700    8.8310 N   0  0  0  0  0
   -8.8940    1.6880    8.6850 C   0  0  0  0  0
   -7.7400    3.2140    7.1650 C   0  0  0  0  0
   -9.4720    2.7810    9.3740 C   0  0  0  0  0
   -8.3140    4.3040    7.8460 C   0  0  0  0  0
   -9.1810    4.0940    8.9360 C   0  0  0  0  0
   -4.2220   -1.7680    6.6660 N   0  0  0  0  0
   -3.8200   -3.1110    6.2120 C   0  0  0  0  0
   -4.9900   -3.8630    5.5570 C   0  0  0  0  0
   -6.1100   -3.9020    6.0540 O   0  0  0  0  0
   -3.2120   -4.0170    7.2990 C   0  0  0  0  0
   -1.7810   -3.6120    7.6710 C   0  0  0  0  0
   -4.0850   -4.1420    8.5640 C   0  0  0  0  0
   -4.6750   -4.3900    4.3880 N   0  0  0  0  0
   -5.5130   -5.3520    3.6540 C   0  0  0  0  0
   -4.7150   -6.6280    3.3820 C   0  0  0  0  0
   -3.5050   -6.6030    3.1430 O   0  0  0  0  0
   -6.0390   -4.7400    2.3550 C   0  0  0  0  0
   -7.3340   -3.9570    2.6070 C   0  0  0  0  0
   -8.5680   -4.6430    2.5280 C   0  0  0  0  0
   -7.2630   -2.5760    2.8580 C   0  0  0  0  0
   -9.7610   -3.9120    2.7080 C   0  0  0  0  0
   -8.4550   -1.8450    3.0370 C   0  0  0  0  0
   -9.6900   -2.5310    2.9580 C   0  0  0  0  0
  -10.8330   -1.8260    3.1590 O   0  0  0  0  0
   -5.4530   -7.7350    3.4160 N   0  0  0  0  0
   -4.8720   -9.0890    3.3200 C   0  0  0  0  0
   -5.2660   -9.9090    2.0830 C   0  0  0  0  0
   -4.6170  -10.9690    1.8930 O   0  0  0  0  0
   -5.1600   -9.8730    4.6080 C   0  0  0  0  0
   -4.2660   -9.4620    5.7900 C   0  0  0  0  0
   -4.5740   -8.2880    6.5160 C   0  0  0  0  0
   -3.2970  -10.3750    6.2540 C   0  0  0  0  0
   -3.9280   -8.0370    7.7370 C   0  0  0  0  0
   -2.6510  -10.1330    7.4790 C   0  0  0  0  0
   -2.9690   -8.9700    8.2040 C   0  0  0  0  0
   -2.3200   -8.7180    9.3680 O   0  0  0  0  0
   -6.2367   -9.5208    1.2609 O   0  0  0  0  0
   -2.5405    8.2178    9.6618 H   0  0  0  0  0
   -1.9402    7.0284    8.6609 H   0  0  0  0  0
   -2.7425    8.3368    8.0120 H   0  0  0  0  0
   -3.9044    6.2187    9.7030 H   0  0  0  0  0
   -5.2955    8.5729    8.3975 H   0  0  0  0  0
   -4.7696    8.5331   10.1259 H   0  0  0  0  0
   -6.1994    6.5528   10.4777 H   0  0  0  0  0
   -6.7671    6.6837    8.7783 H   0  0  0  0  0
   -7.6156    8.9560    9.2799 H   0  0  0  0  0
   -7.1404    8.7168   11.0014 H   0  0  0  0  0
   -9.0859    6.9683    9.4712 H   0  0  0  0  0
   -9.5498    8.3077   10.5894 H   0  0  0  0  0
   -9.6336    6.1790   11.6469 H   0  0  0  0  0
   -8.0273    5.9003   11.3019 H   0  0  0  0  0
   -8.4555    7.1365   12.3340 H   0  0  0  0  0
   -3.5380    4.5523    8.6199 H   0  0  0  0  0
   -4.6442    4.2377    5.8765 H   0  0  0  0  0
   -2.5886    3.2804    5.0247 H   0  0  0  0  0
   -1.7708    3.6268    6.6173 H   0  0  0  0  0
   -3.0894    5.4219    3.4532 H   0  0  0  0  0
   -0.8145    8.2492    5.6279 H   0  0  0  0  0
   -4.9170    2.1085    5.2490 H   0  0  0  0  0
   -5.1272    0.2393    7.5635 H   0  0  0  0  0
   -6.8815   -0.8040    5.7934 H   0  0  0  0  0
   -6.8561    0.9124    5.2012 H   0  0  0  0  0
   -8.2604   -1.3334    7.7757 H   0  0  0  0  0
   -7.0740    3.3820    6.3187 H   0  0  0  0  0
  -10.1297    2.6138   10.2270 H   0  0  0  0  0
   -8.0853    5.3207    7.5266 H   0  0  0  0  0
   -9.6298    4.9474    9.4444 H   0  0  0  0  0
   -4.3553   -1.6158    7.6657 H   0  0  0  0  0
   -3.0320   -2.9063    5.4872 H   0  0  0  0  0
   -3.1768   -5.0056    6.8412 H   0  0  0  0  0
   -1.1456   -3.6753    6.7876 H   0  0  0  0  0
   -1.7806   -2.5893    8.0480 H   0  0  0  0  0
   -1.4030   -4.2845    8.4410 H   0  0  0  0  0
   -4.2261   -3.1554    9.0055 H   0  0  0  0  0
   -5.0538   -4.5631    8.2952 H   0  0  0  0  0
   -3.5900   -4.7955    9.2824 H   0  0  0  0  0
   -3.7900   -4.1112    3.9644 H   0  0  0  0  0
   -6.3783   -5.6061    4.2662 H   0  0  0  0  0
   -6.2456   -5.5424    1.6468 H   0  0  0  0  0
   -5.2872   -4.0577    1.9583 H   0  0  0  0  0
   -8.5968   -5.7148    2.3320 H   0  0  0  0  0
   -6.2964   -2.0754    2.9137 H   0  0  0  0  0
  -10.7275   -4.4130    2.6537 H   0  0  0  0  0
   -8.4259   -0.7730    3.2323 H   0  0  0  0  0
  -11.5883   -2.4128    3.0765 H   0  0  0  0  0
   -6.4643   -7.6441    3.5126 H   0  0  0  0  0
   -3.8017   -8.9258    3.1942 H   0  0  0  0  0
   -4.9657  -10.9254    4.4010 H   0  0  0  0  0
   -6.1924   -9.6686    4.8918 H   0  0  0  0  0
   -5.3090   -7.5818    6.1297 H   0  0  0  0  0
   -3.0509  -11.2606    5.6682 H   0  0  0  0  0
   -4.1596   -7.1420    8.3145 H   0  0  0  0  0
   -1.9130  -10.8376    7.8623 H   0  0  0  0  0
   -2.6439   -7.8953    9.7420 H   0  0  0  0  0
   -6.6079   -8.6928    1.5744 H   0  0  0  0  0
  2  1  1  0  0  0
  2  5  1  0  0  0
  3  2  1  0  0  0
  3  4  2  0  0  0
  5  6  1  0  0  0
  6  7  1  0  0  0
  7  8  1  0  0  0
  8  9  1  0  0  0
 11 10  1  0  0  0
 11 14  1  0  0  0
 12 11  1  0  0  0
 12 13  2  0  0  0
 14 15  1  0  0  0
 15 16  4  0  0  0
 15 17  4  0  0  0
 17 19  4  0  0  0
 19 18  4  0  0  0
 16 18  4  0  0  0
 10  3  1  0  0  0
 21 20  1  0  0  0
 21 24  1  0  0  0
 22 21  1  0  0  0
 22 23  2  0  0  0
 24 25  1  0  0  0
 25 26  4  0  0  0
 25 27  4  0  0  0
 27 30  4  0  0  0
 27 29  4  0  0  0
 29 31  4  0  0  0
 29 28  4  0  0  0
 26 28  4  0  0  0
 31 33  4  0  0  0
 32 33  4  0  0  0
 30 32  4  0  0  0
 20 12  1  0  0  0
 35 34  1  0  0  0
 35 38  1  0  0  0
 36 35  1  0  0  0
 36 37  2  0  0  0
 38 40  1  0  0  0
 38 39  1  0  0  0
 34 22  1  0  0  0
 42 41  1  0  0  0
 42 45  1  0  0  0
 43 42  1  0  0  0
 43 44  2  0  0  0
 45 46  1  0  0  0
 46 47  4  0  0  0
 46 48  4  0  0  0
 48 50  4  0  0  0
 50 51  4  0  0  0
 51 52  1  0  0  0
 49 51  4  0  0  0
 47 49  4  0  0  0
 41 36  1  0  0  0
 53 54  1  0  0  0
 54 57  1  0  0  0
 54 55  1  0  0  0
 55 56  2  0  0  0
 57 58  1  0  0  0
 58 59  4  0  0  0
 58 60  4  0  0  0
 60 62  4  0  0  0
 62 63  4  0  0  0
 63 64  1  0  0  0
 61 63  4  0  0  0
 59 61  4  0  0  0
 43 53  1  0  0  0
 55 65  1  0  0  0
  1 66  1  0  0  0
  1 67  1  0  0  0
  1 68  1  0  0  0
  2 69  1  0  0  0
  5 70  1  0  0  0
  5 71  1  0  0  0
  6 72  1  0  0  0
  6 73  1  0  0  0
  7 74  1  0  0  0
  7 75  1  0  0  0
  8 76  1  0  0  0
  8 77  1  0  0  0
  9 78  1  0  0  0
  9 79  1  0  0  0
  9 80  1  0  0  0
 10 81  1  0  0  0
 11 82  1  0  0  0
 14 83  1  0  0  0
 14 84  1  0  0  0
 17 85  1  0  0  0
 18 86  1  0  0  0
 20 87  1  0  0  0
 21 88  1  0  0  0
 24 89  1  0  0  0
 24 90  1  0  0  0
 26 91  1  0  0  0
 30 92  1  0  0  0
 31 93  1  0  0  0
 32 94  1  0  0  0
 33 95  1  0  0  0
 34 96  1  0  0  0
 35 97  1  0  0  0
 38 98  1  0  0  0
 39 99  1  0  0  0
 39100  1  0  0  0
 39101  1  0  0  0
 40102  1  0  0  0
 40103  1  0  0  0
 40104  1  0  0  0
 41105  1  0  0  0
 42106  1  0  0  0
 45107  1  0  0  0
 45108  1  0  0  0
 47109  1  0  0  0
 48110  1  0  0  0
 49111  1  0  0  0
 50112  1  0  0  0
 52113  1  0  0  0
 53114  1  0  0  0
 54115  1  0  0  0
 57116  1  0  0  0
 57117  1  0  0  0
 59118  1  0  0  0
 60119  1  0  0  0
 61120  1  0  0  0
 62121  1  0  0  0
 64122  1  0  0  0
 65123  1  0  0  0
M  END
$$$$
