4avu_ligand
  -I-interpret- 

 24 26  0  0  0  0  0  0  0  0999 V2000
  -38.4580  -10.1120   14.7400 O   0  0  0  0  0
  -40.3050  -10.8660    9.2110 C   0  0  0  0  0
  -41.3330  -12.9620   15.8850 C   0  0  0  0  0
  -41.2890  -11.8210    9.4370 C   0  0  0  0  0
  -42.1160  -13.5460   14.9020 C   0  0  0  0  0
  -39.5580  -10.3540   10.2580 C   0  0  0  0  0
  -40.3530  -12.0150   15.5750 C   0  0  0  0  0
  -41.5370  -12.2850   10.7240 C   0  0  0  0  0
  -41.9750  -13.2000   13.5610 C   0  0  0  0  0
  -39.0390  -10.2690   12.5700 N   0  0  0  0  0
  -39.1790  -10.6290   13.8590 C   0  0  0  0  0
  -39.7630  -10.7840   11.5620 C   0  0  0  0  0
  -40.1780  -11.6440   14.2500 C   0  0  0  0  0
  -40.8160  -11.7920   11.8090 C   0  0  0  0  0
  -41.0360  -12.2420   13.2020 C   0  0  0  0  0
  -40.1189  -10.5154    8.1958 H   0  0  0  0  0
  -41.4852  -13.2483   16.9257 H   0  0  0  0  0
  -41.8699  -12.2087    8.6001 H   0  0  0  0  0
  -42.8583  -14.2924   15.1849 H   0  0  0  0  0
  -38.7965   -9.6010   10.0553 H   0  0  0  0  0
  -39.7374  -11.5760   16.3602 H   0  0  0  0  0
  -42.3038  -13.0426   10.8856 H   0  0  0  0  0
  -42.5949  -13.6758   12.8011 H   0  0  0  0  0
  -38.3400   -9.5614   12.3441 H   0  0  0  0  0
 11  1  2  0  0  0
  2  4  4  0  0  0
  6  2  4  0  0  0
  3  5  4  0  0  0
  7  3  4  0  0  0
  4  8  4  0  0  0
  5  9  4  0  0  0
 12  6  4  0  0  0
 13  7  4  0  0  0
  8 14  4  0  0  0
  9 15  4  0  0  0
 11 10  1  0  0  0
 10 12  1  0  0  0
 11 13  1  0  0  0
 12 14  4  0  0  0
 13 15  4  0  0  0
 14 15  1  0  0  0
  2 16  1  0  0  0
  3 17  1  0  0  0
  4 18  1  0  0  0
  5 19  1  0  0  0
  6 20  1  0  0  0
  7 21  1  0  0  0
  8 22  1  0  0  0
  9 23  1  0  0  0
 10 24  1  0  0  0
M  END
$$$$
