6uwv_ligand
  -I-interpret- 

 59 63  0  0  0  0  0  0  0  0999 V2000
   29.5980   55.8000   87.2130 C   0  0  0  0  0
   23.6330   54.3940   86.4140 C   0  0  0  0  0
   15.4160   54.5020   88.0430 C   0  0  0  0  0
   22.3150   55.0520   89.9480 C   0  0  0  0  0
   17.9490   55.3090   87.8990 C   0  0  0  0  0
   16.3230   53.8880   87.2000 C   0  0  0  0  0
   15.8880   55.5660   88.7880 C   0  0  0  0  0
   19.8010   56.8370   88.6250 C   0  0  0  0  0
   20.2970   55.0980   86.9900 C   0  0  0  0  0
   22.1950   57.6650   89.0520 C   0  0  0  0  0
   22.7140   55.5900   86.5790 C   0  0  0  0  0
   21.2220   57.0300   88.0600 C   0  0  0  0  0
   24.1840   55.7050   86.9370 C   0  0  0  0  0
   29.2900   54.4640   87.8400 C   0  0  0  0  0
   28.2230   55.5340   87.7970 C   0  0  0  0  0
   21.6130   55.6160   87.6230 C   0  0  0  0  0
   29.8910   54.1100   89.1600 C   0  0  0  0  0
   25.1670   56.2190   84.6440 C   0  0  0  0  0
   24.6200   58.0900   86.1880 C   0  0  0  0  0
   27.0340   55.3730   86.8610 C   0  0  0  0  0
   25.0760   56.6150   86.1340 C   0  0  0  0  0
   17.1640   55.9900   88.7520 N   0  0  0  0  0
   17.6130   54.2760   87.1090 N   0  0  0  0  0
   21.9460   54.7060   88.7250 N   0  0  0  0  0
   19.2660   55.7320   87.8290 N   0  0  0  0  0
   22.5970   54.1060   90.9020 N   0  0  0  0  0
   26.4200   56.6510   86.6960 O   0  0  0  0  0
   22.4930   56.6950   90.5510 S   0  0  0  0  0
   30.0345   56.1909   86.2939 H   0  0  0  0  0
   30.3719   56.5662   87.2593 H   0  0  0  0  0
   23.8769   53.6493   85.6563 H   0  0  0  0  0
   23.6529   53.3364   86.6769 H   0  0  0  0  0
   14.3822   54.1646   88.1164 H   0  0  0  0  0
   15.9828   53.0562   86.5832 H   0  0  0  0  0
   15.1887   56.0897   89.4398 H   0  0  0  0  0
   19.1944   57.7394   88.5491 H   0  0  0  0  0
   19.8013   56.6213   89.6934 H   0  0  0  0  0
   20.2284   54.0102   86.9795 H   0  0  0  0  0
   20.2030   55.3521   85.9342 H   0  0  0  0  0
   21.7520   58.6091   89.3691 H   0  0  0  0  0
   23.1527   57.7581   88.5400 H   0  0  0  0  0
   22.0371   56.1444   85.9290 H   0  0  0  0  0
   21.2554   57.7437   87.2368 H   0  0  0  0  0
   24.7689   55.9712   87.8174 H   0  0  0  0  0
   29.3655   53.4296   87.5047 H   0  0  0  0  0
   27.5893   56.0210   88.5382 H   0  0  0  0  0
   30.3634   54.9926   89.5911 H   0  0  0  0  0
   29.1090   53.7513   89.8293 H   0  0  0  0  0
   30.6378   53.3285   89.0199 H   0  0  0  0  0
   25.5673   55.2085   84.5617 H   0  0  0  0  0
   24.1728   56.2548   84.1985 H   0  0  0  0  0
   25.8249   56.9152   84.1239 H   0  0  0  0  0
   23.6094   58.1714   85.7878 H   0  0  0  0  0
   24.6316   58.4349   87.2219 H   0  0  0  0  0
   25.2984   58.7007   85.5923 H   0  0  0  0  0
   26.3193   54.6654   87.2813 H   0  0  0  0  0
   27.3659   54.9894   85.8962 H   0  0  0  0  0
   21.8872   53.7068   88.5288 H   0  0  0  0  0
   22.5238   53.1144   90.6743 H   0  0  0  0  0
 14  1  1  0  0  0
 15  1  1  0  0  0
 11  2  1  0  0  0
 13  2  1  0  0  0
  6  3  4  0  0  0
  7  3  4  0  0  0
 24  4  1  0  0  0
  4 26  2  0  0  0
  4 28  1  0  0  0
  5 22  4  0  0  0
  5 23  4  0  0  0
 25  5  1  0  0  0
 23  6  4  0  0  0
 22  7  4  0  0  0
 12  8  1  0  0  0
  8 25  1  0  0  0
 16  9  1  0  0  0
  9 25  1  0  0  0
 12 10  1  0  0  0
 10 28  1  0  0  0
 13 11  1  0  0  0
 11 16  1  0  0  0
 16 12  1  0  0  0
 21 13  1  0  0  0
 15 14  1  0  0  0
 14 17  1  0  0  0
 20 15  1  0  0  0
 16 24  1  0  0  0
 21 18  1  0  0  0
 21 19  1  0  0  0
 27 20  1  0  0  0
 21 27  1  0  0  0
  1 29  1  0  0  0
  1 30  1  0  0  0
  2 31  1  0  0  0
  2 32  1  0  0  0
  3 33  1  0  0  0
  6 34  1  0  0  0
  7 35  1  0  0  0
  8 36  1  0  0  0
  8 37  1  0  0  0
  9 38  1  0  0  0
  9 39  1  0  0  0
 10 40  1  0  0  0
 10 41  1  0  0  0
 11 42  1  0  0  0
 12 43  1  0  0  0
 13 44  1  0  0  0
 14 45  1  0  0  0
 15 46  1  0  0  0
 17 47  1  0  0  0
 17 48  1  0  0  0
 17 49  1  0  0  0
 18 50  1  0  0  0
 18 51  1  0  0  0
 18 52  1  0  0  0
 19 53  1  0  0  0
 19 54  1  0  0  0
 19 55  1  0  0  0
 20 56  1  0  0  0
 20 57  1  0  0  0
 24 58  1  0  0  0
 26 59  1  0  0  0
M  END
$$$$
