### 
### Created by X-TOOL on Mon Sep 10 21:12:56 2018
### 

@<TRIPOS>MOLECULE
2np9_ligand
   98   101     1     0     0
SMALL
GAST_HUCK


@<TRIPOS>ATOM
      1 C11       -86.8880  -17.4410  -29.6330 C.3       1 YE1         0.0367
      2 C12       -86.2140  -18.8190  -29.5710 C.3       1 YE1         0.0936
      3 C14       -85.8320  -16.3550  -29.7020 C.3       1 YE1        -0.0528
      4 C13       -87.6490  -17.2930  -28.3160 C.3       1 YE1        -0.0528
      5 C10       -87.8560  -17.4640  -30.8400 C.3       1 YE1         0.1510
      6 O10       -88.8440  -18.5070  -30.6480 O.3       1 YE1        -0.3708
      7 OAD       -95.6540  -10.8470  -26.1410 O.2       1 YE1        -0.3941
      8 CAB       -95.6760   -9.9110  -27.2090 C.2       1 YE1         0.1872
      9 NAA       -94.6780   -9.9470  -28.1910 N.am      1 YE1        -0.2834
     10 CAC       -96.7920   -8.8290  -27.3260 C.3       1 YE1         0.0656
     11 CAF       -97.8250   -8.8280  -26.2360 C.ar      1 YE1        -0.0417
     12 CAG       -98.5560   -7.6750  -25.9330 C.ar      1 YE1        -0.0411
     13 CAE       -98.0510   -9.9930  -25.5060 C.ar      1 YE1        -0.0411
     14 CAJ       -98.9830  -10.0060  -24.4770 C.ar      1 YE1         0.0729
     15 OAL       -99.1330  -11.1200  -23.7270 O.3       1 YE1        -0.3375
     16 CAI       -99.7110   -8.8590  -24.1740 C.ar      1 YE1        -0.0126
     17 CAH       -99.5000   -7.6930  -24.9060 C.ar      1 YE1         0.0729
     18 OAK      -100.2270   -6.5800  -24.6270 O.3       1 YE1        -0.3375
     19 N1A       -95.1090  -18.0050  -30.9230 N.ar      1 YE1        -0.2698
     20 C2A       -95.2880  -19.3100  -31.3150 C.ar      1 YE1         0.0533
     21 N3A       -94.3980  -20.2630  -31.3210 N.ar      1 YE1        -0.2714
     22 C4A       -93.1640  -19.8270  -30.9080 C.ar      1 YE1         0.1613
     23 C5A       -92.8180  -18.5500  -30.5240 C.ar      1 YE1         0.1045
     24 C6A       -93.8650  -17.5990  -30.5280 C.ar      1 YE1         0.1298
     25 N6A       -93.7170  -16.3440  -30.1700 N.pl3     1 YE1        -0.3152
     26 N7A       -91.4640  -18.4620  -30.1690 N.2       1 YE1        -0.2958
     27 C8A       -91.0200  -19.7120  -30.3370 C.2       1 YE1         0.1123
     28 N9A       -91.9970  -20.5590  -30.7950 N.pl3     1 YE1        -0.1919
     29 C1'       -91.8760  -21.9600  -31.1420 C.3       1 YE1         0.2013
     30 C2'       -91.1850  -22.0030  -32.4890 C.3       1 YE1         0.1432
     31 O2'       -92.1400  -21.8740  -33.5640 O.3       1 YE1        -0.3832
     32 C3'       -90.5010  -23.3650  -32.4580 C.3       1 YE1         0.1487
     33 O3'       -91.3350  -24.4660  -32.8770 O.3       1 YE1        -0.2674
     34 P3'       -91.3040  -24.5750  -34.4030 P.3       1 YE1         0.2013
     35 O7A       -92.1890  -25.7420  -34.8480 O.co2     1 YE1        -0.5537
     36 O8A       -89.8660  -24.8140  -34.8690 O.co2     1 YE1        -0.5537
     37 O9A       -91.8280  -23.2740  -35.0170 O.co2     1 YE1        -0.5537
     38 C4'       -90.0870  -23.4500  -30.9740 C.3       1 YE1         0.1235
     39 O4'       -90.9990  -22.5710  -30.2450 O.3       1 YE1        -0.3360
     40 C5'       -88.6590  -23.0430  -30.7050 C.3       1 YE1         0.1131
     41 O5'       -88.4780  -21.8630  -31.4700 O.3       1 YE1        -0.2476
     42 P1A       -87.1320  -21.5140  -32.2160 P.3       1 YE1         0.2972
     43 O1A       -87.2960  -20.2550  -32.9910 O.co2     1 YE1        -0.6127
     44 O2A       -86.6500  -22.5480  -33.1580 O.co2     1 YE1        -0.6127
     45 O3A       -86.2520  -21.4230  -30.9640 O.3       1 YE1        -0.1319
     46 P2A       -84.8970  -20.5470  -30.8280 P.3       1 YE1         0.2971
     47 O4A       -84.3430  -20.1000  -32.1520 O.co2     1 YE1        -0.6127
     48 O5A       -83.9710  -21.0920  -29.7940 O.co2     1 YE1        -0.6127
     49 O6A       -85.2280  -18.9620  -30.6220 O.3       1 YE1        -0.2496
     50 C9P       -88.4880  -16.0720  -31.0190 C.2       1 YE1         0.2057
     51 O9P       -87.8510  -15.1080  -31.5310 O.2       1 YE1        -0.3942
     52 N8P       -89.8060  -15.8430  -30.6090 N.am      1 YE1        -0.2826
     53 C7P       -90.1720  -14.4470  -30.8850 C.3       1 YE1         0.0477
     54 C6P       -90.5610  -14.0440  -29.4770 C.3       1 YE1         0.0574
     55 C5P       -91.4580  -12.8520  -29.6580 C.2       1 YE1         0.1780
     56 O5P       -91.0910  -11.9100  -30.3480 O.2       1 YE1        -0.3970
     57 N4P       -92.6650  -12.7780  -28.9550 N.am      1 YE1        -0.2850
     58 C3P       -93.2870  -11.5520  -29.2230 C.3       1 YE1         0.0510
     59 C2P       -93.8160  -10.9460  -27.9100 C.3       1 YE1         0.0511
     60 H1        -86.9800  -19.5998  -29.6878 H         1 YE1         0.0628
     61 H2        -85.7191  -18.9339  -28.5954 H         1 YE1         0.0628
     62 H3        -86.3208  -15.3706  -29.7462 H         1 YE1         0.0238
     63 H4        -85.2160  -16.4992  -30.6018 H         1 YE1         0.0238
     64 H5        -85.1932  -16.4073  -28.8080 H         1 YE1         0.0238
     65 H6        -88.4206  -18.0741  -28.2486 H         1 YE1         0.0238
     66 H7        -88.1257  -16.3024  -28.2773 H         1 YE1         0.0238
     67 H8        -86.9485  -17.3961  -27.4742 H         1 YE1         0.0238
     68 H9        -87.2827  -17.6988  -31.7490 H         1 YE1         0.0844
     69 H10       -89.3336  -18.3352  -29.8522 H         1 YE1         0.2133
     70 H11       -94.6145   -9.3303  -28.9756 H         1 YE1         0.1853
     71 H12       -97.3124   -8.9843  -28.2826 H         1 YE1         0.0656
     72 H13       -96.3053   -7.8425  -27.3292 H         1 YE1         0.0656
     73 H14       -98.3887   -6.7649  -26.4976 H         1 YE1         0.0394
     74 H15       -97.4964  -10.8938  -25.7426 H         1 YE1         0.0394
     75 H16       -98.3099  -11.3259  -23.2997 H         1 YE1         0.2477
     76 H17      -100.4394   -8.8732  -23.3713 H         1 YE1         0.0410
     77 H18      -101.1503   -6.7672  -24.7498 H         1 YE1         0.2477
     78 H19       -96.2810  -19.5772  -31.6579 H         1 YE1         0.0996
     79 H20       -92.7947  -16.0005  -29.8662 H         1 YE1         0.1820
     80 H21       -94.5232  -15.7034  -30.1931 H         1 YE1         0.1820
     81 H22       -89.9965  -20.0231  -30.1329 H         1 YE1         0.1349
     82 H23       -92.8554  -22.4604  -31.1593 H         1 YE1         0.0996
     83 H24       -90.4401  -21.1983  -32.5762 H         1 YE1         0.0680
     84 H25       -92.7649  -22.5881  -33.5184 H         1 YE1         0.2101
     85 H26       -89.6107  -23.3548  -33.1040 H         1 YE1         0.0704
     86 H27       -90.2170  -24.4864  -30.6291 H         1 YE1         0.0654
     87 H28       -87.9622  -23.8291  -31.0315 H         1 YE1         0.0648
     88 H29       -88.5073  -22.8399  -29.6346 H         1 YE1         0.0648
     89 H30       -90.4069  -16.5250  -30.1920 H         1 YE1         0.1853
     90 H31       -91.0147  -14.3690  -31.5877 H         1 YE1         0.0545
     91 H32       -89.3220  -13.8615  -31.2653 H         1 YE1         0.0545
     92 H33       -89.6705  -13.7743  -28.8902 H         1 YE1         0.0522
     93 H34       -91.0982  -14.8613  -28.9736 H         1 YE1         0.0522
     94 H35       -93.0277  -13.4902  -28.3540 H         1 YE1         0.1851
     95 H36       -94.1253  -11.7103  -29.9174 H         1 YE1         0.0540
     96 H37       -92.5594  -10.8635  -29.6774 H         1 YE1         0.0540
     97 H38       -94.3331  -11.7240  -27.3293 H         1 YE1         0.0540
     98 H39       -92.9739  -10.5497  -27.3237 H         1 YE1         0.0540
@<TRIPOS>BOND
     1    1    2 1  
     2    1    3 1  
     3    1    4 1  
     4    5    1 1  
     5    2   49 1  
     6    5    6 1  
     7   50    5 1  
     8    8    7 2  
     9    9    8 am 
    10    8   10 1  
    11   59    9 1  
    12   10   11 1  
    13   11   12 ar 
    14   11   13 ar 
    15   12   17 ar 
    16   13   14 ar 
    17   14   15 1  
    18   14   16 ar 
    19   17   16 ar 
    20   17   18 1  
    21   20   19 ar 
    22   24   19 ar 
    23   21   20 ar 
    24   22   21 ar 
    25   22   23 ar 
    26   28   22 1  
    27   23   24 ar 
    28   26   23 1  
    29   24   25 1  
    30   27   26 2  
    31   28   27 1  
    32   29   28 1  
    33   29   30 1  
    34   39   29 1  
    35   30   31 1  
    36   32   30 1  
    37   32   33 1  
    38   38   32 1  
    39   33   34 1  
    40   34   35 ar 
    41   34   36 ar 
    42   34   37 ar 
    43   38   39 1  
    44   40   38 1  
    45   41   40 1  
    46   42   41 1  
    47   42   43 ar 
    48   42   44 ar 
    49   45   42 1  
    50   46   45 1  
    51   46   47 ar 
    52   46   48 ar 
    53   49   46 1  
    54   50   51 2  
    55   52   50 am 
    56   53   52 1  
    57   54   53 1  
    58   55   54 1  
    59   55   56 2  
    60   57   55 am 
    61   58   57 1  
    62   58   59 1  
    63    2   60 1  
    64    2   61 1  
    65    3   62 1  
    66    3   63 1  
    67    3   64 1  
    68    4   65 1  
    69    4   66 1  
    70    4   67 1  
    71    5   68 1  
    72    6   69 1  
    73    9   70 1  
    74   10   71 1  
    75   10   72 1  
    76   12   73 1  
    77   13   74 1  
    78   15   75 1  
    79   16   76 1  
    80   18   77 1  
    81   20   78 1  
    82   25   79 1  
    83   25   80 1  
    84   27   81 1  
    85   29   82 1  
    86   30   83 1  
    87   31   84 1  
    88   32   85 1  
    89   38   86 1  
    90   40   87 1  
    91   40   88 1  
    92   52   89 1  
    93   53   90 1  
    94   53   91 1  
    95   54   92 1  
    96   54   93 1  
    97   57   94 1  
    98   58   95 1  
    99   58   96 1  
   100   59   97 1  
   101   59   98 1  
@<TRIPOS>SUBSTRUCTURE
     1 YE1         1

