2np9_ligand
  -I-interpret- 

102105  0  0  0  0  0  0  0  0999 V2000
  -86.8880  -17.4410  -29.6330 C   0  0  0  0  0
  -86.2140  -18.8190  -29.5710 C   0  0  0  0  0
  -85.8320  -16.3550  -29.7020 C   0  0  0  0  0
  -87.6490  -17.2930  -28.3160 C   0  0  0  0  0
  -87.8560  -17.4640  -30.8400 C   0  0  0  0  0
  -88.8440  -18.5070  -30.6480 O   0  0  0  0  0
  -95.6540  -10.8470  -26.1410 O   0  0  0  0  0
  -95.6760   -9.9110  -27.2090 C   0  0  0  0  0
  -94.6780   -9.9470  -28.1910 N   0  0  0  0  0
  -96.7920   -8.8290  -27.3260 C   0  0  0  0  0
  -97.8250   -8.8280  -26.2360 C   0  0  0  0  0
  -98.5560   -7.6750  -25.9330 C   0  0  0  0  0
  -98.0510   -9.9930  -25.5060 C   0  0  0  0  0
  -98.9830  -10.0060  -24.4770 C   0  0  0  0  0
  -99.1330  -11.1200  -23.7270 O   0  0  0  0  0
  -99.7110   -8.8590  -24.1740 C   0  0  0  0  0
  -99.5000   -7.6930  -24.9060 C   0  0  0  0  0
 -100.2270   -6.5800  -24.6270 O   0  0  0  0  0
  -95.1090  -18.0050  -30.9230 N   0  0  0  0  0
  -95.2880  -19.3100  -31.3150 C   0  0  0  0  0
  -94.3980  -20.2630  -31.3210 N   0  0  0  0  0
  -93.1640  -19.8270  -30.9080 C   0  0  0  0  0
  -92.8180  -18.5500  -30.5240 C   0  0  0  0  0
  -93.8650  -17.5990  -30.5280 C   0  0  0  0  0
  -93.7170  -16.3440  -30.1700 N   0  0  0  0  0
  -91.4640  -18.4620  -30.1690 N   0  0  0  0  0
  -91.0200  -19.7120  -30.3370 C   0  0  0  0  0
  -91.9970  -20.5590  -30.7950 N   0  0  0  0  0
  -91.8760  -21.9600  -31.1420 C   0  0  0  0  0
  -91.1850  -22.0030  -32.4890 C   0  0  0  0  0
  -92.1400  -21.8740  -33.5640 O   0  0  0  0  0
  -90.5010  -23.3650  -32.4580 C   0  0  0  0  0
  -91.3350  -24.4660  -32.8770 O   0  0  0  0  0
  -91.3040  -24.5750  -34.4030 P   0  0  0  0  0
  -92.1890  -25.7420  -34.8480 O   0  0  0  0  0
  -89.8660  -24.8140  -34.8690 O   0  0  0  0  0
  -91.8280  -23.2740  -35.0170 O   0  0  0  0  0
  -90.0870  -23.4500  -30.9740 C   0  0  0  0  0
  -90.9990  -22.5710  -30.2450 O   0  0  0  0  0
  -88.6590  -23.0430  -30.7050 C   0  0  0  0  0
  -88.4780  -21.8630  -31.4700 O   0  0  0  0  0
  -87.1320  -21.5140  -32.2160 P   0  0  0  0  0
  -87.2960  -20.2550  -32.9910 O   0  0  0  0  0
  -86.6500  -22.5480  -33.1580 O   0  0  0  0  0
  -86.2520  -21.4230  -30.9640 O   0  0  0  0  0
  -84.8970  -20.5470  -30.8280 P   0  0  0  0  0
  -84.3430  -20.1000  -32.1520 O   0  0  0  0  0
  -83.9710  -21.0920  -29.7940 O   0  0  0  0  0
  -85.2280  -18.9620  -30.6220 O   0  0  0  0  0
  -88.4880  -16.0720  -31.0190 C   0  0  0  0  0
  -87.8510  -15.1080  -31.5310 O   0  0  0  0  0
  -89.8060  -15.8430  -30.6090 N   0  0  0  0  0
  -90.1720  -14.4470  -30.8850 C   0  0  0  0  0
  -90.5610  -14.0440  -29.4770 C   0  0  0  0  0
  -91.4580  -12.8520  -29.6580 C   0  0  0  0  0
  -91.0910  -11.9100  -30.3480 O   0  0  0  0  0
  -92.6650  -12.7780  -28.9550 N   0  0  0  0  0
  -93.2870  -11.5520  -29.2230 C   0  0  0  0  0
  -93.8160  -10.9460  -27.9100 C   0  0  0  0  0
  -86.9763  -19.5873  -29.6997 H   0  0  0  0  0
  -85.7153  -18.9214  -28.6072 H   0  0  0  0  0
  -85.2250  -16.4965  -30.5962 H   0  0  0  0  0
  -86.3175  -15.3799  -29.7414 H   0  0  0  0  0
  -85.1970  -16.4107  -28.8178 H   0  0  0  0  0
  -88.2138  -16.3608  -28.3270 H   0  0  0  0  0
  -88.3337  -18.1328  -28.1971 H   0  0  0  0  0
  -86.9404  -17.2802  -27.4879 H   0  0  0  0  0
  -87.3173  -17.6945  -31.7591 H   0  0  0  0  0
  -88.3998  -19.3514  -30.5418 H   0  0  0  0  0
  -94.6132   -9.3180  -28.9913 H   0  0  0  0  0
  -97.3255   -9.0386  -28.2531 H   0  0  0  0  0
  -96.2891   -7.8635  -27.2719 H   0  0  0  0  0
  -98.3878   -6.7599  -26.5007 H   0  0  0  0  0
  -97.4933  -10.8988  -25.7439 H   0  0  0  0  0
  -99.8103  -10.9690  -23.0636 H   0  0  0  0  0
 -100.4435   -8.8732  -23.3669 H   0  0  0  0  0
 -100.8246   -6.7638  -23.8985 H   0  0  0  0  0
  -96.2865  -19.5787  -31.6598 H   0  0  0  0  0
  -94.5154  -15.7096  -30.1928 H   0  0  0  0  0
  -92.8037  -16.0038  -29.8691 H   0  0  0  0  0
  -89.9956  -20.0234  -30.1327 H   0  0  0  0  0
  -92.8508  -22.4478  -31.1352 H   0  0  0  0  0
  -90.4822  -21.1881  -32.6625 H   0  0  0  0  0
  -91.6789  -21.9041  -34.4055 H   0  0  0  0  0
  -89.6764  -23.4472  -33.1661 H   0  0  0  0  0
  -93.0900  -25.5890  -34.5542 H   0  0  0  0  0
  -92.7300  -23.1241  -34.7247 H   0  0  0  0  0
  -90.1476  -24.4903  -30.6543 H   0  0  0  0  0
  -87.9515  -23.8239  -30.9836 H   0  0  0  0  0
  -88.4742  -22.8752  -29.6440 H   0  0  0  0  0
  -87.6091  -19.5599  -32.4076 H   0  0  0  0  0
  -85.0586  -19.7770  -32.7044 H   0  0  0  0  0
  -90.4189  -16.5386  -30.1837 H   0  0  0  0  0
  -90.9440  -14.3069  -31.6416 H   0  0  0  0  0
  -89.3917  -13.8414  -31.3459 H   0  0  0  0  0
  -89.6901  -13.8094  -28.8650 H   0  0  0  0  0
  -91.0611  -14.8533  -28.9450 H   0  0  0  0  0
  -93.0350  -13.5045  -28.3420 H   0  0  0  0  0
  -94.1178  -11.7091  -29.9109 H   0  0  0  0  0
  -92.5658  -10.8698  -29.6731 H   0  0  0  0  0
  -94.3284  -11.7169  -27.3345 H   0  0  0  0  0
  -92.9816  -10.5532  -27.3290 H   0  0  0  0  0
  1  2  1  0  0  0
  1  3  1  0  0  0
  1  4  1  0  0  0
  5  1  1  0  0  0
  2 49  1  0  0  0
  5  6  1  0  0  0
 50  5  1  0  0  0
  8  7  2  0  0  0
  9  8  1  0  0  0
  8 10  1  0  0  0
 59  9  1  0  0  0
 10 11  1  0  0  0
 11 12  4  0  0  0
 11 13  4  0  0  0
 12 17  4  0  0  0
 13 14  4  0  0  0
 14 15  1  0  0  0
 14 16  4  0  0  0
 17 16  4  0  0  0
 17 18  1  0  0  0
 20 19  4  0  0  0
 24 19  4  0  0  0
 21 20  4  0  0  0
 22 21  4  0  0  0
 22 23  4  0  0  0
 28 22  4  0  0  0
 23 24  4  0  0  0
 26 23  4  0  0  0
 24 25  1  0  0  0
 27 26  4  0  0  0
 28 27  4  0  0  0
 29 28  1  0  0  0
 29 30  1  0  0  0
 39 29  1  0  0  0
 30 31  1  0  0  0
 32 30  1  0  0  0
 32 33  1  0  0  0
 38 32  1  0  0  0
 33 34  1  0  0  0
 34 35  1  0  0  0
 34 36  2  0  0  0
 34 37  1  0  0  0
 38 39  1  0  0  0
 40 38  1  0  0  0
 41 40  1  0  0  0
 42 41  1  0  0  0
 42 43  1  0  0  0
 42 44  2  0  0  0
 45 42  1  0  0  0
 46 45  1  0  0  0
 46 47  1  0  0  0
 46 48  2  0  0  0
 49 46  1  0  0  0
 50 51  2  0  0  0
 52 50  1  0  0  0
 53 52  1  0  0  0
 54 53  1  0  0  0
 55 54  1  0  0  0
 55 56  2  0  0  0
 57 55  1  0  0  0
 58 57  1  0  0  0
 58 59  1  0  0  0
  2 60  1  0  0  0
  2 61  1  0  0  0
  3 62  1  0  0  0
  3 63  1  0  0  0
  3 64  1  0  0  0
  4 65  1  0  0  0
  4 66  1  0  0  0
  4 67  1  0  0  0
  5 68  1  0  0  0
  6 69  1  0  0  0
  9 70  1  0  0  0
 10 71  1  0  0  0
 10 72  1  0  0  0
 12 73  1  0  0  0
 13 74  1  0  0  0
 15 75  1  0  0  0
 16 76  1  0  0  0
 18 77  1  0  0  0
 20 78  1  0  0  0
 25 79  1  0  0  0
 25 80  1  0  0  0
 27 81  1  0  0  0
 29 82  1  0  0  0
 30 83  1  0  0  0
 31 84  1  0  0  0
 32 85  1  0  0  0
 35 86  1  0  0  0
 37 87  1  0  0  0
 38 88  1  0  0  0
 40 89  1  0  0  0
 40 90  1  0  0  0
 43 91  1  0  0  0
 47 92  1  0  0  0
 52 93  1  0  0  0
 53 94  1  0  0  0
 53 95  1  0  0  0
 54 96  1  0  0  0
 54 97  1  0  0  0
 57 98  1  0  0  0
 58 99  1  0  0  0
 58100  1  0  0  0
 59101  1  0  0  0
 59102  1  0  0  0
M  END
$$$$
