6aff_ligand
  -I-interpret- 

 24 25  0  0  0  0  0  0  0  0999 V2000
   36.4990  -18.7780  -11.6370 C   0  0  0  0  0
   36.3320  -17.3480  -11.8590 O   0  0  0  0  0
   36.2210  -16.9740  -13.1600 C   0  0  0  0  0
   36.2010  -17.7950  -14.0800 O   0  0  0  0  0
   36.0140  -15.6020  -13.3150 C   0  0  0  0  0
   35.2960  -15.0750  -14.3590 C   0  0  0  0  0
   35.1280  -13.7100  -14.4880 C   0  0  0  0  0
   35.6650  -12.8290  -13.5330 C   0  0  0  0  0
   36.4060  -13.3930  -12.5510 C   0  0  0  0  0
   36.5830  -14.7230  -12.4520 C   0  0  0  0  0
   37.3420  -15.0260  -11.4060 N   0  0  0  0  0
   37.7690  -13.9010  -10.8440 C   0  0  0  0  0
   38.5090  -13.8140   -9.8890 O   0  0  0  0  0
   37.0710  -12.7940  -11.4510 C   0  0  0  0  0
   37.7920  -11.5310  -11.6380 O   0  0  0  0  0
   35.6379  -19.3101  -12.0412 H   0  0  0  0  0
   37.4057  -19.1186  -12.1370 H   0  0  0  0  0
   36.5779  -18.9715  -10.5672 H   0  0  0  0  0
   34.8519  -15.7431  -15.0970 H   0  0  0  0  0
   34.5739  -13.3122  -15.3382 H   0  0  0  0  0
   35.4943  -11.7535  -13.5808 H   0  0  0  0  0
   37.5615  -15.9693  -11.0860 H   0  0  0  0  0
   36.3565  -12.3308  -10.7706 H   0  0  0  0  0
   38.1837  -11.2609  -10.8042 H   0  0  0  0  0
  1  2  1  0  0  0
  2  3  1  0  0  0
  3  4  2  0  0  0
  3  5  1  0  0  0
  5  6  4  0  0  0
  5 10  4  0  0  0
  6  7  4  0  0  0
  7  8  4  0  0  0
  8  9  4  0  0  0
  9 10  4  0  0  0
  9 14  1  0  0  0
 10 11  1  0  0  0
 11 12  1  0  0  0
 12 13  2  0  0  0
 12 14  1  0  0  0
 14 15  1  0  0  0
  1 16  1  0  0  0
  1 17  1  0  0  0
  1 18  1  0  0  0
  6 19  1  0  0  0
  7 20  1  0  0  0
  8 21  1  0  0  0
 11 22  1  0  0  0
 14 23  1  0  0  0
 15 24  1  0  0  0
M  END
$$$$
