3ly2_ligand
  -I-interpret- 

 46 49  0  0  0  0  0  0  0  0999 V2000
  -12.8940   42.0090   41.5780 C   0  0  0  0  0
  -12.4930   42.0180   42.9380 C   0  0  0  0  0
  -11.1540   41.7480   43.2860 O   0  0  0  0  0
  -10.5670   40.6820   42.5160 C   0  0  0  0  0
  -10.1420   39.5230   43.4280 C   0  0  0  0  0
   -8.6100   39.5340   43.4990 C   0  0  0  0  0
   -8.1190   40.6790   42.6000 C   0  0  0  0  0
   -9.3140   41.1630   41.7900 C   0  0  0  0  0
  -13.4590   42.2210   43.9480 C   0  0  0  0  0
  -12.2480   41.9510   39.2050 C   0  0  0  0  0
  -11.8900   41.8680   40.5650 O   0  0  0  0  0
  -11.3010   41.8550   38.3870 O   0  0  0  0  0
  -13.0500   42.2610   45.3020 O   0  0  0  0  0
  -14.0290   42.8150   46.1930 C   0  0  0  0  0
  -14.8410   42.4190   43.6170 C   0  0  0  0  0
  -15.2330   42.4020   42.2430 C   0  0  0  0  0
  -14.2400   42.1990   41.2070 C   0  0  0  0  0
  -14.5740   42.1860   39.8560 C   0  0  0  0  0
  -15.9660   42.2050   39.5040 N   0  0  0  0  0
  -13.6340   42.1280   38.8840 C   0  0  0  0  0
  -16.4120   41.9600   38.1420 C   0  0  0  0  0
  -16.9860   42.9600   37.4380 C   0  0  0  0  0
  -17.2570   44.4730   38.1850 Cl  0  0  0  0  0
  -17.3390   42.7650   36.0810 C   0  0  0  0  0
  -17.1100   41.5420   35.4490 N   0  0  0  0  0
  -16.5250   40.5360   36.2010 C   0  0  0  0  0
  -16.1810   40.7520   37.5610 C   0  0  0  0  0
  -15.5270   39.4770   38.4850 Cl  0  0  0  0  0
  -11.3220   40.3536   41.8018 H   0  0  0  0  0
  -10.4994   38.5731   43.0305 H   0  0  0  0  0
  -10.5716   39.6420   44.4227 H   0  0  0  0  0
   -8.2042   38.5806   43.1607 H   0  0  0  0  0
   -8.2754   39.6828   44.5256 H   0  0  0  0  0
   -7.3236   40.3333   41.9398 H   0  0  0  0  0
   -7.7106   41.4905   43.2023 H   0  0  0  0  0
   -9.3093   42.2498   41.7062 H   0  0  0  0  0
   -9.2791   40.7663   40.7753 H   0  0  0  0  0
  -14.2523   43.8391   45.8940 H   0  0  0  0  0
  -14.9385   42.2159   46.1493 H   0  0  0  0  0
  -13.6372   42.8093   47.2101 H   0  0  0  0  0
  -15.5804   42.5799   44.4015 H   0  0  0  0  0
  -16.2799   42.5418   41.9738 H   0  0  0  0  0
  -16.6593   42.3951   40.2276 H   0  0  0  0  0
  -13.9356   42.2173   37.8404 H   0  0  0  0  0
  -17.7961   43.5815   35.5220 H   0  0  0  0  0
  -16.3266   39.5671   35.7427 H   0  0  0  0  0
  1  2  4  0  0  0
  1 11  1  0  0  0
  1 17  4  0  0  0
  2  3  1  0  0  0
  2  9  4  0  0  0
  3  4  1  0  0  0
  4  5  1  0  0  0
  4  8  1  0  0  0
  5  6  1  0  0  0
  6  7  1  0  0  0
  7  8  1  0  0  0
  9 13  1  0  0  0
  9 15  4  0  0  0
 11 10  1  0  0  0
 10 12  2  0  0  0
 10 20  1  0  0  0
 13 14  1  0  0  0
 15 16  4  0  0  0
 16 17  4  0  0  0
 17 18  1  0  0  0
 18 19  1  0  0  0
 18 20  2  0  0  0
 19 21  1  0  0  0
 21 22  4  0  0  0
 21 27  4  0  0  0
 22 23  1  0  0  0
 22 24  4  0  0  0
 24 25  4  0  0  0
 25 26  4  0  0  0
 26 27  4  0  0  0
 27 28  1  0  0  0
  4 29  1  0  0  0
  5 30  1  0  0  0
  5 31  1  0  0  0
  6 32  1  0  0  0
  6 33  1  0  0  0
  7 34  1  0  0  0
  7 35  1  0  0  0
  8 36  1  0  0  0
  8 37  1  0  0  0
 14 38  1  0  0  0
 14 39  1  0  0  0
 14 40  1  0  0  0
 15 41  1  0  0  0
 16 42  1  0  0  0
 19 43  1  0  0  0
 20 44  1  0  0  0
 24 45  1  0  0  0
 26 46  1  0  0  0
M  END
$$$$
