5swg_ligand
  -I-interpret- 

 14 14  0  0  0  0  0  0  0  0999 V2000
   57.7150   47.4780   73.9560 C   0  0  0  0  0
   58.4890   46.5900   73.2040 C   0  0  0  0  0
   58.6350   45.2580   73.6180 C   0  0  0  0  0
   59.3830   44.3850   72.8910 O   0  0  0  0  0
   58.0110   44.8090   74.7780 C   0  0  0  0  0
   57.8980   43.4660   75.0000 O   0  0  0  0  0
   57.2350   45.7030   75.5300 C   0  0  0  0  0
   57.0850   47.0340   75.1220 C   0  0  0  0  0
   57.6030   48.5134   73.6343 H   0  0  0  0  0
   58.9803   46.9334   72.2936 H   0  0  0  0  0
   59.3734   43.5249   73.3173 H   0  0  0  0  0
   57.4480   43.3176   75.8349 H   0  0  0  0  0
   56.7442   45.3586   76.4403 H   0  0  0  0  0
   56.4789   47.7217   75.7118 H   0  0  0  0  0
  1  2  4  0  0  0
  1  8  4  0  0  0
  2  3  4  0  0  0
  3  4  1  0  0  0
  3  5  4  0  0  0
  5  6  1  0  0  0
  5  7  4  0  0  0
  7  8  4  0  0  0
  1  9  1  0  0  0
  2 10  1  0  0  0
  4 11  1  0  0  0
  6 12  1  0  0  0
  7 13  1  0  0  0
  8 14  1  0  0  0
M  END
$$$$
