3ka2_ligand
  -I-interpret- 

125124  0  0  0  0  0  0  0  0999 V2000
    6.6430    3.7890    8.2830 C   0  0  0  0  0
    7.3770    4.6520    8.7590 O   0  0  0  0  0
    6.9890    3.1190    6.9840 C   0  0  0  0  0
    5.3890    3.5700    8.6950 N   0  0  0  0  0
    4.5990    4.4880    9.5140 C   0  0  0  0  0
    3.8840    3.7660   10.6680 C   0  0  0  0  0
    3.4490    4.3990   11.6290 O   0  0  0  0  0
    3.5150    5.2470    8.6990 C   0  0  0  0  0
    2.5020    4.3440    8.2210 O   0  0  0  0  0
    4.1230    6.0280    7.5390 C   0  0  0  0  0
    3.7410    2.4500   10.5710 N   0  0  0  0  0
    3.1920    1.6740   11.6860 C   0  0  0  0  0
    4.2560    0.7440   12.2780 C   0  0  0  0  0
    4.6720   -0.2530   11.6730 O   0  0  0  0  0
    1.9430    0.8570   11.2680 C   0  0  0  0  0
    0.9070    1.7550   10.5830 C   0  0  0  0  0
    1.3310    0.1070   12.4730 C   0  0  0  0  0
    0.5930    3.0520   11.3120 C   0  0  0  0  0
    5.2850    1.0370   13.0440 N   0  0  0  0  0
    6.4100    0.3360   13.6340 C   0  0  0  0  0
    6.0270   -0.2220   14.9890 C   0  0  0  0  0
    7.6150    1.2730   13.7230 C   0  0  0  0  0
    8.2520    1.5300   12.3500 C   0  0  0  0  0
    8.3210    0.2760   11.4770 C   0  0  0  0  0
    9.7240    0.0240   11.0020 C   0  0  0  0  0
    4.9850   -1.2200   14.8280 N   0  3  0  0  0
    5.0020   -2.3190   15.7890 C   0  0  0  0  0
    6.1700   -3.2230   15.4860 C   0  0  0  0  0
    6.6100   -3.3090   14.3570 O   0  0  0  0  0
    3.6970   -3.0940   15.6210 C   0  0  0  0  0
    3.5490   -4.3990   16.4160 C   0  0  0  0  0
    3.2780   -5.5890   15.4830 C   0  0  0  0  0
    1.8620   -5.5830   14.9490 C   0  0  0  0  0
    6.4420   -3.8360   16.6210 N   0  0  0  0  0
    7.4600   -4.8480   16.3440 C   0  0  0  0  0
    7.4710   -5.9040   17.4440 C   0  0  0  0  0
    7.5990   -5.5980   18.6260 O   0  0  0  0  0
    8.8420   -4.2100   16.2130 C   0  0  0  0  0
    9.9800   -5.2050   16.0190 C   0  0  0  0  0
   10.4850   -5.8120   17.3200 C   0  0  0  0  0
   10.5850   -5.1200   18.3240 O   0  0  0  0  0
   10.8100   -7.1060   17.3050 N   0  0  0  0  0
    7.3310   -7.1630   17.0490 N   0  0  0  0  0
    7.3190   -8.2530   17.9980 C   0  0  0  0  0
    8.5960   -9.0500   17.7640 C   0  0  0  0  0
    8.8530   -9.5160   16.6400 O   0  0  0  0  0
    6.0960   -9.1580   17.8070 C   0  0  0  0  0
    4.7750   -8.4830   17.4120 C   0  0  0  0  0
    4.2360   -9.0430   16.0700 C   0  0  0  0  0
    3.1760  -10.0620   16.1310 N   0  0  0  0  0
    3.2660  -11.2920   16.6510 C   0  0  0  0  0
    4.3620  -11.7290   17.2540 N   0  0  0  0  0
    2.2150  -12.1020   16.5920 N   0  0  0  0  0
    9.7670   -8.4420   17.9390 N   0  3  0  0  0
    7.0498    3.8685    6.1950 H   0  0  0  0  0
    7.9499    2.6138    7.0819 H   0  0  0  0  0
    6.2175    2.3901    6.7358 H   0  0  0  0  0
    4.9493    2.6931    8.4156 H   0  0  0  0  0
    5.3262    5.1999    9.9045 H   0  0  0  0  0
    3.0491    5.9644    9.3745 H   0  0  0  0  0
    2.1299    3.8608    8.9624 H   0  0  0  0  0
    4.5729    5.3324    6.8306 H   0  0  0  0  0
    3.3421    6.6021    7.0403 H   0  0  0  0  0
    4.8870    6.7057    7.9198 H   0  0  0  0  0
    4.0160    1.9742    9.7117 H   0  0  0  0  0
    2.8807    2.3887   12.4478 H   0  0  0  0  0
    2.2617    0.1048   10.5464 H   0  0  0  0  0
   -0.0219    1.1862   10.5412 H   0  0  0  0  0
    1.3242    2.0327    9.6150 H   0  0  0  0  0
    2.0709   -0.5782   12.8867 H   0  0  0  0  0
    1.0347    0.8275   13.2354 H   0  0  0  0  0
    0.4573   -0.4554   12.1436 H   0  0  0  0  0
    0.2010    2.8244   12.3033 H   0  0  0  0  0
    1.5036    3.6435   11.4070 H   0  0  0  0  0
   -0.1499    3.6145   10.7464 H   0  0  0  0  0
    5.2943    2.0268   13.2901 H   0  0  0  0  0
    6.6882   -0.5068   13.0013 H   0  0  0  0  0
    5.6602    0.5855   15.6227 H   0  0  0  0  0
    6.9005   -0.6818   15.4513 H   0  0  0  0  0
    8.3633    0.8036   14.3616 H   0  0  0  0  0
    7.2735    2.2279   14.1226 H   0  0  0  0  0
    9.2727    1.8739   12.5174 H   0  0  0  0  0
    7.6344    2.2623   11.8300 H   0  0  0  0  0
    7.6792    0.4203   10.6079 H   0  0  0  0  0
    7.9942   -0.5792   12.0686 H   0  0  0  0  0
   10.0665    0.8768   10.4159 H   0  0  0  0  0
   10.3785   -0.1133   11.8628 H   0  0  0  0  0
    9.7413   -0.8737   10.3840 H   0  0  0  0  0
    5.1278   -1.6392   13.9092 H   0  0  0  0  0
    4.0982   -0.7342   14.9623 H   0  0  0  0  0
    5.0983   -1.9462   16.8087 H   0  0  0  0  0
    3.6564   -3.3812   14.5703 H   0  0  0  0  0
    2.9111   -2.4334   15.9873 H   0  0  0  0  0
    2.7081   -4.2956   17.1018 H   0  0  0  0  0
    4.4771   -4.5846   16.9566 H   0  0  0  0  0
    3.4227   -6.5072   16.0523 H   0  0  0  0  0
    3.9609   -5.5195   14.6363 H   0  0  0  0  0
    1.1608   -5.6372   15.7817 H   0  0  0  0  0
    1.6908   -4.6647   14.3874 H   0  0  0  0  0
    1.7182   -6.4428   14.2946 H   0  0  0  0  0
    6.0188   -3.6398   17.5281 H   0  0  0  0  0
    7.2127   -5.3271   15.3967 H   0  0  0  0  0
    9.0379   -3.6781   17.1440 H   0  0  0  0  0
    8.8182   -3.5751   15.3273 H   0  0  0  0  0
   10.8116   -4.6666   15.5645 H   0  0  0  0  0
    9.6006   -6.0203   15.4030 H   0  0  0  0  0
   11.1571   -7.5545   18.1528 H   0  0  0  0  0
   10.7113   -7.6467   16.4458 H   0  0  0  0  0
    7.2297   -7.3658   16.0545 H   0  0  0  0  0
    7.2657   -7.8625   19.0143 H   0  0  0  0  0
    8.2956   -9.7827   18.5130 H   0  0  0  0  0
    9.6898   -9.9853   16.6731 H   0  0  0  0  0
    5.9138   -9.6166   18.7789 H   0  0  0  0  0
    6.3468   -9.8220   16.9798 H   0  0  0  0  0
    4.9526   -7.4139   17.2958 H   0  0  0  0  0
    4.0383   -8.6793   18.1910 H   0  0  0  0  0
    5.0860   -9.5341   15.5963 H   0  0  0  0  0
    3.7923   -8.1908   15.5553 H   0  0  0  0  0
    2.2734   -9.8023   15.7332 H   0  0  0  0  0
    5.1768  -11.1207   17.3346 H   0  0  0  0  0
    2.2652  -13.0334   17.0047 H   0  0  0  0  0
    1.3577  -11.7926   16.1340 H   0  0  0  0  0
   10.5224   -9.0998   17.7464 H   0  0  0  0  0
    9.8351   -7.6482   17.3021 H   0  0  0  0  0
    9.8377   -8.1138   18.9021 H   0  0  0  0  0
  1  2  2  0  0  0
  1  3  1  0  0  0
  1  4  1  0  0  0
  4  5  1  0  0  0
  5  6  1  0  0  0
  5  8  1  0  0  0
  6  7  2  0  0  0
  6 11  1  0  0  0
  8  9  1  0  0  0
  8 10  1  0  0  0
 11 12  1  0  0  0
 12 13  1  0  0  0
 12 15  1  0  0  0
 13 14  2  0  0  0
 13 19  1  0  0  0
 15 16  1  0  0  0
 15 17  1  0  0  0
 16 18  1  0  0  0
 19 20  1  0  0  0
 20 21  1  0  0  0
 20 22  1  0  0  0
 21 26  1  0  0  0
 22 23  1  0  0  0
 23 24  1  0  0  0
 24 25  1  0  0  0
 26 27  1  0  0  0
 27 28  1  0  0  0
 27 30  1  0  0  0
 28 29  2  0  0  0
 28 34  1  0  0  0
 30 31  1  0  0  0
 31 32  1  0  0  0
 32 33  1  0  0  0
 34 35  1  0  0  0
 35 36  1  0  0  0
 35 38  1  0  0  0
 36 37  2  0  0  0
 36 43  1  0  0  0
 38 39  1  0  0  0
 39 40  1  0  0  0
 40 41  2  0  0  0
 40 42  1  0  0  0
 43 44  1  0  0  0
 44 45  1  0  0  0
 44 47  1  0  0  0
 45 46  1  0  0  0
 45 54  1  0  0  0
 47 48  1  0  0  0
 48 49  1  0  0  0
 49 50  1  0  0  0
 50 51  1  0  0  0
 51 52  2  0  0  0
 51 53  1  0  0  0
  3 55  1  0  0  0
  3 56  1  0  0  0
  3 57  1  0  0  0
  4 58  1  0  0  0
  5 59  1  0  0  0
  8 60  1  0  0  0
  9 61  1  0  0  0
 10 62  1  0  0  0
 10 63  1  0  0  0
 10 64  1  0  0  0
 11 65  1  0  0  0
 12 66  1  0  0  0
 15 67  1  0  0  0
 16 68  1  0  0  0
 16 69  1  0  0  0
 17 70  1  0  0  0
 17 71  1  0  0  0
 17 72  1  0  0  0
 18 73  1  0  0  0
 18 74  1  0  0  0
 18 75  1  0  0  0
 19 76  1  0  0  0
 20 77  1  0  0  0
 21 78  1  0  0  0
 21 79  1  0  0  0
 22 80  1  0  0  0
 22 81  1  0  0  0
 23 82  1  0  0  0
 23 83  1  0  0  0
 24 84  1  0  0  0
 24 85  1  0  0  0
 25 86  1  0  0  0
 25 87  1  0  0  0
 25 88  1  0  0  0
 26 89  1  0  0  0
 26 90  1  0  0  0
 27 91  1  0  0  0
 30 92  1  0  0  0
 30 93  1  0  0  0
 31 94  1  0  0  0
 31 95  1  0  0  0
 32 96  1  0  0  0
 32 97  1  0  0  0
 33 98  1  0  0  0
 33 99  1  0  0  0
 33100  1  0  0  0
 34101  1  0  0  0
 35102  1  0  0  0
 38103  1  0  0  0
 38104  1  0  0  0
 39105  1  0  0  0
 39106  1  0  0  0
 42107  1  0  0  0
 42108  1  0  0  0
 43109  1  0  0  0
 44110  1  0  0  0
 45111  1  0  0  0
 46112  1  0  0  0
 47113  1  0  0  0
 47114  1  0  0  0
 48115  1  0  0  0
 48116  1  0  0  0
 49117  1  0  0  0
 49118  1  0  0  0
 50119  1  0  0  0
 52120  1  0  0  0
 53121  1  0  0  0
 53122  1  0  0  0
 54123  1  0  0  0
 54124  1  0  0  0
 54125  1  0  0  0
M  END
$$$$
