### 
### Created by X-TOOL on Mon Sep 10 21:13:06 2018
### 

@<TRIPOS>MOLECULE
3ka2_ligand
  126   125     1     0     0
SMALL
GAST_HUCK


@<TRIPOS>ATOM
      1 C           6.6430    3.7890    8.2830 C.2       1 2NC         0.1752
      2 O           7.3770    4.6520    8.7590 O.2       1 2NC        -0.3972
      3 CH3         6.9890    3.1190    6.9840 C.3       1 2NC         0.0258
      4 N           5.3890    3.5700    8.6950 N.am      1 2NC        -0.2635
      5 CA          4.5990    4.4880    9.5140 C.3       1 2NC         0.1564
      6 C1          3.8840    3.7660   10.6680 C.2       1 2NC         0.2065
      7 O1          3.4490    4.3990   11.6290 O.2       1 2NC        -0.3943
      8 CB          3.5150    5.2470    8.6990 C.3       1 2NC         0.0924
      9 OG1         2.5020    4.3440    8.2210 O.3       1 2NC        -0.3874
     10 CG2         4.1230    6.0280    7.5390 C.3       1 2NC        -0.0346
     11 N1          3.7410    2.4500   10.5710 N.am      1 2NC        -0.2634
     12 CA1         3.1920    1.6740   11.6860 C.3       1 2NC         0.1334
     13 C2          4.2560    0.7440   12.2780 C.2       1 2NC         0.2023
     14 O2          4.6720   -0.2530   11.6730 O.2       1 2NC        -0.3945
     15 CB1         1.9430    0.8570   11.2680 C.3       1 2NC        -0.0037
     16 CG1         0.9070    1.7550   10.5830 C.3       1 2NC        -0.0491
     17 CG21        1.3310    0.1070   12.4730 C.3       1 2NC        -0.0582
     18 CD1         0.5930    3.0520   11.3120 C.3       1 2NC        -0.0648
     19 N2          5.2850    1.0370   13.0440 N.am      1 2NC        -0.2769
     20 CA2         6.4100    0.3360   13.6340 C.3       1 2NC         0.0817
     21 C3          6.0270   -0.2220   14.9890 C.3       1 2NC        -0.0081
     22 CB2         7.6150    1.2730   13.7230 C.3       1 2NC        -0.0249
     23 CG          8.2520    1.5300   12.3500 C.3       1 2NC        -0.0510
     24 CD          8.3210    0.2760   11.4770 C.3       1 2NC        -0.0558
     25 CE          9.7240    0.0240   11.0020 C.3       1 2NC        -0.0653
     26 N3          4.9850   -1.2200   14.8280 N.4       1 2NC         0.2477
     27 CA3         5.0020   -2.3190   15.7890 C.3       1 2NC         0.0668
     28 C4          6.1700   -3.2230   15.4860 C.2       1 2NC         0.2268
     29 O3          6.6100   -3.3090   14.3570 O.2       1 2NC        -0.3907
     30 CB3         3.6970   -3.0940   15.6210 C.3       1 2NC         0.0079
     31 CG3         3.5490   -4.3990   16.4160 C.3       1 2NC        -0.0460
     32 CD2         3.2780   -5.5890   15.4830 C.3       1 2NC        -0.0556
     33 CE1         1.8620   -5.5830   14.9490 C.3       1 2NC        -0.0653
     34 N4          6.4420   -3.8360   16.6210 N.am      1 2NC        -0.2609
     35 CA4         7.4600   -4.8480   16.3440 C.3       1 2NC         0.1330
     36 C5          7.4710   -5.9040   17.4440 C.2       1 2NC         0.2023
     37 O4          7.5990   -5.5980   18.6260 O.2       1 2NC        -0.3945
     38 CB4         8.8420   -4.2100   16.2130 C.3       1 2NC         0.0045
     39 CG4         9.9800   -5.2050   16.0190 C.3       1 2NC         0.0412
     40 CD3        10.4850   -5.8120   17.3200 C.2       1 2NC         0.1737
     41 OE1        10.5850   -5.1200   18.3240 O.2       1 2NC        -0.3973
     42 NE2        10.8100   -7.1060   17.3050 N.am      1 2NC        -0.3009
     43 N5          7.3310   -7.1630   17.0490 N.am      1 2NC        -0.2740
     44 CA5         7.3190   -8.2530   17.9980 C.3       1 2NC         0.1105
     45 C6          8.5960   -9.0500   17.7640 C.3       1 2NC         0.1017
     46 O5          8.8530   -9.5160   16.6400 O.3       1 2NC        -0.3508
     47 CB5         6.0960   -9.1580   17.8070 C.3       1 2NC        -0.0189
     48 CG5         4.7750   -8.4830   17.4120 C.3       1 2NC        -0.0174
     49 CD4         4.2360   -9.0430   16.0700 C.3       1 2NC         0.0626
     50 NE          3.1760  -10.0620   16.1310 N.pl3     1 2NC        -0.2723
     51 CZ          3.2660  -11.2920   16.6510 C.cat     1 2NC         0.2882
     52 NH1         4.3620  -11.7290   17.2540 N.pl3     1 2NC        -0.2849
     53 NH2         2.2150  -12.1020   16.5920 N.pl3     1 2NC        -0.2849
     54 N6          9.7670   -8.4420   17.9390 N.4       1 2NC         0.2425
     55 H           7.0498    3.8685    6.1950 H         1 2NC         0.0467
     56 H           7.9499    2.6138    7.0819 H         1 2NC         0.0467
     57 H           6.2175    2.3901    6.7358 H         1 2NC         0.0467
     58 H           4.9493    2.6931    8.4156 H         1 2NC         0.1883
     59 H           5.3262    5.1999    9.9045 H         1 2NC         0.0826
     60 H           3.0491    5.9644    9.3745 H         1 2NC         0.0639
     61 H           1.8459    4.8361    7.7220 H         1 2NC         0.2101
     62 H           4.5729    5.3324    6.8306 H         1 2NC         0.0257
     63 H           3.3421    6.6021    7.0403 H         1 2NC         0.0257
     64 H           4.8870    6.7057    7.9198 H         1 2NC         0.0257
     65 H           4.0160    1.9742    9.7117 H         1 2NC         0.1883
     66 H           2.8807    2.3887   12.4478 H         1 2NC         0.0802
     67 H           2.2617    0.1048   10.5464 H         1 2NC         0.0345
     68 H          -0.0219    1.1862   10.5412 H         1 2NC         0.0267
     69 H           1.3242    2.0327    9.6150 H         1 2NC         0.0267
     70 H           2.0709   -0.5782   12.8867 H         1 2NC         0.0235
     71 H           1.0347    0.8275   13.2354 H         1 2NC         0.0235
     72 H           0.4573   -0.4554   12.1436 H         1 2NC         0.0235
     73 H           0.2010    2.8244   12.3033 H         1 2NC         0.0230
     74 H           1.5036    3.6435   11.4070 H         1 2NC         0.0230
     75 H          -0.1499    3.6145   10.7464 H         1 2NC         0.0230
     76 H           5.2943    2.0268   13.2901 H         1 2NC         0.1857
     77 H           6.6882   -0.5068   13.0013 H         1 2NC         0.0609
     78 H           5.6602    0.5855   15.6227 H         1 2NC         0.0837
     79 H           6.9005   -0.6818   15.4513 H         1 2NC         0.0837
     80 H           8.3633    0.8036   14.3616 H         1 2NC         0.0289
     81 H           7.2735    2.2279   14.1226 H         1 2NC         0.0289
     82 H           9.2727    1.8739   12.5174 H         1 2NC         0.0266
     83 H           7.6344    2.2623   11.8300 H         1 2NC         0.0266
     84 H           7.6792    0.4203   10.6079 H         1 2NC         0.0263
     85 H           7.9942   -0.5792   12.0686 H         1 2NC         0.0263
     86 H          10.0665    0.8768   10.4159 H         1 2NC         0.0230
     87 H          10.3785   -0.1133   11.8628 H         1 2NC         0.0230
     88 H           9.7413   -0.8737   10.3840 H         1 2NC         0.0230
     89 H           5.1278   -1.6392   13.9092 H         1 2NC         0.2036
     90 H           4.0982   -0.7342   14.9623 H         1 2NC         0.2036
     91 H           5.0983   -1.9462   16.8087 H         1 2NC         0.1099
     92 H           3.6564   -3.3812   14.5703 H         1 2NC         0.0346
     93 H           2.9111   -2.4334   15.9873 H         1 2NC         0.0346
     94 H           2.7081   -4.2956   17.1018 H         1 2NC         0.0269
     95 H           4.4771   -4.5846   16.9566 H         1 2NC         0.0269
     96 H           3.4227   -6.5072   16.0523 H         1 2NC         0.0263
     97 H           3.9609   -5.5195   14.6363 H         1 2NC         0.0263
     98 H           1.1608   -5.6372   15.7817 H         1 2NC         0.0230
     99 H           1.6908   -4.6647   14.3874 H         1 2NC         0.0230
    100 H           1.7182   -6.4428   14.2946 H         1 2NC         0.0230
    101 H           6.0188   -3.6398   17.5281 H         1 2NC         0.1885
    102 H           7.2127   -5.3271   15.3967 H         1 2NC         0.0801
    103 H           9.0379   -3.6781   17.1440 H         1 2NC         0.0337
    104 H           8.8182   -3.5751   15.3273 H         1 2NC         0.0337
    105 H          10.8116   -4.6666   15.5645 H         1 2NC         0.0504
    106 H           9.6006   -6.0203   15.4030 H         1 2NC         0.0504
    107 H          11.1571   -7.5545   18.1528 H         1 2NC         0.1814
    108 H          10.7113   -7.6467   16.4458 H         1 2NC         0.1814
    109 H           7.2297   -7.3658   16.0545 H         1 2NC         0.1858
    110 H           7.2657   -7.8625   19.0143 H         1 2NC         0.0639
    111 H           8.2956   -9.7827   18.5130 H         1 2NC         0.1207
    112 H           8.0972  -10.0146   16.3211 H         1 2NC         0.2155
    113 H           5.9138   -9.6166   18.7789 H         1 2NC         0.0291
    114 H           6.3468   -9.8220   16.9798 H         1 2NC         0.0291
    115 H           4.9526   -7.4139   17.2958 H         1 2NC         0.0300
    116 H           4.0383   -8.6793   18.1910 H         1 2NC         0.0300
    117 H           5.0860   -9.5341   15.5963 H         1 2NC         0.0689
    118 H           3.7923   -8.1908   15.5553 H         1 2NC         0.0689
    119 H           2.2734   -9.8023   15.7332 H         1 2NC         0.2642
    120 H           5.1768  -11.1207   17.3346 H         1 2NC         0.2615
    121 H           4.3909  -12.6737   17.6376 H         1 2NC         0.2615
    122 H           1.3504  -11.7846   16.1536 H         1 2NC         0.2615
    123 H           2.2724  -13.0415   16.9851 H         1 2NC         0.2615
    124 H          10.5224   -9.0998   17.7464 H         1 2NC         0.2022
    125 H           9.8351   -7.6482   17.3021 H         1 2NC         0.2022
    126 H           9.8377   -8.1138   18.9021 H         1 2NC         0.2022
@<TRIPOS>BOND
     1    1    2 2  
     2    1    3 1  
     3    1    4 am 
     4    4    5 1  
     5    5    6 1  
     6    5    8 1  
     7    6    7 2  
     8    6   11 am 
     9    8    9 1  
    10    8   10 1  
    11   11   12 1  
    12   12   13 1  
    13   12   15 1  
    14   13   14 2  
    15   13   19 am 
    16   15   16 1  
    17   15   17 1  
    18   16   18 1  
    19   19   20 1  
    20   20   21 1  
    21   20   22 1  
    22   21   26 1  
    23   22   23 1  
    24   23   24 1  
    25   24   25 1  
    26   26   27 1  
    27   27   28 1  
    28   27   30 1  
    29   28   29 2  
    30   28   34 am 
    31   30   31 1  
    32   31   32 1  
    33   32   33 1  
    34   34   35 1  
    35   35   36 1  
    36   35   38 1  
    37   36   37 2  
    38   36   43 am 
    39   38   39 1  
    40   39   40 1  
    41   40   41 2  
    42   40   42 am 
    43   43   44 1  
    44   44   45 1  
    45   44   47 1  
    46   45   46 1  
    47   45   54 1  
    48   47   48 1  
    49   48   49 1  
    50   49   50 1  
    51   50   51 ar 
    52   51   52 ar 
    53   51   53 ar 
    54    3   55 1  
    55    3   56 1  
    56    3   57 1  
    57    4   58 1  
    58    5   59 1  
    59    8   60 1  
    60    9   61 1  
    61   10   62 1  
    62   10   63 1  
    63   10   64 1  
    64   11   65 1  
    65   12   66 1  
    66   15   67 1  
    67   16   68 1  
    68   16   69 1  
    69   17   70 1  
    70   17   71 1  
    71   17   72 1  
    72   18   73 1  
    73   18   74 1  
    74   18   75 1  
    75   19   76 1  
    76   20   77 1  
    77   21   78 1  
    78   21   79 1  
    79   22   80 1  
    80   22   81 1  
    81   23   82 1  
    82   23   83 1  
    83   24   84 1  
    84   24   85 1  
    85   25   86 1  
    86   25   87 1  
    87   25   88 1  
    88   26   89 1  
    89   26   90 1  
    90   27   91 1  
    91   30   92 1  
    92   30   93 1  
    93   31   94 1  
    94   31   95 1  
    95   32   96 1  
    96   32   97 1  
    97   33   98 1  
    98   33   99 1  
    99   33  100 1  
   100   34  101 1  
   101   35  102 1  
   102   38  103 1  
   103   38  104 1  
   104   39  105 1  
   105   39  106 1  
   106   42  107 1  
   107   42  108 1  
   108   43  109 1  
   109   44  110 1  
   110   45  111 1  
   111   46  112 1  
   112   47  113 1  
   113   47  114 1  
   114   48  115 1  
   115   48  116 1  
   116   49  117 1  
   117   49  118 1  
   118   50  119 1  
   119   52  120 1  
   120   52  121 1  
   121   53  122 1  
   122   53  123 1  
   123   54  124 1  
   124   54  125 1  
   125   54  126 1  
@<TRIPOS>SUBSTRUCTURE
     1 2NC         1

