3dcq_ligand
  -I-interpret- 

 75 76  0  0  0  0  0  0  0  0999 V2000
   12.1660   45.1090    8.7210 C   0  0  0  0  0
   13.0920   44.9160    7.5060 C   0  0  0  0  0
   12.4110   44.2120    6.4830 O   0  0  0  0  0
   13.5170   46.3010    6.9930 C   0  0  0  0  0
   14.4430   46.1830    5.9230 O   0  0  0  0  0
   14.1670   47.0880    8.0960 C   0  0  0  0  0
   15.3930   46.4780    8.4470 O   0  0  0  0  0
   13.2630   47.1590    9.3190 C   0  0  0  0  0
   12.8990   45.8220    9.7410 O   0  0  0  0  0
   13.9590   47.8450   10.4830 C   0  0  0  0  0
   10.8310   45.7700    8.3240 C   0  0  0  0  0
   10.2380   46.0930    9.6930 C   0  0  0  0  0
    9.9270   45.1920   10.4700 O   0  0  0  0  0
   10.0630   47.3750    9.9860 N   0  0  0  0  0
    9.5800   47.7950   11.2940 C   0  0  0  0  0
    8.4540   46.9920   11.9220 C   0  0  0  0  0
    8.5590   46.5800   13.0850 O   0  0  0  0  0
    9.1960   49.2830   11.2720 C   0  0  0  0  0
   10.4040   50.2090   11.3840 C   0  0  0  0  0
    7.3570   46.7630   11.1720 N   0  0  0  0  0
    6.2200   45.9980   11.7060 C   0  0  0  0  0
    6.5030   44.5480   12.0990 C   0  0  0  0  0
    5.6520   43.8960   12.7090 O   0  0  0  0  0
    5.1690   46.1070   10.6020 C   0  0  0  0  0
    5.9800   46.3640    9.3530 C   0  0  0  0  0
    7.0720   47.2830    9.8230 C   0  0  0  0  0
    7.6820   44.0460   11.7340 N   0  0  0  0  0
    8.0880   42.6830   12.0620 C   0  0  0  0  0
    8.7000   42.6690   13.4660 C   0  0  0  0  0
    9.0700   43.7670   13.9380 O   0  0  0  0  0
    9.1310   42.1970   11.0470 C   0  0  0  0  0
    8.7330   41.3920    9.8020 C   0  0  0  0  0
    7.2990   41.6060    9.4060 C   0  0  0  0  0
    9.6810   41.7540    8.6820 C   0  0  0  0  0
    8.8320   41.5750   14.0710 N   0  0  0  0  0
   11.8718   44.1438    9.1332 H   0  0  0  0  0
   13.9699   44.3391    7.7970 H   0  0  0  0  0
   12.1487   43.3485    6.8104 H   0  0  0  0  0
   12.6198   46.8124    6.6442 H   0  0  0  0  0
   14.0427   45.6819    5.2087 H   0  0  0  0  0
   14.3447   48.1032    7.7411 H   0  0  0  0  0
   15.9605   46.4348    7.6739 H   0  0  0  0  0
   12.3789   47.7315    9.0385 H   0  0  0  0  0
   13.2806   47.8899   11.3349 H   0  0  0  0  0
   14.8502   47.2798   10.7560 H   0  0  0  0  0
   14.2437   48.8555   10.1900 H   0  0  0  0  0
   10.1934   45.1347    7.7092 H   0  0  0  0  0
   10.9482   46.6420    7.6805 H   0  0  0  0  0
   10.2712   48.0814    9.2802 H   0  0  0  0  0
   10.4350   47.5991   11.9410 H   0  0  0  0  0
    8.5499   49.4731   12.1290 H   0  0  0  0  0
    8.7071   49.4869   10.3194 H   0  0  0  0  0
   10.9245   50.0133   12.3215 H   0  0  0  0  0
   11.0786   50.0268   10.5475 H   0  0  0  0  0
   10.0686   51.2459   11.3628 H   0  0  0  0  0
    5.9070   46.4112   12.6648 H   0  0  0  0  0
    4.4452   46.8986   10.7960 H   0  0  0  0  0
    4.5582   45.2078   10.5215 H   0  0  0  0  0
    5.3840   46.8008    8.5517 H   0  0  0  0  0
    6.3689   45.4460    8.9125 H   0  0  0  0  0
    7.9443   47.2838    9.1694 H   0  0  0  0  0
    6.7810   48.3334    9.8197 H   0  0  0  0  0
    8.3247   44.6362   11.2057 H   0  0  0  0  0
    7.2201   42.0244   12.0291 H   0  0  0  0  0
    9.7436   41.5007   11.6197 H   0  0  0  0  0
    9.5420   43.1197   10.6373 H   0  0  0  0  0
    8.8123   40.3288   10.0290 H   0  0  0  0  0
    6.6477   41.2994   10.2245 H   0  0  0  0  0
    7.1375   42.6615    9.1873 H   0  0  0  0  0
    7.0755   41.0117    8.5200 H   0  0  0  0  0
    9.6082   42.8221    8.4770 H   0  0  0  0  0
   10.7010   41.5081    8.9773 H   0  0  0  0  0
    9.4151   41.1920    7.7867 H   0  0  0  0  0
    9.2599   41.5525   14.9966 H   0  0  0  0  0
    8.5112   40.7098   13.6363 H   0  0  0  0  0
  1  2  1  0  0  0
  1  9  1  0  0  0
  1 11  1  0  0  0
  2  3  1  0  0  0
  2  4  1  0  0  0
  4  5  1  0  0  0
  4  6  1  0  0  0
  6  7  1  0  0  0
  6  8  1  0  0  0
  8  9  1  0  0  0
  8 10  1  0  0  0
 11 12  1  0  0  0
 12 13  2  0  0  0
 12 14  1  0  0  0
 14 15  1  0  0  0
 15 16  1  0  0  0
 15 18  1  0  0  0
 16 17  2  0  0  0
 16 20  1  0  0  0
 18 19  1  0  0  0
 20 21  1  0  0  0
 20 26  1  0  0  0
 21 22  1  0  0  0
 21 24  1  0  0  0
 22 23  2  0  0  0
 22 27  1  0  0  0
 24 25  1  0  0  0
 25 26  1  0  0  0
 27 28  1  0  0  0
 28 29  1  0  0  0
 28 31  1  0  0  0
 29 30  2  0  0  0
 29 35  1  0  0  0
 31 32  1  0  0  0
 32 33  1  0  0  0
 32 34  1  0  0  0
  1 36  1  0  0  0
  2 37  1  0  0  0
  3 38  1  0  0  0
  4 39  1  0  0  0
  5 40  1  0  0  0
  6 41  1  0  0  0
  7 42  1  0  0  0
  8 43  1  0  0  0
 10 44  1  0  0  0
 10 45  1  0  0  0
 10 46  1  0  0  0
 11 47  1  0  0  0
 11 48  1  0  0  0
 14 49  1  0  0  0
 15 50  1  0  0  0
 18 51  1  0  0  0
 18 52  1  0  0  0
 19 53  1  0  0  0
 19 54  1  0  0  0
 19 55  1  0  0  0
 21 56  1  0  0  0
 24 57  1  0  0  0
 24 58  1  0  0  0
 25 59  1  0  0  0
 25 60  1  0  0  0
 26 61  1  0  0  0
 26 62  1  0  0  0
 27 63  1  0  0  0
 28 64  1  0  0  0
 31 65  1  0  0  0
 31 66  1  0  0  0
 32 67  1  0  0  0
 33 68  1  0  0  0
 33 69  1  0  0  0
 33 70  1  0  0  0
 34 71  1  0  0  0
 34 72  1  0  0  0
 34 73  1  0  0  0
 35 74  1  0  0  0
 35 75  1  0  0  0
M  END
$$$$
