3jzk_ligand
  -I-interpret- 

 47 52  0  0  0  0  0  0  0  0999 V2000
   10.0160  -15.8340   25.9040 C   0  0  0  0  0
   11.3370  -16.6150   24.0060 N   0  0  0  0  0
    6.7510  -15.3200   22.7390 O   0  0  0  0  0
   10.3610  -13.8190   30.0390 Br  0  0  0  0  0
    9.4980  -16.6000   27.0400 C   0  0  0  0  0
   13.0110  -16.4650   22.7090 N   0  0  0  0  0
    6.0780  -10.4650   27.3190 Br  0  0  0  0  0
    9.5530  -16.0100   28.3530 C   0  0  0  0  0
   10.8510  -15.3140   21.9490 N   0  0  0  0  0
   10.1260  -14.7080   28.3830 C   0  0  0  0  0
   12.2740  -17.2910   24.6340 N   0  0  0  0  0
   10.6280  -13.9280   27.3240 C   0  0  0  0  0
   10.5760  -14.5140   26.0360 C   0  0  0  0  0
    7.5570  -15.2740   23.9390 C   0  0  0  0  0
   13.3460  -17.1960   23.8070 C   0  0  0  0  0
    9.0140  -15.5700   23.5600 C   0  0  0  0  0
    9.9510  -16.4060   24.5430 C   0  0  0  0  0
   11.7460  -16.0910   22.8150 C   0  0  0  0  0
    9.4760  -15.1150   22.3550 C   0  0  0  0  0
    9.1340  -13.6140   20.3190 C   0  0  0  0  0
    8.1400  -12.9550   19.4880 C   0  0  0  0  0
    6.7380  -13.1050   19.7220 C   0  0  0  0  0
    6.2480  -13.9250   20.8090 C   0  0  0  0  0
    7.2080  -14.5800   21.6480 C   0  0  0  0  0
    8.6210  -14.4320   21.4110 C   0  0  0  0  0
    6.2730  -14.1710   25.6790 C   0  0  0  0  0
    7.3350  -13.9900   24.7200 C   0  0  0  0  0
    8.0400  -12.7240   24.5300 C   0  0  0  0  0
    7.6610  -11.5880   25.3260 C   0  0  0  0  0
    6.5900  -11.7940   26.2730 C   0  0  0  0  0
    5.8780  -13.0410   26.4820 C   0  0  0  0  0
    9.0795  -17.5959   26.8948 H   0  0  0  0  0
    9.1874  -16.5170   29.2460 H   0  0  0  0  0
   11.1935  -14.9196   21.0729 H   0  0  0  0  0
   11.0338  -12.9295   27.4863 H   0  0  0  0  0
   10.9514  -13.9780   25.1642 H   0  0  0  0  0
    7.2496  -16.0487   24.6415 H   0  0  0  0  0
   14.3250  -17.6374   23.9936 H   0  0  0  0  0
    9.4708  -17.3822   24.6102 H   0  0  0  0  0
   10.2027  -13.5028   20.1359 H   0  0  0  0  0
    8.4738  -12.3276   18.6616 H   0  0  0  0  0
    6.0274  -12.5942   19.0721 H   0  0  0  0  0
    5.1786  -14.0413   20.9849 H   0  0  0  0  0
    5.7818  -15.1373   25.7936 H   0  0  0  0  0
    8.8413  -12.6421   23.7957 H   0  0  0  0  0
    8.1558  -10.6225   25.2203 H   0  0  0  0  0
    5.0767  -13.1200   27.2167 H   0  0  0  0  0
  1  5  4  0  0  0
  1 13  4  0  0  0
 17  1  1  0  0  0
  2 11  4  0  0  0
 17  2  1  0  0  0
  2 18  4  0  0  0
 14  3  1  0  0  0
  3 24  1  0  0  0
 10  4  1  0  0  0
  5  8  4  0  0  0
  6 15  4  0  0  0
 18  6  4  0  0  0
 30  7  1  0  0  0
  8 10  4  0  0  0
  9 18  1  0  0  0
 19  9  1  0  0  0
 12 10  4  0  0  0
 11 15  4  0  0  0
 13 12  4  0  0  0
 14 16  1  0  0  0
 27 14  1  0  0  0
 16 17  1  0  0  0
 16 19  2  0  0  0
 19 25  1  0  0  0
 20 21  4  0  0  0
 25 20  4  0  0  0
 22 21  4  0  0  0
 23 22  4  0  0  0
 24 23  4  0  0  0
 24 25  4  0  0  0
 27 26  4  0  0  0
 26 31  4  0  0  0
 28 27  4  0  0  0
 29 28  4  0  0  0
 29 30  4  0  0  0
 30 31  4  0  0  0
  5 32  1  0  0  0
  8 33  1  0  0  0
  9 34  1  0  0  0
 12 35  1  0  0  0
 13 36  1  0  0  0
 14 37  1  0  0  0
 15 38  1  0  0  0
 17 39  1  0  0  0
 20 40  1  0  0  0
 21 41  1  0  0  0
 22 42  1  0  0  0
 23 43  1  0  0  0
 26 44  1  0  0  0
 28 45  1  0  0  0
 29 46  1  0  0  0
 31 47  1  0  0  0
M  END
$$$$
