2xhs_ligand
  -I-interpret- 

145145  0  0  0  0  0  0  0  0999 V2000
   67.1950   24.5800   56.6160 N   0  3  0  0  0
   68.5260   24.0290   56.5770 C   0  0  0  0  0
   68.3990   22.5420   56.3880 C   0  0  0  0  0
   69.0910   21.9820   55.5780 O   0  0  0  0  0
   69.3120   24.3890   57.8320 C   0  0  0  0  0
   70.5490   25.0120   57.5150 O   0  0  0  0  0
   67.5060   21.8880   57.1030 N   0  0  0  0  0
   67.2630   20.4890   56.7990 C   0  0  0  0  0
   66.6890   20.3570   55.4100 C   0  0  0  0  0
   67.0170   19.4650   54.6740 O   0  0  0  0  0
   66.2800   19.8540   57.7030 C   0  0  0  0  0
   66.9270   19.5000   58.9120 O   0  0  0  0  0
   65.8010   18.6230   57.0780 C   0  0  0  0  0
   65.8070   21.2620   55.0540 N   0  0  0  0  0
   65.2100   21.2150   53.7610 C   0  0  0  0  0
   66.3190   21.3710   52.7960 C   0  0  0  0  0
   66.4090   20.6620   51.8330 O   0  0  0  0  0
   64.2870   22.4000   53.6210 C   0  0  0  0  0
   63.2520   22.3940   52.5200 C   0  0  0  0  0
   63.6590   23.2670   51.4100 C   0  0  0  0  0
   63.1360   21.0150   52.0550 C   0  0  0  0  0
   67.1810   22.3220   53.0650 N   0  0  0  0  0
   68.2830   22.5870   52.1860 C   0  0  0  0  0
   69.1970   21.4090   52.1050 C   0  0  0  0  0
   69.6930   21.0830   51.0600 O   0  0  0  0  0
   69.0340   23.8140   52.6450 C   0  0  0  0  0
   70.4660   23.8400   52.2450 C   0  0  0  0  0
   70.8280   25.1440   51.6400 C   0  0  0  0  0
   70.2180   26.2450   52.3450 N   0  0  0  0  0
   69.9040   27.3860   51.7650 C   0  0  0  0  0
   70.1270   27.5480   50.4810 N   0  0  0  0  0
   69.3500   28.3510   52.4640 N   0  0  0  0  0
   69.4270   20.7470   53.2080 N   0  0  0  0  0
   70.3470   19.6550   53.1490 C   0  0  0  0  0
   69.8540   18.5930   52.2130 C   0  0  0  0  0
   70.6070   18.0390   51.4530 O   0  0  0  0  0
   70.5300   19.0880   54.4870 C   0  0  0  0  0
   68.5780   18.2890   52.2880 N   0  0  0  0  0
   68.0220   17.2340   51.4810 C   0  0  0  0  0
   68.1170   17.5240   50.0200 C   0  0  0  0  0
   68.4120   16.6610   49.2220 O   0  0  0  0  0
   66.5680   17.0390   51.8330 C   0  0  0  0  0
   66.2220   16.2660   53.0820 C   0  0  0  0  0
   64.9610   16.8130   53.6040 C   0  0  0  0  0
   66.0390   14.8420   52.7420 C   0  0  0  0  0
   67.8640   18.7450   49.6390 N   0  0  0  0  0
   67.8950   19.0170   48.2380 C   0  0  0  0  0
   69.2600   19.5000   47.8780 C   0  0  0  0  0
   69.6000   19.5410   46.7220 O   0  0  0  0  0
   66.7950   19.9780   47.8180 C   0  0  0  0  0
   66.5210   21.2150   48.6520 C   0  0  0  0  0
   65.3340   21.9150   48.1270 C   0  0  0  0  0
   66.3500   20.8720   50.1180 C   0  0  0  0  0
   70.0630   19.7820   48.8780 N   0  0  0  0  0
   71.4120   20.1790   48.5970 C   0  0  0  0  0
   72.2940   19.0040   48.2820 C   0  0  0  0  0
   73.4410   19.1790   47.9830 O   0  0  0  0  0
   72.0380   20.9280   49.7320 C   0  0  0  0  0
   72.0700   22.3130   49.4110 O   0  0  0  0  0
   73.4260   20.4300   49.9110 C   0  0  0  0  0
   71.7570   17.7980   48.3380 N   0  0  0  0  0
   72.5420   16.6200   48.0240 C   0  0  0  0  0
   72.0000   15.7360   46.9220 C   0  0  0  0  0
   72.5900   15.6540   45.8510 O   0  0  0  0  0
   72.7720   15.7980   49.2710 C   0  0  0  0  0
   73.8860   16.3370   50.0930 C   0  0  0  0  0
   75.0250   16.3250   49.6650 O   0  0  0  0  0
   73.5800   16.7800   51.2930 N   0  0  0  0  0
   70.8570   15.4820   47.3240 O   0  0  0  0  0
   66.6964   24.3219   55.7644 H   0  0  0  0  0
   66.6990   24.2105   57.4271 H   0  0  0  0  0
   67.2508   25.5962   56.6840 H   0  0  0  0  0
   69.0901   24.4529   55.7462 H   0  0  0  0  0
   69.5201   23.4715   58.3825 H   0  0  0  0  0
   68.7172   25.0860   58.4223 H   0  0  0  0  0
   71.0162   25.2244   58.3263 H   0  0  0  0  0
   66.9966   22.3543   57.8536 H   0  0  0  0  0
   68.2296   19.9974   56.9091 H   0  0  0  0  0
   65.4565   20.5417   57.8953 H   0  0  0  0  0
   66.2937   19.0870   59.5035 H   0  0  0  0  0
   66.6472   17.9659   56.8773 H   0  0  0  0  0
   65.1029   18.1237   57.7499 H   0  0  0  0  0
   65.2969   18.8645   56.1422 H   0  0  0  0  0
   65.5479   22.0023   55.7061 H   0  0  0  0  0
   64.6533   20.2919   53.5993 H   0  0  0  0  0
   64.9411   23.2402   53.3879 H   0  0  0  0  0
   63.7126   22.4203   54.5472 H   0  0  0  0  0
   62.2987   22.7684   52.8929 H   0  0  0  0  0
   63.7754   24.2872   51.7757 H   0  0  0  0  0
   64.6066   22.9157   51.0018 H   0  0  0  0  0
   62.8958   23.2433   50.6322 H   0  0  0  0  0
   64.1019   20.6770   51.6797 H   0  0  0  0  0
   62.8236   20.3788   52.8831 H   0  0  0  0  0
   62.3962   20.9633   51.2562 H   0  0  0  0  0
   67.8880   22.7735   51.1873 H   0  0  0  0  0
   69.0051   23.8189   53.7346 H   0  0  0  0  0
   68.5553   24.6758   52.1799 H   0  0  0  0  0
   70.6366   23.0547   51.5086 H   0  0  0  0  0
   71.0789   23.6856   53.1330 H   0  0  0  0  0
   70.4724   25.1559   50.6097 H   0  0  0  0  0
   71.9106   25.2591   51.6928 H   0  0  0  0  0
   70.0203   26.1351   53.3396 H   0  0  0  0  0
   70.5419   26.7921   49.9361 H   0  0  0  0  0
   69.0927   29.2271   52.0094 H   0  0  0  0  0
   69.1773   28.2240   53.4612 H   0  0  0  0  0
   68.9655   21.0011   54.0814 H   0  0  0  0  0
   71.3012   20.0281   52.7771 H   0  0  0  0  0
   70.9223   19.8550   55.1547 H   0  0  0  0  0
   69.5710   18.7323   54.8638 H   0  0  0  0  0
   71.2324   18.2561   54.4347 H   0  0  0  0  0
   67.9736   18.8069   52.9259 H   0  0  0  0  0
   68.6015   16.3347   51.6897 H   0  0  0  0  0
   66.1543   16.4521   51.0129 H   0  0  0  0  0
   66.1811   18.0434   52.0052 H   0  0  0  0  0
   67.0160   16.3513   53.8239 H   0  0  0  0  0
   65.0926   17.8704   53.8336 H   0  0  0  0  0
   64.1783   16.6973   52.8543 H   0  0  0  0  0
   64.6806   16.2754   54.5098 H   0  0  0  0  0
   65.2311   14.7438   52.0169 H   0  0  0  0  0
   66.9621   14.4503   52.3147 H   0  0  0  0  0
   65.7891   14.2836   53.6441 H   0  0  0  0  0
   67.6520   19.4778   50.3161 H   0  0  0  0  0
   67.6923   18.1010   47.6830 H   0  0  0  0  0
   65.8778   19.3927   47.8837 H   0  0  0  0  0
   67.1202   20.3636   46.8517 H   0  0  0  0  0
   67.3830   21.8782   48.5799 H   0  0  0  0  0
   65.5145   22.2082   47.0928 H   0  0  0  0  0
   64.4718   21.2496   48.1721 H   0  0  0  0  0
   65.1413   22.8028   48.7294 H   0  0  0  0  0
   65.6297   21.6820   50.2328 H   0  0  0  0  0
   66.9101   19.9477   49.9764 H   0  0  0  0  0
   69.7320   19.7196   49.8408 H   0  0  0  0  0
   71.3367   20.8315   47.7272 H   0  0  0  0  0
   71.4662   20.7812   50.6483 H   0  0  0  0  0
   72.4706   22.7991   50.1355 H   0  0  0  0  0
   73.4020   19.3634   50.1345 H   0  0  0  0  0
   73.9919   20.5978   48.9946 H   0  0  0  0  0
   73.8991   20.9646   50.7347 H   0  0  0  0  0
   70.7781   17.6944   48.6054 H   0  0  0  0  0
   73.4786   17.0157   47.6312 H   0  0  0  0  0
   73.0308   14.7834   48.9683 H   0  0  0  0  0
   71.8618   15.8243   49.8701 H   0  0  0  0  0
   74.3127   17.1333   51.9084 H   0  0  0  0  0
   72.6100   16.7702   51.6082 H   0  0  0  0  0
   70.7934   15.6929   48.2584 H   0  0  0  0  0
  1  2  1  0  0  0
  2  3  1  0  0  0
  2  5  1  0  0  0
  3  4  2  0  0  0
  3  7  1  0  0  0
  5  6  1  0  0  0
  7  8  1  0  0  0
  8  9  1  0  0  0
  8 11  1  0  0  0
  9 10  2  0  0  0
  9 14  1  0  0  0
 11 12  1  0  0  0
 11 13  1  0  0  0
 14 15  1  0  0  0
 15 16  1  0  0  0
 15 18  1  0  0  0
 16 17  1  0  0  0
 16 22  2  0  0  0
 17 53  1  0  0  0
 18 19  1  0  0  0
 19 20  1  0  0  0
 19 21  1  0  0  0
 22 23  1  0  0  0
 23 24  1  0  0  0
 23 26  1  0  0  0
 24 25  2  0  0  0
 24 33  1  0  0  0
 26 27  1  0  0  0
 27 28  1  0  0  0
 28 29  1  0  0  0
 29 30  1  0  0  0
 30 31  2  0  0  0
 30 32  1  0  0  0
 33 34  1  0  0  0
 34 35  1  0  0  0
 34 37  1  0  0  0
 35 36  2  0  0  0
 35 38  1  0  0  0
 38 39  1  0  0  0
 39 40  1  0  0  0
 39 42  1  0  0  0
 40 41  2  0  0  0
 40 46  1  0  0  0
 42 43  1  0  0  0
 43 44  1  0  0  0
 43 45  1  0  0  0
 46 47  1  0  0  0
 47 48  1  0  0  0
 47 50  1  0  0  0
 48 49  2  0  0  0
 48 54  1  0  0  0
 50 51  1  0  0  0
 51 52  1  0  0  0
 51 53  1  0  0  0
 54 55  1  0  0  0
 55 56  1  0  0  0
 55 58  1  0  0  0
 56 57  2  0  0  0
 56 61  1  0  0  0
 58 59  1  0  0  0
 58 60  1  0  0  0
 61 62  1  0  0  0
 62 63  1  0  0  0
 62 65  1  0  0  0
 63 64  2  0  0  0
 63 69  1  0  0  0
 65 66  1  0  0  0
 66 67  2  0  0  0
 66 68  1  0  0  0
  1 70  1  0  0  0
  1 71  1  0  0  0
  1 72  1  0  0  0
  2 73  1  0  0  0
  5 74  1  0  0  0
  5 75  1  0  0  0
  6 76  1  0  0  0
  7 77  1  0  0  0
  8 78  1  0  0  0
 11 79  1  0  0  0
 12 80  1  0  0  0
 13 81  1  0  0  0
 13 82  1  0  0  0
 13 83  1  0  0  0
 14 84  1  0  0  0
 15 85  1  0  0  0
 18 86  1  0  0  0
 18 87  1  0  0  0
 19 88  1  0  0  0
 20 89  1  0  0  0
 20 90  1  0  0  0
 20 91  1  0  0  0
 21 92  1  0  0  0
 21 93  1  0  0  0
 21 94  1  0  0  0
 23 95  1  0  0  0
 26 96  1  0  0  0
 26 97  1  0  0  0
 27 98  1  0  0  0
 27 99  1  0  0  0
 28100  1  0  0  0
 28101  1  0  0  0
 29102  1  0  0  0
 31103  1  0  0  0
 32104  1  0  0  0
 32105  1  0  0  0
 33106  1  0  0  0
 34107  1  0  0  0
 37108  1  0  0  0
 37109  1  0  0  0
 37110  1  0  0  0
 38111  1  0  0  0
 39112  1  0  0  0
 42113  1  0  0  0
 42114  1  0  0  0
 43115  1  0  0  0
 44116  1  0  0  0
 44117  1  0  0  0
 44118  1  0  0  0
 45119  1  0  0  0
 45120  1  0  0  0
 45121  1  0  0  0
 46122  1  0  0  0
 47123  1  0  0  0
 50124  1  0  0  0
 50125  1  0  0  0
 51126  1  0  0  0
 52127  1  0  0  0
 52128  1  0  0  0
 52129  1  0  0  0
 53130  1  0  0  0
 53131  1  0  0  0
 54132  1  0  0  0
 55133  1  0  0  0
 58134  1  0  0  0
 59135  1  0  0  0
 60136  1  0  0  0
 60137  1  0  0  0
 60138  1  0  0  0
 61139  1  0  0  0
 62140  1  0  0  0
 65141  1  0  0  0
 65142  1  0  0  0
 68143  1  0  0  0
 68144  1  0  0  0
 69145  1  0  0  0
M  END
$$$$
