### 
### Created by X-TOOL on Mon Sep 10 21:13:07 2018
### 

@<TRIPOS>MOLECULE
2xhs_ligand
  145   145     1     0     0
SMALL
GAST_HUCK


@<TRIPOS>ATOM
      1 N          67.1950   24.5800   56.6160 N.4       1 SER         0.2396
      2 CA         68.5260   24.0290   56.5770 C.3       1 SER         0.0885
      3 C          68.3990   22.5420   56.3880 C.2       1 SER         0.2291
      4 O          69.0910   21.9820   55.5780 O.2       1 SER        -0.3906
      5 CB         69.3120   24.3890   57.8320 C.3       1 SER         0.1041
      6 OG         70.5490   25.0120   57.5150 O.3       1 SER        -0.3870
      7 N          67.5060   21.8880   57.1030 N.am      1 THR        -0.2585
      8 CA         67.2630   20.4890   56.7990 C.3       1 THR         0.1567
      9 C          66.6890   20.3570   55.4100 C.2       1 THR         0.2073
     10 O          67.0170   19.4650   54.6740 O.2       1 THR        -0.3942
     11 CB         66.2800   19.8540   57.7030 C.3       1 THR         0.0924
     12 OG1        66.9270   19.5000   58.9120 O.3       1 THR        -0.3874
     13 CG2        65.8010   18.6230   57.0780 C.3       1 THR        -0.0346
     14 N          65.8070   21.2620   55.0540 N.am      1 LEU        -0.2592
     15 CA         65.2100   21.2150   53.7610 C.3       1 LEU         0.1348
     16 C          66.3190   21.3710   52.7960 C.2       1 LEU         0.1787
     17 O          66.4090   20.6620   51.8330 O.3       1 LEU        -0.2725
     18 CB         64.2870   22.4000   53.6210 C.3       1 LEU        -0.0060
     19 CG         63.2520   22.3940   52.5200 C.3       1 LEU        -0.0416
     20 CD1        63.6590   23.2670   51.4100 C.3       1 LEU        -0.0624
     21 CD2        63.1360   21.0150   52.0550 C.3       1 LEU        -0.0624
     22 N          67.1810   22.3220   53.0650 N.2       1 ARG        -0.3318
     23 CA         68.2830   22.5870   52.1860 C.3       1 ARG         0.0814
     24 C          69.1970   21.4090   52.1050 C.2       1 ARG         0.1856
     25 O          69.6930   21.0830   51.0600 O.2       1 ARG        -0.3963
     26 CB         69.0340   23.8140   52.6450 C.3       1 ARG        -0.0260
     27 CG         70.4660   23.8400   52.2450 C.3       1 ARG        -0.0172
     28 CD         70.8280   25.1440   51.6400 C.3       1 ARG         0.0627
     29 NE         70.2180   26.2450   52.3450 N.pl3     1 ARG        -0.2723
     30 CZ         69.9040   27.3860   51.7650 C.cat     1 ARG         0.2882
     31 NH1        70.1270   27.5480   50.4810 N.pl3     1 ARG        -0.2849
     32 NH2        69.3500   28.3510   52.4640 N.pl3     1 ARG        -0.2849
     33 N          69.4270   20.7470   53.2080 N.am      1 ALA        -0.2654
     34 CA         70.3470   19.6550   53.1490 C.3       1 ALA         0.1281
     35 C          69.8540   18.5930   52.2130 C.2       1 ALA         0.2036
     36 O          70.6070   18.0390   51.4530 O.2       1 ALA        -0.3944
     37 CB         70.5300   19.0880   54.4870 C.3       1 ALA        -0.0244
     38 N          68.5780   18.2890   52.2880 N.am      1 LEU        -0.2637
     39 CA         68.0220   17.2340   51.4810 C.3       1 LEU         0.1312
     40 C          68.1170   17.5240   50.0200 C.2       1 LEU         0.2039
     41 O          68.4120   16.6610   49.2220 O.2       1 LEU        -0.3944
     42 CB         66.5680   17.0390   51.8330 C.3       1 LEU        -0.0101
     43 CG         66.2220   16.2660   53.0820 C.3       1 LEU        -0.0425
     44 CD1        64.9610   16.8130   53.6040 C.3       1 LEU        -0.0625
     45 CD2        66.0390   14.8420   52.7420 C.3       1 LEU        -0.0625
     46 N          67.8640   18.7450   49.6390 N.am      1 LEU        -0.2637
     47 CA         67.8950   19.0170   48.2380 C.3       1 LEU         0.1313
     48 C          69.2600   19.5000   47.8780 C.2       1 LEU         0.2040
     49 O          69.6000   19.5410   46.7220 O.2       1 LEU        -0.3944
     50 CB         66.7950   19.9780   47.8180 C.3       1 LEU        -0.0072
     51 CG         66.5210   21.2150   48.6520 C.3       1 LEU        -0.0098
     52 CD1        65.3340   21.9150   48.1270 C.3       1 LEU        -0.0596
     53 CD2        66.3500   20.8720   50.1180 C.3       1 LEU         0.0871
     54 N          70.0630   19.7820   48.8780 N.am      1 THR        -0.2613
     55 CA         71.4120   20.1790   48.5970 C.3       1 THR         0.1564
     56 C          72.2940   19.0040   48.2820 C.2       1 THR         0.2060
     57 O          73.4410   19.1790   47.9830 O.2       1 THR        -0.3943
     58 CB         72.0380   20.9280   49.7320 C.3       1 THR         0.0924
     59 OG1        72.0700   22.3130   49.4110 O.3       1 THR        -0.3874
     60 CG2        73.4260   20.4300   49.9110 C.3       1 THR        -0.0346
     61 N          71.7570   17.7980   48.3380 N.am      1 ASN        -0.2673
     62 CA         72.5420   16.6200   48.0240 C.3       1 ASN         0.1110
     63 C          72.0000   15.7360   46.9220 C.2       1 ASN         0.0624
     64 O          72.5900   15.6540   45.8510 O.co2     1 ASN        -0.5665
     65 CB         72.7720   15.7980   49.2710 C.3       1 ASN         0.0718
     66 CG         73.8860   16.3370   50.0930 C.2       1 ASN         0.1774
     67 OD1        75.0250   16.3250   49.6650 O.2       1 ASN        -0.3971
     68 ND2        73.5800   16.7800   51.2930 N.am      1 ASN        -0.3007
     69 OXT        70.8570   15.4820   47.3240 O.co2     1 ASN        -0.5665
     70 H          66.6964   24.3219   55.7644 H         1 SER         0.2016
     71 H          66.6990   24.2105   57.4271 H         1 SER         0.2016
     72 H          67.2508   25.5962   56.6840 H         1 SER         0.2016
     73 H          69.0901   24.4529   55.7462 H         1 SER         0.1122
     74 H          69.5201   23.4715   58.3825 H         1 SER         0.0640
     75 H          68.7172   25.0860   58.4223 H         1 SER         0.0640
     76 H          71.0162   25.2244   58.3263 H         1 SER         0.2099
     77 H          66.9966   22.3543   57.8536 H         1 THR         0.1885
     78 H          68.2296   19.9974   56.9091 H         1 THR         0.0826
     79 H          65.4565   20.5417   57.8953 H         1 THR         0.0639
     80 H          66.2937   19.0870   59.5035 H         1 THR         0.2101
     81 H          66.6472   17.9659   56.8773 H         1 THR         0.0257
     82 H          65.1029   18.1237   57.7499 H         1 THR         0.0257
     83 H          65.2969   18.8645   56.1422 H         1 THR         0.0257
     84 H          65.5479   22.0023   55.7061 H         1 LEU         0.1896
     85 H          64.6533   20.2919   53.5993 H         1 LEU         0.0872
     86 H          64.9411   23.2402   53.3879 H         1 LEU         0.0326
     87 H          63.7126   22.4203   54.5472 H         1 LEU         0.0326
     88 H          62.2987   22.7684   52.8929 H         1 LEU         0.0298
     89 H          63.7754   24.2872   51.7757 H         1 LEU         0.0232
     90 H          64.6066   22.9157   51.0018 H         1 LEU         0.0232
     91 H          62.8958   23.2433   50.6322 H         1 LEU         0.0232
     92 H          64.1019   20.6770   51.6797 H         1 LEU         0.0232
     93 H          62.8236   20.3788   52.8831 H         1 LEU         0.0232
     94 H          62.3962   20.9633   51.2562 H         1 LEU         0.0232
     95 H          67.8880   22.7735   51.1873 H         1 ARG         0.0585
     96 H          69.0051   23.8189   53.7346 H         1 ARG         0.0296
     97 H          68.5553   24.6758   52.1799 H         1 ARG         0.0296
     98 H          70.6366   23.0547   51.5086 H         1 ARG         0.0301
     99 H          71.0789   23.6856   53.1330 H         1 ARG         0.0301
    100 H          70.4724   25.1559   50.6097 H         1 ARG         0.0689
    101 H          71.9106   25.2591   51.6928 H         1 ARG         0.0689
    102 H          70.0203   26.1351   53.3396 H         1 ARG         0.2642
    103 H          70.5419   26.7921   49.9361 H         1 ARG         0.2615
    104 H          69.8853   28.4297   50.0286 H         1 ARG         0.2615
    105 H          69.1621   28.2178   53.4577 H         1 ARG         0.2615
    106 H          69.1079   29.2332   52.0129 H         1 ARG         0.2615
    107 H          68.9655   21.0011   54.0814 H         1 ALA         0.1883
    108 H          71.3012   20.0281   52.7771 H         1 ALA         0.0797
    109 H          70.9223   19.8550   55.1547 H         1 ALA         0.0277
    110 H          69.5710   18.7323   54.8638 H         1 ALA         0.0277
    111 H          71.2324   18.2561   54.4347 H         1 ALA         0.0277
    112 H          67.9736   18.8069   52.9259 H         1 LEU         0.1883
    113 H          68.6015   16.3347   51.6897 H         1 LEU         0.0800
    114 H          66.1543   16.4521   51.0129 H         1 LEU         0.0315
    115 H          66.1811   18.0434   52.0052 H         1 LEU         0.0315
    116 H          67.0160   16.3513   53.8239 H         1 LEU         0.0298
    117 H          65.0926   17.8704   53.8336 H         1 LEU         0.0232
    118 H          64.1783   16.6973   52.8543 H         1 LEU         0.0232
    119 H          64.6806   16.2754   54.5098 H         1 LEU         0.0232
    120 H          65.2311   14.7438   52.0169 H         1 LEU         0.0232
    121 H          66.9621   14.4503   52.3147 H         1 LEU         0.0232
    122 H          65.7891   14.2836   53.6441 H         1 LEU         0.0232
    123 H          67.6520   19.4778   50.3161 H         1 LEU         0.1883
    124 H          67.6923   18.1010   47.6830 H         1 LEU         0.0800
    125 H          65.8778   19.3927   47.8837 H         1 LEU         0.0316
    126 H          67.1202   20.3636   46.8517 H         1 LEU         0.0316
    127 H          67.3830   21.8782   48.5799 H         1 LEU         0.0328
    128 H          65.5145   22.2082   47.0928 H         1 LEU         0.0233
    129 H          64.4718   21.2496   48.1721 H         1 LEU         0.0233
    130 H          65.1413   22.8028   48.7294 H         1 LEU         0.0233
    131 H          65.6297   21.6820   50.2328 H         1 LEU         0.0640
    132 H          66.9101   19.9477   49.9764 H         1 LEU         0.0640
    133 H          69.7320   19.7196   49.8408 H         1 THR         0.1884
    134 H          71.3367   20.8315   47.7272 H         1 THR         0.0826
    135 H          71.4662   20.7812   50.6483 H         1 THR         0.0639
    136 H          72.4706   22.7991   50.1355 H         1 THR         0.2101
    137 H          73.4020   19.3634   50.1345 H         1 THR         0.0257
    138 H          73.9919   20.5978   48.9946 H         1 THR         0.0257
    139 H          73.8991   20.9646   50.7347 H         1 THR         0.0257
    140 H          70.7781   17.6944   48.6054 H         1 ASN         0.1877
    141 H          73.4786   17.0157   47.6312 H         1 ASN         0.0752
    142 H          73.0308   14.7834   48.9683 H         1 ASN         0.0544
    143 H          71.8618   15.8243   49.8701 H         1 ASN         0.0544
    144 H          74.3127   17.1333   51.9084 H         1 ASN         0.1814
    145 H          72.6100   16.7702   51.6082 H         1 ASN         0.1814
@<TRIPOS>BOND
     1    1    2 1  
     2    2    3 1  
     3    2    5 1  
     4    3    4 2  
     5    3    7 am 
     6    5    6 1  
     7    7    8 1  
     8    8    9 1  
     9    8   11 1  
    10    9   10 2  
    11    9   14 am 
    12   11   12 1  
    13   11   13 1  
    14   14   15 1  
    15   15   16 1  
    16   15   18 1  
    17   16   17 1  
    18   16   22 2  
    19   17   53 1  
    20   18   19 1  
    21   19   20 1  
    22   19   21 1  
    23   22   23 1  
    24   23   24 1  
    25   23   26 1  
    26   24   25 2  
    27   24   33 am 
    28   26   27 1  
    29   27   28 1  
    30   28   29 1  
    31   29   30 ar 
    32   30   31 ar 
    33   30   32 ar 
    34   33   34 1  
    35   34   35 1  
    36   34   37 1  
    37   35   36 2  
    38   35   38 am 
    39   38   39 1  
    40   39   40 1  
    41   39   42 1  
    42   40   41 2  
    43   40   46 am 
    44   42   43 1  
    45   43   44 1  
    46   43   45 1  
    47   46   47 1  
    48   47   48 1  
    49   47   50 1  
    50   48   49 2  
    51   48   54 am 
    52   50   51 1  
    53   51   52 1  
    54   51   53 1  
    55   54   55 1  
    56   55   56 1  
    57   55   58 1  
    58   56   57 2  
    59   56   61 am 
    60   58   59 1  
    61   58   60 1  
    62   61   62 1  
    63   62   63 1  
    64   62   65 1  
    65   63   64 ar 
    66   63   69 ar 
    67   65   66 1  
    68   66   67 2  
    69   66   68 am 
    70    1   70 1  
    71    1   71 1  
    72    1   72 1  
    73    2   73 1  
    74    5   74 1  
    75    5   75 1  
    76    6   76 1  
    77    7   77 1  
    78    8   78 1  
    79   11   79 1  
    80   12   80 1  
    81   13   81 1  
    82   13   82 1  
    83   13   83 1  
    84   14   84 1  
    85   15   85 1  
    86   18   86 1  
    87   18   87 1  
    88   19   88 1  
    89   20   89 1  
    90   20   90 1  
    91   20   91 1  
    92   21   92 1  
    93   21   93 1  
    94   21   94 1  
    95   23   95 1  
    96   26   96 1  
    97   26   97 1  
    98   27   98 1  
    99   27   99 1  
   100   28  100 1  
   101   28  101 1  
   102   29  102 1  
   103   31  103 1  
   104   31  104 1  
   105   32  105 1  
   106   32  106 1  
   107   33  107 1  
   108   34  108 1  
   109   37  109 1  
   110   37  110 1  
   111   37  111 1  
   112   38  112 1  
   113   39  113 1  
   114   42  114 1  
   115   42  115 1  
   116   43  116 1  
   117   44  117 1  
   118   44  118 1  
   119   44  119 1  
   120   45  120 1  
   121   45  121 1  
   122   45  122 1  
   123   46  123 1  
   124   47  124 1  
   125   50  125 1  
   126   50  126 1  
   127   51  127 1  
   128   52  128 1  
   129   52  129 1  
   130   52  130 1  
   131   53  131 1  
   132   53  132 1  
   133   54  133 1  
   134   55  134 1  
   135   58  135 1  
   136   59  136 1  
   137   60  137 1  
   138   60  138 1  
   139   60  139 1  
   140   61  140 1  
   141   62  141 1  
   142   65  142 1  
   143   65  143 1  
   144   68  144 1  
   145   68  145 1  
@<TRIPOS>SUBSTRUCTURE
     1 SER         1

