1jij_ligand
  -I-interpret- 

 56 57  0  0  0  0  0  0  0  0999 V2000
   -7.3100   10.2200   84.9850 C   0  0  0  0  0
   -7.9100   11.4070   84.5610 C   0  0  0  0  0
   -8.0390    9.3060   85.7500 C   0  0  0  0  0
   -9.3870    9.5560   86.0550 C   0  0  0  0  0
  -10.0020   10.6990   85.5500 C   0  0  0  0  0
   -9.2500   11.6660   84.8620 C   0  0  0  0  0
   -9.9120   12.9830   84.4560 C   0  0  0  0  0
  -11.4520   12.9360   84.3640 C   0  0  0  0  0
  -12.1310   14.3570   84.2020 C   0  0  0  0  0
  -11.6670   15.2950   85.0310 N   0  0  0  0  0
  -12.0010   16.7400   85.0510 C   0  0  0  0  0
  -10.9030   17.4980   84.2740 C   0  0  0  0  0
   -9.6920   16.8590   84.2340 O   0  0  0  0  0
  -13.0200   14.5560   83.3780 O   0  0  0  0  0
  -11.8180   11.9730   83.3030 N   0  3  0  0  0
  -11.1040   18.5840   83.7370 O   0  0  0  0  0
  -12.2700   17.2620   86.4440 C   0  0  0  0  0
  -12.4390   16.0820   87.4390 N   0  3  0  0  0
  -13.0720   16.3050   88.8170 C   0  0  0  0  0
  -14.3010   17.1760   88.6640 C   0  0  0  0  0
  -13.8100   18.4680   88.0650 C   0  0  0  0  0
  -13.5480   18.1200   86.5420 C   0  0  0  0  0
  -11.4140   15.2130   87.4920 O   0  0  0  0  0
  -15.2360   16.5570   87.7860 O   0  0  0  0  0
  -14.8410   19.4710   88.2010 O   0  0  0  0  0
  -12.5480   19.0000   88.8560 C   0  0  0  0  0
  -11.3120   18.4170   88.4120 O   0  0  0  0  0
  -13.4260   19.3390   85.7830 O   0  0  0  0  0
   -7.4420    8.1630   86.1870 O   0  0  0  0  0
   -6.2745   10.0066   84.7197 H   0  0  0  0  0
   -7.3309   12.1349   83.9928 H   0  0  0  0  0
   -9.9469    8.8616   86.6814 H   0  0  0  0  0
  -11.0733   10.8442   85.6894 H   0  0  0  0  0
   -9.5440   13.2267   83.4594 H   0  0  0  0  0
   -9.6644   13.7114   85.2282 H   0  0  0  0  0
  -11.8544   12.5894   85.3158 H   0  0  0  0  0
  -11.0016   14.9794   85.7367 H   0  0  0  0  0
  -12.9505   16.9128   84.5443 H   0  0  0  0  0
   -9.7530   16.0298   84.7139 H   0  0  0  0  0
  -12.8338   11.9255   83.2243 H   0  0  0  0  0
  -11.4210   12.2801   82.4151 H   0  0  0  0  0
  -11.4507   11.0515   83.5404 H   0  0  0  0  0
  -11.4094   17.8841   86.6900 H   0  0  0  0  0
  -13.2117   15.6446   86.9369 H   0  0  0  0  0
  -12.3546   16.7962   89.4744 H   0  0  0  0  0
  -13.3548   15.3454   89.2497 H   0  0  0  0  0
  -14.8037   17.3350   89.6180 H   0  0  0  0  0
  -14.3815   17.5524   86.1282 H   0  0  0  0  0
  -11.6122   14.5248   88.1312 H   0  0  0  0  0
  -16.0098   17.1182   87.6972 H   0  0  0  0  0
  -14.5341   20.2974   87.8209 H   0  0  0  0  0
  -12.6800   18.7336   89.9047 H   0  0  0  0  0
  -12.4838   20.0753   88.6893 H   0  0  0  0  0
  -10.5863   18.7774   88.9269 H   0  0  0  0  0
  -14.2358   19.8481   85.8650 H   0  0  0  0  0
   -8.0732    7.6474   86.6943 H   0  0  0  0  0
  1  2  4  0  0  0
  1  3  4  0  0  0
  2  6  4  0  0  0
  3  4  4  0  0  0
  3 29  1  0  0  0
  4  5  4  0  0  0
  5  6  4  0  0  0
  6  7  1  0  0  0
  7  8  1  0  0  0
  8  9  1  0  0  0
  8 15  1  0  0  0
  9 10  1  0  0  0
  9 14  2  0  0  0
 10 11  1  0  0  0
 11 12  1  0  0  0
 11 17  1  0  0  0
 12 13  1  0  0  0
 12 16  2  0  0  0
 17 18  1  0  0  0
 17 22  1  0  0  0
 18 19  1  0  0  0
 18 23  1  0  0  0
 19 20  1  0  0  0
 20 21  1  0  0  0
 20 24  1  0  0  0
 21 22  1  0  0  0
 21 25  1  0  0  0
 21 26  1  0  0  0
 22 28  1  0  0  0
 26 27  1  0  0  0
  1 30  1  0  0  0
  2 31  1  0  0  0
  4 32  1  0  0  0
  5 33  1  0  0  0
  7 34  1  0  0  0
  7 35  1  0  0  0
  8 36  1  0  0  0
 10 37  1  0  0  0
 11 38  1  0  0  0
 13 39  1  0  0  0
 15 40  1  0  0  0
 15 41  1  0  0  0
 15 42  1  0  0  0
 17 43  1  0  0  0
 18 44  1  0  0  0
 19 45  1  0  0  0
 19 46  1  0  0  0
 20 47  1  0  0  0
 22 48  1  0  0  0
 23 49  1  0  0  0
 24 50  1  0  0  0
 25 51  1  0  0  0
 26 52  1  0  0  0
 26 53  1  0  0  0
 27 54  1  0  0  0
 28 55  1  0  0  0
 29 56  1  0  0  0
M  END
$$$$
