2v88_ligand
  -I-interpret- 

138137  0  0  0  0  0  0  0  0999 V2000
   -7.6580   -1.0980    7.8710 N   0  3  0  0  0
   -8.4980   -1.7120    6.8010 C   0  0  0  0  0
   -8.7720   -3.1780    7.0950 C   0  0  0  0  0
   -7.9210   -3.8810    7.6320 O   0  0  0  0  0
   -7.8030   -1.5770    5.4480 C   0  0  0  0  0
   -9.9740   -3.6320    6.7460 N   0  0  0  0  0
  -10.3470   -5.0260    6.9540 C   0  0  0  0  0
  -11.8480   -5.2180    6.7500 C   0  0  0  0  0
  -12.6930   -5.1700    8.0130 C   0  0  0  0  0
  -14.0100   -4.4560    7.7380 C   0  0  0  0  0
  -14.9350   -5.2470    6.9210 N   0  0  0  0  0
  -16.0640   -4.8740    6.2320 C   0  0  0  0  0
  -16.6890   -5.8540    5.5750 N   0  0  0  0  0
  -17.9270   -5.5620    4.7940 C   0  0  0  0  0
  -16.6080   -3.6050    6.1530 N   0  0  0  0  0
  -16.1090   -2.3940    6.7790 C   0  0  0  0  0
   -9.5720   -5.8880    5.9730 C   0  0  0  0  0
   -9.3960   -5.5090    4.8250 O   0  0  0  0  0
   -9.1090   -7.0460    6.4270 N   0  0  0  0  0
   -8.3470   -7.9350    5.5640 C   0  0  0  0  0
   -8.5620   -9.4010    5.9100 C   0  0  0  0  0
   -9.1560   -9.7250    6.9290 O   0  0  0  0  0
   -6.8290   -7.6570    5.6650 C   0  0  0  0  0
   -6.3960   -7.8840    7.0130 O   0  0  0  0  0
   -6.5090   -6.2180    5.2520 C   0  0  0  0  0
   -8.0590  -10.2700    5.0370 N   0  0  0  0  0
   -8.1390  -11.7160    5.2110 C   0  0  0  0  0
   -9.1220  -12.3150    4.2160 C   0  0  0  0  0
  -10.5810  -11.9440    4.4300 C   0  0  0  0  0
  -11.3820  -12.3620    3.2080 C   0  0  0  0  0
  -12.8810  -12.3280    3.4440 C   0  0  0  0  0
  -13.6730  -12.7460    2.2340 N   0  3  0  0  0
  -13.7600  -11.7600    1.1160 C   0  0  0  0  0
  -13.3580  -14.1050    1.6730 C   0  0  0  0  0
   -6.7650  -12.3420    4.9700 C   0  0  0  0  0
   -6.0280  -11.9180    4.0940 O   0  0  0  0  0
   -6.4430  -13.3670    5.7470 N   0  0  0  0  0
   -5.1740  -14.0680    5.6130 C   0  0  0  0  0
   -3.9630  -13.1640    5.8200 C   0  0  0  0  0
   -2.9700  -13.2870    5.1150 O   0  0  0  0  0
   -5.0730  -14.7320    4.2340 C   0  0  0  0  0
   -6.2130  -15.6870    3.9100 C   0  0  0  0  0
   -6.4010  -16.7430    4.9820 C   0  0  0  0  0
   -5.4370  -17.3280    5.4660 O   0  0  0  0  0
   -7.6520  -16.9970    5.3490 N   0  0  0  0  0
   -4.0480  -12.2520    6.7810 N   0  0  0  0  0
   -2.9230  -11.3730    7.0680 C   0  0  0  0  0
   -2.4000  -11.6520    8.4720 C   0  0  0  0  0
   -1.5350  -10.9470    8.9660 O   0  0  0  0  0
   -3.3090   -9.8860    6.9700 C   0  0  0  0  0
   -4.4550   -9.6400    7.7840 O   0  0  0  0  0
   -3.6130   -9.5040    5.5320 C   0  0  0  0  0
   -2.9360  -12.6910    9.1040 N   0  0  0  0  0
   -2.5180  -13.0670   10.4520 C   0  0  0  0  0
   -1.2560  -13.9130   10.3790 C   0  0  0  0  0
   -1.2630  -14.9890    9.8020 O   0  0  0  0  0
   -3.6260  -13.8440   11.1420 C   0  0  0  0  0
   -0.1770  -13.4180   10.9760 N   0  0  0  0  0
    1.1010  -14.1220   10.9630 C   0  0  0  0  0
    0.9310  -15.6260   11.1560 C   0  0  0  0  0
    0.0330  -16.0310   11.9260 O   0  0  0  0  0
    2.0180  -13.5540   12.0480 C   0  0  0  0  0
    1.7090  -16.3860   10.5420 O   0  0  0  0  0
   -8.1309   -1.1935    8.7697 H   0  0  0  0  0
   -6.7560   -1.5728    7.9079 H   0  0  0  0  0
   -7.5150   -0.1095    7.6641 H   0  0  0  0  0
   -9.4509   -1.1835    6.7733 H   0  0  0  0  0
   -6.8601   -2.1234    5.4692 H   0  0  0  0  0
   -8.4449   -1.9877    4.6687 H   0  0  0  0  0
   -7.6097   -0.5239    5.2438 H   0  0  0  0  0
  -10.6472   -2.9919    6.3248 H   0  0  0  0  0
  -10.1066   -5.3173    7.9765 H   0  0  0  0  0
  -11.9784   -6.2143    6.3276 H   0  0  0  0  0
  -12.1833   -4.3931    6.1213 H   0  0  0  0  0
  -12.1483   -4.6284    8.7863 H   0  0  0  0  0
  -12.9011   -6.1881    8.3420 H   0  0  0  0  0
  -13.7824   -3.5423    7.1890 H   0  0  0  0  0
  -14.4923   -4.2706    8.6978 H   0  0  0  0  0
  -15.3531   -5.8335    7.6432 H   0  0  0  0  0
  -15.6599   -3.9850    6.7162 H   0  0  0  0  0
  -16.9957   -6.4949    6.3068 H   0  0  0  0  0
  -18.6911   -5.1645    5.4620 H   0  0  0  0  0
  -17.7021   -4.8284    4.0198 H   0  0  0  0  0
  -18.2887   -6.4806    4.3319 H   0  0  0  0  0
  -17.4931   -3.7347    6.6431 H   0  0  0  0  0
  -16.0920   -2.5262    7.8608 H   0  0  0  0  0
  -15.0999   -2.1906    6.4207 H   0  0  0  0  0
  -16.7617   -1.5592    6.5239 H   0  0  0  0  0
   -9.2899   -7.3161    7.3938 H   0  0  0  0  0
   -8.7075   -7.7384    4.5543 H   0  0  0  0  0
   -6.3027   -8.3302    4.9883 H   0  0  0  0  0
   -5.4538   -7.7121    7.0785 H   0  0  0  0  0
   -6.8277   -6.0576    4.2220 H   0  0  0  0  0
   -7.0371   -5.5268    5.9089 H   0  0  0  0  0
   -5.4352   -6.0486    5.3320 H   0  0  0  0  0
   -7.5944   -9.9070    4.2047 H   0  0  0  0  0
   -8.4747  -11.9216    6.2274 H   0  0  0  0  0
   -9.0577  -13.3971    4.3303 H   0  0  0  0  0
   -8.8447  -11.9280    3.2355 H   0  0  0  0  0
  -10.6689  -10.8675    4.5766 H   0  0  0  0  0
  -10.9645  -12.4548    5.3133 H   0  0  0  0  0
  -11.1066  -13.3882    2.9646 H   0  0  0  0  0
  -11.1554  -11.6601    2.4055 H   0  0  0  0  0
  -13.1573  -11.3015    3.6849 H   0  0  0  0  0
  -13.1077  -13.0274    4.2487 H   0  0  0  0  0
  -14.5953  -12.7925    2.6670 H   0  0  0  0  0
  -14.2295  -10.8447    1.4762 H   0  0  0  0  0
  -12.7573  -11.5364    0.7516 H   0  0  0  0  0
  -14.3564  -12.1817    0.3069 H   0  0  0  0  0
  -12.3102  -14.1396    1.3747 H   0  0  0  0  0
  -13.5458  -14.8630    2.4334 H   0  0  0  0  0
  -13.9904  -14.2941    0.8056 H   0  0  0  0  0
   -7.1044  -13.6737    6.4603 H   0  0  0  0  0
   -5.1601  -14.8208    6.4011 H   0  0  0  0  0
   -4.1539  -15.3179    4.2280 H   0  0  0  0  0
   -5.1040  -13.9341    3.4921 H   0  0  0  0  0
   -5.9747  -16.1932    2.9746 H   0  0  0  0  0
   -7.1326  -15.1056    3.8429 H   0  0  0  0  0
   -7.8415  -17.7031    6.0603 H   0  0  0  0  0
   -8.4232  -16.4860    4.9195 H   0  0  0  0  0
   -4.9081  -12.1663    7.3226 H   0  0  0  0  0
   -2.1547  -11.5755    6.3218 H   0  0  0  0  0
   -2.4710   -9.2824    7.3184 H   0  0  0  0  0
   -4.6962   -8.7128    7.7233 H   0  0  0  0  0
   -2.7312   -9.6810    4.9162 H   0  0  0  0  0
   -4.4419  -10.1088    5.1642 H   0  0  0  0  0
   -3.8833   -8.4490    5.4870 H   0  0  0  0  0
   -3.6574  -13.2396    8.6359 H   0  0  0  0  0
   -2.3110  -12.1647   11.0274 H   0  0  0  0  0
   -4.5197  -13.2230   11.2032 H   0  0  0  0  0
   -3.8467  -14.7452   10.5699 H   0  0  0  0  0
   -3.3039  -14.1194   12.1462 H   0  0  0  0  0
   -0.2440  -12.5209   11.4568 H   0  0  0  0  0
    1.5514  -13.9688    9.9823 H   0  0  0  0  0
   -0.4413  -15.2783   12.2865 H   0  0  0  0  0
    2.1883  -12.4940   11.8597 H   0  0  0  0  0
    1.5468  -13.6800   13.0228 H   0  0  0  0  0
    2.9699  -14.0847   12.0318 H   0  0  0  0  0
  1  2  1  0  0  0
  2  3  1  0  0  0
  2  5  1  0  0  0
  3  4  2  0  0  0
  3  6  1  0  0  0
  6  7  1  0  0  0
  7  8  1  0  0  0
  7 17  1  0  0  0
  8  9  1  0  0  0
  9 10  1  0  0  0
 10 11  1  0  0  0
 11 12  1  0  0  0
 12 13  1  0  0  0
 12 15  1  0  0  0
 13 14  1  0  0  0
 15 16  1  0  0  0
 17 18  2  0  0  0
 17 19  1  0  0  0
 19 20  1  0  0  0
 20 21  1  0  0  0
 20 23  1  0  0  0
 21 22  2  0  0  0
 21 26  1  0  0  0
 23 24  1  0  0  0
 23 25  1  0  0  0
 26 27  1  0  0  0
 27 28  1  0  0  0
 27 35  1  0  0  0
 28 29  1  0  0  0
 29 30  1  0  0  0
 30 31  1  0  0  0
 31 32  1  0  0  0
 32 33  1  0  0  0
 32 34  1  0  0  0
 35 36  2  0  0  0
 35 37  1  0  0  0
 37 38  1  0  0  0
 38 39  1  0  0  0
 38 41  1  0  0  0
 39 40  2  0  0  0
 39 46  1  0  0  0
 41 42  1  0  0  0
 42 43  1  0  0  0
 43 44  2  0  0  0
 43 45  1  0  0  0
 46 47  1  0  0  0
 47 48  1  0  0  0
 47 50  1  0  0  0
 48 49  2  0  0  0
 48 53  1  0  0  0
 50 51  1  0  0  0
 50 52  1  0  0  0
 53 54  1  0  0  0
 54 55  1  0  0  0
 54 57  1  0  0  0
 55 56  2  0  0  0
 55 58  1  0  0  0
 58 59  1  0  0  0
 59 60  1  0  0  0
 59 62  1  0  0  0
 60 61  1  0  0  0
 60 63  2  0  0  0
  1 64  1  0  0  0
  1 65  1  0  0  0
  1 66  1  0  0  0
  2 67  1  0  0  0
  5 68  1  0  0  0
  5 69  1  0  0  0
  5 70  1  0  0  0
  6 71  1  0  0  0
  7 72  1  0  0  0
  8 73  1  0  0  0
  8 74  1  0  0  0
  9 75  1  0  0  0
  9 76  1  0  0  0
 10 77  1  0  0  0
 10 78  1  0  0  0
 11 79  1  0  0  0
 12 80  1  0  0  0
 13 81  1  0  0  0
 14 82  1  0  0  0
 14 83  1  0  0  0
 14 84  1  0  0  0
 15 85  1  0  0  0
 16 86  1  0  0  0
 16 87  1  0  0  0
 16 88  1  0  0  0
 19 89  1  0  0  0
 20 90  1  0  0  0
 23 91  1  0  0  0
 24 92  1  0  0  0
 25 93  1  0  0  0
 25 94  1  0  0  0
 25 95  1  0  0  0
 26 96  1  0  0  0
 27 97  1  0  0  0
 28 98  1  0  0  0
 28 99  1  0  0  0
 29100  1  0  0  0
 29101  1  0  0  0
 30102  1  0  0  0
 30103  1  0  0  0
 31104  1  0  0  0
 31105  1  0  0  0
 32106  1  0  0  0
 33107  1  0  0  0
 33108  1  0  0  0
 33109  1  0  0  0
 34110  1  0  0  0
 34111  1  0  0  0
 34112  1  0  0  0
 37113  1  0  0  0
 38114  1  0  0  0
 41115  1  0  0  0
 41116  1  0  0  0
 42117  1  0  0  0
 42118  1  0  0  0
 45119  1  0  0  0
 45120  1  0  0  0
 46121  1  0  0  0
 47122  1  0  0  0
 50123  1  0  0  0
 51124  1  0  0  0
 52125  1  0  0  0
 52126  1  0  0  0
 52127  1  0  0  0
 53128  1  0  0  0
 54129  1  0  0  0
 57130  1  0  0  0
 57131  1  0  0  0
 57132  1  0  0  0
 58133  1  0  0  0
 59134  1  0  0  0
 61135  1  0  0  0
 62136  1  0  0  0
 62137  1  0  0  0
 62138  1  0  0  0
M  END
$$$$
