5dda_ligand
  -I-interpret- 

 41 44  0  0  0  0  0  0  0  0999 V2000
   10.9890    7.5010  -12.2820 C   0  0  0  0  0
   10.8660    8.8130  -11.9760 C   0  0  0  0  0
   11.9440    9.4770  -11.4820 C   0  0  0  0  0
   13.0990    8.8350  -11.3070 N   0  0  0  0  0
   12.1300    6.8510  -12.1090 N   0  0  0  0  0
    5.1330    7.9890  -12.3620 F   0  0  0  0  0
    6.4100    7.8030  -12.0090 C   0  0  0  0  0
    6.6300    6.5000  -11.8600 F   0  0  0  0  0
    6.6310    8.4220  -10.8530 F   0  0  0  0  0
    7.3380    8.3750  -13.1010 C   0  0  0  0  0
    8.8060    8.2520  -12.7160 C   0  0  0  0  0
    9.5850    6.9100  -12.8750 S   0  0  0  0  0
    9.6040    9.2240  -12.2360 C   0  0  0  0  0
   13.2470    7.4990  -11.6240 C   0  0  0  0  0
   11.9590   10.7940  -11.1600 N   0  0  0  0  0
   12.9280   11.3860  -10.2070 C   0  0  0  0  0
   12.7920   12.9250  -10.1560 C   0  0  0  0  0
   11.0280   11.7260  -11.8600 C   0  0  0  0  0
   11.7510   12.9480  -12.4740 C   0  0  0  0  0
   12.7080   13.5430  -11.5100 N   0  0  0  0  0
   13.5440   14.5200  -11.7960 C   0  0  0  0  0
   13.7100   15.2210  -13.1940 S   0  0  0  0  0
   14.3810   15.0190  -10.8880 N   0  0  0  0  0
   15.0650   15.8860  -11.3300 N   0  0  0  0  0
   14.8180   16.1300  -12.6160 C   0  0  0  0  0
   15.5730   17.1950  -13.4040 C   0  0  0  0  0
   14.7490   17.7950  -14.2070 F   0  0  0  0  0
    7.1048    9.4319  -13.2300 H   0  0  0  0  0
    7.1759    7.8102  -14.0190 H   0  0  0  0  0
    9.2648   10.2468  -12.0722 H   0  0  0  0  0
   14.1985    6.9826  -11.4973 H   0  0  0  0  0
   13.9367   11.1364  -10.5361 H   0  0  0  0  0
   12.7277   10.9857   -9.2132 H   0  0  0  0  0
   13.6789   13.3222   -9.6623 H   0  0  0  0  0
   11.8706   13.1611   -9.6237 H   0  0  0  0  0
   10.3123   12.0961  -11.1260 H   0  0  0  0  0
   10.5540   11.1758  -12.6729 H   0  0  0  0  0
   11.0056   13.6996  -12.7340 H   0  0  0  0  0
   12.3024   12.6201  -13.3552 H   0  0  0  0  0
   16.3707   16.7269  -13.9808 H   0  0  0  0  0
   16.0072   17.9204  -12.7160 H   0  0  0  0  0
  1  2  4  0  0  0
  1  5  4  0  0  0
 12  1  4  0  0  0
  2  3  4  0  0  0
  2 13  4  0  0  0
  3  4  4  0  0  0
  3 15  1  0  0  0
 14  4  4  0  0  0
  5 14  4  0  0  0
  7  6  1  0  0  0
  7  8  1  0  0  0
  7  9  1  0  0  0
 10  7  1  0  0  0
 11 10  1  0  0  0
 11 12  4  0  0  0
 11 13  4  0  0  0
 15 16  1  0  0  0
 15 18  1  0  0  0
 16 17  1  0  0  0
 17 20  1  0  0  0
 18 19  1  0  0  0
 19 20  1  0  0  0
 20 21  1  0  0  0
 21 22  4  0  0  0
 21 23  4  0  0  0
 22 25  4  0  0  0
 23 24  4  0  0  0
 24 25  4  0  0  0
 25 26  1  0  0  0
 26 27  1  0  0  0
 10 28  1  0  0  0
 10 29  1  0  0  0
 13 30  1  0  0  0
 14 31  1  0  0  0
 16 32  1  0  0  0
 16 33  1  0  0  0
 17 34  1  0  0  0
 17 35  1  0  0  0
 18 36  1  0  0  0
 18 37  1  0  0  0
 19 38  1  0  0  0
 19 39  1  0  0  0
 26 40  1  0  0  0
 26 41  1  0  0  0
M  END
$$$$
