5hmy_ligand
  -I-interpret- 

 37 38  0  0  0  0  0  0  0  0999 V2000
   18.0910   60.3600   13.3730 C   0  0  0  0  0
   18.0700   61.5180   12.4040 C   0  0  0  0  0
   17.8170   62.7980   12.8920 C   0  0  0  0  0
   20.4620   60.0360   13.5210 O   0  0  0  0  0
   18.4370   67.2990   13.2440 O   0  0  0  0  0
   19.7950   65.7330   12.6480 O   0  0  0  0  0
   18.0690   62.3810    6.3160 C   0  0  0  0  0
   18.9550   61.3220    6.4190 C   0  0  0  0  0
   19.3400   60.5450    5.4040 C   0  0  0  0  0
   19.6520   59.7580    4.5820 C   0  0  0  0  0
   20.0100   58.6840    3.6470 C   0  0  0  0  0
   18.2390   61.3110   11.0220 C   0  0  0  0  0
   19.3620   60.2450   15.3650 O   0  0  0  0  0
   19.3950   60.2140   14.1290 C   0  0  0  0  0
   18.2400   62.4080   10.1360 C   0  0  0  0  0
   17.9610   63.6860   10.6430 C   0  0  0  0  0
   17.7880   63.8880   12.0200 C   0  0  0  0  0
   17.4340   65.2650   12.5580 C   0  0  0  0  0
   18.6380   66.1460   12.8280 C   0  0  0  0  0
   18.3630   62.2310    8.6520 C   0  0  0  0  0
   17.7600   62.9130    7.5810 C   0  0  0  0  0
   19.2890   60.8890    8.0420 S   0  0  0  0  0
   21.2780   58.9550    3.0680 O   0  0  0  0  0
   17.9503   59.4489   12.7915 H   0  0  0  0  0
   17.3082   60.5404   14.1098 H   0  0  0  0  0
   17.6413   62.9489   13.9571 H   0  0  0  0  0
   20.2952   60.0420   12.5756 H   0  0  0  0  0
   17.4922   67.4488   13.3243 H   0  0  0  0  0
   17.6632   62.7544    5.3758 H   0  0  0  0  0
   19.2587   58.6257    2.8595 H   0  0  0  0  0
   20.0538   57.7370    4.1848 H   0  0  0  0  0
   18.3694   60.3001   10.6357 H   0  0  0  0  0
   17.8778   64.5309    9.9594 H   0  0  0  0  0
   16.9186   65.1199   13.5074 H   0  0  0  0  0
   16.8300   65.7641   11.8002 H   0  0  0  0  0
   17.1105   63.7775    7.7185 H   0  0  0  0  0
   21.5071   58.2501    2.4579 H   0  0  0  0  0
  2  1  1  0  0  0
  1 14  1  0  0  0
  2  3  4  0  0  0
 12  2  4  0  0  0
 17  3  4  0  0  0
 14  4  1  0  0  0
 19  5  1  0  0  0
 19  6  2  0  0  0
  7  8  4  0  0  0
 21  7  4  0  0  0
  8  9  1  0  0  0
  8 22  4  0  0  0
  9 10  3  0  0  0
 10 11  1  0  0  0
 11 23  1  0  0  0
 15 12  4  0  0  0
 14 13  2  0  0  0
 15 16  4  0  0  0
 20 15  1  0  0  0
 16 17  4  0  0  0
 17 18  1  0  0  0
 18 19  1  0  0  0
 20 21  4  0  0  0
 20 22  4  0  0  0
  1 24  1  0  0  0
  1 25  1  0  0  0
  3 26  1  0  0  0
  4 27  1  0  0  0
  5 28  1  0  0  0
  7 29  1  0  0  0
 11 30  1  0  0  0
 11 31  1  0  0  0
 12 32  1  0  0  0
 16 33  1  0  0  0
 18 34  1  0  0  0
 18 35  1  0  0  0
 21 36  1  0  0  0
 23 37  1  0  0  0
M  END
$$$$
