4ww8_ligand
  -I-interpret- 

 27 27  0  0  0  0  0  0  0  0999 V2000
   23.0210    2.5850    8.7080 O   0  0  0  0  0
   23.6830    2.4010   10.0070 S   0  0  0  0  0
   24.7240    1.3220   10.0150 O   0  0  0  0  0
   22.6150    2.1410   11.1640 N   0  0  0  0  0
   24.5410    3.8900   10.2920 C   0  0  0  0  0
   25.9260    3.9260   10.2270 C   0  0  0  0  0
   26.6420    5.1260   10.4090 C   0  0  0  0  0
   25.8880    6.2490   10.7420 C   0  0  0  0  0
   24.4930    6.2820   10.8580 C   0  0  0  0  0
   23.8660    5.0310   10.6870 C   0  0  0  0  0
   26.6430    7.8580   10.9600 S   0  0  0  0  0
   28.3810    7.6430   10.3990 C   0  0  0  0  0
   28.4650    7.4590    8.9030 C   0  0  0  0  0
   29.9090    7.2310    8.4970 C   0  0  0  0  0
   21.6193    2.1210   10.9438 H   0  0  0  0  0
   22.9281    1.9949   12.1237 H   0  0  0  0  0
   26.4736    3.0042   10.0305 H   0  0  0  0  0
   27.7251    5.1729   10.2956 H   0  0  0  0  0
   23.9386    7.1978   11.0632 H   0  0  0  0  0
   22.7949    4.9592   10.8756 H   0  0  0  0  0
   28.7894    6.7533   10.8783 H   0  0  0  0  0
   28.9421    8.5381   10.6673 H   0  0  0  0  0
   28.0867    8.3528    8.4069 H   0  0  0  0  0
   27.8666    6.5962    8.6106 H   0  0  0  0  0
   30.5080    8.0932    8.7902 H   0  0  0  0  0
   30.2880    6.3379    8.9937 H   0  0  0  0  0
   29.9647    7.0987    7.4165 H   0  0  0  0  0
  1  2  2  0  0  0
  2  3  2  0  0  0
  2  4  1  0  0  0
  2  5  1  0  0  0
  5  6  4  0  0  0
  5 10  4  0  0  0
  6  7  4  0  0  0
  7  8  4  0  0  0
  8  9  4  0  0  0
  8 11  1  0  0  0
  9 10  4  0  0  0
 11 12  1  0  0  0
 12 13  1  0  0  0
 13 14  1  0  0  0
  4 15  1  0  0  0
  4 16  1  0  0  0
  6 17  1  0  0  0
  7 18  1  0  0  0
  9 19  1  0  0  0
 10 20  1  0  0  0
 12 21  1  0  0  0
 12 22  1  0  0  0
 13 23  1  0  0  0
 13 24  1  0  0  0
 14 25  1  0  0  0
 14 26  1  0  0  0
 14 27  1  0  0  0
M  END
$$$$
