6c5t_ligand
  -I-interpret- 

 74 78  0  0  0  0  0  0  0  0999 V2000
   21.1430  -28.8550   24.7770 C   0  0  0  0  0
   20.1300  -27.5760   22.7940 C   0  0  0  0  0
   21.7670  -26.8180   19.4230 C   0  0  0  0  0
   19.3270  -26.3620   20.6980 C   0  0  0  0  0
   19.5290  -25.0150   17.2930 C   0  0  0  0  0
   17.2980  -24.6590   18.6130 C   0  0  0  0  0
   21.7690  -25.6390   16.5460 C   0  0  0  0  0
   24.1290  -24.9510   16.1790 C   0  0  0  0  0
   19.2310  -26.7670   27.3460 C   0  0  0  0  0
   20.2740  -26.1360   28.0190 C   0  0  0  0  0
   21.5900  -26.3850   27.6420 C   0  0  0  0  0
   21.8640  -27.2600   26.5950 C   0  0  0  0  0
   20.8240  -27.8850   25.9100 C   0  0  0  0  0
   19.5070  -27.6460   26.2990 C   0  0  0  0  0
   17.7790  -26.4950   27.7620 C   0  0  0  0  0
   17.5620  -25.3000   28.6790 C   0  0  0  0  0
   17.4600  -26.7130   29.2340 C   0  0  0  0  0
   20.1390  -29.9940   24.7870 C   0  0  0  0  0
   20.3460  -27.0490   21.3700 C   0  0  0  0  0
   21.5640  -27.2810   20.7230 C   0  0  0  0  0
   20.7440  -26.1210   18.7490 C   0  0  0  0  0
   19.5320  -25.8930   19.3850 C   0  0  0  0  0
   18.7310  -25.1670   18.4330 C   0  0  0  0  0
   19.1120  -24.3050   16.0060 C   0  0  0  0  0
   22.8490  -24.5470   16.5430 C   0  0  0  0  0
   25.1680  -24.0340   16.1350 C   0  0  0  0  0
   24.9200  -22.7030   16.4420 C   0  0  0  0  0
   23.6360  -22.2870   16.8030 C   0  0  0  0  0
   22.5880  -23.2110   16.8490 C   0  0  0  0  0
   26.1030  -21.7140   16.3820 C   0  0  0  0  0
   27.0300  -22.0130   17.5690 C   0  0  0  0  0
   25.5830  -20.2680   16.4560 C   0  0  0  0  0
   26.8840  -21.9250   15.0820 C   0  0  0  0  0
   21.2080  -28.2770   23.4610 N   0  0  0  0  0
   20.7090  -25.5710   17.5170 N   0  0  0  0  0
   19.0470  -27.4220   23.3290 O   0  0  0  0  0
   26.6090  -21.2430   14.0540 O   0  0  0  0  0
   27.8100  -22.7830   15.0350 O   0  0  0  0  0
   22.1544  -29.2074   24.9795 H   0  0  0  0  0
   22.7208  -26.9960   18.9263 H   0  0  0  0  0
   18.3712  -26.1894   21.1928 H   0  0  0  0  0
   17.2815  -23.5748   18.5017 H   0  0  0  0  0
   16.6555  -25.1128   17.8584 H   0  0  0  0  0
   16.9403  -24.9290   19.6066 H   0  0  0  0  0
   22.3028  -26.5606   16.7779 H   0  0  0  0  0
   21.2715  -25.5439   15.5808 H   0  0  0  0  0
   24.3165  -25.9947   15.9268 H   0  0  0  0  0
   20.0603  -25.4495   28.8382 H   0  0  0  0  0
   22.4084  -25.8935   28.1680 H   0  0  0  0  0
   22.8973  -27.4573   26.3094 H   0  0  0  0  0
   18.6891  -28.1484   25.7825 H   0  0  0  0  0
   17.3479  -26.8323   26.8194 H   0  0  0  0  0
   16.9884  -24.3732   28.6921 H   0  0  0  0  0
   18.0533  -24.3586   28.9251 H   0  0  0  0  0
   17.8416  -27.2899   30.0764 H   0  0  0  0  0
   16.7768  -27.3045   29.8435 H   0  0  0  0  0
   20.1954  -30.5180   25.7411 H   0  0  0  0  0
   19.1348  -29.5927   24.6503 H   0  0  0  0  0
   20.3685  -30.6861   23.9768 H   0  0  0  0  0
   22.3569  -27.8252   21.2361 H   0  0  0  0  0
   18.2391  -24.8032   15.5841 H   0  0  0  0  0
   18.8670  -23.2665   16.2285 H   0  0  0  0  0
   19.9335  -24.3405   15.2904 H   0  0  0  0  0
   26.1727  -24.3559   15.8612 H   0  0  0  0  0
   23.4513  -21.2413   17.0489 H   0  0  0  0  0
   21.5815  -22.8923   17.1200 H   0  0  0  0  0
   26.4782  -21.8856   18.5004 H   0  0  0  0  0
   27.3914  -23.0388   17.4967 H   0  0  0  0  0
   27.8761  -21.3261   17.5496 H   0  0  0  0  0
   24.9144  -20.0802   15.6159 H   0  0  0  0  0
   25.0421  -20.1252   17.3915 H   0  0  0  0  0
   26.4254  -19.5777   16.4129 H   0  0  0  0  0
   22.0885  -28.3687   22.9544 H   0  0  0  0  0
   25.8878  -20.6417   14.2538 H   0  0  0  0  0
  1 13  1  0  0  0
  1 18  1  0  0  0
 34  1  1  0  0  0
 19  2  1  0  0  0
  2 34  1  0  0  0
  2 36  2  0  0  0
  3 20  4  0  0  0
 21  3  4  0  0  0
  4 19  4  0  0  0
 22  4  4  0  0  0
  5 23  4  0  0  0
  5 24  1  0  0  0
 35  5  4  0  0  0
 23  6  1  0  0  0
  7 25  1  0  0  0
 35  7  1  0  0  0
 25  8  4  0  0  0
  8 26  4  0  0  0
  9 10  4  0  0  0
 14  9  4  0  0  0
  9 15  1  0  0  0
 11 10  4  0  0  0
 12 11  4  0  0  0
 13 12  4  0  0  0
 13 14  4  0  0  0
 15 16  1  0  0  0
 15 17  1  0  0  0
 17 16  1  0  0  0
 20 19  4  0  0  0
 21 22  4  0  0  0
 21 35  4  0  0  0
 22 23  4  0  0  0
 25 29  4  0  0  0
 26 27  4  0  0  0
 27 28  4  0  0  0
 27 30  1  0  0  0
 28 29  4  0  0  0
 30 31  1  0  0  0
 30 32  1  0  0  0
 30 33  1  0  0  0
 33 37  1  0  0  0
 33 38  2  0  0  0
  1 39  1  0  0  0
  3 40  1  0  0  0
  4 41  1  0  0  0
  6 42  1  0  0  0
  6 43  1  0  0  0
  6 44  1  0  0  0
  7 45  1  0  0  0
  7 46  1  0  0  0
  8 47  1  0  0  0
 10 48  1  0  0  0
 11 49  1  0  0  0
 12 50  1  0  0  0
 14 51  1  0  0  0
 15 52  1  0  0  0
 16 53  1  0  0  0
 16 54  1  0  0  0
 17 55  1  0  0  0
 17 56  1  0  0  0
 18 57  1  0  0  0
 18 58  1  0  0  0
 18 59  1  0  0  0
 20 60  1  0  0  0
 24 61  1  0  0  0
 24 62  1  0  0  0
 24 63  1  0  0  0
 26 64  1  0  0  0
 28 65  1  0  0  0
 29 66  1  0  0  0
 31 67  1  0  0  0
 31 68  1  0  0  0
 31 69  1  0  0  0
 32 70  1  0  0  0
 32 71  1  0  0  0
 32 72  1  0  0  0
 34 73  1  0  0  0
 37 74  1  0  0  0
M  END
$$$$
