5vrl_ligand
  -I-interpret- 

 50 52  0  0  0  0  0  0  0  0999 V2000
   -1.1760   17.2890   10.2330 C   0  0  0  0  0
   -1.8560   15.1760   14.6960 C   0  0  0  0  0
   -0.0960   16.0060   11.9990 C   0  0  0  0  0
   -0.1680   16.3710   10.6550 C   0  0  0  0  0
   -1.9620   14.9230   16.0610 C   0  0  0  0  0
   -1.0500   15.6690   17.0170 C   0  0  0  0  0
   -2.8860   14.0010   16.5350 C   0  0  0  0  0
   -3.7080   13.3360   15.6300 C   0  0  0  0  0
   -4.7480   18.1840   10.7700 O   0  0  0  0  0
   -3.2320   18.8620   10.6250 B   0  0  0  0  0
   -3.2030   20.2060   11.6130 O   0  0  0  0  0
   -3.0120   19.2970    9.1860 N   0  0  0  0  0
   -3.6230   20.7370    8.6740 S   0  0  0  0  0
   -3.9400   20.6620    7.2680 O   0  0  0  0  0
   -2.4610   22.0360    9.0270 C   0  0  0  0  0
   -1.0990   21.6390    8.5100 C   0  0  0  0  0
   -4.9010   20.9760    9.2800 O   0  0  0  0  0
   -2.2970   18.5170    8.2810 N   0  3  0  0  0
   -1.2300   17.6690    8.7440 C   0  0  0  0  0
   -1.0060   16.5220   12.9230 C   0  0  0  0  0
   -0.8880   16.1350   14.2900 O   0  0  0  0  0
   -0.9190   15.2430   18.2580 N   0  0  0  0  0
   -0.0900   15.9180   19.1230 O   0  0  0  0  0
   -4.7360   12.3130   16.1180 C   0  0  0  0  0
   -4.2710   11.6930   17.2170 F   0  0  0  0  0
   -4.9460   11.4130   15.1480 F   0  0  0  0  0
   -5.8820   12.9500   16.4020 F   0  0  0  0  0
   -3.6010   13.5890   14.2660 C   0  0  0  0  0
   -2.6720   14.5090   13.7900 C   0  0  0  0  0
   -1.9930   17.4250   12.5100 C   0  0  0  0  0
   -2.0710   17.8000   11.1270 C   0  0  0  0  0
    0.6768   15.3125   12.3304 H   0  0  0  0  0
    0.5384   15.9594    9.9341 H   0  0  0  0  0
   -0.5065   16.5517   16.6800 H   0  0  0  0  0
   -2.9665   13.8005   17.6034 H   0  0  0  0  0
   -4.8885   17.9086   11.6788 H   0  0  0  0  0
   -2.3413   20.6253   11.5558 H   0  0  0  0  0
   -2.4102   22.1983   10.1037 H   0  0  0  0  0
   -2.7828   22.9565    8.5399 H   0  0  0  0  0
   -0.7798   20.7191    8.9999 H   0  0  0  0  0
   -1.1531   21.4788    7.4332 H   0  0  0  0  0
   -0.3844   22.4335    8.7250 H   0  0  0  0  0
   -1.8379   19.1927    7.6703 H   0  0  0  0  0
   -2.9884   17.8708    7.9006 H   0  0  0  0  0
   -1.3715   16.7252    8.2174 H   0  0  0  0  0
   -0.3188   18.2400    8.5658 H   0  0  0  0  0
   -0.1039   15.4862   19.9803 H   0  0  0  0  0
   -4.2495   13.0628   13.5655 H   0  0  0  0  0
   -2.5854   14.7039   12.7211 H   0  0  0  0  0
   -2.6960   17.8395   13.2326 H   0  0  0  0  0
  4  1  4  0  0  0
  1 19  1  0  0  0
  1 31  4  0  0  0
  2  5  4  0  0  0
 21  2  1  0  0  0
  2 29  4  0  0  0
  3  4  4  0  0  0
 20  3  4  0  0  0
  5  6  1  0  0  0
  5  7  4  0  0  0
  6 22  2  0  0  0
  7  8  4  0  0  0
  8 24  1  0  0  0
  8 28  4  0  0  0
 10  9  1  0  0  0
 10 12  1  0  0  0
 31 10  1  0  0  0
 12 13  1  0  0  0
 18 12  1  0  0  0
 13 14  2  0  0  0
 13 15  1  0  0  0
 13 17  2  0  0  0
 15 16  1  0  0  0
 19 18  1  0  0  0
 20 21  1  0  0  0
 20 30  4  0  0  0
 22 23  1  0  0  0
 24 25  1  0  0  0
 24 26  1  0  0  0
 24 27  1  0  0  0
 28 29  4  0  0  0
 30 31  4  0  0  0
 10 11  1  0  0  0
  3 32  1  0  0  0
  4 33  1  0  0  0
  6 34  1  0  0  0
  7 35  1  0  0  0
  9 36  1  0  0  0
 11 37  1  0  0  0
 15 38  1  0  0  0
 15 39  1  0  0  0
 16 40  1  0  0  0
 16 41  1  0  0  0
 16 42  1  0  0  0
 18 43  1  0  0  0
 18 44  1  0  0  0
 19 45  1  0  0  0
 19 46  1  0  0  0
 23 47  1  0  0  0
 28 48  1  0  0  0
 29 49  1  0  0  0
 30 50  1  0  0  0
M  END
$$$$
