### 
### Created by X-TOOL on Wed Jan  1 15:39:35 2020
### 

@<TRIPOS>MOLECULE
5vrl_ligand
   50    52     1     0     0
SMALL
GAST_HUCK


@<TRIPOS>ATOM
      1 C12        -1.1760   17.2890   10.2330 C.ar      1 9JA        -0.0016
      2 C17        -1.8560   15.1760   14.6960 C.ar      1 9JA         0.1313
      3 C14        -0.0960   16.0060   11.9990 C.ar      1 9JA        -0.0332
      4 C13        -0.1680   16.3710   10.6550 C.ar      1 9JA        -0.0614
      5 C18        -1.9620   14.9230   16.0610 C.ar      1 9JA         0.0247
      6 C19        -1.0500   15.6690   17.0170 C.2       1 9JA         0.0417
      7 C22        -2.8860   14.0010   16.5350 C.ar      1 9JA        -0.0799
      8 C23        -3.7080   13.3360   15.6300 C.ar      1 9JA        -0.1010
      9 O01        -4.7480   18.1840   10.7700 O.3       1 9JA        -0.8710
     10 B02        -3.2320   18.8620   10.6250 B         1 9JA         3.0000
     11 O03        -3.2030   20.2060   11.6130 O.3       1 9JA        -0.8710
     12 N04        -3.0120   19.2970    9.1860 N.am      1 9JA        -0.4995
     13 S05        -3.6230   20.7370    8.6740 S.o2      1 9JA        -0.0616
     14 O06        -3.9400   20.6620    7.2680 O.2       1 9JA        -0.1863
     15 C07        -2.4610   22.0360    9.0270 C.3       1 9JA         0.0514
     16 C08        -1.0990   21.6390    8.5100 C.3       1 9JA        -0.0469
     17 O09        -4.9010   20.9760    9.2800 O.2       1 9JA        -0.1863
     18 N10        -2.2970   18.5170    8.2810 N.4       1 9JA         0.1988
     19 C11        -1.2300   17.6690    8.7440 C.3       1 9JA        -0.0084
     20 C15        -1.0060   16.5220   12.9230 C.ar      1 9JA         0.1143
     21 O16        -0.8880   16.1350   14.2900 O.3       1 9JA        -0.2544
     22 N20        -0.9190   15.2430   18.2580 N.2       1 9JA        -0.1604
     23 O21        -0.0900   15.9180   19.1230 O.3       1 9JA        -0.2527
     24 C24        -4.7360   12.3130   16.1180 C.3       1 9JA         0.1849
     25 F25        -4.2710   11.6930   17.2170 F         1 9JA        -0.3666
     26 F26        -4.9460   11.4130   15.1480 F         1 9JA        -0.3666
     27 F27        -5.8820   12.9500   16.4020 F         1 9JA        -0.3666
     28 C28        -3.6010   13.5890   14.2660 C.ar      1 9JA        -0.0864
     29 C29        -2.6720   14.5090   13.7900 C.ar      1 9JA        -0.0248
     30 C30        -1.9930   17.4250   12.5100 C.ar      1 9JA        -0.0267
     31 C31        -2.0710   17.8000   11.1270 C.ar      1 9JA        -0.0235
     32 H1          0.6726   15.3163   12.3286 H         1 9JA         0.0542
     33 H2          0.5345   15.9616    9.9381 H         1 9JA         0.0536
     34 H3         -0.5069   16.5508   16.6803 H         1 9JA         0.0764
     35 H4         -2.9661   13.8016   17.5975 H         1 9JA         0.0553
     36 H6         -4.8025   17.4121   10.2188 H         1 9JA        -0.1290
     37 H7         -3.8734   20.8180   11.3329 H         1 9JA        -0.1290
     38 H10        -2.4090   22.1976   10.1138 H         1 9JA         0.0484
     39 H11        -2.7855   22.9639    8.5334 H         1 9JA         0.0484
     40 H12        -0.3769   22.4401    8.7264 H         1 9JA         0.0245
     41 H13        -1.1522   21.4770    7.4233 H         1 9JA         0.0245
     42 H14        -0.7756   20.7107    9.0037 H         1 9JA         0.0245
     43 H15        -1.8940   19.1494    7.6074 H         1 9JA         0.1974
     44 H16        -2.9655   17.9183    7.8219 H         1 9JA         0.1974
     45 H17        -1.2926   16.7307    8.1734 H         1 9JA         0.0960
     46 H18        -0.2853   18.1801    8.5067 H         1 9JA         0.0960
     47 H19        -0.1038   15.4907   19.9713 H         1 9JA         0.2816
     48 H20        -4.2459   13.0657   13.5693 H         1 9JA         0.0578
     49 H21        -2.5859   14.7029   12.7270 H         1 9JA         0.0572
     50 H22        -2.6921   17.8373   13.2286 H         1 9JA         0.0547
@<TRIPOS>BOND
     1    4    1 ar 
     2    1   19 1  
     3    1   31 ar 
     4    2    5 ar 
     5   21    2 1  
     6    2   29 ar 
     7    3    4 ar 
     8   20    3 ar 
     9    5    6 1  
    10    5    7 ar 
    11    6   22 2  
    12    7    8 ar 
    13    8   24 1  
    14    8   28 ar 
    15   10    9 1  
    16   10   12 1  
    17   31   10 1  
    18   12   13 am 
    19   18   12 1  
    20   13   14 2  
    21   13   15 1  
    22   13   17 2  
    23   15   16 1  
    24   19   18 1  
    25   20   21 1  
    26   20   30 ar 
    27   22   23 1  
    28   24   25 1  
    29   24   26 1  
    30   24   27 1  
    31   28   29 ar 
    32   30   31 ar 
    33   10   11 1  
    34    3   32 1  
    35    4   33 1  
    36    6   34 1  
    37    7   35 1  
    38    9   36 1  
    39   11   37 1  
    40   15   38 1  
    41   15   39 1  
    42   16   40 1  
    43   16   41 1  
    44   16   42 1  
    45   18   43 1  
    46   18   44 1  
    47   19   45 1  
    48   19   46 1  
    49   23   47 1  
    50   28   48 1  
    51   29   49 1  
    52   30   50 1  
@<TRIPOS>SUBSTRUCTURE
     1 9JA         1

