6c1s_ligand
  -I-interpret- 

 44 47  0  0  0  0  0  0  0  0999 V2000
   25.5050   61.4880   18.3370 C   0  0  0  0  0
   26.3770   60.7360   20.4810 C   0  0  0  0  0
   25.1870   60.8690   21.2020 C   0  0  0  0  0
   24.9810   60.1870   22.4160 C   0  0  0  0  0
   26.0040   59.3470   22.8620 C   0  0  0  0  0
   27.3660   59.8860   21.0130 C   0  0  0  0  0
   26.5660   61.4280   19.3010 O   0  0  0  0  0
   27.1350   59.2510   22.1710 N   0  0  0  0  0
   28.5710   59.7870   20.3660 O   0  0  0  0  0
   29.4680   58.6990   20.6110 C   0  0  0  0  0
   23.6450   60.2890   23.0610 C   0  0  0  0  0
   23.2120   59.3460   24.0160 C   0  0  0  0  0
   21.9150   59.4070   24.4990 C   0  0  0  0  0
   21.0820   60.4300   24.0300 C   0  0  0  0  0
   21.5560   61.3270   23.0570 C   0  0  0  0  0
   22.7890   61.2170   22.6020 N   0  0  0  0  0
   20.4190   62.2630   22.7390 C   0  0  0  0  0
   19.2740   61.8100   23.5560 N   0  0  0  0  0
   19.6880   60.7640   24.3140 C   0  0  0  0  0
   19.0140   60.1330   25.0900 O   0  0  0  0  0
   17.9670   62.3860   23.5490 C   0  0  0  0  0
   17.5960   63.6390   23.0250 C   0  0  0  0  0
   16.3140   63.8130   23.2060 N   0  0  0  0  0
   15.7890   62.6730   23.8280 N   0  0  0  0  0
   16.8260   61.8220   24.0350 C   0  0  0  0  0
   14.3870   62.4530   24.2200 C   0  0  0  0  0
   13.6460   61.6170   23.2560 C   0  0  0  0  0
   13.0540   60.9660   22.5310 N   0  0  0  0  0
   25.2486   60.4779   18.0174 H   0  0  0  0  0
   24.6323   61.9603   18.7880 H   0  0  0  0  0
   25.8309   62.0712   17.4757 H   0  0  0  0  0
   24.3999   61.5161   20.8150 H   0  0  0  0  0
   25.8745   58.7698   23.7775 H   0  0  0  0  0
   29.7510   58.6931   21.6636 H   0  0  0  0  0
   28.9748   57.7597   20.3608 H   0  0  0  0  0
   30.3590   58.8185   19.9946 H   0  0  0  0  0
   23.8938   58.5737   24.3720 H   0  0  0  0  0
   21.5529   58.6784   25.2244 H   0  0  0  0  0
   20.1772   62.2420   21.6764 H   0  0  0  0  0
   20.6828   63.2953   22.9689 H   0  0  0  0  0
   18.2697   64.3492   22.5457 H   0  0  0  0  0
   16.7570   60.8448   24.5130 H   0  0  0  0  0
   13.8967   63.4256   24.2632 H   0  0  0  0  0
   14.3867   61.9351   25.1791 H   0  0  0  0  0
  7  1  1  0  0  0
  2  3  4  0  0  0
  2  6  4  0  0  0
  2  7  1  0  0  0
  3  4  4  0  0  0
  4  5  4  0  0  0
  4 11  1  0  0  0
  5  8  4  0  0  0
  6  8  4  0  0  0
  6  9  1  0  0  0
  9 10  1  0  0  0
 11 12  4  0  0  0
 11 16  4  0  0  0
 12 13  4  0  0  0
 13 14  4  0  0  0
 14 15  4  0  0  0
 14 19  1  0  0  0
 15 16  4  0  0  0
 15 17  1  0  0  0
 17 18  1  0  0  0
 18 19  1  0  0  0
 18 21  1  0  0  0
 19 20  2  0  0  0
 21 22  4  0  0  0
 21 25  4  0  0  0
 22 23  4  0  0  0
 23 24  4  0  0  0
 24 25  4  0  0  0
 24 26  1  0  0  0
 26 27  1  0  0  0
 27 28  3  0  0  0
  1 29  1  0  0  0
  1 30  1  0  0  0
  1 31  1  0  0  0
  3 32  1  0  0  0
  5 33  1  0  0  0
 10 34  1  0  0  0
 10 35  1  0  0  0
 10 36  1  0  0  0
 12 37  1  0  0  0
 13 38  1  0  0  0
 17 39  1  0  0  0
 17 40  1  0  0  0
 22 41  1  0  0  0
 25 42  1  0  0  0
 26 43  1  0  0  0
 26 44  1  0  0  0
M  END
$$$$
