4nbn_ligand
  -I-interpret- 

 42 44  0  0  0  0  0  0  0  0999 V2000
   22.5540   29.0250    5.9220 C   0  0  0  0  0
   23.9850   28.9430    5.5350 N   0  0  0  0  0
   25.0770   29.0160    6.4240 C   0  0  0  0  0
   20.8490   32.9860    5.6610 C   0  0  0  0  0
   26.3680   28.7770    5.9520 C   0  0  0  0  0
   22.0470   31.2900    6.9030 C   0  0  0  0  0
   21.3000   30.8380    4.6660 C   0  0  0  0  0
   20.7560   32.1160    4.5810 C   0  0  0  0  0
   21.5030   32.5740    6.8210 C   0  0  0  0  0
   21.9620   30.4230    5.8230 C   0  0  0  0  0
   27.4700   28.8210    6.8370 C   0  0  0  0  0
   27.2400   29.0770    8.1270 N   0  0  0  0  0
   25.9880   29.3050    8.5340 C   0  0  0  0  0
   24.9360   29.2790    7.7300 N   0  0  0  0  0
   28.7790   28.6010    6.3580 N   0  0  0  0  0
   30.0180   28.7590    7.1630 C   0  0  0  0  0
   30.6290   27.4600    7.6520 C   0  0  0  0  0
   31.5390   26.7380    6.8940 C   0  0  0  0  0
   32.0650   25.5510    7.3730 C   0  0  0  0  0
   31.6820   25.0600    8.6230 C   0  0  0  0  0
   30.7720   25.7800    9.3890 C   0  0  0  0  0
   30.2510   26.9800    8.8990 C   0  0  0  0  0
   29.3490   27.7000    9.6210 O   0  0  0  0  0
   22.6960   30.8930    8.0320 O   0  0  0  0  0
   22.4845   28.7189    6.9658 H   0  0  0  0  0
   21.9971   28.3898    5.2332 H   0  0  0  0  0
   24.1956   28.8240    4.5441 H   0  0  0  0  0
   20.4136   33.9835    5.6013 H   0  0  0  0  0
   26.5278   28.5555    4.8968 H   0  0  0  0  0
   21.2084   30.1548    3.8216 H   0  0  0  0  0
   20.2563   32.4352    3.6664 H   0  0  0  0  0
   21.5902   33.2560    7.6668 H   0  0  0  0  0
   25.8229   29.5251    9.5887 H   0  0  0  0  0
   28.8826   28.3116    5.3854 H   0  0  0  0  0
   29.7487   29.3350    8.0484 H   0  0  0  0  0
   30.7570   29.2326    6.5167 H   0  0  0  0  0
   31.8418   27.1081    5.9145 H   0  0  0  0  0
   32.7834   24.9953    6.7703 H   0  0  0  0  0
   32.0926   24.1212    8.9946 H   0  0  0  0  0
   30.4665   25.4097   10.3676 H   0  0  0  0  0
   29.1806   27.2556   10.4551 H   0  0  0  0  0
   23.0050   29.9908    7.9216 H   0  0  0  0  0
  1  2  1  0  0  0
 10  1  1  0  0  0
  2  3  1  0  0  0
  3  5  4  0  0  0
  3 14  4  0  0  0
  4  8  4  0  0  0
  9  4  4  0  0  0
  5 11  4  0  0  0
  6  9  4  0  0  0
  6 10  4  0  0  0
  6 24  1  0  0  0
  8  7  4  0  0  0
  7 10  4  0  0  0
 11 12  4  0  0  0
 11 15  1  0  0  0
 12 13  4  0  0  0
 13 14  4  0  0  0
 15 16  1  0  0  0
 16 17  1  0  0  0
 17 18  4  0  0  0
 17 22  4  0  0  0
 18 19  4  0  0  0
 19 20  4  0  0  0
 20 21  4  0  0  0
 21 22  4  0  0  0
 22 23  1  0  0  0
  1 25  1  0  0  0
  1 26  1  0  0  0
  2 27  1  0  0  0
  4 28  1  0  0  0
  5 29  1  0  0  0
  7 30  1  0  0  0
  8 31  1  0  0  0
  9 32  1  0  0  0
 13 33  1  0  0  0
 15 34  1  0  0  0
 16 35  1  0  0  0
 16 36  1  0  0  0
 18 37  1  0  0  0
 19 38  1  0  0  0
 20 39  1  0  0  0
 21 40  1  0  0  0
 23 41  1  0  0  0
 24 42  1  0  0  0
M  END
$$$$
