5hor_ligand
  -I-interpret- 

 62 67  0  0  0  0  0  0  0  0999 V2000
   13.8810   -9.4020   60.1900 C   0  0  0  0  0
   15.6320  -11.0720   60.1270 C   0  0  0  0  0
   21.8550  -11.2520   58.6750 C   0  0  0  0  0
   13.1120  -10.2650   60.9420 C   0  0  0  0  0
   14.8590  -11.9250   60.8820 C   0  0  0  0  0
   21.1550  -10.6970   57.6270 C   0  0  0  0  0
   15.8870   -7.5130   59.3430 C   0  0  0  0  0
   16.7190   -6.6950   58.6920 C   0  0  0  0  0
   19.2040  -12.0270   58.0590 C   0  0  0  0  0
   15.1340   -9.8270   59.7920 C   0  0  0  0  0
   21.2080  -12.2210   59.4280 C   0  0  0  0  0
   13.6050  -11.5120   61.2810 C   0  0  0  0  0
   19.9060  -12.5790   59.1020 C   0  0  0  0  0
   19.8610  -11.0710   57.3260 C   0  0  0  0  0
   16.0120   -8.9510   59.0060 C   0  0  0  0  0
   17.6250   -7.2160   57.7580 C   0  0  0  0  0
   18.5780   -8.7810   56.6090 C   0  0  0  0  0
   20.8400  -13.7390   60.9940 C   0  0  0  0  0
   19.9120  -15.1220   62.7520 C   0  0  0  0  0
   16.4960  -17.0510   65.9320 C   0  0  0  0  0
   18.1280  -16.8970   67.8370 C   0  0  0  0  0
   15.8140  -18.1330   66.7410 C   0  0  0  0  0
   17.3100  -17.9900   68.4870 C   0  0  0  0  0
   19.4480  -16.6730   64.5770 C   0  0  0  0  0
   18.6670  -15.9580   65.6430 C   0  0  0  0  0
   21.7260  -12.8960   60.5090 N   0  0  0  0  0
   16.8330   -9.4760   58.1460 N   0  0  0  0  0
   19.1400   -7.6420   56.2680 N   0  0  0  0  0
   18.5360   -6.6520   56.9980 N   0  0  0  0  0
   17.6080   -8.5630   57.5410 N   0  0  0  0  0
   20.9940  -14.5840   62.0740 N   0  0  0  0  0
   20.3090  -15.7390   63.9120 N   0  0  0  0  0
   17.9180  -16.9970   66.3680 N   0  3  0  0  0
   18.7420  -15.0860   62.3950 O   0  0  0  0  0
   15.9500  -17.7900   68.1160 O   0  0  0  0  0
   12.8540  -12.3540   62.0190 F   0  0  0  0  0
   19.3330  -13.7870   60.1780 S   0  0  0  0  0
   18.9490  -10.3660   55.9830 S   0  0  0  0  0
   13.5112   -8.4135   59.9176 H   0  0  0  0  0
   16.6257  -11.3751   59.7971 H   0  0  0  0  0
   22.8750  -10.9428   58.9034 H   0  0  0  0  0
   12.1165   -9.9647   61.2690 H   0  0  0  0  0
   15.2319  -12.9108   61.1600 H   0  0  0  0  0
   21.6393   -9.9365   57.0144 H   0  0  0  0  0
   15.1648   -7.1474   60.0729 H   0  0  0  0  0
   16.6932   -5.6229   58.8872 H   0  0  0  0  0
   18.1833  -12.3308   57.8266 H   0  0  0  0  0
   16.0101  -16.0890   66.0952 H   0  0  0  0  0
   16.4317  -17.2732   64.8668 H   0  0  0  0  0
   19.1839  -17.0144   68.0805 H   0  0  0  0  0
   17.8156  -15.9184   68.2015 H   0  0  0  0  0
   16.2716  -19.1023   66.5431 H   0  0  0  0  0
   14.7610  -18.2056   66.4688 H   0  0  0  0  0
   17.4176  -17.9512   69.5710 H   0  0  0  0  0
   17.6539  -18.9698   68.1556 H   0  0  0  0  0
   18.7605  -17.1130   63.8547 H   0  0  0  0  0
   20.0476  -17.4617   65.0315 H   0  0  0  0  0
   17.9941  -15.2187   65.2087 H   0  0  0  0  0
   19.3280  -15.4092   66.3137 H   0  0  0  0  0
   21.9366  -14.8206   62.3838 H   0  0  0  0  0
   21.2268  -15.5308   64.3054 H   0  0  0  0  0
   18.2965  -17.9104   66.1174 H   0  0  0  0  0
  1  4  4  0  0  0
 10  1  4  0  0  0
  2  5  4  0  0  0
 10  2  4  0  0  0
  3  6  4  0  0  0
 11  3  4  0  0  0
  4 12  4  0  0  0
  5 12  4  0  0  0
 14  6  4  0  0  0
  8  7  4  0  0  0
  7 15  4  0  0  0
 16  8  4  0  0  0
 13  9  4  0  0  0
  9 14  4  0  0  0
 15 10  1  0  0  0
 13 11  4  0  0  0
 26 11  4  0  0  0
 12 36  1  0  0  0
 37 13  4  0  0  0
 14 38  1  0  0  0
 15 27  4  0  0  0
 16 29  4  0  0  0
 30 16  4  0  0  0
 17 28  4  0  0  0
 17 30  4  0  0  0
 38 17  1  0  0  0
 18 26  4  0  0  0
 31 18  1  0  0  0
 18 37  4  0  0  0
 19 31  1  0  0  0
 32 19  1  0  0  0
 19 34  2  0  0  0
 20 22  1  0  0  0
 33 20  1  0  0  0
 21 23  1  0  0  0
 33 21  1  0  0  0
 22 35  1  0  0  0
 23 35  1  0  0  0
 25 24  1  0  0  0
 24 32  1  0  0  0
 25 33  1  0  0  0
 27 30  4  0  0  0
 28 29  4  0  0  0
  1 39  1  0  0  0
  2 40  1  0  0  0
  3 41  1  0  0  0
  4 42  1  0  0  0
  5 43  1  0  0  0
  6 44  1  0  0  0
  7 45  1  0  0  0
  8 46  1  0  0  0
  9 47  1  0  0  0
 20 48  1  0  0  0
 20 49  1  0  0  0
 21 50  1  0  0  0
 21 51  1  0  0  0
 22 52  1  0  0  0
 22 53  1  0  0  0
 23 54  1  0  0  0
 23 55  1  0  0  0
 24 56  1  0  0  0
 24 57  1  0  0  0
 25 58  1  0  0  0
 25 59  1  0  0  0
 31 60  1  0  0  0
 32 61  1  0  0  0
 33 62  1  0  0  0
M  END
$$$$
