1u3q_ligand
  -I-interpret- 

 27 29  0  0  0  0  0  0  0  0999 V2000
   19.9970   -4.2710   17.3730 C   0  0  0  0  0
   20.4640   -4.2460   16.0270 C   0  0  0  0  0
   19.5010   -4.1030   14.9980 C   0  0  0  0  0
   18.0940   -3.9840   15.2330 C   0  0  0  0  0
   17.6060   -4.0080   16.6170 C   0  0  0  0  0
   18.5750   -4.1540   17.6880 C   0  0  0  0  0
   19.7190   -4.0450   13.6830 O   0  0  0  0  0
   18.5560   -3.8930   13.1000 N   0  0  0  0  0
   17.4520   -3.8540   13.9310 C   0  0  0  0  0
   16.0100   -3.6420   13.4810 C   0  0  0  0  0
   15.7170   -3.3960   12.0780 C   0  0  0  0  0
   14.3850   -3.1850   11.6060 C   0  0  0  0  0
   13.3140   -3.2140   12.5310 C   0  0  0  0  0
   13.5740   -3.4580   13.9290 C   0  0  0  0  0
   14.9240   -3.6720   14.4110 C   0  0  0  0  0
   12.1580   -3.0310   12.1340 O   0  0  0  0  0
   16.5820   -3.3550   11.2110 O   0  0  0  0  0
   20.8390   -4.3920   18.2710 O   0  0  0  0  0
   21.5258   -4.3339   15.7970 H   0  0  0  0  0
   16.5419   -3.9184   16.8353 H   0  0  0  0  0
   18.2423   -4.1763   18.7257 H   0  0  0  0  0
   14.1961   -3.0041   10.5478 H   0  0  0  0  0
   12.7425   -3.4818   14.6334 H   0  0  0  0  0
   15.1093   -3.8536   15.4697 H   0  0  0  0  0
   11.5536   -3.0815   12.8781 H   0  0  0  0  0
   16.1727   -3.1812   10.3602 H   0  0  0  0  0
   20.3978   -4.3947   19.1236 H   0  0  0  0  0
  1  2  4  0  0  0
  1  6  4  0  0  0
  1 18  1  0  0  0
  2  3  4  0  0  0
  3  4  4  0  0  0
  3  7  4  0  0  0
  4  5  4  0  0  0
  4  9  4  0  0  0
  5  6  4  0  0  0
  7  8  4  0  0  0
  8  9  4  0  0  0
  9 10  1  0  0  0
 10 11  4  0  0  0
 10 15  4  0  0  0
 11 12  4  0  0  0
 11 17  1  0  0  0
 12 13  4  0  0  0
 13 14  4  0  0  0
 13 16  1  0  0  0
 14 15  4  0  0  0
  2 19  1  0  0  0
  5 20  1  0  0  0
  6 21  1  0  0  0
 12 22  1  0  0  0
 14 23  1  0  0  0
 15 24  1  0  0  0
 16 25  1  0  0  0
 17 26  1  0  0  0
 18 27  1  0  0  0
M  END
$$$$
