4ykn_ligand
  -I-interpret- 

 56 59  0  0  0  0  0  0  0  0999 V2000
    0.7280    2.5560  -41.4180 C   0  0  0  0  0
   -1.1500    6.2070  -39.7110 C   0  0  0  0  0
   -0.3140    6.0820  -37.4650 C   0  0  0  0  0
   -2.2280    4.3430  -35.5750 C   0  0  0  0  0
   -3.8930    0.7910  -36.5660 C   0  0  0  0  0
   -3.5580   -1.8830  -38.3040 C   0  0  0  0  0
   -2.7840   -2.3170  -39.3850 O   0  0  0  0  0
   -1.8230   -1.3980  -39.8270 C   0  0  0  0  0
   -1.8890   -0.0840  -39.3950 C   0  0  0  0  0
   -0.9310    0.8060  -39.8470 C   0  0  0  0  0
    0.0460    0.3500  -40.7200 C   0  0  0  0  0
    0.0500   -0.9810  -41.1080 C   0  0  0  0  0
   -0.8780   -1.8080  -40.6580 N   0  0  0  0  0
    1.0260    1.2200  -41.1850 C   0  0  0  0  0
    1.7170    3.4190  -41.8780 C   0  0  0  0  0
    1.4140    4.8930  -42.1390 C   0  0  0  0  0
    0.1280    5.2740  -41.5880 N   0  0  0  0  0
   -0.0180    5.5500  -40.1680 C   0  0  0  0  0
   -1.2990    6.4720  -38.3580 C   0  0  0  0  0
    0.8200    5.4240  -37.9180 C   0  0  0  0  0
    0.9670    5.1590  -39.2710 C   0  0  0  0  0
   -0.5250    6.4350  -35.6950 S   0  0  0  0  0
   -0.5240    7.8780  -35.4390 O   0  0  0  0  0
    0.6230    5.9730  -34.9130 O   0  0  0  0  0
   -1.9580    5.6960  -35.1350 N   0  0  0  0  0
   -1.3410    3.4860  -36.0450 N   0  0  0  0  0
   -1.8230    2.2630  -36.4020 N   0  0  0  0  0
   -3.1190    2.0650  -36.2400 C   0  0  0  0  0
   -3.7520    3.5340  -35.5900 S   0  0  0  0  0
    2.9970    2.9480  -42.1020 C   0  0  0  0  0
    3.2920    1.6190  -41.8680 C   0  0  0  0  0
    2.3090    0.7530  -41.4100 C   0  0  0  0  0
    4.7100    1.1160  -42.1220 C   0  0  0  0  0
    5.6930    1.7610  -41.6640 O   0  0  0  0  0
    4.8950    0.0550  -42.7760 O   0  0  0  0  0
   -0.2809    2.9284  -41.2404 H   0  0  0  0  0
   -1.9229    6.5152  -40.4151 H   0  0  0  0  0
   -3.7912    0.5672  -37.6279 H   0  0  0  0  0
   -3.4930   -0.0359  -35.9792 H   0  0  0  0  0
   -4.9458    0.9348  -36.3230 H   0  0  0  0  0
   -2.9082   -1.6742  -37.4542 H   0  0  0  0  0
   -4.0949   -0.9766  -38.5839 H   0  0  0  0  0
   -4.2721   -2.6612  -38.0344 H   0  0  0  0  0
   -2.6766    0.2412  -38.7153 H   0  0  0  0  0
   -0.9437    1.8467  -39.5230 H   0  0  0  0  0
    0.8208   -1.3468  -41.7863 H   0  0  0  0  0
    1.3912    5.0563  -43.2165 H   0  0  0  0  0
    2.1872    5.4952  -41.6620 H   0  0  0  0  0
   -0.6824    5.3491  -42.2028 H   0  0  0  0  0
   -2.1898    6.9864  -37.9975 H   0  0  0  0  0
    1.5925    5.1165  -37.2131 H   0  0  0  0  0
    1.8571    4.6430  -39.6309 H   0  0  0  0  0
   -2.5999    6.1887  -34.5140 H   0  0  0  0  0
    3.7722    3.6241  -42.4626 H   0  0  0  0  0
    2.5475   -0.2948  -41.2276 H   0  0  0  0  0
    5.3753    2.5366  -41.1960 H   0  0  0  0  0
  1 14  4  0  0  0
 15  1  4  0  0  0
  2 18  4  0  0  0
 19  2  4  0  0  0
  3 19  4  0  0  0
  3 20  4  0  0  0
 22  3  1  0  0  0
  4 25  1  0  0  0
 26  4  4  0  0  0
  4 29  4  0  0  0
 28  5  1  0  0  0
  7  6  1  0  0  0
  8  7  1  0  0  0
  9  8  4  0  0  0
 13  8  4  0  0  0
 10  9  4  0  0  0
 11 10  4  0  0  0
 11 12  4  0  0  0
 14 11  1  0  0  0
 12 13  4  0  0  0
 14 32  4  0  0  0
 16 15  1  0  0  0
 15 30  4  0  0  0
 17 16  1  0  0  0
 18 17  1  0  0  0
 21 18  4  0  0  0
 20 21  4  0  0  0
 22 23  2  0  0  0
 22 24  2  0  0  0
 25 22  1  0  0  0
 27 26  4  0  0  0
 27 28  4  0  0  0
 28 29  4  0  0  0
 30 31  4  0  0  0
 31 32  4  0  0  0
 31 33  1  0  0  0
 33 34  1  0  0  0
 33 35  2  0  0  0
  1 36  1  0  0  0
  2 37  1  0  0  0
  5 38  1  0  0  0
  5 39  1  0  0  0
  5 40  1  0  0  0
  6 41  1  0  0  0
  6 42  1  0  0  0
  6 43  1  0  0  0
  9 44  1  0  0  0
 10 45  1  0  0  0
 12 46  1  0  0  0
 16 47  1  0  0  0
 16 48  1  0  0  0
 17 49  1  0  0  0
 19 50  1  0  0  0
 20 51  1  0  0  0
 21 52  1  0  0  0
 25 53  1  0  0  0
 30 54  1  0  0  0
 32 55  1  0  0  0
 34 56  1  0  0  0
M  END
$$$$
