2a0t_ligand
  -I-interpret- 

163164  0  0  0  0  0  0  0  0999 V2000
    7.3530  -11.7920  -28.6130 N   0  3  0  0  0
    6.2150  -11.5090  -29.5260 C   0  0  0  0  0
    5.0520  -12.4640  -29.2710 C   0  0  0  0  0
    4.3340  -12.8450  -30.1950 O   0  0  0  0  0
    6.7040  -11.6420  -30.9710 C   0  0  0  0  0
    6.5450  -10.3550  -31.7560 C   0  0  0  0  0
    6.3440   -9.2850  -31.1810 O   0  0  0  0  0
    6.6350  -10.4520  -33.0770 N   0  0  0  0  0
    4.8720  -12.8470  -28.0110 N   0  0  0  0  0
    3.7970  -13.7580  -27.6350 C   0  0  0  0  0
    3.3330  -13.4870  -26.2040 C   0  0  0  0  0
    4.1410  -13.1710  -25.3310 O   0  0  0  0  0
    4.2600  -15.2100  -27.7720 C   0  0  0  0  0
    3.3540  -16.0230  -28.6770 C   0  0  0  0  0
    3.0130  -15.5300  -29.7720 O   0  0  0  0  0
    2.9860  -17.1520  -28.2900 O   0  0  0  0  0
    2.0180  -13.6080  -25.9430 N   0  0  0  0  0
    1.4540  -13.3740  -24.6110 C   0  0  0  0  0
    1.7540  -14.5160  -23.6470 C   0  0  0  0  0
    2.5720  -15.3900  -23.9380 O   0  0  0  0  0
   -0.0470  -13.2800  -24.8790 C   0  0  0  0  0
   -0.2650  -14.1190  -26.0900 C   0  0  0  0  0
    0.9810  -13.9810  -26.9250 C   0  0  0  0  0
    1.0880  -14.5050  -22.4960 N   0  0  0  0  0
    1.2840  -15.5410  -21.4890 C   0  0  0  0  0
    0.2320  -15.4400  -20.3890 C   0  0  0  0  0
    0.2880  -14.5480  -19.5420 O   0  0  0  0  0
    2.6850  -15.4350  -20.8830 C   0  0  0  0  0
    3.2740  -16.7920  -20.5520 C   0  0  0  0  0
    3.4420  -17.6090  -21.4810 O   0  0  0  0  0
    3.5670  -17.0380  -19.3620 O   0  0  0  0  0
   -0.7250  -16.3610  -20.4070 N   0  0  0  0  0
   -1.7910  -16.3790  -19.4120 C   0  0  0  0  0
   -3.1790  -16.2750  -20.0780 C   0  0  0  0  0
   -4.2910  -16.3220  -19.0400 C   0  0  0  0  0
   -3.2690  -15.0800  -20.8040 O   0  0  0  0  0
   -3.6810  -15.1620  -22.3060 P   0  0  0  0  0
   -5.1970  -15.4850  -22.2810 O   0  0  0  0  0
   -3.4780  -13.7250  -22.8490 O   0  0  0  0  0
   -2.8870  -16.1840  -23.0680 O   0  0  0  0  0
   -1.7260  -17.6530  -18.5720 C   0  0  0  0  0
   -1.5370  -18.7480  -19.1030 O   0  0  0  0  0
   -1.8800  -17.5030  -17.2590 N   0  0  0  0  0
   -1.8330  -18.6440  -16.3510 C   0  0  0  0  0
   -2.6290  -18.3730  -15.0770 C   0  0  0  0  0
   -3.2320  -17.3110  -14.9220 O   0  0  0  0  0
   -0.3830  -18.9830  -15.9930 C   0  0  0  0  0
    0.5340  -17.7800  -15.7450 C   0  0  0  0  0
    0.9240  -17.1240  -17.0610 C   0  0  0  0  0
   -0.1310  -16.7740  -14.8150 C   0  0  0  0  0
   -2.6200  -19.3430  -14.1670 N   0  0  0  0  0
   -3.3340  -19.2180  -12.9020 C   0  0  0  0  0
   -2.5170  -19.8110  -11.7570 C   0  0  0  0  0
   -2.8380  -20.8850  -11.2500 O   0  0  0  0  0
   -4.6930  -19.9150  -12.9890 C   0  0  0  0  0
   -5.5780  -19.3810  -14.1030 C   0  0  0  0  0
   -6.9420  -20.0430  -14.1320 C   0  0  0  0  0
   -6.9980  -21.2830  -14.2740 O   0  0  0  0  0
   -7.9540  -19.3220  -14.0140 O   0  0  0  0  0
   -1.4560  -19.0990  -11.3670 N   0  0  0  0  0
   -0.5610  -19.5280  -10.2860 C   0  0  0  0  0
   -0.0970  -20.9750  -10.4650 C   0  0  0  0  0
   -0.7410  -21.7730  -11.1440 O   0  0  0  0  0
   -1.2090  -19.3560   -8.8890 C   0  0  0  0  0
   -0.2330  -19.7760   -7.7860 C   0  0  0  0  0
   -2.4980  -20.1520   -8.7790 C   0  0  0  0  0
   -0.7730  -19.5690   -6.3870 C   0  0  0  0  0
    1.0370  -21.3010   -9.8540 N   0  0  0  0  0
    1.5990  -22.6450   -9.9420 C   0  0  0  0  0
    1.3900  -23.4070   -8.6370 C   0  0  0  0  0
    1.5020  -22.8400   -7.5510 O   0  0  0  0  0
    3.0920  -22.5780  -10.2740 C   0  0  0  0  0
    3.8290  -21.4750   -9.5480 C   0  0  0  0  0
    4.0600  -21.5480   -8.1800 C   0  0  0  0  0
    4.2920  -20.3580  -10.2320 C   0  0  0  0  0
    4.7320  -20.5400   -7.5150 C   0  0  0  0  0
    4.9650  -19.3470   -9.5750 C   0  0  0  0  0
    5.1810  -19.4410   -8.2170 C   0  0  0  0  0
    5.8500  -18.4350   -7.5590 O   0  0  0  0  0
    1.0870  -24.6950   -8.7540 N   0  0  0  0  0
    0.8640  -25.5360   -7.5840 C   0  0  0  0  0
    0.7040  -26.9980   -7.9850 C   0  0  0  0  0
    1.0010  -27.3250   -9.1540 O   0  0  0  0  0
   -0.3750  -25.0660   -6.8210 C   0  0  0  0  0
   -0.2180  -25.2530   -5.4250 O   0  0  0  0  0
    0.2830  -27.8040   -7.1290 O   0  0  0  0  0
    7.0406  -11.7068  -27.6458 H   0  0  0  0  0
    7.6935  -12.7390  -28.7794 H   0  0  0  0  0
    8.1032  -11.1238  -28.7894 H   0  0  0  0  0
    5.8529  -10.4971  -29.3442 H   0  0  0  0  0
    6.1060  -12.4111  -31.4598 H   0  0  0  0  0
    7.7644  -11.8930  -30.9463 H   0  0  0  0  0
    6.5367   -9.6190  -33.6574 H   0  0  0  0  0
    6.8025  -11.3595  -33.5115 H   0  0  0  0  0
    5.5011  -12.4951  -27.2894 H   0  0  0  0  0
    2.9560  -13.5901  -28.3077 H   0  0  0  0  0
    4.2427  -15.6643  -26.7814 H   0  0  0  0  0
    5.2582  -15.2058  -28.2099 H   0  0  0  0  0
    3.3628  -17.3312  -27.4254 H   0  0  0  0  0
    1.8738  -12.4865  -24.1375 H   0  0  0  0  0
   -0.3701  -12.2504  -25.0327 H   0  0  0  0  0
   -0.6354  -13.6285  -24.0302 H   0  0  0  0  0
   -1.1465  -13.7922  -26.6416 H   0  0  0  0  0
   -0.4447  -15.1597  -25.8205 H   0  0  0  0  0
    1.2262  -14.8972  -27.4622 H   0  0  0  0  0
    0.8717  -13.2404  -27.7172 H   0  0  0  0  0
    0.4235  -13.7531  -22.3131 H   0  0  0  0  0
    1.1792  -16.5098  -21.9774 H   0  0  0  0  0
    2.6103  -14.8643  -19.9574 H   0  0  0  0  0
    3.3342  -14.9544  -21.6150 H   0  0  0  0  0
    3.3570  -16.2756  -18.8177 H   0  0  0  0  0
   -0.7140  -17.0744  -21.1359 H   0  0  0  0  0
   -1.6465  -15.5137  -18.7651 H   0  0  0  0  0
   -3.2970  -17.1256  -20.7493 H   0  0  0  0  0
   -4.2362  -17.2633  -18.4931 H   0  0  0  0  0
   -4.1739  -15.4897  -18.3460 H   0  0  0  0  0
   -5.2565  -16.2466  -19.5401 H   0  0  0  0  0
   -5.6596  -14.8060  -21.7845 H   0  0  0  0  0
   -4.0040  -13.1112  -22.3312 H   0  0  0  0  0
   -2.0344  -16.5693  -16.8786 H   0  0  0  0  0
   -2.2850  -19.4930  -16.8639 H   0  0  0  0  0
    0.0309  -19.5177  -16.8479 H   0  0  0  0  0
   -0.4170  -19.5450  -15.0597 H   0  0  0  0  0
    1.4419  -18.1380  -15.2597 H   0  0  0  0  0
    1.4500  -17.8473  -17.6842 H   0  0  0  0  0
    0.0257  -16.7839  -17.5762 H   0  0  0  0  0
    1.5748  -16.2725  -16.8622 H   0  0  0  0  0
   -1.0585  -16.4218  -15.2664 H   0  0  0  0  0
   -0.3489  -17.2526  -13.8602 H   0  0  0  0  0
    0.5401  -15.9301  -14.6551 H   0  0  0  0  0
   -2.0989  -20.1984  -14.3596 H   0  0  0  0  0
   -3.4898  -18.1577  -12.7031 H   0  0  0  0  0
   -5.2117  -19.7403  -12.0464 H   0  0  0  0  0
   -4.5079  -20.9693  -13.1946 H   0  0  0  0  0
   -5.0842  -19.5884  -15.0523 H   0  0  0  0  0
   -5.7262  -18.3148  -13.9318 H   0  0  0  0  0
   -6.1082  -21.6363  -14.3452 H   0  0  0  0  0
   -1.2592  -18.2179  -11.8417 H   0  0  0  0  0
    0.3105  -18.8759  -10.3437 H   0  0  0  0  0
   -1.4492  -18.3003   -8.7625 H   0  0  0  0  0
    0.6591  -19.1578   -7.8865 H   0  0  0  0  0
   -0.0417  -20.8421   -7.9078 H   0  0  0  0  0
   -3.2030  -19.8057   -9.5348 H   0  0  0  0  0
   -2.2851  -21.2094   -8.9362 H   0  0  0  0  0
   -2.9277  -20.0101   -7.7874 H   0  0  0  0  0
   -0.9979  -18.5129   -6.2383 H   0  0  0  0  0
   -1.6819  -20.1569   -6.2591 H   0  0  0  0  0
   -0.0266  -19.8887   -5.6598 H   0  0  0  0  0
    1.5281  -20.5926   -9.3086 H   0  0  0  0  0
    1.0813  -23.1765  -10.7405 H   0  0  0  0  0
    3.1791  -22.3792  -11.3422 H   0  0  0  0  0
    3.5366  -23.5242   -9.9655 H   0  0  0  0  0
    3.7054  -22.4146   -7.6220 H   0  0  0  0  0
    4.1211  -20.2783  -11.3056 H   0  0  0  0  0
    4.9062  -20.6131   -6.4415 H   0  0  0  0  0
    5.3237  -18.4787  -10.1277 H   0  0  0  0  0
    6.0923  -17.7498   -8.1862 H   0  0  0  0  0
    1.0085  -25.1055   -9.6845 H   0  0  0  0  0
    1.7362  -25.4503   -6.9358 H   0  0  0  0  0
    1.3004  -26.5503   -9.6355 H   0  0  0  0  0
   -1.2324  -25.6496   -7.1562 H   0  0  0  0  0
   -0.5215  -24.0036   -7.0156 H   0  0  0  0  0
   -1.0083  -24.9503   -4.9719 H   0  0  0  0  0
  1  2  1  0  0  0
  2  3  1  0  0  0
  2  5  1  0  0  0
  3  4  2  0  0  0
  3  9  1  0  0  0
  5  6  1  0  0  0
  6  7  2  0  0  0
  6  8  1  0  0  0
  9 10  1  0  0  0
 10 11  1  0  0  0
 10 13  1  0  0  0
 11 12  2  0  0  0
 11 17  1  0  0  0
 13 14  1  0  0  0
 14 15  2  0  0  0
 14 16  1  0  0  0
 17 18  1  0  0  0
 17 23  1  0  0  0
 18 19  1  0  0  0
 18 21  1  0  0  0
 19 20  2  0  0  0
 19 24  1  0  0  0
 21 22  1  0  0  0
 22 23  1  0  0  0
 24 25  1  0  0  0
 25 26  1  0  0  0
 25 28  1  0  0  0
 26 27  2  0  0  0
 26 32  1  0  0  0
 28 29  1  0  0  0
 29 30  2  0  0  0
 29 31  1  0  0  0
 32 33  1  0  0  0
 33 34  1  0  0  0
 33 41  1  0  0  0
 34 35  1  0  0  0
 34 36  1  0  0  0
 36 37  1  0  0  0
 37 38  1  0  0  0
 37 39  1  0  0  0
 37 40  2  0  0  0
 41 42  2  0  0  0
 41 43  1  0  0  0
 43 44  1  0  0  0
 44 45  1  0  0  0
 44 47  1  0  0  0
 45 46  2  0  0  0
 45 51  1  0  0  0
 47 48  1  0  0  0
 48 49  1  0  0  0
 48 50  1  0  0  0
 51 52  1  0  0  0
 52 53  1  0  0  0
 52 55  1  0  0  0
 53 54  2  0  0  0
 53 60  1  0  0  0
 55 56  1  0  0  0
 56 57  1  0  0  0
 57 58  1  0  0  0
 57 59  2  0  0  0
 60 61  1  0  0  0
 61 62  1  0  0  0
 61 64  1  0  0  0
 62 63  2  0  0  0
 62 68  1  0  0  0
 64 65  1  0  0  0
 64 66  1  0  0  0
 65 67  1  0  0  0
 68 69  1  0  0  0
 69 70  1  0  0  0
 69 72  1  0  0  0
 70 71  2  0  0  0
 70 80  1  0  0  0
 72 73  1  0  0  0
 73 74  4  0  0  0
 73 75  4  0  0  0
 74 76  4  0  0  0
 75 77  4  0  0  0
 76 78  4  0  0  0
 77 78  4  0  0  0
 78 79  1  0  0  0
 80 81  1  0  0  0
 81 82  1  0  0  0
 81 84  1  0  0  0
 82 83  1  0  0  0
 82 86  2  0  0  0
 84 85  1  0  0  0
  1 87  1  0  0  0
  1 88  1  0  0  0
  1 89  1  0  0  0
  2 90  1  0  0  0
  5 91  1  0  0  0
  5 92  1  0  0  0
  8 93  1  0  0  0
  8 94  1  0  0  0
  9 95  1  0  0  0
 10 96  1  0  0  0
 13 97  1  0  0  0
 13 98  1  0  0  0
 16 99  1  0  0  0
 18100  1  0  0  0
 21101  1  0  0  0
 21102  1  0  0  0
 22103  1  0  0  0
 22104  1  0  0  0
 23105  1  0  0  0
 23106  1  0  0  0
 24107  1  0  0  0
 25108  1  0  0  0
 28109  1  0  0  0
 28110  1  0  0  0
 31111  1  0  0  0
 32112  1  0  0  0
 33113  1  0  0  0
 34114  1  0  0  0
 35115  1  0  0  0
 35116  1  0  0  0
 35117  1  0  0  0
 38118  1  0  0  0
 39119  1  0  0  0
 43120  1  0  0  0
 44121  1  0  0  0
 47122  1  0  0  0
 47123  1  0  0  0
 48124  1  0  0  0
 49125  1  0  0  0
 49126  1  0  0  0
 49127  1  0  0  0
 50128  1  0  0  0
 50129  1  0  0  0
 50130  1  0  0  0
 51131  1  0  0  0
 52132  1  0  0  0
 55133  1  0  0  0
 55134  1  0  0  0
 56135  1  0  0  0
 56136  1  0  0  0
 58137  1  0  0  0
 60138  1  0  0  0
 61139  1  0  0  0
 64140  1  0  0  0
 65141  1  0  0  0
 65142  1  0  0  0
 66143  1  0  0  0
 66144  1  0  0  0
 66145  1  0  0  0
 67146  1  0  0  0
 67147  1  0  0  0
 67148  1  0  0  0
 68149  1  0  0  0
 69150  1  0  0  0
 72151  1  0  0  0
 72152  1  0  0  0
 74153  1  0  0  0
 75154  1  0  0  0
 76155  1  0  0  0
 77156  1  0  0  0
 79157  1  0  0  0
 80158  1  0  0  0
 81159  1  0  0  0
 83160  1  0  0  0
 84161  1  0  0  0
 84162  1  0  0  0
 85163  1  0  0  0
M  END
$$$$
