### 
### Created by X-TOOL on Mon Sep 10 21:12:53 2018
### 

@<TRIPOS>MOLECULE
2a0t_ligand
  157   158     1     0     0
SMALL
GAST_HUCK


@<TRIPOS>ATOM
      1 N           7.3530  -11.7920  -28.6130 N.4       1 ASN         0.2396
      2 CA          6.2150  -11.5090  -29.5260 C.3       1 ASN         0.0818
      3 C           5.0520  -12.4640  -29.2710 C.2       1 ASN         0.2292
      4 O           4.3340  -12.8450  -30.1950 O.2       1 ASN        -0.3905
      5 CB          6.7040  -11.6420  -30.9710 C.3       1 ASN         0.0972
      6 CG          6.5450  -10.3550  -31.7560 C.2       1 ASN         0.1813
      7 OD1         6.3440   -9.2850  -31.1810 O.2       1 ASN        -0.3969
      8 ND2         6.6350  -10.4520  -33.0770 N.am      1 ASN        -0.3006
      9 N           4.8720  -12.8470  -28.0110 N.am      1 ASP        -0.2593
     10 CA          3.7970  -13.7580  -27.6350 C.3       1 ASP         0.1426
     11 C           3.3330  -13.4870  -26.2040 C.2       1 ASP         0.2081
     12 O           4.1410  -13.1710  -25.3310 O.2       1 ASP        -0.3941
     13 CB          4.2600  -15.2100  -27.7720 C.3       1 ASP         0.0406
     14 CG          3.3540  -16.0230  -28.6770 C.2       1 ASP         0.0393
     15 OD1         3.0130  -15.5300  -29.7720 O.co2     1 ASP        -0.5688
     16 OD2         2.9860  -17.1520  -28.2900 O.co2     1 ASP        -0.5688
     17 N           2.0180  -13.6080  -25.9430 N.am      1 PRO        -0.2497
     18 CA          1.4540  -13.3740  -24.6110 C.3       1 PRO         0.1338
     19 C           1.7540  -14.5160  -23.6470 C.2       1 PRO         0.2042
     20 O           2.5720  -15.3900  -23.9380 O.2       1 PRO        -0.3944
     21 CB         -0.0470  -13.2800  -24.8790 C.3       1 PRO        -0.0104
     22 CG         -0.2650  -14.1190  -26.0900 C.3       1 PRO        -0.0281
     23 CD          0.9810  -13.9810  -26.9250 C.3       1 PRO         0.0369
     24 N           1.0880  -14.5050  -22.4960 N.am      1 ASP        -0.2622
     25 CA          1.2840  -15.5410  -21.4890 C.3       1 ASP         0.1423
     26 C           0.2320  -15.4400  -20.3890 C.2       1 ASP         0.2057
     27 O           0.2880  -14.5480  -19.5420 O.2       1 ASP        -0.3943
     28 CB          2.6850  -15.4350  -20.8830 C.3       1 ASP         0.0406
     29 CG          3.2740  -16.7920  -20.5520 C.2       1 ASP         0.0393
     30 OD1         3.4420  -17.6090  -21.4810 O.co2     1 ASP        -0.5688
     31 OD2         3.5670  -17.0380  -19.3620 O.co2     1 ASP        -0.5688
     32 N          -0.7250  -16.3610  -20.4070 N.am      1 TPO        -0.2610
     33 CA         -1.7910  -16.3790  -19.4120 C.3       1 TPO         0.1612
     34 CB         -3.1790  -16.2750  -20.0780 C.3       1 TPO         0.1262
     35 CG2        -4.2910  -16.3220  -19.0400 C.3       1 TPO        -0.0298
     36 OG1        -3.2690  -15.0800  -20.8040 O.3       1 TPO        -0.2685
     37 P          -3.6810  -15.1620  -22.3060 P.3       1 TPO         0.2014
     38 O1P        -5.1970  -15.4850  -22.2810 O.co2     1 TPO        -0.5537
     39 O2P        -3.4780  -13.7250  -22.8490 O.co2     1 TPO        -0.5537
     40 O3P        -2.8870  -16.1840  -23.0680 O.co2     1 TPO        -0.5537
     41 C          -1.7260  -17.6530  -18.5720 C.2       1 TPO         0.2068
     42 O          -1.5370  -18.7480  -19.1030 O.2       1 TPO        -0.3943
     43 N          -1.8800  -17.5030  -17.2590 N.am      1 LEU        -0.2636
     44 CA         -1.8330  -18.6440  -16.3510 C.3       1 LEU         0.1312
     45 C          -2.6290  -18.3730  -15.0770 C.2       1 LEU         0.2039
     46 O          -3.2320  -17.3110  -14.9220 O.2       1 LEU        -0.3944
     47 CB         -0.3830  -18.9830  -15.9930 C.3       1 LEU        -0.0101
     48 CG          0.5340  -17.7800  -15.7450 C.3       1 LEU        -0.0425
     49 CD1         0.9240  -17.1240  -17.0610 C.3       1 LEU        -0.0625
     50 CD2        -0.1310  -16.7740  -14.8150 C.3       1 LEU        -0.0625
     51 N          -2.6200  -19.3430  -14.1670 N.am      1 GLU        -0.2636
     52 CA         -3.3340  -19.2180  -12.9020 C.3       1 GLU         0.1325
     53 C          -2.5170  -19.8110  -11.7570 C.2       1 GLU         0.2040
     54 O          -2.8380  -20.8850  -11.2500 O.2       1 GLU        -0.3944
     55 CB         -4.6930  -19.9150  -12.9890 C.3       1 GLU        -0.0008
     56 CG         -5.5780  -19.3810  -14.1030 C.3       1 GLU         0.0044
     57 CD         -6.9420  -20.0430  -14.1320 C.2       1 GLU         0.0350
     58 OE1        -6.9980  -21.2830  -14.2740 O.co2     1 GLU        -0.5690
     59 OE2        -7.9540  -19.3220  -14.0140 O.co2     1 GLU        -0.5690
     60 N          -1.4560  -19.0990  -11.3670 N.am      1 ILE        -0.2635
     61 CA         -0.5610  -19.5280  -10.2860 C.3       1 ILE         0.1335
     62 C          -0.0970  -20.9750  -10.4650 C.2       1 ILE         0.2043
     63 O          -0.7410  -21.7730  -11.1440 O.2       1 ILE        -0.3944
     64 CB         -1.2090  -19.3560   -8.8890 C.3       1 ILE        -0.0037
     65 CG1        -0.2330  -19.7760   -7.7860 C.3       1 ILE        -0.0491
     66 CG2        -2.4980  -20.1520   -8.7790 C.3       1 ILE        -0.0582
     67 CD1        -0.7730  -19.5690   -6.3870 C.3       1 ILE        -0.0648
     68 N           1.0370  -21.3010   -9.8540 N.am      1 TYR        -0.2621
     69 CA          1.5990  -22.6450   -9.9420 C.3       1 TYR         0.1390
     70 C           1.3900  -23.4070   -8.6370 C.2       1 TYR         0.2053
     71 O           1.5020  -22.8400   -7.5510 O.2       1 TYR        -0.3942
     72 CB          3.0920  -22.5780  -10.2740 C.3       1 TYR         0.0163
     73 CG          3.8290  -21.4750   -9.5480 C.ar      1 TYR        -0.0493
     74 CD1         4.0600  -21.5480   -8.1800 C.ar      1 TYR        -0.0685
     75 CD2         4.2920  -20.3580  -10.2320 C.ar      1 TYR        -0.0685
     76 CE1         4.7320  -20.5400   -7.5150 C.ar      1 TYR        -0.0398
     77 CE2         4.9650  -19.3470   -9.5750 C.ar      1 TYR        -0.0398
     78 CZ          5.1810  -19.4410   -8.2170 C.ar      1 TYR         0.0805
     79 OH          5.8500  -18.4350   -7.5590 O.3       1 TYR        -0.3376
     80 N           1.0870  -24.6950   -8.7540 N.am      1 SER        -0.2671
     81 CA          0.8640  -25.5360   -7.5840 C.3       1 SER         0.1173
     82 C           0.7040  -26.9980   -7.9850 C.2       1 SER         0.0623
     83 O           1.0010  -27.3250   -9.1540 O.co2     1 SER        -0.5665
     84 CB         -0.3750  -25.0660   -6.8210 C.3       1 SER         0.0789
     85 OG         -0.2180  -25.2530   -5.4250 O.3       1 SER        -0.3910
     86 OXT         0.2830  -27.8040   -7.1290 O.co2     1 SER        -0.5665
     87 H1          8.1047  -11.1480  -28.8034 H         1 ASN         0.2017
     88 H2          7.6744  -12.7361  -28.7592 H         1 ASN         0.2017
     89 H3          7.0519  -11.6838  -27.6571 H         1 ASN         0.2017
     90 H4          5.8678  -10.4792  -29.3560 H         1 ASN         0.1125
     91 H5          6.1241  -12.4332  -31.4687 H         1 ASN         0.0585
     92 H6          7.7684  -11.9195  -30.9596 H         1 ASN         0.0585
     93 H7          6.5381   -9.6354  -33.6461 H         1 ASN         0.1814
     94 H8          6.7997  -11.3416  -33.5030 H         1 ASN         0.1814
     95 H9          5.4888  -12.5020  -27.3035 H         1 ASP         0.1886
     96 H10         2.9476  -13.5947  -28.3146 H         1 ASP         0.0819
     97 H11         4.2703  -15.6731  -26.7743 H         1 ASP         0.0478
     98 H12         5.2771  -15.2184  -28.1907 H         1 ASP         0.0478
     99 H13         1.8379  -12.4340  -24.1879 H         1 PRO         0.0802
    100 H14        -0.3430  -12.2379  -25.0700 H         1 PRO         0.0313
    101 H15        -0.6193  -13.6733  -24.0259 H         1 PRO         0.0313
    102 H16        -1.1412  -13.7604  -26.6500 H         1 PRO         0.0287
    103 H17        -0.4179  -15.1700  -25.8036 H         1 PRO         0.0287
    104 H18         1.2308  -14.9322  -27.4177 H         1 PRO         0.0524
    105 H19         0.8592  -13.1952  -27.6851 H         1 PRO         0.0524
    106 H20         0.4365  -13.7678  -22.3167 H         1 ASP         0.1884
    107 H21         1.1857  -16.5222  -21.9764 H         1 ASP         0.0819
    108 H22         2.6267  -14.8402  -19.9595 H         1 ASP         0.0478
    109 H23         3.3446  -14.9296  -21.6037 H         1 ASP         0.0478
    110 H24        -0.7142  -17.0604  -21.1216 H         1 TPO         0.1884
    111 H25        -1.6565  -15.5129  -18.7473 H         1 TPO         0.0830
    112 H26        -3.3031  -17.1231  -20.7674 H         1 TPO         0.0695
    113 H27        -5.2660  -16.2460  -19.5435 H         1 TPO         0.0260
    114 H28        -4.1740  -15.4825  -18.3390 H         1 TPO         0.0260
    115 H29        -4.2368  -17.2715  -18.4873 H         1 TPO         0.0260
    116 H30        -2.0314  -16.5876  -16.8861 H         1 LEU         0.1883
    117 H31        -2.2795  -19.5098  -16.8619 H         1 LEU         0.0800
    118 H32         0.0426  -19.5684  -16.8213 H         1 LEU         0.0315
    119 H33        -0.3938  -19.5950  -15.0790 H         1 LEU         0.0315
    120 H34         1.4509  -18.1425  -15.2574 H         1 LEU         0.0298
    121 H35         1.5809  -16.2645  -16.8617 H         1 LEU         0.0232
    122 H36         0.0182  -16.7802  -17.5819 H         1 LEU         0.0232
    123 H37         1.4550  -17.8529  -17.6909 H         1 LEU         0.0232
    124 H38        -0.4034  -17.2707  -13.8721 H         1 LEU         0.0232
    125 H39        -1.0371  -16.3749  -15.2942 H         1 LEU         0.0232
    126 H40         0.5671  -15.9498  -14.6069 H         1 LEU         0.0232
    127 H41        -2.1091  -20.1817  -14.3558 H         1 GLU         0.1883
    128 H42        -3.4986  -18.1497  -12.6982 H         1 GLU         0.0801
    129 H43        -5.2170  -19.7770  -12.0317 H         1 GLU         0.0330
    130 H44        -4.5236  -20.9878  -13.1630 H         1 GLU         0.0330
    131 H45        -5.0787  -19.5607  -15.0665 H         1 GLU         0.0433
    132 H46        -5.7144  -18.2993  -13.9568 H         1 GLU         0.0433
    133 H47        -1.2631  -18.2352  -11.8324 H         1 ILE         0.1883
    134 H48         0.3294  -18.8832  -10.3239 H         1 ILE         0.0803
    135 H49        -1.4493  -18.2914   -8.7517 H         1 ILE         0.0345
    136 H50         0.6886  -19.1852   -7.8938 H         1 ILE         0.0267
    137 H51        -0.0014  -20.8436   -7.9147 H         1 ILE         0.0267
    138 H52        -3.1898  -19.8414   -9.5758 H         1 ILE         0.0235
    139 H53        -2.9610  -19.9665   -7.7986 H         1 ILE         0.0235
    140 H54        -2.2767  -21.2245   -8.8831 H         1 ILE         0.0235
    141 H55        -0.0206  -19.8913   -5.6522 H         1 ILE         0.0230
    142 H56        -1.6903  -20.1618   -6.2566 H         1 ILE         0.0230
    143 H57        -1.0004  -18.5035   -6.2356 H         1 ILE         0.0230
    144 H58         1.5185  -20.6065   -9.3193 H         1 TYR         0.1885
    145 H59         1.0835  -23.1858  -10.7493 H         1 TYR         0.0821
    146 H60         3.1997  -22.4133  -11.3562 H         1 TYR         0.0453
    147 H61         3.5515  -23.5397  -10.0019 H         1 TYR         0.0453
    148 H62         3.7073  -22.4098   -7.6251 H         1 TYR         0.0530
    149 H63         4.1221  -20.2787  -11.2997 H         1 TYR         0.0530
    150 H64         4.9053  -20.6127   -6.4474 H         1 TYR         0.0525
    151 H65         5.3218  -18.4835  -10.1247 H         1 TYR         0.0525
    152 H66         5.9154  -18.6506   -6.6361 H         1 TYR         0.2458
    153 H67         1.0100  -25.0974   -9.6662 H         1 SER         0.1876
    154 H68         1.7382  -25.4494   -6.9219 H         1 SER         0.0749
    155 H69        -1.2475  -25.6412   -7.1642 H         1 SER         0.0599
    156 H70        -0.5375  -23.9972   -7.0239 H         1 SER         0.0599
    157 H71        -0.0813  -26.1754   -5.2436 H         1 SER         0.2096
@<TRIPOS>BOND
     1    1    2 1  
     2    2    3 1  
     3    2    5 1  
     4    3    4 2  
     5    3    9 am 
     6    5    6 1  
     7    6    7 2  
     8    6    8 am 
     9    9   10 1  
    10   10   11 1  
    11   10   13 1  
    12   11   12 2  
    13   11   17 am 
    14   13   14 1  
    15   14   15 ar 
    16   14   16 ar 
    17   17   18 1  
    18   17   23 1  
    19   18   19 1  
    20   18   21 1  
    21   19   20 2  
    22   19   24 am 
    23   21   22 1  
    24   22   23 1  
    25   24   25 1  
    26   25   26 1  
    27   25   28 1  
    28   26   27 2  
    29   26   32 am 
    30   28   29 1  
    31   29   30 ar 
    32   29   31 ar 
    33   32   33 1  
    34   33   34 1  
    35   33   41 1  
    36   34   35 1  
    37   34   36 1  
    38   36   37 1  
    39   37   38 ar 
    40   37   39 ar 
    41   37   40 ar 
    42   41   42 2  
    43   41   43 am 
    44   43   44 1  
    45   44   45 1  
    46   44   47 1  
    47   45   46 2  
    48   45   51 am 
    49   47   48 1  
    50   48   49 1  
    51   48   50 1  
    52   51   52 1  
    53   52   53 1  
    54   52   55 1  
    55   53   54 2  
    56   53   60 am 
    57   55   56 1  
    58   56   57 1  
    59   57   58 ar 
    60   57   59 ar 
    61   60   61 1  
    62   61   62 1  
    63   61   64 1  
    64   62   63 2  
    65   62   68 am 
    66   64   65 1  
    67   64   66 1  
    68   65   67 1  
    69   68   69 1  
    70   69   70 1  
    71   69   72 1  
    72   70   71 2  
    73   70   80 am 
    74   72   73 1  
    75   73   74 ar 
    76   73   75 ar 
    77   74   76 ar 
    78   75   77 ar 
    79   76   78 ar 
    80   77   78 ar 
    81   78   79 1  
    82   80   81 1  
    83   81   82 1  
    84   81   84 1  
    85   82   83 ar 
    86   82   86 ar 
    87   84   85 1  
    88    1   87 1  
    89    1   88 1  
    90    1   89 1  
    91    2   90 1  
    92    5   91 1  
    93    5   92 1  
    94    8   93 1  
    95    8   94 1  
    96    9   95 1  
    97   10   96 1  
    98   13   97 1  
    99   13   98 1  
   100   18   99 1  
   101   21  100 1  
   102   21  101 1  
   103   22  102 1  
   104   22  103 1  
   105   23  104 1  
   106   23  105 1  
   107   24  106 1  
   108   25  107 1  
   109   28  108 1  
   110   28  109 1  
   111   32  110 1  
   112   33  111 1  
   113   34  112 1  
   114   35  113 1  
   115   35  114 1  
   116   35  115 1  
   117   43  116 1  
   118   44  117 1  
   119   47  118 1  
   120   47  119 1  
   121   48  120 1  
   122   49  121 1  
   123   49  122 1  
   124   49  123 1  
   125   50  124 1  
   126   50  125 1  
   127   50  126 1  
   128   51  127 1  
   129   52  128 1  
   130   55  129 1  
   131   55  130 1  
   132   56  131 1  
   133   56  132 1  
   134   60  133 1  
   135   61  134 1  
   136   64  135 1  
   137   65  136 1  
   138   65  137 1  
   139   66  138 1  
   140   66  139 1  
   141   66  140 1  
   142   67  141 1  
   143   67  142 1  
   144   67  143 1  
   145   68  144 1  
   146   69  145 1  
   147   72  146 1  
   148   72  147 1  
   149   74  148 1  
   150   75  149 1  
   151   76  150 1  
   152   77  151 1  
   153   79  152 1  
   154   80  153 1  
   155   81  154 1  
   156   84  155 1  
   157   84  156 1  
   158   85  157 1  
@<TRIPOS>SUBSTRUCTURE
     1 ASN         1

