5ovc_ligand
  -I-interpret- 

107106  0  0  0  0  0  0  0  0999 V2000
   -8.8450   -7.7920  -26.2700 C   0  0  0  0  0
   -9.2760   -7.8240  -25.1180 O   0  0  0  0  0
   -9.6820   -7.3010  -27.4160 C   0  0  0  0  0
   -7.6190   -8.1910  -26.6040 N   0  0  0  0  0
   -6.6660   -8.6920  -25.6190 C   0  0  0  0  0
   -5.3850   -7.8840  -25.6710 C   0  0  0  0  0
   -5.0740   -7.2540  -26.6850 O   0  0  0  0  0
   -6.3360  -10.1600  -25.8630 C   0  0  0  0  0
   -7.4360  -11.1340  -25.4990 C   0  0  0  0  0
   -6.9430  -12.5670  -25.5210 C   0  0  0  0  0
   -6.2600  -12.9450  -26.4970 O   0  0  0  0  0
   -7.2080  -13.3100  -24.5540 O   0  0  0  0  0
   -4.6510   -7.9070  -24.5660 N   0  0  0  0  0
   -3.2990   -7.3870  -24.5040 C   0  0  0  0  0
   -2.3630   -8.5130  -24.0940 C   0  0  0  0  0
   -2.7900   -9.5220  -23.5270 O   0  0  0  0  0
   -3.1910   -6.2180  -23.5200 C   0  0  0  0  0
   -1.0780   -8.3270  -24.3970 N   0  0  0  0  0
   -0.0240   -9.2880  -24.0900 C   0  0  0  0  0
    1.1230   -8.5500  -23.4110 C   0  0  0  0  0
    1.6020   -7.5360  -23.9310 O   0  0  0  0  0
    0.4770   -9.9760  -25.3640 C   0  0  0  0  0
   -0.5840  -10.7740  -26.1080 C   0  0  0  0  0
   -0.2710  -10.9200  -27.5830 C   0  0  0  0  0
   -0.4310   -9.9750  -28.3540 O   0  0  0  0  0
    0.1820  -12.1050  -27.9840 N   0  0  0  0  0
    1.5750   -9.0620  -22.2690 N   0  0  0  0  0
    2.6540   -8.4370  -21.5080 C   0  0  0  0  0
    3.6500   -9.5010  -21.0650 C   0  0  0  0  0
    3.2560  -10.5200  -20.4910 O   0  0  0  0  0
    2.1080   -7.6850  -20.2800 C   0  0  0  0  0
    1.1330   -6.7120  -20.6880 O   0  0  0  0  0
    3.2280   -6.9810  -19.5340 C   0  0  0  0  0
    4.9350   -9.2630  -21.3300 N   0  0  0  0  0
    5.9980  -10.1420  -20.8560 C   0  0  0  0  0
    6.4440   -9.6830  -19.4750 C   0  0  0  0  0
    6.6540   -8.4850  -19.2480 O   0  0  0  0  0
    7.1860  -10.1510  -21.8200 C   0  0  0  0  0
    8.3130  -11.0410  -21.3470 C   0  0  0  0  0
    9.2960  -11.3370  -22.4470 C   0  0  0  0  0
    8.8610  -12.4510  -23.2880 N   0  0  0  0  0
    9.0220  -13.7340  -22.9680 C   0  0  0  0  0
    9.5960  -14.0770  -21.8240 N   0  0  0  0  0
    8.6020  -14.6810  -23.7900 N   0  0  0  0  0
    6.5860  -10.6360  -18.5580 N   0  0  0  0  0
    6.9300  -10.3330  -17.1740 C   0  0  0  0  0
    8.1260  -11.1620  -16.7070 C   0  0  0  0  0
    8.7000  -10.8700  -15.6560 O   0  0  0  0  0
    5.7190  -10.5780  -16.2680 C   0  0  0  0  0
    4.5480   -9.6310  -16.5680 C   0  0  0  0  0
    3.1990  -10.2680  -16.2830 C   0  0  0  0  0
    4.7170   -8.3270  -15.8040 C   0  0  0  0  0
    8.5450  -12.1270  -17.3590 O   0  0  0  0  0
  -10.5740   -7.9212  -27.5047 H   0  0  0  0  0
   -9.9737   -6.2666  -27.2342 H   0  0  0  0  0
   -9.1037   -7.3600  -28.3381 H   0  0  0  0  0
   -7.3362   -8.1447  -27.5829 H   0  0  0  0  0
   -7.1279   -8.5942  -24.6366 H   0  0  0  0  0
   -5.4822  -10.3994  -25.2292 H   0  0  0  0  0
   -6.1617  -10.2689  -26.9334 H   0  0  0  0  0
   -8.2389  -11.0350  -26.2295 H   0  0  0  0  0
   -7.7797  -10.9038  -24.4906 H   0  0  0  0  0
   -6.1755  -12.2242  -27.1254 H   0  0  0  0  0
   -5.0567   -8.3091  -23.7209 H   0  0  0  0  0
   -3.0204   -7.0070  -25.4869 H   0  0  0  0  0
   -3.8557   -5.4147  -23.8377 H   0  0  0  0  0
   -3.4772   -6.5556  -22.5239 H   0  0  0  0  0
   -2.1635   -5.8548  -23.5007 H   0  0  0  0  0
   -0.8166   -7.4625  -24.8710 H   0  0  0  0  0
   -0.4206  -10.0581  -23.4284 H   0  0  0  0  0
    1.2531  -10.6796  -25.0629 H   0  0  0  0  0
    0.8172   -9.1903  -26.0386 H   0  0  0  0  0
   -1.5311  -10.2424  -26.0160 H   0  0  0  0  0
   -0.6220  -11.7721  -25.6716 H   0  0  0  0  0
    0.4119  -12.2574  -28.9660 H   0  0  0  0  0
    0.2994  -12.8610  -27.3094 H   0  0  0  0  0
    1.1538   -9.9200  -21.9129 H   0  0  0  0  0
    3.1527   -7.7127  -22.1520 H   0  0  0  0  0
    1.6445   -8.4167  -19.6182 H   0  0  0  0  0
    0.8004   -6.2503  -19.9148 H   0  0  0  0  0
    3.9584   -7.7173  -19.1987 H   0  0  0  0  0
    3.7111   -6.2645  -20.1984 H   0  0  0  0  0
    2.8155   -6.4577  -18.6714 H   0  0  0  0  0
    5.1821   -8.4410  -21.8811 H   0  0  0  0  0
    5.6120  -11.1599  -20.8019 H   0  0  0  0  0
    7.5693   -9.1330  -21.8889 H   0  0  0  0  0
    6.8366  -10.5338  -22.7789 H   0  0  0  0  0
    7.8840  -11.9846  -21.0099 H   0  0  0  0  0
    8.8424  -10.5246  -20.5463 H   0  0  0  0  0
   10.2473  -11.6079  -21.9891 H   0  0  0  0  0
    9.3811  -10.4500  -23.0748 H   0  0  0  0  0
    8.4062  -12.2323  -24.1744 H   0  0  0  0  0
    9.7098  -15.0622  -21.5857 H   0  0  0  0  0
    9.9241  -13.3558  -21.1817 H   0  0  0  0  0
    8.1537  -14.4296  -24.6711 H   0  0  0  0  0
    6.4500  -11.6092  -18.8316 H   0  0  0  0  0
    7.2116   -9.2817  -17.1135 H   0  0  0  0  0
    6.0325  -10.4045  -15.2386 H   0  0  0  0  0
    5.3752  -11.5980  -16.4399 H   0  0  0  0  0
    4.5655   -9.4155  -17.6363 H   0  0  0  0  0
    3.0803  -11.1570  -16.9024 H   0  0  0  0  0
    3.1454  -10.5470  -15.2307 H   0  0  0  0  0
    2.4065   -9.5555  -16.5121 H   0  0  0  0  0
    4.7431   -8.5349  -14.7343 H   0  0  0  0  0
    5.6491   -7.8490  -16.1054 H   0  0  0  0  0
    3.8795   -7.6658  -16.0266 H   0  0  0  0  0
    8.0074  -12.2372  -18.1467 H   0  0  0  0  0
  1  2  2  0  0  0
  1  3  1  0  0  0
  1  4  1  0  0  0
  4  5  1  0  0  0
  5  6  1  0  0  0
  5  8  1  0  0  0
  6  7  2  0  0  0
  6 13  1  0  0  0
  8  9  1  0  0  0
  9 10  1  0  0  0
 10 11  1  0  0  0
 10 12  2  0  0  0
 13 14  1  0  0  0
 14 15  1  0  0  0
 14 17  1  0  0  0
 15 16  2  0  0  0
 15 18  1  0  0  0
 18 19  1  0  0  0
 19 20  1  0  0  0
 19 22  1  0  0  0
 20 21  2  0  0  0
 20 27  1  0  0  0
 22 23  1  0  0  0
 23 24  1  0  0  0
 24 25  2  0  0  0
 24 26  1  0  0  0
 27 28  1  0  0  0
 28 29  1  0  0  0
 28 31  1  0  0  0
 29 30  2  0  0  0
 29 34  1  0  0  0
 31 32  1  0  0  0
 31 33  1  0  0  0
 34 35  1  0  0  0
 35 36  1  0  0  0
 35 38  1  0  0  0
 36 37  2  0  0  0
 36 45  1  0  0  0
 38 39  1  0  0  0
 39 40  1  0  0  0
 40 41  1  0  0  0
 41 42  1  0  0  0
 42 43  1  0  0  0
 42 44  2  0  0  0
 45 46  1  0  0  0
 46 47  1  0  0  0
 46 49  1  0  0  0
 47 48  2  0  0  0
 47 53  1  0  0  0
 49 50  1  0  0  0
 50 51  1  0  0  0
 50 52  1  0  0  0
  3 54  1  0  0  0
  3 55  1  0  0  0
  3 56  1  0  0  0
  4 57  1  0  0  0
  5 58  1  0  0  0
  8 59  1  0  0  0
  8 60  1  0  0  0
  9 61  1  0  0  0
  9 62  1  0  0  0
 11 63  1  0  0  0
 13 64  1  0  0  0
 14 65  1  0  0  0
 17 66  1  0  0  0
 17 67  1  0  0  0
 17 68  1  0  0  0
 18 69  1  0  0  0
 19 70  1  0  0  0
 22 71  1  0  0  0
 22 72  1  0  0  0
 23 73  1  0  0  0
 23 74  1  0  0  0
 26 75  1  0  0  0
 26 76  1  0  0  0
 27 77  1  0  0  0
 28 78  1  0  0  0
 31 79  1  0  0  0
 32 80  1  0  0  0
 33 81  1  0  0  0
 33 82  1  0  0  0
 33 83  1  0  0  0
 34 84  1  0  0  0
 35 85  1  0  0  0
 38 86  1  0  0  0
 38 87  1  0  0  0
 39 88  1  0  0  0
 39 89  1  0  0  0
 40 90  1  0  0  0
 40 91  1  0  0  0
 41 92  1  0  0  0
 43 93  1  0  0  0
 43 94  1  0  0  0
 44 95  1  0  0  0
 45 96  1  0  0  0
 46 97  1  0  0  0
 49 98  1  0  0  0
 49 99  1  0  0  0
 50100  1  0  0  0
 51101  1  0  0  0
 51102  1  0  0  0
 51103  1  0  0  0
 52104  1  0  0  0
 52105  1  0  0  0
 52106  1  0  0  0
 53107  1  0  0  0
M  END
$$$$
