3vs3_ligand
  -I-interpret- 

 72 77  0  0  0  0  0  0  0  0999 V2000
    0.7620    2.2500   13.0380 N   0  0  0  0  0
   -0.0460    3.3260   12.9360 C   0  0  0  0  0
    0.4600    4.6200   13.0450 C   0  0  0  0  0
    1.7170    5.1730   13.2820 C   0  0  0  0  0
    3.0740    4.5740   13.4400 C   0  0  0  0  0
    3.9480    5.0830   14.3990 C   0  0  0  0  0
    5.2330    4.5610   14.5230 C   0  0  0  0  0
    5.6460    3.5430   13.6720 C   0  0  0  0  0
    6.9060    3.0120   13.7580 O   0  0  0  0  0
    7.4570    2.6040   14.9420 C   0  0  0  0  0
    8.7190    3.0670   15.2960 C   0  0  0  0  0
    9.3030    2.6540   16.4860 C   0  0  0  0  0
    8.6320    1.7690   17.3230 C   0  0  0  0  0
    7.3740    1.2990   16.9630 C   0  0  0  0  0
    6.7860    1.7110   15.7690 C   0  0  0  0  0
    4.7840    3.0640   12.6930 C   0  0  0  0  0
    3.5010    3.5860   12.5690 C   0  0  0  0  0
    1.5460    6.5380   13.2800 C   0  0  0  0  0
    0.2630    6.8350   13.0800 N   0  0  0  0  0
   -0.4290    5.6920   12.9480 C   0  0  0  0  0
   -1.7440    5.4400   12.7320 N   0  0  0  0  0
   -2.1970    4.1830   12.6220 C   0  0  0  0  0
   -1.3690    3.1350   12.7240 N   0  0  0  0  0
   -0.2030    8.2500   13.0670 C   0  0  0  0  0
   -1.3920    8.5180   13.9860 C   0  0  0  0  0
   -1.5980   10.0280   14.0670 C   0  0  0  0  0
   -1.8750   10.5860   12.6710 C   0  0  0  0  0
   -0.7150   10.2600   11.7330 C   0  0  0  0  0
   -0.4890    8.7560   11.6600 C   0  0  0  0  0
   -1.8870   12.0430   12.7400 N   0  3  0  0  0
   -2.8870   12.7020   11.9150 C   0  0  0  0  0
   -2.5270   14.1790   11.9520 C   0  0  0  0  0
   -2.5090   14.5130   13.3640 N   0  3  0  0  0
   -3.4560   15.5050   13.8500 C   0  0  0  0  0
   -1.5530   13.8990   14.2810 C   0  0  0  0  0
   -0.9040   12.6940   13.5990 C   0  0  0  0  0
    1.7615    2.3761   13.1976 H   0  0  0  0  0
    0.3732    1.3106   12.9555 H   0  0  0  0  0
    3.6247    5.8921   15.0539 H   0  0  0  0  0
    5.9111    4.9487   15.2833 H   0  0  0  0  0
    9.2507    3.7550   14.6387 H   0  0  0  0  0
   10.2896    3.0242   16.7648 H   0  0  0  0  0
    9.0904    1.4452   18.2574 H   0  0  0  0  0
    6.8458    0.6056   17.6174 H   0  0  0  0  0
    5.8035    1.3344   15.4845 H   0  0  0  0  0
    5.1154    2.2746   12.0184 H   0  0  0  0  0
    2.8340    3.2187   11.7890 H   0  0  0  0  0
    2.3426    7.2685   13.4212 H   0  0  0  0  0
   -3.2588    4.0106   12.4463 H   0  0  0  0  0
    0.6364    8.8171   13.4693 H   0  0  0  0  0
   -1.1986    8.1115   14.9787 H   0  0  0  0  0
   -2.2873    8.0374   13.5917 H   0  0  0  0  0
   -0.6991   10.4941   14.4705 H   0  0  0  0  0
   -2.4465   10.2425   14.7167 H   0  0  0  0  0
   -2.8163   10.1618   12.3216 H   0  0  0  0  0
    0.1898   10.7344   12.1130 H   0  0  0  0  0
   -0.9535   10.6295   10.7357 H   0  0  0  0  0
   -1.3735    8.2630   11.2567 H   0  0  0  0  0
    0.3526    8.5347   11.0036 H   0  0  0  0  0
   -1.8320   13.0290   12.9953 H   0  0  0  0  0
   -3.8955   12.5252   12.2887 H   0  0  0  0  0
   -2.8860   12.3140   10.8964 H   0  0  0  0  0
   -3.2410   14.7877   11.3972 H   0  0  0  0  0
   -1.5685   14.3781   11.4727 H   0  0  0  0  0
   -2.2545   13.5819   13.6937 H   0  0  0  0  0
   -3.2859   16.4506   13.3353 H   0  0  0  0  0
   -4.4720   15.1615   13.6553 H   0  0  0  0  0
   -3.3171   15.6434   14.9222 H   0  0  0  0  0
   -2.0697   13.5736   15.1839 H   0  0  0  0  0
   -0.7852   14.6249   14.5488 H   0  0  0  0  0
   -0.0562   13.0254   12.9994 H   0  0  0  0  0
   -0.5546   11.9901   14.3544 H   0  0  0  0  0
  1  2  1  0  0  0
  2  3  4  0  0  0
  2 23  4  0  0  0
  3  4  4  0  0  0
  3 20  4  0  0  0
  4  5  1  0  0  0
  4 18  4  0  0  0
  5  6  4  0  0  0
  5 17  4  0  0  0
  6  7  4  0  0  0
  7  8  4  0  0  0
  8  9  1  0  0  0
  8 16  4  0  0  0
  9 10  1  0  0  0
 10 11  4  0  0  0
 10 15  4  0  0  0
 11 12  4  0  0  0
 12 13  4  0  0  0
 13 14  4  0  0  0
 14 15  4  0  0  0
 16 17  4  0  0  0
 18 19  4  0  0  0
 19 20  4  0  0  0
 19 24  1  0  0  0
 20 21  4  0  0  0
 21 22  4  0  0  0
 22 23  4  0  0  0
 24 25  1  0  0  0
 24 29  1  0  0  0
 25 26  1  0  0  0
 26 27  1  0  0  0
 27 28  1  0  0  0
 27 30  1  0  0  0
 28 29  1  0  0  0
 30 31  1  0  0  0
 30 36  1  0  0  0
 31 32  1  0  0  0
 32 33  1  0  0  0
 33 34  1  0  0  0
 33 35  1  0  0  0
 35 36  1  0  0  0
  1 37  1  0  0  0
  1 38  1  0  0  0
  6 39  1  0  0  0
  7 40  1  0  0  0
 11 41  1  0  0  0
 12 42  1  0  0  0
 13 43  1  0  0  0
 14 44  1  0  0  0
 15 45  1  0  0  0
 16 46  1  0  0  0
 17 47  1  0  0  0
 18 48  1  0  0  0
 22 49  1  0  0  0
 24 50  1  0  0  0
 25 51  1  0  0  0
 25 52  1  0  0  0
 26 53  1  0  0  0
 26 54  1  0  0  0
 27 55  1  0  0  0
 28 56  1  0  0  0
 28 57  1  0  0  0
 29 58  1  0  0  0
 29 59  1  0  0  0
 30 60  1  0  0  0
 31 61  1  0  0  0
 31 62  1  0  0  0
 32 63  1  0  0  0
 32 64  1  0  0  0
 33 65  1  0  0  0
 34 66  1  0  0  0
 34 67  1  0  0  0
 34 68  1  0  0  0
 35 69  1  0  0  0
 35 70  1  0  0  0
 36 71  1  0  0  0
 36 72  1  0  0  0
M  END
$$$$
