### 
### Created by X-TOOL on Mon Sep 10 21:13:05 2018
### 

@<TRIPOS>MOLECULE
2yj2_ligand
   60    64     1     0     0
SMALL
GAST_HUCK


@<TRIPOS>ATOM
      1 C1          8.1280   35.4980   20.9040 C.3       1 YJ2         0.1342
      2 N2          8.2780   35.9250   19.5210 N.am      1 YJ2        -0.2562
      3 C3          9.2270   35.1110   18.7670 C.3       1 YJ2         0.0587
      4 C4          9.4390   33.8950   19.6910 C.3       1 YJ2         0.1066
      5 C5          9.2330   34.4600   21.1000 C.3       1 YJ2         0.0125
      6 C6          8.2830   36.6220   21.9350 C.2       1 YJ2         0.1971
      7 O7          9.3280   37.2880   22.0010 O.2       1 YJ2        -0.3951
      8 S8          8.3070   32.5750   19.4190 S.o2      1 YJ2         0.0023
      9 C9          8.6140   32.1140   17.7930 C.ar      1 YJ2         0.1025
     10 C10         9.7470   31.4530   17.3110 C.ar      1 YJ2         0.0651
     11 C11         9.8970   31.1290   15.9580 C.ar      1 YJ2        -0.0460
     12 C12         8.9140   31.4980   15.0500 C.ar      1 YJ2        -0.0612
     13 C13         7.7850   32.1680   15.4990 C.ar      1 YJ2        -0.0598
     14 C14         7.6420   32.4630   16.8490 C.ar      1 YJ2        -0.0364
     15 CL1        10.9710   30.9680   18.3710 Cl        1 YJ2        -0.0687
     16 N16         7.2150   36.7800   22.7510 N.am      1 YJ2        -0.2955
     17 C17         7.1870   37.6420   23.8700 C.3       1 YJ2         0.0783
     18 C18         7.7160   37.0690   25.1130 C.2       1 YJ2         0.0437
     19 C19         7.3880   39.1470   23.5800 C.3       1 YJ2        -0.0407
     20 C20         6.0210   38.6370   23.8970 C.3       1 YJ2        -0.0407
     21 C21         7.3890   36.8000   18.9570 C.2       1 YJ2         0.1723
     22 O22         6.4610   37.2130   19.6650 O.2       1 YJ2        -0.3648
     23 C23         7.5990   37.2070   17.5190 C.3       1 YJ2         0.0436
     24 C24         8.9580   37.7700   17.2900 C.ar      1 YJ2        -0.0361
     25 C25         9.3880   38.8640   18.0390 C.ar      1 YJ2        -0.0374
     26 C26        10.6520   39.3960   17.8620 C.ar      1 YJ2        -0.0234
     27 C27        11.5320   38.8050   16.9500 C.ar      1 YJ2         0.0420
     28 C28        11.1260   37.7000   16.2230 C.ar      1 YJ2        -0.0234
     29 C29         9.8530   37.1700   16.3930 C.ar      1 YJ2        -0.0374
     30 BR3        13.3310   39.5250   16.7930 Br        1 YJ2        -0.0232
     31 C31         6.8900   36.3360   16.4880 C.3       1 YJ2        -0.0691
     32 C32         6.3960   37.7200   16.7750 C.3       1 YJ2        -0.0691
     33 O33         8.6470   31.5300   20.3400 O.2       1 YJ2        -0.1690
     34 O34         6.9910   33.1020   19.4810 O.2       1 YJ2        -0.1690
     35 N35         7.6920   37.6400   26.2590 N.2       1 YJ2        -0.2686
     36 H           7.1189   35.1196   21.0670 H         1 YJ2         0.0804
     37 H          10.1531   35.6388   18.5393 H         1 YJ2         0.0544
     38 H           8.8595   34.8352   17.7786 H         1 YJ2         0.0544
     39 H          10.4214   33.4576   19.5129 H         1 YJ2         0.0563
     40 H           8.9637   33.6920   21.8251 H         1 YJ2         0.0332
     41 H          10.1436   34.8899   21.5172 H         1 YJ2         0.0332
     42 H          10.7813   30.5896   15.6188 H         1 YJ2         0.0624
     43 H           9.0282   31.2631   13.9918 H         1 YJ2         0.0618
     44 H           7.0097   32.4631   14.7920 H         1 YJ2         0.0620
     45 H           6.7442   32.9828   17.1834 H         1 YJ2         0.0636
     46 H           6.3742   36.2408   22.5444 H         1 YJ2         0.1774
     47 H           8.1655   36.0776   25.0563 H         1 YJ2         0.1090
     48 H           7.8678   39.7728   22.8275 H         1 YJ2         0.0220
     49 H           8.0479   39.9548   23.8966 H         1 YJ2         0.0220
     50 H           5.1987   38.8967   24.5637 H         1 YJ2         0.0220
     51 H           5.0164   38.7124   23.4810 H         1 YJ2         0.0220
     52 H           8.7176   39.3070   18.7755 H         1 YJ2         0.0852
     53 H          10.9612   40.2727   18.4312 H         1 YJ2         0.0720
     54 H          11.8112   37.2410   15.5103 H         1 YJ2         0.0720
     55 H           9.5501   36.2878   15.8290 H         1 YJ2         0.0852
     56 H           6.4924   35.3246   16.4036 H         1 YJ2         0.0162
     57 H           7.1404   35.7171   15.6264 H         1 YJ2         0.0162
     58 H           6.1110   38.6098   16.2136 H         1 YJ2         0.0162
     59 H           5.4499   38.2094   17.0064 H         1 YJ2         0.0162
     60 H           7.2808   38.5682   26.3578 H         1 YJ2         0.2165
@<TRIPOS>BOND
     1    1    2 1  
     2    1    5 1  
     3    1    6 1  
     4    2    3 1  
     5    2   21 am 
     6    3    4 1  
     7    4    5 1  
     8    4    8 1  
     9    6    7 2  
    10    6   16 am 
    11    8    9 1  
    12    8   33 2  
    13    8   34 2  
    14    9   10 ar 
    15    9   14 ar 
    16   10   11 ar 
    17   10   15 1  
    18   11   12 ar 
    19   12   13 ar 
    20   13   14 ar 
    21   16   17 1  
    22   17   18 1  
    23   17   19 1  
    24   17   20 1  
    25   18   35 2  
    26   19   20 1  
    27   21   22 2  
    28   21   23 1  
    29   23   24 1  
    30   23   31 1  
    31   23   32 1  
    32   24   25 ar 
    33   24   29 ar 
    34   25   26 ar 
    35   26   27 ar 
    36   27   28 ar 
    37   27   30 1  
    38   28   29 ar 
    39   31   32 1  
    40    1   36 1  
    41    3   37 1  
    42    3   38 1  
    43    4   39 1  
    44    5   40 1  
    45    5   41 1  
    46   11   42 1  
    47   12   43 1  
    48   13   44 1  
    49   14   45 1  
    50   16   46 1  
    51   18   47 1  
    52   19   48 1  
    53   19   49 1  
    54   20   50 1  
    55   20   51 1  
    56   25   52 1  
    57   26   53 1  
    58   28   54 1  
    59   29   55 1  
    60   31   56 1  
    61   31   57 1  
    62   32   58 1  
    63   32   59 1  
    64   35   60 1  
@<TRIPOS>SUBSTRUCTURE
     1 YJ2         1

