4r1e_ligand
  -I-interpret- 

261261  0  0  0  0  0  0  0  0999 V2000
  -14.8470    4.5270  -22.6200 N   0  3  0  0  0
  -13.8240    3.5010  -22.7080 C   0  0  0  0  0
  -12.7050    3.7110  -21.7070 C   0  0  0  0  0
  -12.9440    3.7950  -20.5020 O   0  0  0  0  0
  -11.4770    3.7950  -22.2080 N   0  0  0  0  0
  -10.3130    3.9960  -21.3540 C   0  0  0  0  0
  -10.5690    5.0860  -20.3190 C   0  0  0  0  0
  -10.3070    4.9020  -19.1300 O   0  0  0  0  0
   -9.0850    4.3490  -22.1960 C   0  0  0  0  0
   -9.4140    5.2810  -23.2120 O   0  0  0  0  0
  -11.0830    6.2230  -20.7790 N   0  0  0  0  0
  -11.3760    7.3440  -19.8940 C   0  0  0  0  0
  -12.0860    6.8780  -18.6280 C   0  0  0  0  0
  -11.6830    7.2220  -17.5170 O   0  0  0  0  0
  -12.2260    8.3900  -20.6190 C   0  0  0  0  0
  -12.5640    9.6550  -19.8280 C   0  0  0  0  0
  -11.3320   10.1840  -19.1090 C   0  0  0  0  0
  -13.1540   10.7190  -20.7410 C   0  0  0  0  0
  -13.1430    6.0920  -18.8030 N   0  0  0  0  0
  -13.9210    5.5710  -17.6600 C   0  0  0  0  0
  -13.0640    4.7760  -16.6900 C   0  0  0  0  0
  -13.2600    4.8650  -15.4800 O   0  0  0  0  0
  -15.0740    4.6800  -18.1030 C   0  0  0  0  0
  -16.0950    5.2530  -19.0890 C   0  0  0  0  0
  -17.3020    4.3240  -19.1400 C   0  0  0  0  0
  -16.5270    6.6650  -18.7430 C   0  0  0  0  0
  -12.1210    4.0060  -17.2180 N   0  0  0  0  0
  -11.2010    3.2470  -16.3760 C   0  0  0  0  0
  -10.2920    4.1810  -15.5760 C   0  0  0  0  0
  -10.0820    3.9680  -14.3780 O   0  0  0  0  0
  -10.3930    2.2290  -17.1990 C   0  0  0  0  0
  -11.2210    1.2490  -18.0550 C   0  0  0  0  0
  -12.3410    0.5200  -17.2950 C   0  0  0  0  0
  -11.8510   -0.0830  -16.0600 N   0  0  0  0  0
  -12.4290   -0.0080  -14.8580 C   0  0  0  0  0
  -13.6020    0.6100  -14.6750 N   0  0  0  0  0
  -11.8410   -0.5910  -13.8230 N   0  0  0  0  0
   -9.8060    5.2430  -16.2160 N   0  0  0  0  0
   -9.0230    6.2650  -15.5230 C   0  0  0  0  0
   -9.8450    6.8830  -14.3770 C   0  0  0  0  0
   -9.3850    6.9300  -13.2400 O   0  0  0  0  0
   -8.5120    7.3700  -16.4840 C   0  0  0  0  0
   -7.9340    8.5450  -15.7150 C   0  0  0  0  0
   -7.4500    6.8250  -17.4260 C   0  0  0  0  0
  -11.0660    7.3240  -14.6770 N   0  0  0  0  0
  -11.9150    7.9620  -13.6570 C   0  0  0  0  0
  -12.2440    6.9740  -12.5370 C   0  0  0  0  0
  -12.2700    7.3420  -11.3740 O   0  0  0  0  0
  -13.1810    8.5480  -14.2990 C   0  0  0  0  0
  -12.8880    9.7180  -15.2450 C   0  0  0  0  0
  -13.9560    9.9700  -16.3030 C   0  0  0  0  0
  -14.5660    9.0430  -16.8430 O   0  0  0  0  0
  -14.1580   11.2360  -16.6330 N   0  0  0  0  0
  -12.4560    5.7130  -12.8970 N   0  0  0  0  0
  -12.7770    4.6780  -11.9360 C   0  0  0  0  0
  -11.6350    4.4700  -10.9510 C   0  0  0  0  0
  -11.8610    4.4160   -9.7410 O   0  0  0  0  0
  -13.1270    3.3750  -12.6550 C   0  0  0  0  0
  -10.4020    4.4020  -11.4470 N   0  0  0  0  0
   -9.2690    4.2370  -10.5470 C   0  0  0  0  0
   -8.9920    5.4890   -9.6910 C   0  0  0  0  0
   -8.5470    5.3680   -8.5560 O   0  0  0  0  0
   -8.0340    3.7470  -11.3020 C   0  0  0  0  0
   -8.1210    2.2960  -11.6860 C   0  0  0  0  0
   -7.8530    1.2810  -10.8000 N   0  0  0  0  0
   -8.4740    1.6940  -12.8430 C   0  0  0  0  0
   -8.0390    0.1150  -11.3850 C   0  0  0  0  0
   -8.4110    0.3370  -12.6310 N   0  0  0  0  0
   -9.2780    6.6790  -10.2130 N   0  0  0  0  0
   -9.1570    7.8800   -9.3900 C   0  0  0  0  0
  -10.1780    7.8450   -8.2410 C   0  0  0  0  0
   -9.8190    8.0940   -7.0960 O   0  0  0  0  0
   -9.2800    9.1760  -10.2000 C   0  0  0  0  0
   -8.1070    9.2940  -11.1780 C   0  0  0  0  0
   -9.3180   10.3770   -9.2580 C   0  0  0  0  0
   -8.2590   10.4030  -12.1990 C   0  0  0  0  0
  -11.4260    7.4960   -8.5380 N   0  0  0  0  0
  -12.4390    7.3730   -7.4870 C   0  0  0  0  0
  -12.0500    6.3260   -6.4420 C   0  0  0  0  0
  -12.2070    6.5580   -5.2390 O   0  0  0  0  0
  -13.8200    7.0870   -8.0780 C   0  0  0  0  0
  -14.4270    8.2750   -8.8020 C   0  0  0  0  0
  -15.9390    8.1270   -8.9950 C   0  0  0  0  0
  -16.5150    9.3530   -9.5220 N   0  0  0  0  0
  -16.6100    9.6720  -10.8170 C   0  0  0  0  0
  -16.1880    8.8470  -11.7720 N   0  0  0  0  0
  -17.1320   10.8420  -11.1630 N   0  0  0  0  0
  -11.4960    5.2030   -6.8930 N   0  0  0  0  0
  -10.9820    4.1750   -5.9830 C   0  0  0  0  0
   -9.8840    4.7220   -5.0750 C   0  0  0  0  0
   -9.9310    4.5400   -3.8420 O   0  0  0  0  0
  -10.4570    2.9760   -6.7810 C   0  0  0  0  0
   -9.6390    1.9600   -5.9790 C   0  0  0  0  0
   -8.7400    1.1320   -6.8820 C   0  0  0  0  0
   -7.4520    1.8740   -7.2060 C   0  0  0  0  0
   -6.5460    1.0910   -8.0840 N   0  3  0  0  0
   -8.8940    5.3860   -5.6730 N   0  0  0  0  0
   -7.7810    5.9640   -4.8930 C   0  0  0  0  0
   -8.2430    6.9850   -3.8720 C   0  0  0  0  0
   -7.7110    7.0270   -2.7680 O   0  0  0  0  0
   -6.7200    6.6380   -5.7880 C   0  0  0  0  0
   -5.9530    5.7080   -6.7160 C   0  0  0  0  0
   -5.2310    4.5710   -5.9930 C   0  0  0  0  0
   -3.9330    5.0070   -5.3380 C   0  0  0  0  0
   -3.1080    3.8040   -5.0530 N   0  3  0  0  0
   -9.2180    7.8150   -4.2180 N   0  0  0  0  0
   -9.6100    8.8820   -3.3060 C   0  0  0  0  0
  -10.5430    8.3970   -2.1770 C   0  0  0  0  0
  -10.7930    9.1390   -1.2290 O   0  0  0  0  0
  -10.1960   10.0670   -4.0840 C   0  0  0  0  0
   -9.2060   10.7480   -5.0380 C   0  0  0  0  0
   -7.8040   11.6230   -4.2810 S   0  0  0  0  0
   -6.4850   10.4470   -4.5320 C   0  0  0  0  0
  -10.9840    7.1410   -2.2580 N   0  0  0  0  0
  -11.6660    6.4820   -1.1500 C   0  0  0  0  0
  -10.6670    5.8890   -0.1620 C   0  0  0  0  0
   -9.5250    5.5980   -0.5190 O   0  0  0  0  0
  -12.6050    5.3680   -1.6470 C   0  0  0  0  0
  -13.2460    4.6500   -0.4700 C   0  0  0  0  0
  -13.6670    5.9440   -2.5720 C   0  0  0  0  0
  -11.0142    5.6946    1.0335 O   0  0  0  0  0
  -15.5738    4.3409  -23.3111 H   0  0  0  0  0
  -15.2550    4.5193  -21.6852 H   0  0  0  0  0
  -14.4285    5.4392  -22.8021 H   0  0  0  0  0
  -13.3927    3.5405  -23.7083 H   0  0  0  0  0
  -14.2916    2.5400  -22.4935 H   0  0  0  0  0
  -11.3456    3.7168  -23.2165 H   0  0  0  0  0
  -10.1234    3.0620  -20.8251 H   0  0  0  0  0
   -8.7104    3.4392  -22.6651 H   0  0  0  0  0
   -8.3319    4.7935  -21.5454 H   0  0  0  0  0
   -8.6281    5.4849  -23.7243 H   0  0  0  0  0
  -11.2772    6.3131  -21.7763 H   0  0  0  0  0
  -10.4275    7.7963  -19.6046 H   0  0  0  0  0
  -13.1778    7.9072  -20.8407 H   0  0  0  0  0
  -11.6388    8.7165  -21.4773 H   0  0  0  0  0
  -13.3121    9.3987  -19.0778 H   0  0  0  0  0
  -10.9612    9.4252  -18.4200 H   0  0  0  0  0
  -10.5596   10.4208  -19.8407 H   0  0  0  0  0
  -11.5957   11.0837  -18.5530 H   0  0  0  0  0
  -12.4316   10.9709  -21.5174 H   0  0  0  0  0
  -14.0652   10.3366  -21.2010 H   0  0  0  0  0
  -13.3865   11.6092  -20.1565 H   0  0  0  0  0
  -13.4246    5.8418  -19.7509 H   0  0  0  0  0
  -14.3123    6.4573  -17.1606 H   0  0  0  0  0
  -15.6389    4.4690  -17.1950 H   0  0  0  0  0
  -14.6072    3.8453  -18.6259 H   0  0  0  0  0
  -15.6173    5.3147  -20.0668 H   0  0  0  0  0
  -16.9839    3.3349  -19.4694 H   0  0  0  0  0
  -17.7460    4.2524  -18.1471 H   0  0  0  0  0
  -18.0364    4.7227  -19.8399 H   0  0  0  0  0
  -16.9828    6.6718  -17.7529 H   0  0  0  0  0
  -15.6568    7.3214  -18.7484 H   0  0  0  0  0
  -17.2508    7.0130  -19.4800 H   0  0  0  0  0
  -12.0372    3.9431  -18.2326 H   0  0  0  0  0
  -11.7953    2.6777  -15.6613 H   0  0  0  0  0
   -9.8422    1.6210  -16.4813 H   0  0  0  0  0
   -9.7861    2.8083  -17.8949 H   0  0  0  0  0
  -10.5333    0.4845  -18.4164 H   0  0  0  0  0
  -11.6998    1.8378  -18.8374 H   0  0  0  0  0
  -12.7298   -0.2730  -17.9338 H   0  0  0  0  0
  -13.1124    1.2466  -17.0400 H   0  0  0  0  0
  -10.9821   -0.6138  -16.1204 H   0  0  0  0  0
  -14.0303    0.6274  -13.7495 H   0  0  0  0  0
  -14.0676    1.0635  -15.4611 H   0  0  0  0  0
  -10.9595   -1.0881  -13.9507 H   0  0  0  0  0
   -9.9845    5.3460  -17.2150 H   0  0  0  0  0
   -8.1438    5.7721  -15.1080 H   0  0  0  0  0
   -9.3701    7.7101  -17.0638 H   0  0  0  0  0
   -8.7045    8.9718  -15.0730 H   0  0  0  0  0
   -7.0989    8.2023  -15.1040 H   0  0  0  0  0
   -7.5851    9.3014  -16.4180 H   0  0  0  0  0
   -6.6079    6.4502  -16.8442 H   0  0  0  0  0
   -7.8734    6.0141  -18.0186 H   0  0  0  0  0
   -7.1101    7.6214  -18.0880 H   0  0  0  0  0
  -11.4182    7.2180  -15.6284 H   0  0  0  0  0
  -11.3658    8.7897  -13.2081 H   0  0  0  0  0
  -13.8171    8.9217  -13.4966 H   0  0  0  0  0
  -13.6519    7.7582  -14.8844 H   0  0  0  0  0
  -11.9688    9.4717  -15.7766 H   0  0  0  0  0
  -12.8351   10.6161  -14.6296 H   0  0  0  0  0
  -14.8373   11.4724  -17.3563 H   0  0  0  0  0
  -13.6344   11.9751  -16.1640 H   0  0  0  0  0
  -12.3905    5.4651  -13.8842 H   0  0  0  0  0
  -13.6481    4.9997  -11.3652 H   0  0  0  0  0
  -13.9882    3.5390  -13.3027 H   0  0  0  0  0
  -12.2759    3.0525  -13.2547 H   0  0  0  0  0
  -13.3656    2.6078  -11.9184 H   0  0  0  0  0
  -10.2510    4.4652  -12.4538 H   0  0  0  0  0
   -9.5386    3.4601   -9.8316 H   0  0  0  0  0
   -7.1727    3.8665  -10.6448 H   0  0  0  0  0
   -7.9514    4.3299  -12.2193 H   0  0  0  0  0
   -8.7560    2.1913  -13.7711 H   0  0  0  0  0
   -7.9083   -0.8623  -10.9204 H   0  0  0  0  0
   -9.5806    6.7525  -11.1843 H   0  0  0  0  0
   -8.1507    7.8795   -8.9711 H   0  0  0  0  0
  -10.2074    9.1553  -10.7724 H   0  0  0  0  0
   -8.0518    8.3550  -11.7288 H   0  0  0  0  0
   -7.2182    9.5191  -10.5886 H   0  0  0  0  0
  -10.1753   10.2869   -8.5909 H   0  0  0  0  0
   -8.4003   10.4056   -8.6706 H   0  0  0  0  0
   -9.4055   11.2929   -9.8424 H   0  0  0  0  0
   -9.1556   10.2274  -12.7935 H   0  0  0  0  0
   -8.3445   11.3599  -11.6841 H   0  0  0  0  0
   -7.3859   10.4167  -12.8513 H   0  0  0  0  0
  -11.6809    7.3119   -9.5083 H   0  0  0  0  0
  -12.4911    8.3333   -6.9740 H   0  0  0  0  0
  -14.4837    6.8332   -7.2515 H   0  0  0  0  0
  -13.7048    6.2839   -8.8059 H   0  0  0  0  0
  -13.9653    8.3428   -9.7870 H   0  0  0  0  0
  -14.2485    9.1656   -8.1995 H   0  0  0  0  0
  -16.3968    7.9103   -8.0298 H   0  0  0  0  0
  -16.1254    7.3189   -9.7023 H   0  0  0  0  0
  -16.8772   10.0267   -8.8472 H   0  0  0  0  0
  -16.2684    9.1178  -12.7521 H   0  0  0  0  0
  -15.7842    7.9438  -11.5239 H   0  0  0  0  0
  -17.4563   11.4885  -10.4438 H   0  0  0  0  0
  -11.4272    5.0535   -7.8996 H   0  0  0  0  0
  -11.8078    3.8528   -5.3487 H   0  0  0  0  0
   -9.7912    3.3781   -7.5446 H   0  0  0  0  0
  -11.3318    2.4446   -7.1557 H   0  0  0  0  0
  -10.3284    1.2879   -5.4679 H   0  0  0  0  0
   -9.0122    2.5027   -5.2714 H   0  0  0  0  0
   -9.2705    0.9330   -7.8132 H   0  0  0  0  0
   -8.4875    0.2054   -6.3664 H   0  0  0  0  0
   -6.9292    2.0628   -6.2684 H   0  0  0  0  0
   -7.7170    2.7916   -7.7312 H   0  0  0  0  0
   -5.7017    1.6327   -8.2688 H   0  0  0  0  0
   -6.2963    0.2175   -7.6203 H   0  0  0  0  0
   -7.0199    0.8868   -8.9639 H   0  0  0  0  0
   -8.9057    5.4966   -6.6869 H   0  0  0  0  0
   -7.3409    5.1106   -4.3770 H   0  0  0  0  0
   -5.9841    7.0792   -5.1157 H   0  0  0  0  0
   -7.2560    7.3393   -6.4276 H   0  0  0  0  0
   -5.1938    6.3060   -7.2201 H   0  0  0  0  0
   -6.6775    5.2544   -7.3924 H   0  0  0  0  0
   -4.9872    3.8104   -6.7347 H   0  0  0  0  0
   -5.8921    4.2078   -5.2061 H   0  0  0  0  0
   -4.1488    5.5338   -4.4085 H   0  0  0  0  0
   -3.3901    5.6755   -6.0062 H   0  0  0  0  0
   -2.2335    4.0895   -4.6124 H   0  0  0  0  0
   -3.6194    3.1833   -4.4256 H   0  0  0  0  0
   -2.9069    3.3165   -5.9261 H   0  0  0  0  0
   -9.6900    7.7073   -5.1158 H   0  0  0  0  0
   -8.7073    9.2265   -2.8014 H   0  0  0  0  0
  -10.4994   10.8137   -3.3502 H   0  0  0  0  0
  -11.0124    9.6785   -4.6929 H   0  0  0  0  0
   -9.7789   11.5069   -5.5708 H   0  0  0  0  0
   -8.7704    9.9482   -5.6369 H   0  0  0  0  0
   -6.7340    9.5114   -4.0313 H   0  0  0  0  0
   -6.3588   10.2669   -5.5996 H   0  0  0  0  0
   -5.5595   10.8471   -4.1178 H   0  0  0  0  0
  -10.8393    6.6233   -3.1249 H   0  0  0  0  0
  -12.2589    7.2460   -0.6472 H   0  0  0  0  0
  -12.0181    4.6424   -2.2103 H   0  0  0  0  0
  -12.4676    4.2076    0.1517 H   0  0  0  0  0
  -13.8218    5.3635    0.1194 H   0  0  0  0  0
  -13.9064    3.8659   -0.8403 H   0  0  0  0  0
  -14.2523    6.6883   -2.0321 H   0  0  0  0  0
  -13.1845    6.4120   -3.4301 H   0  0  0  0  0
  -14.3222    5.1429   -2.9141 H   0  0  0  0  0
  -11.9262    5.9710    1.1496 H   0  0  0  0  0
  1  2  1  0  0  0
  2  3  1  0  0  0
  3  4  2  0  0  0
  3  5  1  0  0  0
  5  6  1  0  0  0
  6  7  1  0  0  0
  6  9  1  0  0  0
  7  8  2  0  0  0
  7 11  1  0  0  0
  9 10  1  0  0  0
 11 12  1  0  0  0
 12 13  1  0  0  0
 12 15  1  0  0  0
 13 14  2  0  0  0
 13 19  1  0  0  0
 15 16  1  0  0  0
 16 17  1  0  0  0
 16 18  1  0  0  0
 19 20  1  0  0  0
 20 21  1  0  0  0
 20 23  1  0  0  0
 21 22  2  0  0  0
 21 27  1  0  0  0
 23 24  1  0  0  0
 24 25  1  0  0  0
 24 26  1  0  0  0
 27 28  1  0  0  0
 28 29  1  0  0  0
 28 31  1  0  0  0
 29 30  2  0  0  0
 29 38  1  0  0  0
 31 32  1  0  0  0
 32 33  1  0  0  0
 33 34  1  0  0  0
 34 35  1  0  0  0
 35 36  1  0  0  0
 35 37  2  0  0  0
 38 39  1  0  0  0
 39 40  1  0  0  0
 39 42  1  0  0  0
 40 41  2  0  0  0
 40 45  1  0  0  0
 42 43  1  0  0  0
 42 44  1  0  0  0
 45 46  1  0  0  0
 46 47  1  0  0  0
 46 49  1  0  0  0
 47 48  2  0  0  0
 47 54  1  0  0  0
 49 50  1  0  0  0
 50 51  1  0  0  0
 51 52  2  0  0  0
 51 53  1  0  0  0
 54 55  1  0  0  0
 55 56  1  0  0  0
 55 58  1  0  0  0
 56 57  2  0  0  0
 56 59  1  0  0  0
 59 60  1  0  0  0
 60 61  1  0  0  0
 60 63  1  0  0  0
 61 62  2  0  0  0
 61 69  1  0  0  0
 63 64  1  0  0  0
 64 65  4  0  0  0
 64 66  4  0  0  0
 65 67  4  0  0  0
 66 68  4  0  0  0
 67 68  4  0  0  0
 69 70  1  0  0  0
 70 71  1  0  0  0
 70 73  1  0  0  0
 71 72  2  0  0  0
 71 77  1  0  0  0
 73 74  1  0  0  0
 73 75  1  0  0  0
 74 76  1  0  0  0
 77 78  1  0  0  0
 78 79  1  0  0  0
 78 81  1  0  0  0
 79 80  2  0  0  0
 79 88  1  0  0  0
 81 82  1  0  0  0
 82 83  1  0  0  0
 83 84  1  0  0  0
 84 85  1  0  0  0
 85 86  1  0  0  0
 85 87  2  0  0  0
 88 89  1  0  0  0
 89 90  1  0  0  0
 89 92  1  0  0  0
 90 91  2  0  0  0
 90 97  1  0  0  0
 92 93  1  0  0  0
 93 94  1  0  0  0
 94 95  1  0  0  0
 95 96  1  0  0  0
 97 98  1  0  0  0
 98 99  1  0  0  0
 98101  1  0  0  0
 99100  2  0  0  0
 99106  1  0  0  0
101102  1  0  0  0
102103  1  0  0  0
103104  1  0  0  0
104105  1  0  0  0
106107  1  0  0  0
107108  1  0  0  0
107110  1  0  0  0
108109  2  0  0  0
108114  1  0  0  0
110111  1  0  0  0
111112  1  0  0  0
112113  1  0  0  0
114115  1  0  0  0
115116  1  0  0  0
115118  1  0  0  0
116117  2  0  0  0
118119  1  0  0  0
118120  1  0  0  0
116121  1  0  0  0
  1122  1  0  0  0
  1123  1  0  0  0
  1124  1  0  0  0
  2125  1  0  0  0
  2126  1  0  0  0
  5127  1  0  0  0
  6128  1  0  0  0
  9129  1  0  0  0
  9130  1  0  0  0
 10131  1  0  0  0
 11132  1  0  0  0
 12133  1  0  0  0
 15134  1  0  0  0
 15135  1  0  0  0
 16136  1  0  0  0
 17137  1  0  0  0
 17138  1  0  0  0
 17139  1  0  0  0
 18140  1  0  0  0
 18141  1  0  0  0
 18142  1  0  0  0
 19143  1  0  0  0
 20144  1  0  0  0
 23145  1  0  0  0
 23146  1  0  0  0
 24147  1  0  0  0
 25148  1  0  0  0
 25149  1  0  0  0
 25150  1  0  0  0
 26151  1  0  0  0
 26152  1  0  0  0
 26153  1  0  0  0
 27154  1  0  0  0
 28155  1  0  0  0
 31156  1  0  0  0
 31157  1  0  0  0
 32158  1  0  0  0
 32159  1  0  0  0
 33160  1  0  0  0
 33161  1  0  0  0
 34162  1  0  0  0
 36163  1  0  0  0
 36164  1  0  0  0
 37165  1  0  0  0
 38166  1  0  0  0
 39167  1  0  0  0
 42168  1  0  0  0
 43169  1  0  0  0
 43170  1  0  0  0
 43171  1  0  0  0
 44172  1  0  0  0
 44173  1  0  0  0
 44174  1  0  0  0
 45175  1  0  0  0
 46176  1  0  0  0
 49177  1  0  0  0
 49178  1  0  0  0
 50179  1  0  0  0
 50180  1  0  0  0
 53181  1  0  0  0
 53182  1  0  0  0
 54183  1  0  0  0
 55184  1  0  0  0
 58185  1  0  0  0
 58186  1  0  0  0
 58187  1  0  0  0
 59188  1  0  0  0
 60189  1  0  0  0
 63190  1  0  0  0
 63191  1  0  0  0
 66192  1  0  0  0
 67193  1  0  0  0
 69194  1  0  0  0
 70195  1  0  0  0
 73196  1  0  0  0
 74197  1  0  0  0
 74198  1  0  0  0
 75199  1  0  0  0
 75200  1  0  0  0
 75201  1  0  0  0
 76202  1  0  0  0
 76203  1  0  0  0
 76204  1  0  0  0
 77205  1  0  0  0
 78206  1  0  0  0
 81207  1  0  0  0
 81208  1  0  0  0
 82209  1  0  0  0
 82210  1  0  0  0
 83211  1  0  0  0
 83212  1  0  0  0
 84213  1  0  0  0
 86214  1  0  0  0
 86215  1  0  0  0
 87216  1  0  0  0
 88217  1  0  0  0
 89218  1  0  0  0
 92219  1  0  0  0
 92220  1  0  0  0
 93221  1  0  0  0
 93222  1  0  0  0
 94223  1  0  0  0
 94224  1  0  0  0
 95225  1  0  0  0
 95226  1  0  0  0
 96227  1  0  0  0
 96228  1  0  0  0
 96229  1  0  0  0
 97230  1  0  0  0
 98231  1  0  0  0
101232  1  0  0  0
101233  1  0  0  0
102234  1  0  0  0
102235  1  0  0  0
103236  1  0  0  0
103237  1  0  0  0
104238  1  0  0  0
104239  1  0  0  0
105240  1  0  0  0
105241  1  0  0  0
105242  1  0  0  0
106243  1  0  0  0
107244  1  0  0  0
110245  1  0  0  0
110246  1  0  0  0
111247  1  0  0  0
111248  1  0  0  0
113249  1  0  0  0
113250  1  0  0  0
113251  1  0  0  0
114252  1  0  0  0
115253  1  0  0  0
118254  1  0  0  0
119255  1  0  0  0
119256  1  0  0  0
119257  1  0  0  0
120258  1  0  0  0
120259  1  0  0  0
120260  1  0  0  0
121261  1  0  0  0
M  END
$$$$
