### 
### Created by X-TOOL on Mon Sep 10 21:13:18 2018
### 

@<TRIPOS>MOLECULE
4r1e_ligand
  263   263     1     0     0
SMALL
GAST_HUCK


@<TRIPOS>ATOM
      1 N         -14.8470    4.5270  -22.6200 N.4       1 GLY         0.2357
      2 CA        -13.8240    3.5010  -22.7080 C.3       1 GLY         0.0545
      3 C         -12.7050    3.7110  -21.7070 C.2       1 GLY         0.2237
      4 O         -12.9440    3.7950  -20.5020 O.2       1 GLY        -0.3910
      5 N         -11.4770    3.7950  -22.2080 N.am      1 SER        -0.2591
      6 CA        -10.3130    3.9960  -21.3540 C.3       1 SER         0.1540
      7 C         -10.5690    5.0860  -20.3190 C.2       1 SER         0.2062
      8 O         -10.3070    4.9020  -19.1300 O.2       1 SER        -0.3943
      9 CB         -9.0850    4.3490  -22.1960 C.3       1 SER         0.0843
     10 OG         -9.4140    5.2810  -23.2120 O.3       1 SER        -0.3903
     11 N         -11.0830    6.2230  -20.7790 N.am      1 LEU        -0.2636
     12 CA        -11.3760    7.3440  -19.8940 C.3       1 LEU         0.1312
     13 C         -12.0860    6.8780  -18.6280 C.2       1 LEU         0.2039
     14 O         -11.6830    7.2220  -17.5170 O.2       1 LEU        -0.3944
     15 CB        -12.2260    8.3900  -20.6190 C.3       1 LEU        -0.0101
     16 CG        -12.5640    9.6550  -19.8280 C.3       1 LEU        -0.0425
     17 CD1       -11.3320   10.1840  -19.1090 C.3       1 LEU        -0.0625
     18 CD2       -13.1540   10.7190  -20.7410 C.3       1 LEU        -0.0625
     19 N         -13.1430    6.0920  -18.8030 N.am      1 LEU        -0.2637
     20 CA        -13.9210    5.5710  -17.6600 C.3       1 LEU         0.1312
     21 C         -13.0640    4.7760  -16.6900 C.2       1 LEU         0.2039
     22 O         -13.2600    4.8650  -15.4800 O.2       1 LEU        -0.3944
     23 CB        -15.0740    4.6800  -18.1030 C.3       1 LEU        -0.0101
     24 CG        -16.0950    5.2530  -19.0890 C.3       1 LEU        -0.0425
     25 CD1       -17.3020    4.3240  -19.1400 C.3       1 LEU        -0.0625
     26 CD2       -16.5270    6.6650  -18.7430 C.3       1 LEU        -0.0625
     27 N         -12.1210    4.0060  -17.2180 N.am      1 ARG        -0.2637
     28 CA        -11.2010    3.2470  -16.3760 C.3       1 ARG         0.1311
     29 C         -10.2920    4.1810  -15.5760 C.2       1 ARG         0.2039
     30 O         -10.0820    3.9680  -14.3780 O.2       1 ARG        -0.3944
     31 CB        -10.3930    2.2290  -17.1990 C.3       1 ARG        -0.0092
     32 CG        -11.2210    1.2490  -18.0550 C.3       1 ARG        -0.0156
     33 CD        -12.3410    0.5200  -17.2950 C.3       1 ARG         0.0627
     34 NE        -11.8510   -0.0830  -16.0600 N.pl3     1 ARG        -0.2723
     35 CZ        -12.4290   -0.0080  -14.8580 C.cat     1 ARG         0.2882
     36 NH1       -13.6020    0.6100  -14.6750 N.pl3     1 ARG        -0.2849
     37 NH2       -11.8410   -0.5910  -13.8230 N.pl3     1 ARG        -0.2849
     38 N          -9.8060    5.2430  -16.2160 N.am      1 VAL        -0.2635
     39 CA         -9.0230    6.2650  -15.5230 C.3       1 VAL         0.1332
     40 C          -9.8450    6.8830  -14.3770 C.2       1 VAL         0.2042
     41 O          -9.3850    6.9300  -13.2400 O.2       1 VAL        -0.3944
     42 CB         -8.5120    7.3700  -16.4840 C.3       1 VAL        -0.0063
     43 CG1        -7.9340    8.5450  -15.7150 C.3       1 VAL        -0.0584
     44 CG2        -7.4500    6.8250  -17.4260 C.3       1 VAL        -0.0584
     45 N         -11.0660    7.3240  -14.6770 N.am      1 GLN        -0.2636
     46 CA        -11.9150    7.9620  -13.6570 C.3       1 GLN         0.1330
     47 C         -12.2440    6.9740  -12.5370 C.2       1 GLN         0.2040
     48 O         -12.2700    7.3420  -11.3740 O.2       1 GLN        -0.3944
     49 CB        -13.1810    8.5480  -14.2990 C.3       1 GLN         0.0045
     50 CG        -12.8880    9.7180  -15.2450 C.3       1 GLN         0.0412
     51 CD        -13.9560    9.9700  -16.3030 C.2       1 GLN         0.1737
     52 OE1       -14.5660    9.0430  -16.8430 O.2       1 GLN        -0.3973
     53 NE2       -14.1580   11.2360  -16.6330 N.am      1 GLN        -0.3009
     54 N         -12.4560    5.7130  -12.8970 N.am      1 ALA        -0.2640
     55 CA        -12.7770    4.6780  -11.9360 C.3       1 ALA         0.1282
     56 C         -11.6350    4.4700  -10.9510 C.2       1 ALA         0.2037
     57 O         -11.8610    4.4160   -9.7410 O.2       1 ALA        -0.3944
     58 CB        -13.1270    3.3750  -12.6550 C.3       1 ALA        -0.0244
     59 N         -10.4020    4.4020  -11.4470 N.am      1 HIS        -0.2625
     60 CA         -9.2690    4.2370  -10.5470 C.3       1 HIS         0.1369
     61 C          -8.9920    5.4890   -9.6910 C.2       1 HIS         0.2054
     62 O          -8.5470    5.3680   -8.5560 O.2       1 HIS        -0.3942
     63 CB         -8.0340    3.7470  -11.3020 C.3       1 HIS         0.0145
     64 CG         -8.1210    2.2960  -11.6860 C.2       1 HIS        -0.0027
     65 ND1        -7.8530    1.2810  -10.8000 N.2       1 HIS        -0.3252
     66 CD2        -8.4740    1.6940  -12.8430 C.2       1 HIS         0.0291
     67 CE1        -8.0390    0.1150  -11.3850 C.2       1 HIS         0.0907
     68 NE2        -8.4110    0.3370  -12.6310 N.pl3     1 HIS        -0.2752
     69 N          -9.2780    6.6790  -10.2130 N.am      1 ILE        -0.2634
     70 CA         -9.1570    7.8800   -9.3900 C.3       1 ILE         0.1335
     71 C         -10.1780    7.8450   -8.2410 C.2       1 ILE         0.2042
     72 O          -9.8190    8.0940   -7.0960 O.2       1 ILE        -0.3944
     73 CB         -9.2800    9.1760  -10.2000 C.3       1 ILE        -0.0037
     74 CG1        -8.1070    9.2940  -11.1780 C.3       1 ILE        -0.0491
     75 CG2        -9.3180   10.3770   -9.2580 C.3       1 ILE        -0.0582
     76 CD1        -8.2590   10.4030  -12.1990 C.3       1 ILE        -0.0648
     77 N         -11.4260    7.4960   -8.5380 N.am      1 ARG        -0.2637
     78 CA        -12.4390    7.3730   -7.4870 C.3       1 ARG         0.1311
     79 C         -12.0500    6.3260   -6.4420 C.2       1 ARG         0.2039
     80 O         -12.2070    6.5580   -5.2390 O.2       1 ARG        -0.3944
     81 CB        -13.8200    7.0870   -8.0780 C.3       1 ARG        -0.0092
     82 CG        -14.4270    8.2750   -8.8020 C.3       1 ARG        -0.0156
     83 CD        -15.9390    8.1270   -8.9950 C.3       1 ARG         0.0627
     84 NE        -16.5150    9.3530   -9.5220 N.pl3     1 ARG        -0.2723
     85 CZ        -16.6100    9.6720  -10.8170 C.cat     1 ARG         0.2882
     86 NH1       -16.1880    8.8470  -11.7720 N.pl3     1 ARG        -0.2849
     87 NH2       -17.1320   10.8420  -11.1630 N.pl3     1 ARG        -0.2849
     88 N         -11.4960    5.2030   -6.8930 N.am      1 LYS        -0.2637
     89 CA        -10.9820    4.1750   -5.9830 C.3       1 LYS         0.1310
     90 C          -9.8840    4.7220   -5.0750 C.2       1 LYS         0.2039
     91 O          -9.9310    4.5400   -3.8420 O.2       1 LYS        -0.3944
     92 CB        -10.4570    2.9760   -6.7810 C.3       1 LYS        -0.0122
     93 CG         -9.6390    1.9600   -5.9790 C.3       1 LYS        -0.0440
     94 CD         -8.7400    1.1320   -6.8820 C.3       1 LYS        -0.0124
     95 CE         -7.4520    1.8740   -7.2060 C.3       1 LYS        -0.0354
     96 NZ         -6.5460    1.0910   -8.0840 N.4       1 LYS         0.2185
     97 N          -8.8940    5.3860   -5.6730 N.am      1 LYS        -0.2637
     98 CA         -7.7810    5.9640   -4.8930 C.3       1 LYS         0.1310
     99 C          -8.2430    6.9850   -3.8720 C.2       1 LYS         0.2039
    100 O          -7.7110    7.0270   -2.7680 O.2       1 LYS        -0.3944
    101 CB         -6.7200    6.6380   -5.7880 C.3       1 LYS        -0.0122
    102 CG         -5.9530    5.7080   -6.7160 C.3       1 LYS        -0.0440
    103 CD         -5.2310    4.5710   -5.9930 C.3       1 LYS        -0.0124
    104 CE         -3.9330    5.0070   -5.3380 C.3       1 LYS        -0.0354
    105 NZ         -3.1080    3.8040   -5.0530 N.4       1 LYS         0.2185
    106 N          -9.2180    7.8150   -4.2180 N.am      1 MET        -0.2637
    107 CA         -9.6100    8.8820   -3.3060 C.3       1 MET         0.1317
    108 C         -10.5430    8.3970   -2.1770 C.2       1 MET         0.2034
    109 O         -10.7930    9.1390   -1.2290 O.2       1 MET        -0.3944
    110 CB        -10.1960   10.0670   -4.0840 C.3       1 MET        -0.0034
    111 CG         -9.2060   10.7480   -5.0380 C.3       1 MET        -0.0024
    112 SD         -7.8040   11.6230   -4.2810 S.3       1 MET        -0.1639
    113 CE         -6.4850   10.4470   -4.5320 C.3       1 MET        -0.0181
    114 N         -10.9840    7.1410   -2.2580 N.am      1 VAL        -0.2668
    115 CA        -11.6660    6.4820   -1.1500 C.3       1 VAL         0.1249
    116 C         -10.6670    5.8890   -0.1620 C.2       1 VAL         0.2152
    117 O          -9.5250    5.5980   -0.5190 O.co2     1 VAL        -0.4120
    118 CB        -12.6050    5.3680   -1.6470 C.3       1 VAL        -0.0094
    119 CG1       -13.2460    4.6500   -0.4700 C.3       1 VAL        -0.0589
    120 CG2       -13.6670    5.9440   -2.5720 C.3       1 VAL        -0.0589
    121 H         -15.5658    4.3441  -23.3026 H         1 GLY         0.2012
    122 H         -14.4346    5.4290  -22.7999 H         1 GLY         0.2012
    123 H         -15.2510    4.5203  -21.6966 H         1 GLY         0.2012
    124 H         -13.3975    3.5138  -23.7219 H         1 GLY         0.1061
    125 H         -14.2885    2.5222  -22.5179 H         1 GLY         0.1061
    126 H         -11.3482    3.7183  -23.1967 H         1 SER         0.1885
    127 H         -10.1108    3.0550  -20.8215 H         1 SER         0.0823
    128 H          -8.6934    3.4328  -22.6621 H         1 SER         0.0606
    129 H          -8.3152    4.7861  -21.5431 H         1 SER         0.0606
    130 H          -8.6363    5.4828  -23.7190 H         1 SER         0.2097
    131 H         -11.2734    6.3113  -21.7567 H         1 LEU         0.1883
    132 H         -10.4233    7.8107  -19.6034 H         1 LEU         0.0800
    133 H         -13.1737    7.9112  -20.9063 H         1 LEU         0.0315
    134 H         -11.6808    8.6963  -21.5239 H         1 LEU         0.0315
    135 H         -13.3186    9.3955  -19.0709 H         1 LEU         0.0298
    136 H         -11.5969   11.0920  -18.5475 H         1 LEU         0.0232
    137 H         -10.5517   10.4234  -19.8464 H         1 LEU         0.0232
    138 H         -10.9568    9.4191  -18.4132 H         1 LEU         0.0232
    139 H         -14.0419   10.3147  -21.2492 H         1 LEU         0.0232
    140 H         -12.4055   11.0150  -21.4907 H         1 LEU         0.0232
    141 H         -13.4415   11.5966  -20.1434 H         1 LEU         0.0232
    142 H         -13.4191    5.8467  -19.7323 H         1 LEU         0.1883
    143 H         -14.3384    6.4359  -17.1237 H         1 LEU         0.0800
    144 H         -15.6250    4.3858  -17.1976 H         1 LEU         0.0315
    145 H         -14.6345    3.7870  -18.5713 H         1 LEU         0.0315
    146 H         -15.6299    5.2792  -20.0855 H         1 LEU         0.0298
    147 H         -18.0439    4.7253  -19.8460 H         1 LEU         0.0232
    148 H         -17.7510    4.2509  -18.1385 H         1 LEU         0.0232
    149 H         -16.9823    3.3253  -19.4724 H         1 LEU         0.0232
    150 H         -15.6445    7.3209  -18.7106 H         1 LEU         0.0232
    151 H         -17.0214    6.6668  -17.7604 H         1 LEU         0.0232
    152 H         -17.2283    7.0315  -19.5071 H         1 LEU         0.0232
    153 H         -12.0389    3.9444  -18.2127 H         1 ARG         0.1883
    154 H         -11.8060    2.6784  -15.6544 H         1 ARG         0.0800
    155 H          -9.7855    1.6358  -16.4996 H         1 ARG         0.0313
    156 H          -9.7310    2.7906  -17.8745 H         1 ARG         0.0313
    157 H         -10.5374    0.4919  -18.4667 H         1 ARG         0.0301
    158 H         -11.6790    1.8162  -18.8787 H         1 ARG         0.0301
    159 H         -12.7526   -0.2710  -17.9391 H         1 ARG         0.0689
    160 H         -13.1335    1.2421  -17.0491 H         1 ARG         0.0689
    161 H         -10.9735   -0.6190  -16.1209 H         1 ARG         0.2642
    162 H         -14.0216    0.6506  -13.7352 H         1 ARG         0.2615
    163 H         -14.0851    1.0450  -15.4739 H         1 ARG         0.2615
    164 H         -10.9381   -1.0709  -13.9468 H         1 ARG         0.2615
    165 H         -12.2870   -0.5642  -12.8950 H         1 ARG         0.2615
    166 H          -9.9810    5.3440  -17.1954 H         1 VAL         0.1883
    167 H          -8.1432    5.7717  -15.0841 H         1 VAL         0.0802
    168 H          -9.3636    7.7264  -17.0820 H         1 VAL         0.0343
    169 H          -7.5815    9.3091  -16.4234 H         1 VAL         0.0234
    170 H          -7.0911    8.2004  -15.0980 H         1 VAL         0.0234
    171 H          -8.7107    8.9767  -15.0666 H         1 VAL         0.0234
    172 H          -7.8605    5.9728  -17.9876 H         1 VAL         0.0234
    173 H          -6.5778    6.4941  -16.8432 H         1 VAL         0.0234
    174 H          -7.1435    7.6138  -18.1288 H         1 VAL         0.0234
    175 H         -11.4113    7.2200  -15.6097 H         1 GLN         0.1883
    176 H         -11.3481    8.7940  -13.2140 H         1 GLN         0.0801
    177 H         -13.8473    8.9029  -13.4990 H         1 GLN         0.0337
    178 H         -13.6841    7.7536  -14.8698 H         1 GLN         0.0337
    179 H         -11.9384    9.5114  -15.7604 H         1 GLN         0.0504
    180 H         -12.7854   10.6302  -14.6389 H         1 GLN         0.0504
    181 H         -14.8449   11.4699  -17.3211 H         1 GLN         0.1814
    182 H         -13.6237   11.9585  -16.1942 H         1 GLN         0.1814
    183 H         -12.3917    5.4700  -13.8649 H         1 ALA         0.1883
    184 H         -13.6607    5.0024  -11.3669 H         1 ALA         0.0797
    185 H         -13.3680    2.5999  -11.9126 H         1 ALA         0.0277
    186 H         -12.2688    3.0484  -13.2606 H         1 ALA         0.0277
    187 H         -13.9961    3.5391  -13.3090 H         1 ALA         0.0277
    188 H         -10.2540    4.4640  -12.4340 H         1 HIS         0.1885
    189 H          -9.5428    3.4382   -9.8421 H         1 HIS         0.0817
    190 H          -7.1515    3.8881  -10.6607 H         1 HIS         0.0420
    191 H          -7.9215    4.3463  -12.2175 H         1 HIS         0.0420
    192 H          -8.7558    2.1908  -13.7702 H         1 HIS         0.0729
    193 H          -7.9084   -0.8615  -10.9209 H         1 HIS         0.1199
    194 H          -8.6203   -0.3886  -13.3315 H         1 HIS         0.2361
    195 H          -9.5747    6.7510  -11.1653 H         1 ILE         0.1883
    196 H          -8.1517    7.8709   -8.9437 H         1 ILE         0.0803
    197 H         -10.2175    9.1484  -10.7748 H         1 ILE         0.0345
    198 H          -8.0098    8.3400  -11.7169 H         1 ILE         0.0267
    199 H          -7.1917    9.4824  -10.5978 H         1 ILE         0.0267
    200 H         -10.1660   10.2729   -8.5652 H         1 ILE         0.0235
    201 H          -9.4353   11.2999   -9.8450 H         1 ILE         0.0235
    202 H          -8.3801   10.4235   -8.6851 H         1 ILE         0.0235
    203 H          -7.3784   10.4179  -12.8580 H         1 ILE         0.0230
    204 H          -8.3454   11.3693  -11.6806 H         1 ILE         0.0230
    205 H          -9.1635   10.2269  -12.7997 H         1 ILE         0.0230
    206 H         -11.6759    7.3155   -9.4893 H         1 ARG         0.1883
    207 H         -12.4962    8.3433   -6.9720 H         1 ARG         0.0800
    208 H         -14.4953    6.7958   -7.2599 H         1 ARG         0.0313
    209 H         -13.7279    6.2547   -8.7913 H         1 ARG         0.0313
    210 H         -13.9517    8.3680   -9.7896 H         1 ARG         0.0301
    211 H         -14.2327    9.1844   -8.2145 H         1 ARG         0.0301
    212 H         -16.4054    7.8972   -8.0257 H         1 ARG         0.0689
    213 H         -16.1338    7.3052   -9.6997 H         1 ARG         0.0689
    214 H         -16.8808   10.0333   -8.8406 H         1 ARG         0.2642
    215 H         -16.2735    9.1185  -12.7619 H         1 ARG         0.2615
    216 H         -15.7759    7.9369  -11.5213 H         1 ARG         0.2615
    217 H         -17.4637   11.4929  -10.4369 H         1 ARG         0.2615
    218 H         -17.2054   11.0992  -12.1577 H         1 ARG         0.2615
    219 H         -11.4285    5.0564   -7.8799 H         1 LYS         0.1883
    220 H         -11.8129    3.8336   -5.3482 H         1 LYS         0.0800
    221 H          -9.8201    3.3604   -7.5913 H         1 LYS         0.0312
    222 H         -11.3218    2.4505   -7.2122 H         1 LYS         0.0312
    223 H         -10.3274    1.2875   -5.4462 H         1 LYS         0.0269
    224 H          -9.0153    2.4986   -5.2504 H         1 LYS         0.0269
    225 H          -9.2743    0.9149   -7.8187 H         1 LYS         0.0317
    226 H          -8.4923    0.1883   -6.3739 H         1 LYS         0.0317
    227 H          -6.9265    2.0946   -6.2652 H         1 LYS         0.0813
    228 H          -7.7065    2.8161   -7.7135 H         1 LYS         0.0813
    229 H          -5.7112    1.6254   -8.2673 H         1 LYS         0.1994
    230 H          -7.0132    0.8887   -8.9540 H         1 LYS         0.1994
    231 H          -6.2984    0.2275   -7.6267 H         1 LYS         0.1994
    232 H          -8.9055    5.4944   -6.6670 H         1 LYS         0.1883
    233 H          -7.2983    5.1359   -4.3533 H         1 LYS         0.0800
    234 H          -5.9916    7.1367   -5.1317 H         1 LYS         0.0312
    235 H          -7.2295    7.3899   -6.4086 H         1 LYS         0.0312
    236 H          -5.2050    6.3021   -7.2614 H         1 LYS         0.0269
    237 H          -6.6639    5.2680   -7.4308 H         1 LYS         0.0269
    238 H          -5.0054    3.7800   -6.7233 H         1 LYS         0.0317
    239 H          -5.8983    4.1722   -5.2148 H         1 LYS         0.0317
    240 H          -4.1530    5.5346   -4.3982 H         1 LYS         0.0813
    241 H          -3.3850    5.6781   -6.0157 H         1 LYS         0.0813
    242 H          -2.2434    4.0850   -4.6176 H         1 LYS         0.1994
    243 H          -2.9086    3.3213   -5.9152 H         1 LYS         0.1994
    244 H          -3.6124    3.1898   -4.4330 H         1 LYS         0.1994
    245 H          -9.6807    7.7094   -5.0982 H         1 MET         0.1883
    246 H          -8.6908    9.2403   -2.8195 H         1 MET         0.0800
    247 H         -10.5459   10.8161   -3.3585 H         1 MET         0.0320
    248 H         -11.0490    9.7028   -4.6754 H         1 MET         0.0320
    249 H          -9.7700   11.4789   -5.6361 H         1 MET         0.0378
    250 H          -8.7948    9.9717   -5.7000 H         1 MET         0.0378
    251 H          -5.5504   10.8497   -4.1144 H         1 MET         0.0340
    252 H          -6.3566   10.2644   -5.6091 H         1 MET         0.0340
    253 H          -6.7351    9.5022   -4.0271 H         1 MET         0.0340
    254 H         -10.8421    6.6335   -3.1079 H         1 VAL         0.1876
    255 H         -12.2697    7.2369   -0.6249 H         1 VAL         0.0754
    256 O1        -11.0142    5.6946    1.0335 O.co2     1 VAL        -0.4120
    257 H         -12.0093    4.6384   -2.2152 H         1 VAL         0.0336
    258 H         -13.9128    3.8584   -0.8424 H         1 VAL         0.0234
    259 H         -13.8275    5.3690    0.1256 H         1 VAL         0.0234
    260 H         -12.4615    4.2030    0.1583 H         1 VAL         0.0234
    261 H         -13.1802    6.4576   -3.4142 H         1 VAL         0.0234
    262 H         -14.2885    6.6608   -2.0153 H         1 VAL         0.0234
    263 H         -14.3000    5.1301   -2.9553 H         1 VAL         0.0234
@<TRIPOS>BOND
     1    1    2 1  
     2    2    3 1  
     3    3    4 2  
     4    3    5 am 
     5    5    6 1  
     6    6    7 1  
     7    6    9 1  
     8    7    8 2  
     9    7   11 am 
    10    9   10 1  
    11   11   12 1  
    12   12   13 1  
    13   12   15 1  
    14   13   14 2  
    15   13   19 am 
    16   15   16 1  
    17   16   17 1  
    18   16   18 1  
    19   19   20 1  
    20   20   21 1  
    21   20   23 1  
    22   21   22 2  
    23   21   27 am 
    24   23   24 1  
    25   24   25 1  
    26   24   26 1  
    27   27   28 1  
    28   28   29 1  
    29   28   31 1  
    30   29   30 2  
    31   29   38 am 
    32   31   32 1  
    33   32   33 1  
    34   33   34 1  
    35   34   35 ar 
    36   35   36 ar 
    37   35   37 ar 
    38   38   39 1  
    39   39   40 1  
    40   39   42 1  
    41   40   41 2  
    42   40   45 am 
    43   42   43 1  
    44   42   44 1  
    45   45   46 1  
    46   46   47 1  
    47   46   49 1  
    48   47   48 2  
    49   47   54 am 
    50   49   50 1  
    51   50   51 1  
    52   51   52 2  
    53   51   53 am 
    54   54   55 1  
    55   55   56 1  
    56   55   58 1  
    57   56   57 2  
    58   56   59 am 
    59   59   60 1  
    60   60   61 1  
    61   60   63 1  
    62   61   62 2  
    63   61   69 am 
    64   63   64 1  
    65   64   65 1  
    66   64   66 2  
    67   65   67 2  
    68   66   68 1  
    69   67   68 1  
    70   69   70 1  
    71   70   71 1  
    72   70   73 1  
    73   71   72 2  
    74   71   77 am 
    75   73   74 1  
    76   73   75 1  
    77   74   76 1  
    78   77   78 1  
    79   78   79 1  
    80   78   81 1  
    81   79   80 2  
    82   79   88 am 
    83   81   82 1  
    84   82   83 1  
    85   83   84 1  
    86   84   85 ar 
    87   85   86 ar 
    88   85   87 ar 
    89   88   89 1  
    90   89   90 1  
    91   89   92 1  
    92   90   91 2  
    93   90   97 am 
    94   92   93 1  
    95   93   94 1  
    96   94   95 1  
    97   95   96 1  
    98   97   98 1  
    99   98   99 1  
   100   98  101 1  
   101   99  100 2  
   102   99  106 am 
   103  101  102 1  
   104  102  103 1  
   105  103  104 1  
   106  104  105 1  
   107  106  107 1  
   108  107  108 1  
   109  107  110 1  
   110  108  109 2  
   111  108  114 am 
   112  110  111 1  
   113  111  112 1  
   114  112  113 1  
   115  114  115 1  
   116  115  116 1  
   117  115  118 1  
   118  116  117 ar 
   119  118  119 1  
   120  118  120 1  
   121    1  121 1  
   122    1  122 1  
   123    1  123 1  
   124    2  124 1  
   125    2  125 1  
   126    5  126 1  
   127    6  127 1  
   128    9  128 1  
   129    9  129 1  
   130   10  130 1  
   131   11  131 1  
   132   12  132 1  
   133   15  133 1  
   134   15  134 1  
   135   16  135 1  
   136   17  136 1  
   137   17  137 1  
   138   17  138 1  
   139   18  139 1  
   140   18  140 1  
   141   18  141 1  
   142   19  142 1  
   143   20  143 1  
   144   23  144 1  
   145   23  145 1  
   146   24  146 1  
   147   25  147 1  
   148   25  148 1  
   149   25  149 1  
   150   26  150 1  
   151   26  151 1  
   152   26  152 1  
   153   27  153 1  
   154   28  154 1  
   155   31  155 1  
   156   31  156 1  
   157   32  157 1  
   158   32  158 1  
   159   33  159 1  
   160   33  160 1  
   161   34  161 1  
   162   36  162 1  
   163   36  163 1  
   164   37  164 1  
   165   37  165 1  
   166   38  166 1  
   167   39  167 1  
   168   42  168 1  
   169   43  169 1  
   170   43  170 1  
   171   43  171 1  
   172   44  172 1  
   173   44  173 1  
   174   44  174 1  
   175   45  175 1  
   176   46  176 1  
   177   49  177 1  
   178   49  178 1  
   179   50  179 1  
   180   50  180 1  
   181   53  181 1  
   182   53  182 1  
   183   54  183 1  
   184   55  184 1  
   185   58  185 1  
   186   58  186 1  
   187   58  187 1  
   188   59  188 1  
   189   60  189 1  
   190   63  190 1  
   191   63  191 1  
   192   66  192 1  
   193   67  193 1  
   194   68  194 1  
   195   69  195 1  
   196   70  196 1  
   197   73  197 1  
   198   74  198 1  
   199   74  199 1  
   200   75  200 1  
   201   75  201 1  
   202   75  202 1  
   203   76  203 1  
   204   76  204 1  
   205   76  205 1  
   206   77  206 1  
   207   78  207 1  
   208   81  208 1  
   209   81  209 1  
   210   82  210 1  
   211   82  211 1  
   212   83  212 1  
   213   83  213 1  
   214   84  214 1  
   215   86  215 1  
   216   86  216 1  
   217   87  217 1  
   218   87  218 1  
   219   88  219 1  
   220   89  220 1  
   221   92  221 1  
   222   92  222 1  
   223   93  223 1  
   224   93  224 1  
   225   94  225 1  
   226   94  226 1  
   227   95  227 1  
   228   95  228 1  
   229   96  229 1  
   230   96  230 1  
   231   96  231 1  
   232   97  232 1  
   233   98  233 1  
   234  101  234 1  
   235  101  235 1  
   236  102  236 1  
   237  102  237 1  
   238  103  238 1  
   239  103  239 1  
   240  104  240 1  
   241  104  241 1  
   242  105  242 1  
   243  105  243 1  
   244  105  244 1  
   245  106  245 1  
   246  107  246 1  
   247  110  247 1  
   248  110  248 1  
   249  111  249 1  
   250  111  250 1  
   251  113  251 1  
   252  113  252 1  
   253  113  253 1  
   254  114  254 1  
   255  115  255 1  
   256  116  256 ar 
   257  118  257 1  
   258  119  258 1  
   259  119  259 1  
   260  119  260 1  
   261  120  261 1  
   262  120  262 1  
   263  120  263 1  
@<TRIPOS>SUBSTRUCTURE
     1 GLY         1

