4k64_ligand
  -I-interpret- 

 61 62  0  0  0  0  0  0  0  0999 V2000
  -17.4000   39.7110   33.9250 C   0  0  0  0  0
  -18.1560   39.5340   35.1960 C   0  0  0  0  0
  -16.8530   39.5660   36.0340 C   0  0  0  0  0
  -16.0680   40.8490   36.0950 C   0  0  0  0  0
  -16.8230   41.9810   36.5070 C   0  0  0  0  0
  -18.1460   41.9620   35.7690 C   0  0  0  0  0
  -19.0670   42.9250   36.2950 C   0  0  0  0  0
  -20.3830   42.8570   35.5150 C   0  0  0  0  0
  -21.2150   44.1190   35.6480 C   0  0  0  0  0
  -16.0610   44.3660   37.1330 C   0  0  0  0  0
  -15.3020   45.6010   36.8000 C   0  0  0  0  0
  -16.0650   43.2180   36.1810 N   0  0  0  0  0
  -17.8230   40.5000   33.0830 O   0  0  0  0  0
  -16.3290   39.0220   33.6670 O   0  0  0  0  0
  -14.9180   40.6840   36.9420 O   0  0  0  0  0
  -18.7520   40.5950   35.8740 O   0  0  0  0  0
  -19.3980   42.6070   37.5830 O   0  0  0  0  0
  -20.1590   42.6280   34.1680 O   0  0  0  0  0
  -22.3180   44.2320   34.8580 O   0  0  0  0  0
  -16.6880   44.2900   38.1810 O   0  0  0  0  0
  -20.5910   35.3180   38.5220 C   0  0  0  0  0
  -21.8470   35.8690   39.1710 C   0  0  0  0  0
  -22.6360   36.6720   38.1390 C   0  0  0  0  0
  -21.7560   37.6930   37.4140 C   0  0  0  0  0
  -20.3340   37.1950   37.1240 C   0  0  0  0  0
  -19.3860   38.3690   36.9290 C   0  0  0  0  0
  -19.8970   34.4860   39.4260 O   0  0  0  0  0
  -22.6230   34.8060   39.6760 O   0  0  0  0  0
  -23.7080   37.3460   38.7690 O   0  0  0  0  0
  -21.7120   38.8940   38.1530 O   0  0  0  0  0
  -19.7960   36.4260   38.1800 O   0  0  0  0  0
  -18.8210   38.3460   35.6360 O   0  0  0  0  0
  -16.1881   38.8482   35.5536 H   0  0  0  0  0
  -17.1697   39.3773   37.0597 H   0  0  0  0  0
  -15.7593   41.0577   35.0707 H   0  0  0  0  0
  -17.0038   41.9561   37.5816 H   0  0  0  0  0
  -17.9501   42.2179   34.7277 H   0  0  0  0  0
  -18.5937   43.9046   36.2275 H   0  0  0  0  0
  -20.9356   42.0265   35.9542 H   0  0  0  0  0
  -20.5573   44.9361   35.3516 H   0  0  0  0  0
  -21.5872   44.1179   36.6725 H   0  0  0  0  0
  -15.9882   46.4467   36.7555 H   0  0  0  0  0
  -14.5498   45.7818   37.5678 H   0  0  0  0  0
  -14.8138   45.4764   35.8335 H   0  0  0  0  0
  -15.5468   43.2815   35.3047 H   0  0  0  0  0
  -16.1265   38.4554   34.4150 H   0  0  0  0  0
  -14.4171   39.9174   36.6539 H   0  0  0  0  0
  -18.6096   42.6315   38.1302 H   0  0  0  0  0
  -21.0001   42.5906   33.7067 H   0  0  0  0  0
  -22.7537   45.0686   35.0365 H   0  0  0  0  0
  -20.8353   34.7203   37.6438 H   0  0  0  0  0
  -21.5811   36.5261   39.9990 H   0  0  0  0  0
  -23.0168   35.9669   37.4001 H   0  0  0  0  0
  -22.2170   37.8620   36.4409 H   0  0  0  0  0
  -20.4196   36.5823   36.2266 H   0  0  0  0  0
  -18.5845   38.3001   37.6645 H   0  0  0  0  0
  -19.9447   39.2967   37.0524 H   0  0  0  0  0
  -19.1058   34.1450   39.0025 H   0  0  0  0  0
  -23.4168   35.1574   40.0859 H   0  0  0  0  0
  -24.1983   37.8478   38.1137 H   0  0  0  0  0
  -21.1591   39.5307   37.6942 H   0  0  0  0  0
  2  1  1  0  0  0
  1 13  2  0  0  0
  1 14  1  0  0  0
  2  3  1  0  0  0
  2 16  1  0  0  0
 32  2  1  0  0  0
  3  4  1  0  0  0
  4  5  1  0  0  0
  4 15  1  0  0  0
  6  5  1  0  0  0
  5 12  1  0  0  0
  6  7  1  0  0  0
 16  6  1  0  0  0
  7  8  1  0  0  0
  7 17  1  0  0  0
  8  9  1  0  0  0
  8 18  1  0  0  0
  9 19  1  0  0  0
 10 11  1  0  0  0
 12 10  1  0  0  0
 10 20  2  0  0  0
 21 22  1  0  0  0
 21 27  1  0  0  0
 31 21  1  0  0  0
 23 22  1  0  0  0
 22 28  1  0  0  0
 24 23  1  0  0  0
 23 29  1  0  0  0
 25 24  1  0  0  0
 24 30  1  0  0  0
 26 25  1  0  0  0
 25 31  1  0  0  0
 26 32  1  0  0  0
  3 33  1  0  0  0
  3 34  1  0  0  0
  4 35  1  0  0  0
  5 36  1  0  0  0
  6 37  1  0  0  0
  7 38  1  0  0  0
  8 39  1  0  0  0
  9 40  1  0  0  0
  9 41  1  0  0  0
 11 42  1  0  0  0
 11 43  1  0  0  0
 11 44  1  0  0  0
 12 45  1  0  0  0
 14 46  1  0  0  0
 15 47  1  0  0  0
 17 48  1  0  0  0
 18 49  1  0  0  0
 19 50  1  0  0  0
 21 51  1  0  0  0
 22 52  1  0  0  0
 23 53  1  0  0  0
 24 54  1  0  0  0
 25 55  1  0  0  0
 26 56  1  0  0  0
 26 57  1  0  0  0
 27 58  1  0  0  0
 28 59  1  0  0  0
 29 60  1  0  0  0
 30 61  1  0  0  0
M  END
$$$$
