6sdc_ligand
  -I-interpret- 

 79 84  0  0  0  0  0  0  0  0999 V2000
    8.0380  -22.7670  -31.1790 C   0  0  0  0  0
    9.0600  -23.7430  -31.0530 C   0  0  0  0  0
   10.3640  -23.3670  -30.9050 C   0  0  0  0  0
   10.7180  -22.0000  -30.8850 C   0  0  0  0  0
    9.7050  -21.0220  -31.0140 C   0  0  0  0  0
    8.3520  -21.4360  -31.1620 C   0  0  0  0  0
   12.0430  -21.6760  -30.7330 N   0  0  0  0  0
   12.3560  -20.3870  -30.7070 C   0  0  0  0  0
   11.4490  -19.3440  -30.8270 C   0  0  0  0  0
   10.1150  -19.6670  -30.9810 C   0  0  0  0  0
    6.7760  -23.2800  -31.3240 O   0  0  0  0  0
    5.6810  -22.3660  -31.4180 C   0  0  0  0  0
    8.6080  -25.0360  -31.0850 O   0  0  0  0  0
    9.0800  -18.7480  -31.1140 O   0  0  0  0  0
    9.2260  -17.4840  -30.5730 C   0  0  0  0  0
    9.2360  -17.2480  -29.2010 C   0  0  0  0  0
    9.3900  -15.9560  -28.7230 C   0  0  0  0  0
    9.5330  -14.8900  -29.6090 C   0  0  0  0  0
    9.5190  -15.1240  -30.9850 C   0  0  0  0  0
    9.3690  -16.4100  -31.4300 C   0  0  0  0  0
    9.3560  -16.6510  -32.7610 F   0  0  0  0  0
    9.6850  -13.5980  -29.0620 N   0  0  0  0  0
    9.5760  -26.0880  -31.2010 C   0  0  0  0  0
    8.8370  -27.3750  -31.4830 C   0  0  0  0  0
    8.2020  -27.9550  -30.2300 C   0  0  0  0  0
    7.5740  -29.2710  -30.4100 N   0  3  0  0  0
    6.1550  -29.2130  -30.0100 C   0  0  0  0  0
    5.8100  -30.3690  -29.0940 C   0  0  0  0  0
    6.2230  -31.6240  -29.6450 O   0  0  0  0  0
    7.6480  -31.6560  -29.8280 C   0  0  0  0  0
    8.2790  -30.2940  -29.6180 C   0  0  0  0  0
    9.8330  -12.4160  -29.6940 C   0  0  0  0  0
   10.1260  -11.2010  -28.8020 C   0  0  0  0  0
   10.5390  -11.4970  -27.3320 C   0  0  0  0  0
   10.7740  -10.4320  -26.5420 N   0  0  0  0  0
    9.7360  -12.2910  -30.9080 O   0  0  0  0  0
   10.6470  -12.6440  -26.9020 O   0  0  0  0  0
   10.9740  -10.5270  -25.1450 C   0  0  0  0  0
   10.1510   -9.8360  -24.2620 C   0  0  0  0  0
   10.3480   -9.9430  -22.8970 C   0  0  0  0  0
   11.3640  -10.7440  -22.4450 C   0  0  0  0  0
   12.1930  -11.4450  -23.2800 C   0  0  0  0  0
   11.9930  -11.3350  -24.6460 C   0  0  0  0  0
   11.5530  -10.8520  -21.1120 F   0  0  0  0  0
   10.6210   -9.9250  -29.4910 C   0  0  0  0  0
    9.2040  -10.0010  -29.0480 C   0  0  0  0  0
   11.1378  -24.1277  -30.8015 H   0  0  0  0  0
    7.5634  -20.6903  -31.2621 H   0  0  0  0  0
   13.4072  -20.1273  -30.5817 H   0  0  0  0  0
   11.7780  -18.3052  -30.8006 H   0  0  0  0  0
    5.6364  -21.7602  -30.5130 H   0  0  0  0  0
    5.8229  -21.7187  -32.2834 H   0  0  0  0  0
    4.7516  -22.9246  -31.5290 H   0  0  0  0  0
    9.1229  -18.0780  -28.5036 H   0  0  0  0  0
    9.3993  -15.7729  -27.6485 H   0  0  0  0  0
    9.6253  -14.3000  -31.6906 H   0  0  0  0  0
    9.6826  -13.5516  -28.0431 H   0  0  0  0  0
   10.1473  -26.1770  -30.2770 H   0  0  0  0  0
   10.2735  -25.8698  -32.0097 H   0  0  0  0  0
    9.5528  -28.1008  -31.8690 H   0  0  0  0  0
    8.0435  -27.1618  -32.1992 H   0  0  0  0  0
    7.4129  -27.2666  -29.9275 H   0  0  0  0  0
    9.0015  -28.0831  -29.5003 H   0  0  0  0  0
    7.6331  -29.5258  -31.3959 H   0  0  0  0  0
    5.5339  -29.2738  -30.9037 H   0  0  0  0  0
    5.9760  -28.2775  -29.4799 H   0  0  0  0  0
    4.7282  -30.3915  -28.9625 H   0  0  0  0  0
    6.3291  -30.2228  -28.1467 H   0  0  0  0  0
    7.8530  -31.9722  -30.8508 H   0  0  0  0  0
    8.0701  -32.3435  -29.0950 H   0  0  0  0  0
    8.2128  -30.0321  -28.5620 H   0  0  0  0  0
    9.3205  -30.3333  -29.9370 H   0  0  0  0  0
   10.8096   -9.5085  -26.9737 H   0  0  0  0  0
    9.3478   -9.2078  -24.6470 H   0  0  0  0  0
    9.7101   -9.4029  -22.1973 H   0  0  0  0  0
   12.9891  -12.0729  -22.8800 H   0  0  0  0  0
   12.6363  -11.8835  -25.3341 H   0  0  0  0  0
   11.4283   -9.3659  -29.9640 H   0  0  0  0  0
    8.2209   -9.5384  -28.9610 H   0  0  0  0  0
  1  2  4  0  0  0
  1  6  4  0  0  0
  1 11  1  0  0  0
  2  3  4  0  0  0
  2 13  1  0  0  0
  3  4  4  0  0  0
  4  5  4  0  0  0
  4  7  4  0  0  0
  5  6  4  0  0  0
  5 10  4  0  0  0
  7  8  4  0  0  0
  8  9  4  0  0  0
  9 10  4  0  0  0
 10 14  1  0  0  0
 11 12  1  0  0  0
 13 23  1  0  0  0
 14 15  1  0  0  0
 15 16  4  0  0  0
 15 20  4  0  0  0
 16 17  4  0  0  0
 17 18  4  0  0  0
 18 19  4  0  0  0
 18 22  1  0  0  0
 19 20  4  0  0  0
 20 21  1  0  0  0
 22 32  1  0  0  0
 23 24  1  0  0  0
 24 25  1  0  0  0
 25 26  1  0  0  0
 26 27  1  0  0  0
 26 31  1  0  0  0
 27 28  1  0  0  0
 28 29  1  0  0  0
 29 30  1  0  0  0
 30 31  1  0  0  0
 32 33  1  0  0  0
 32 36  2  0  0  0
 33 34  1  0  0  0
 33 45  1  0  0  0
 33 46  1  0  0  0
 34 35  1  0  0  0
 34 37  2  0  0  0
 35 38  1  0  0  0
 38 39  4  0  0  0
 38 43  4  0  0  0
 39 40  4  0  0  0
 40 41  4  0  0  0
 41 42  4  0  0  0
 41 44  1  0  0  0
 42 43  4  0  0  0
 45 46  2  0  0  0
  3 47  1  0  0  0
  6 48  1  0  0  0
  8 49  1  0  0  0
  9 50  1  0  0  0
 12 51  1  0  0  0
 12 52  1  0  0  0
 12 53  1  0  0  0
 16 54  1  0  0  0
 17 55  1  0  0  0
 19 56  1  0  0  0
 22 57  1  0  0  0
 23 58  1  0  0  0
 23 59  1  0  0  0
 24 60  1  0  0  0
 24 61  1  0  0  0
 25 62  1  0  0  0
 25 63  1  0  0  0
 26 64  1  0  0  0
 27 65  1  0  0  0
 27 66  1  0  0  0
 28 67  1  0  0  0
 28 68  1  0  0  0
 30 69  1  0  0  0
 30 70  1  0  0  0
 31 71  1  0  0  0
 31 72  1  0  0  0
 35 73  1  0  0  0
 39 74  1  0  0  0
 40 75  1  0  0  0
 42 76  1  0  0  0
 43 77  1  0  0  0
 45 78  1  0  0  0
 46 79  1  0  0  0
M  END
$$$$
