1okz_ligand
  -I-interpret- 

 63 70  0  0  0  0  0  0  0  0999 V2000
   80.9020   13.8910   10.2140 O   0  0  0  0  0
   81.1280   13.7990   11.6220 C   0  0  0  0  0
   82.2770   12.9040   11.8560 N   0  0  0  0  0
   83.4030   13.4720   12.2900 C   0  0  0  0  0
   84.4710   12.8950   12.4800 O   0  0  0  0  0
   83.1300   14.8290   12.4390 C   0  0  0  0  0
   83.9320   15.8670   12.9040 C   0  0  0  0  0
   85.2640   15.9880   13.2780 C   0  0  0  0  0
   85.5230   17.3170   13.6100 C   0  0  0  0  0
   86.8070   17.6820   14.0000 C   0  0  0  0  0
   87.8030   16.7080   14.0470 C   0  0  0  0  0
   87.5260   15.3840   13.7140 C   0  0  0  0  0
   86.2440   15.0030   13.3240 C   0  0  0  0  0
   84.3650   17.9640   13.4380 N   0  0  0  0  0
   83.4040   17.1440   13.0140 C   0  0  0  0  0
   82.0830   17.4070   12.6570 C   0  0  0  0  0
   81.3980   18.5470   12.5510 N   0  0  0  0  0
   80.1850   18.3440   12.0140 C   0  0  0  0  0
   80.1070   16.9730   11.7830 C   0  0  0  0  0
   78.9990   16.3660   11.1960 C   0  0  0  0  0
   77.9300   17.1800   10.8300 C   0  0  0  0  0
   77.9880   18.5550   11.0530 C   0  0  0  0  0
   79.1070   19.1410   11.6430 C   0  0  0  0  0
   81.2900   16.3770   12.1870 C   0  0  0  0  0
   81.8110   15.0870   12.0830 C   0  0  0  0  0
   81.8530   19.7470   12.9370 C   0  0  0  0  0
   82.7900   19.6320   14.0170 O   0  0  0  0  0
   84.1780   19.4050   13.7150 C   0  0  0  0  0
   84.7390   20.2940   12.6000 C   0  0  0  0  0
   83.6610   21.2910   12.1770 C   0  0  0  0  0
   84.1710   22.1330   11.0850 N   0  3  0  0  0
   83.6830   23.4790   10.7510 C   0  0  0  0  0
   82.4190   20.5120   11.7330 C   0  0  0  0  0
   82.8350   19.5730   10.7300 O   0  0  0  0  0
   82.2230   19.8780    9.4730 C   0  0  0  0  0
   80.7320   20.6110   13.5240 C   0  0  0  0  0
   80.4729   13.0890    9.9068 H   0  0  0  0  0
   80.1797   13.5325   12.0886 H   0  0  0  0  0
   82.2134   11.8990   11.6937 H   0  0  0  0  0
   87.0314   18.7152   14.2652 H   0  0  0  0  0
   88.8128   16.9862   14.3486 H   0  0  0  0  0
   88.3202   14.6388   13.7590 H   0  0  0  0  0
   86.0173   13.9690   13.0641 H   0  0  0  0  0
   78.9697   15.2893   11.0287 H   0  0  0  0  0
   77.0457   16.7410   10.3680 H   0  0  0  0  0
   77.1452   19.1817   10.7615 H   0  0  0  0  0
   79.1370   20.2173   11.8126 H   0  0  0  0  0
   84.7626   19.6973   14.5873 H   0  0  0  0  0
   85.0290   19.6794   11.7478 H   0  0  0  0  0
   85.6170   20.8298   12.9608 H   0  0  0  0  0
   83.3944   21.9402   13.0110 H   0  0  0  0  0
   83.9067   21.5970   10.2584 H   0  0  0  0  0
   85.1277   22.3194   11.3857 H   0  0  0  0  0
   82.6235   23.4281   10.5000 H   0  0  0  0  0
   83.8234   24.1380   11.6078 H   0  0  0  0  0
   84.2415   23.8654    9.8984 H   0  0  0  0  0
   81.6555   21.1840   11.3410 H   0  0  0  0  0
   81.1390   19.8291    9.5767 H   0  0  0  0  0
   82.5147   20.8812    9.1623 H   0  0  0  0  0
   82.5508   19.1552    8.7259 H   0  0  0  0  0
   79.9583   20.7609   12.7710 H   0  0  0  0  0
   80.3041   20.1085   14.3914 H   0  0  0  0  0
   81.1390   21.5761   13.8257 H   0  0  0  0  0
  1  2  1  0  0  0
  2  3  1  0  0  0
  2 25  1  0  0  0
  3  4  1  0  0  0
  4  5  2  0  0  0
  4  6  1  0  0  0
  6  7  4  0  0  0
  6 25  4  0  0  0
  7  8  4  0  0  0
  7 15  4  0  0  0
  8  9  4  0  0  0
  8 13  4  0  0  0
  9 10  4  0  0  0
  9 14  4  0  0  0
 10 11  4  0  0  0
 11 12  4  0  0  0
 12 13  4  0  0  0
 14 15  4  0  0  0
 14 28  1  0  0  0
 15 16  4  0  0  0
 16 17  4  0  0  0
 16 24  4  0  0  0
 17 18  4  0  0  0
 17 26  1  0  0  0
 18 19  4  0  0  0
 18 23  4  0  0  0
 19 20  4  0  0  0
 19 24  4  0  0  0
 20 21  4  0  0  0
 21 22  4  0  0  0
 22 23  4  0  0  0
 24 25  4  0  0  0
 26 27  1  0  0  0
 26 33  1  0  0  0
 26 36  1  0  0  0
 27 28  1  0  0  0
 28 29  1  0  0  0
 29 30  1  0  0  0
 30 31  1  0  0  0
 30 33  1  0  0  0
 31 32  1  0  0  0
 33 34  1  0  0  0
 34 35  1  0  0  0
  1 37  1  0  0  0
  2 38  1  0  0  0
  3 39  1  0  0  0
 10 40  1  0  0  0
 11 41  1  0  0  0
 12 42  1  0  0  0
 13 43  1  0  0  0
 20 44  1  0  0  0
 21 45  1  0  0  0
 22 46  1  0  0  0
 23 47  1  0  0  0
 28 48  1  0  0  0
 29 49  1  0  0  0
 29 50  1  0  0  0
 30 51  1  0  0  0
 31 52  1  0  0  0
 31 53  1  0  0  0
 32 54  1  0  0  0
 32 55  1  0  0  0
 32 56  1  0  0  0
 33 57  1  0  0  0
 35 58  1  0  0  0
 35 59  1  0  0  0
 35 60  1  0  0  0
 36 61  1  0  0  0
 36 62  1  0  0  0
 36 63  1  0  0  0
M  END
$$$$
