3qqk_ligand
  -I-interpret- 

 31 32  0  0  0  0  0  0  0  0999 V2000
   62.6090  153.3670  -46.9750 C   0  0  0  0  0
   62.9490  154.6470  -46.7530 C   0  0  0  0  0
   64.2770  155.2210  -47.1900 C   0  0  0  0  0
   64.3310  155.2730  -48.6750 N   0  0  0  0  0
   65.2960  154.5150  -49.2260 C   0  0  0  0  0
   65.5940  154.5220  -50.4520 N   0  0  0  0  0
   66.6600  153.6400  -50.8810 C   0  0  0  0  0
   67.1440  152.9470  -49.8360 C   0  0  0  0  0
   66.3090  153.3730  -48.3050 S   0  0  0  0  0
   67.0840  153.5300  -52.1310 N   0  0  0  0  0
   68.2350  151.9300  -49.8750 C   0  0  0  0  0
   68.7100  151.1570  -48.6490 C   0  0  0  0  0
   67.7700  150.4830  -47.7990 C   0  0  0  0  0
   68.2240  149.7510  -46.6610 C   0  0  0  0  0
   69.6140  149.6850  -46.3670 C   0  0  0  0  0
   70.5530  150.3500  -47.2110 C   0  0  0  0  0
   70.1030  151.0830  -48.3500 C   0  0  0  0  0
   68.7750  151.6840  -50.9510 O   0  0  0  0  0
   63.3020  152.7001  -47.4879 H   0  0  0  0  0
   61.6400  152.9949  -46.6423 H   0  0  0  0  0
   62.2407  155.2963  -46.2384 H   0  0  0  0  0
   65.0848  154.5900  -46.8193 H   0  0  0  0  0
   64.3874  156.2278  -46.7873 H   0  0  0  0  0
   63.6885  155.8376  -49.2307 H   0  0  0  0  0
   66.6529  154.0895  -52.8669 H   0  0  0  0  0
   67.8416  152.8857  -52.3577 H   0  0  0  0  0
   66.7045  150.5304  -48.0237 H   0  0  0  0  0
   67.5058  149.2428  -46.0175 H   0  0  0  0  0
   69.9617  149.1269  -45.4977 H   0  0  0  0  0
   71.6180  150.2980  -46.9850 H   0  0  0  0  0
   70.8249  151.5871  -48.9925 H   0  0  0  0  0
  1  2  2  0  0  0
  2  3  1  0  0  0
  3  4  1  0  0  0
  4  5  1  0  0  0
  5  6  4  0  0  0
  5  9  4  0  0  0
  6  7  4  0  0  0
  7  8  4  0  0  0
  7 10  1  0  0  0
  8  9  4  0  0  0
  8 11  1  0  0  0
 11 12  1  0  0  0
 11 18  2  0  0  0
 12 13  4  0  0  0
 12 17  4  0  0  0
 13 14  4  0  0  0
 14 15  4  0  0  0
 15 16  4  0  0  0
 16 17  4  0  0  0
  1 19  1  0  0  0
  1 20  1  0  0  0
  2 21  1  0  0  0
  3 22  1  0  0  0
  3 23  1  0  0  0
  4 24  1  0  0  0
 10 25  1  0  0  0
 10 26  1  0  0  0
 13 27  1  0  0  0
 14 28  1  0  0  0
 15 29  1  0  0  0
 16 30  1  0  0  0
 17 31  1  0  0  0
M  END
$$$$
