### 
### Created by X-TOOL on Mon Sep 10 21:13:31 2018
### 

@<TRIPOS>MOLECULE
5INH_LIGAND
   30    31     1     0     0
SMALL
GAST_HUCK


@<TRIPOS>ATOM
      1 C4          1.3960   17.0310   36.9220 C.ar      1 6C1        -0.1602
      2 C5          0.9760   15.7060   36.7890 C.ar      1 6C1        -0.1886
      3 C6          0.8210   14.8500   37.8530 C.ar      1 6C1        -0.1728
      4 C7          1.0730   15.2710   39.1530 C.ar      1 6C1        -0.1849
      5 C8          1.5080   16.5690   39.3750 C.ar      1 6C1        -0.1487
      6 C13         1.9150   19.0520   42.1630 C.ar      1 6C1        -0.0576
      7 C15        -0.2620   19.8190   42.8200 C.ar      1 6C1        -0.0548
      8 O1          1.4160   19.3440   36.1450 O.3       1 6C1        -0.8710
      9 B2          1.6390   17.9560   35.6360 B         1 6C1         3.0000
     10 O3          0.6670   17.4760   34.5990 O.3       1 6C1        -0.8710
     11 C9          1.7070   17.4630   38.3140 C.ar      1 6C1        -0.0069
     12 O10         2.1360   18.7400   38.5420 O.3       1 6C1        -0.3264
     13 C11         2.7100   19.1270   39.7800 C.3       1 6C1         0.1022
     14 C12         1.6510   19.3730   40.8290 C.ar      1 6C1        -0.0125
     15 C14         0.9600   19.2740   43.1560 C.ar      1 6C1        -0.0680
     16 C16        -0.5200   20.1380   41.5010 C.ar      1 6C1         0.0339
     17 CL         -2.0840   20.8370   41.0340 Cl        1 6C1        -0.0725
     18 C18         0.4230   19.9190   40.4970 C.ar      1 6C1        -0.0439
     19 H           0.7597   15.3308   35.7887 H         1 6C1        -0.0160
     20 H           0.4954   13.8252   37.6743 H         1 6C1         0.0297
     21 H           0.9302   14.5877   39.9902 H         1 6C1        -0.0156
     22 H           1.6991   16.9008   40.3956 H         1 6C1        -0.0205
     23 H           2.8800   18.6223   42.4317 H         1 6C1         0.0559
     24 H          -1.0159   19.9960   43.5871 H         1 6C1         0.0565
     25 H           2.0856   19.5550   36.7997 H         1 6C1        -0.1290
     26 H           0.8945   16.5803   34.3391 H         1 6C1        -0.1290
     27 H           3.2667   20.0517   39.6282 H         1 6C1         0.0778
     28 H           3.3584   18.3222   40.1263 H         1 6C1         0.0778
     29 H           1.1786   19.0179   44.1927 H         1 6C1         0.0599
     30 H           0.1955   20.1750   39.4622 H         1 6C1         0.0563
@<TRIPOS>BOND
     1    1    2 ar 
     2    1    9 1  
     3   11    1 ar 
     4    2    3 ar 
     5    4    3 ar 
     6    5    4 ar 
     7   11    5 ar 
     8   14    6 ar 
     9    6   15 ar 
    10   15    7 ar 
    11    7   16 ar 
    12    9    8 1  
    13    9   10 1  
    14   12   11 1  
    15   13   12 1  
    16   13   14 1  
    17   14   18 ar 
    18   16   17 1  
    19   16   18 ar 
    20    2   19 1  
    21    3   20 1  
    22    4   21 1  
    23    5   22 1  
    24    6   23 1  
    25    7   24 1  
    26    8   25 1  
    27   10   26 1  
    28   13   27 1  
    29   13   28 1  
    30   15   29 1  
    31   18   30 1  
@<TRIPOS>SUBSTRUCTURE
     1 6C1         1

