5INH_LIGAND
  -I-interpret- 

 30 31  0  0  0  0  0  0  0  0999 V2000
    1.3960   17.0310   36.9220 C   0  0  0  0  0
    0.9760   15.7060   36.7890 C   0  0  0  0  0
    0.8210   14.8500   37.8530 C   0  0  0  0  0
    1.0730   15.2710   39.1530 C   0  0  0  0  0
    1.5080   16.5690   39.3750 C   0  0  0  0  0
    1.9150   19.0520   42.1630 C   0  0  0  0  0
   -0.2620   19.8190   42.8200 C   0  0  0  0  0
    1.4160   19.3440   36.1450 O   0  0  0  0  0
    1.6390   17.9560   35.6360 B   0  0  0  0  0
    0.6670   17.4760   34.5990 O   0  0  0  0  0
    1.7070   17.4630   38.3140 C   0  0  0  0  0
    2.1360   18.7400   38.5420 O   0  0  0  0  0
    2.7100   19.1270   39.7800 C   0  0  0  0  0
    1.6510   19.3730   40.8290 C   0  0  0  0  0
    0.9600   19.2740   43.1560 C   0  0  0  0  0
   -0.5200   20.1380   41.5010 C   0  0  0  0  0
   -2.0840   20.8370   41.0340 Cl  0  0  0  0  0
    0.4230   19.9190   40.4970 C   0  0  0  0  0
    0.7597   15.3308   35.7887 H   0  0  0  0  0
    0.4954   13.8252   37.6743 H   0  0  0  0  0
    0.9302   14.5877   39.9902 H   0  0  0  0  0
    1.6991   16.9008   40.3956 H   0  0  0  0  0
    2.8800   18.6223   42.4317 H   0  0  0  0  0
   -1.0159   19.9960   43.5871 H   0  0  0  0  0
    2.0856   19.5550   36.7997 H   0  0  0  0  0
    0.8945   16.5803   34.3391 H   0  0  0  0  0
    3.2667   20.0517   39.6282 H   0  0  0  0  0
    3.3584   18.3222   40.1263 H   0  0  0  0  0
    1.1786   19.0179   44.1927 H   0  0  0  0  0
    0.1955   20.1750   39.4622 H   0  0  0  0  0
  1  2  4  0  0  0
  1  9  1  0  0  0
 11  1  4  0  0  0
  2  3  4  0  0  0
  4  3  4  0  0  0
  5  4  4  0  0  0
 11  5  4  0  0  0
 14  6  4  0  0  0
  6 15  4  0  0  0
 15  7  4  0  0  0
  7 16  4  0  0  0
  9  8  1  0  0  0
  9 10  1  0  0  0
 12 11  1  0  0  0
 13 12  1  0  0  0
 13 14  1  0  0  0
 14 18  4  0  0  0
 16 17  1  0  0  0
 16 18  4  0  0  0
  2 19  1  0  0  0
  3 20  1  0  0  0
  4 21  1  0  0  0
  5 22  1  0  0  0
  6 23  1  0  0  0
  7 24  1  0  0  0
  8 25  1  0  0  0
 10 26  1  0  0  0
 13 27  1  0  0  0
 13 28  1  0  0  0
 15 29  1  0  0  0
 18 30  1  0  0  0
M  END
$$$$
