### 
### Created by X-TOOL on Mon Sep 10 21:13:34 2018
### 

@<TRIPOS>MOLECULE
6at0_ligand
  110   109     1     0     0
SMALL
GAST_HUCK


@<TRIPOS>ATOM
      1 N         -20.3620   -5.4320    1.7880 N.4       1 GLN         0.2380
      2 CA        -19.0890   -5.4120    2.5030 C.3       1 GLN         0.0671
      3 C         -19.1730   -6.3150    3.7290 C.2       1 GLN         0.2269
      4 O         -19.1390   -5.8510    4.8750 O.2       1 GLN        -0.3907
      5 CB        -18.7320   -3.9850    2.9110 C.3       1 GLN         0.0247
      6 CG        -17.3210   -3.8330    3.4480 C.3       1 GLN         0.0443
      7 CD        -16.8720   -2.3890    3.5070 C.2       1 GLN         0.1738
      8 OE1       -16.6910   -1.7460    2.4730 O.2       1 GLN        -0.3973
      9 NE2       -16.6890   -1.8700    4.7210 N.am      1 GLN        -0.3009
     10 N         -19.3030   -7.6150    3.4710 N.am      1 THR        -0.2586
     11 CA        -19.4800   -8.6180    4.5080 C.3       1 THR         0.1566
     12 C         -18.5520   -9.7920    4.2310 C.2       1 THR         0.2065
     13 O         -17.9440   -9.8930    3.1600 O.2       1 THR        -0.3943
     14 CB        -20.9290   -9.1240    4.5560 C.3       1 THR         0.0924
     15 OG1       -21.2520   -9.7600    3.3090 O.3       1 THR        -0.3874
     16 CG2       -21.9040   -7.9740    4.8200 C.3       1 THR        -0.0346
     17 N         -18.4490  -10.6910    5.2100 N.am      1 ALA        -0.2639
     18 CA        -17.7060  -11.9250    5.0070 C.3       1 ALA         0.1282
     19 C         -18.1860  -12.9900    5.9780 C.2       1 ALA         0.2036
     20 O         -18.6620  -12.6900    7.0790 O.2       1 ALA        -0.3944
     21 CB        -16.1950  -11.7280    5.1830 C.3       1 ALA        -0.0244
     22 N         -18.0370  -14.2400    5.5520 N.am      1 ARG        -0.2637
     23 CA        -18.2840  -15.3880    6.3990 C.3       1 ARG         0.1311
     24 C         -17.0840  -15.5230    7.3240 C.2       1 ARG         0.2039
     25 O         -15.9450  -15.3320    6.9000 O.2       1 ARG        -0.3944
     26 CB        -18.4160  -16.6280    5.5120 C.3       1 ARG        -0.0092
     27 CG        -18.7410  -17.9340    6.2130 C.3       1 ARG        -0.0156
     28 CD        -18.8950  -19.0170    5.1490 C.3       1 ARG         0.0627
     29 NE        -19.1470  -20.3450    5.6980 N.pl3     1 ARG        -0.2723
     30 CZ        -20.3570  -20.8520    5.9080 C.cat     1 ARG         0.2882
     31 NH1       -21.4380  -20.1410    5.6150 N.pl3     1 ARG        -0.2849
     32 NH2       -20.4860  -22.0730    6.4070 N.pl3     1 ARG        -0.2849
     33 N         -17.3400  -15.8320    8.5910 N.am      1 M3L        -0.2637
     34 CA        -16.2890  -15.9760    9.5660 C.3       1 M3L         0.1309
     35 CB        -16.5970  -15.1270   10.8210 C.3       1 M3L        -0.0122
     36 CG        -15.4560  -15.0890   11.8140 C.3       1 M3L        -0.0440
     37 CD        -15.9330  -14.5870   13.1720 C.3       1 M3L        -0.0123
     38 CE        -16.4780  -13.1700   13.0310 C.3       1 M3L        -0.0309
     39 NZ        -16.6950  -12.3600   14.3000 N.4       1 M3L         0.2369
     40 C         -16.1280  -17.4380    9.9680 C.2       1 M3L         0.2034
     41 O         -16.9830  -18.0410   10.6160 O.2       1 M3L        -0.3944
     42 CM1       -15.4470  -12.2380   15.1100 C.3       1 M3L        -0.0418
     43 CM2       -17.1890  -10.9940   13.9640 C.3       1 M3L        -0.0418
     44 CM3       -17.7320  -13.0450   15.1340 C.3       1 M3L        -0.0418
     45 N         -15.0010  -18.0140    9.5620 N.am      1 SER        -0.2672
     46 CA        -14.7240  -19.4270    9.7990 C.3       1 SER         0.1173
     47 C         -14.0530  -19.6480   11.1490 C.2       1 SER         0.0623
     48 O         -14.3720  -18.9770   12.1300 O.co2     1 SER        -0.5665
     49 CB        -13.8450  -19.9890    8.6800 C.3       1 SER         0.0789
     50 OG        -12.6300  -19.2630    8.5730 O.3       1 SER        -0.3910
     51 OXT       -13.1780  -20.5020   11.2870 O.co2     1 SER        -0.5665
     52 H1        -20.3022   -4.8341    0.9787 H         1 GLN         0.2015
     53 H2        -21.0944   -5.1014    2.3965 H         1 GLN         0.2015
     54 H3        -20.5681   -6.3742    1.4951 H         1 GLN         0.2015
     55 H4        -18.3020   -5.7938    1.8361 H         1 GLN         0.1100
     56 H5        -19.4362   -3.6617    3.6917 H         1 GLN         0.0370
     57 H6        -18.8386   -3.3359    2.0294 H         1 GLN         0.0370
     58 H7        -16.6334   -4.3890    2.7937 H         1 GLN         0.0506
     59 H8        -17.2832   -4.2552    4.4630 H         1 GLN         0.0506
     60 H9        -16.3925   -0.9200    4.8192 H         1 GLN         0.1814
     61 H10       -16.8482   -2.4306    5.5336 H         1 GLN         0.1814
     62 H11       -19.2776   -7.9157    2.5176 H         1 THR         0.1885
     63 H12       -19.2251   -8.1733    5.4813 H         1 THR         0.0826
     64 H13       -21.0216   -9.8592    5.3690 H         1 THR         0.0639
     65 H14       -20.6637  -10.4921    3.1665 H         1 THR         0.2101
     66 H15       -22.9320   -8.3643    4.8492 H         1 THR         0.0257
     67 H16       -21.8177   -7.2282    4.0161 H         1 THR         0.0257
     68 H17       -21.6631   -7.5031    5.7845 H         1 THR         0.0257
     69 H18       -18.8865  -10.5154    6.0919 H         1 ALA         0.1883
     70 H19       -17.8925  -12.2724    3.9801 H         1 ALA         0.0797
     71 H20       -15.6790  -12.6857    5.0201 H         1 ALA         0.0277
     72 H21       -15.9883  -11.3688    6.2019 H         1 ALA         0.0277
     73 H22       -15.8342  -10.9883    4.4532 H         1 ALA         0.0277
     74 H23       -17.7425  -14.3938    4.6088 H         1 ARG         0.1883
     75 H24       -19.2036  -15.2466    6.9858 H         1 ARG         0.0800
     76 H25       -17.4614  -16.7624    4.9822 H         1 ARG         0.0313
     77 H26       -19.2159  -16.4329    4.7826 H         1 ARG         0.0313
     78 H27       -19.6790  -17.8305    6.7783 H         1 ARG         0.0301
     79 H28       -17.9255  -18.2008    6.9013 H         1 ARG         0.0301
     80 H29       -17.9692  -19.0560    4.5562 H         1 ARG         0.0689
     81 H30       -19.7374  -18.7454    4.4960 H         1 ARG         0.0689
     82 H31       -18.3329  -20.9282    5.9388 H         1 ARG         0.2642
     83 H32       -22.3747  -20.5367    5.7789 H         1 ARG         0.2615
     84 H33       -21.3406  -19.1933    5.2236 H         1 ARG         0.2615
     85 H34       -19.6484  -22.6272    6.6354 H         1 ARG         0.2615
     86 H35       -21.4239  -22.4678    6.5664 H         1 ARG         0.2615
     87 H36       -18.2889  -15.9684    8.8757 H         1 M3L         0.1883
     88 H37       -15.3463  -15.6243    9.1214 H         1 M3L         0.0800
     89 H38       -17.4805  -15.5508   11.3208 H         1 M3L         0.0312
     90 H39       -16.8154  -14.0975   10.5009 H         1 M3L         0.0312
     91 H40       -14.6722  -14.4160   11.4364 H         1 M3L         0.0269
     92 H41       -15.0448  -16.1027   11.9290 H         1 M3L         0.0269
     93 H42       -15.0901  -14.5863   13.8788 H         1 M3L         0.0317
     94 H43       -16.7269  -15.2487   13.5487 H         1 M3L         0.0317
     95 H44       -17.4488  -13.2421   12.5188 H         1 M3L         0.0815
     96 H45       -15.7719  -12.6089   12.4013 H         1 M3L         0.0815
     97 H46       -15.6531  -11.6463   16.0141 H         1 M3L         0.0778
     98 H47       -14.6701  -11.7375   14.5134 H         1 M3L         0.0778
     99 H48       -15.0982  -13.2403   15.3994 H         1 M3L         0.0778
    100 H49       -18.1092  -11.0736   13.3666 H         1 M3L         0.0778
    101 H50       -16.4217  -10.4585   13.3857 H         1 M3L         0.0778
    102 H51       -17.4007  -10.4421   14.8917 H         1 M3L         0.0778
    103 H52       -17.3852  -14.0564   15.3926 H         1 M3L         0.0778
    104 H53       -18.6720  -13.1136   14.5669 H         1 M3L         0.0778
    105 H54       -17.9009  -12.4686   16.0555 H         1 M3L         0.0778
    106 H55       -14.3216  -17.4617    9.0790 H         1 SER         0.1876
    107 H56       -15.6809  -19.9695    9.7972 H         1 SER         0.0749
    108 H57       -14.3895  -19.9211    7.7266 H         1 SER         0.0599
    109 H58       -13.6162  -21.0427    8.8974 H         1 SER         0.0599
    110 H59       -12.8222  -18.3526    8.3816 H         1 SER         0.2096
@<TRIPOS>BOND
     1    1    2 1  
     2    2    3 1  
     3    2    5 1  
     4    3    4 2  
     5    3   10 am 
     6    5    6 1  
     7    6    7 1  
     8    7    8 2  
     9    7    9 am 
    10   10   11 1  
    11   11   12 1  
    12   11   14 1  
    13   12   13 2  
    14   12   17 am 
    15   14   15 1  
    16   14   16 1  
    17   17   18 1  
    18   18   19 1  
    19   18   21 1  
    20   19   20 2  
    21   19   22 am 
    22   22   23 1  
    23   23   24 1  
    24   23   26 1  
    25   24   25 2  
    26   24   33 am 
    27   26   27 1  
    28   27   28 1  
    29   28   29 1  
    30   29   30 ar 
    31   30   31 ar 
    32   30   32 ar 
    33   33   34 1  
    34   34   35 1  
    35   34   40 1  
    36   35   36 1  
    37   36   37 1  
    38   37   38 1  
    39   38   39 1  
    40   39   42 1  
    41   39   43 1  
    42   39   44 1  
    43   40   41 2  
    44   40   45 am 
    45   45   46 1  
    46   46   47 1  
    47   46   49 1  
    48   47   48 ar 
    49   47   51 ar 
    50   49   50 1  
    51    1   52 1  
    52    1   53 1  
    53    1   54 1  
    54    2   55 1  
    55    5   56 1  
    56    5   57 1  
    57    6   58 1  
    58    6   59 1  
    59    9   60 1  
    60    9   61 1  
    61   10   62 1  
    62   11   63 1  
    63   14   64 1  
    64   15   65 1  
    65   16   66 1  
    66   16   67 1  
    67   16   68 1  
    68   17   69 1  
    69   18   70 1  
    70   21   71 1  
    71   21   72 1  
    72   21   73 1  
    73   22   74 1  
    74   23   75 1  
    75   26   76 1  
    76   26   77 1  
    77   27   78 1  
    78   27   79 1  
    79   28   80 1  
    80   28   81 1  
    81   29   82 1  
    82   31   83 1  
    83   31   84 1  
    84   32   85 1  
    85   32   86 1  
    86   33   87 1  
    87   34   88 1  
    88   35   89 1  
    89   35   90 1  
    90   36   91 1  
    91   36   92 1  
    92   37   93 1  
    93   37   94 1  
    94   38   95 1  
    95   38   96 1  
    96   42   97 1  
    97   42   98 1  
    98   42   99 1  
    99   43  100 1  
   100   43  101 1  
   101   43  102 1  
   102   44  103 1  
   103   44  104 1  
   104   44  105 1  
   105   45  106 1  
   106   46  107 1  
   107   49  108 1  
   108   49  109 1  
   109   50  110 1  
@<TRIPOS>SUBSTRUCTURE
     1 GLN         1

