6at0_ligand
  -I-interpret- 

110109  0  0  0  0  0  0  0  0999 V2000
  -20.3620   -5.4320    1.7880 N   0  3  0  0  0
  -19.0890   -5.4120    2.5030 C   0  0  0  0  0
  -19.1730   -6.3150    3.7290 C   0  0  0  0  0
  -19.1390   -5.8510    4.8750 O   0  0  0  0  0
  -18.7320   -3.9850    2.9110 C   0  0  0  0  0
  -17.3210   -3.8330    3.4480 C   0  0  0  0  0
  -16.8720   -2.3890    3.5070 C   0  0  0  0  0
  -16.6910   -1.7460    2.4730 O   0  0  0  0  0
  -16.6890   -1.8700    4.7210 N   0  0  0  0  0
  -19.3030   -7.6150    3.4710 N   0  0  0  0  0
  -19.4800   -8.6180    4.5080 C   0  0  0  0  0
  -18.5520   -9.7920    4.2310 C   0  0  0  0  0
  -17.9440   -9.8930    3.1600 O   0  0  0  0  0
  -20.9290   -9.1240    4.5560 C   0  0  0  0  0
  -21.2520   -9.7600    3.3090 O   0  0  0  0  0
  -21.9040   -7.9740    4.8200 C   0  0  0  0  0
  -18.4490  -10.6910    5.2100 N   0  0  0  0  0
  -17.7060  -11.9250    5.0070 C   0  0  0  0  0
  -18.1860  -12.9900    5.9780 C   0  0  0  0  0
  -18.6620  -12.6900    7.0790 O   0  0  0  0  0
  -16.1950  -11.7280    5.1830 C   0  0  0  0  0
  -18.0370  -14.2400    5.5520 N   0  0  0  0  0
  -18.2840  -15.3880    6.3990 C   0  0  0  0  0
  -17.0840  -15.5230    7.3240 C   0  0  0  0  0
  -15.9450  -15.3320    6.9000 O   0  0  0  0  0
  -18.4160  -16.6280    5.5120 C   0  0  0  0  0
  -18.7410  -17.9340    6.2130 C   0  0  0  0  0
  -18.8950  -19.0170    5.1490 C   0  0  0  0  0
  -19.1470  -20.3450    5.6980 N   0  0  0  0  0
  -20.3570  -20.8520    5.9080 C   0  0  0  0  0
  -21.4380  -20.1410    5.6150 N   0  0  0  0  0
  -20.4860  -22.0730    6.4070 N   0  0  0  0  0
  -17.3400  -15.8320    8.5910 N   0  0  0  0  0
  -16.2890  -15.9760    9.5660 C   0  0  0  0  0
  -16.5970  -15.1270   10.8210 C   0  0  0  0  0
  -15.4560  -15.0890   11.8140 C   0  0  0  0  0
  -15.9330  -14.5870   13.1720 C   0  0  0  0  0
  -16.4780  -13.1700   13.0310 C   0  0  0  0  0
  -16.6950  -12.3600   14.3000 N   0  3  0  0  0
  -16.1280  -17.4380    9.9680 C   0  0  0  0  0
  -16.9830  -18.0410   10.6160 O   0  0  0  0  0
  -15.4470  -12.2380   15.1100 C   0  0  0  0  0
  -17.1890  -10.9940   13.9640 C   0  0  0  0  0
  -17.7320  -13.0450   15.1340 C   0  0  0  0  0
  -15.0010  -18.0140    9.5620 N   0  0  0  0  0
  -14.7240  -19.4270    9.7990 C   0  0  0  0  0
  -14.0530  -19.6480   11.1490 C   0  0  0  0  0
  -14.3720  -18.9770   12.1300 O   0  0  0  0  0
  -13.8450  -19.9890    8.6800 C   0  0  0  0  0
  -12.6300  -19.2630    8.5730 O   0  0  0  0  0
  -13.1780  -20.5020   11.2870 O   0  0  0  0  0
  -20.5864   -6.3909    1.5225 H   0  0  0  0  0
  -21.0963   -5.0648    2.3932 H   0  0  0  0  0
  -20.2894   -4.8542    0.9506 H   0  0  0  0  0
  -18.3043   -5.7845    1.8445 H   0  0  0  0  0
  -19.4153   -3.6959    3.7095 H   0  0  0  0  0
  -18.8073   -3.3644    2.0181 H   0  0  0  0  0
  -16.6478   -4.3660    2.7766 H   0  0  0  0  0
  -17.3040   -4.2309    4.4627 H   0  0  0  0  0
  -16.3864   -0.9011    4.8211 H   0  0  0  0  0
  -16.8516   -2.4418    5.5499 H   0  0  0  0  0
  -19.2771   -7.9217    2.4986 H   0  0  0  0  0
  -19.2441   -8.1611    5.4691 H   0  0  0  0  0
  -21.0209   -9.8406    5.3722 H   0  0  0  0  0
  -22.1578  -10.0768    3.3378 H   0  0  0  0  0
  -21.6642   -7.5082    5.7759 H   0  0  0  0  0
  -21.8175   -7.2357    4.0228 H   0  0  0  0  0
  -22.9222   -8.3620    4.8487 H   0  0  0  0  0
  -18.8952  -10.5119    6.1096 H   0  0  0  0  0
  -17.8879  -12.2418    3.9800 H   0  0  0  0  0
  -15.8387  -10.9949    4.4593 H   0  0  0  0  0
  -15.9915  -11.3720    6.1929 H   0  0  0  0  0
  -15.6848  -12.6776    5.0214 H   0  0  0  0  0
  -17.7366  -14.3969    4.5899 H   0  0  0  0  0
  -19.1984  -15.2768    6.9818 H   0  0  0  0  0
  -17.4404  -16.7707    5.0474 H   0  0  0  0  0
  -19.2522  -16.4304    4.8413 H   0  0  0  0  0
  -19.6639  -17.8344    6.7843 H   0  0  0  0  0
  -17.9415  -18.1981    6.9052 H   0  0  0  0  0
  -17.9578  -19.0655    4.5945 H   0  0  0  0  0
  -19.7539  -18.7499    4.5333 H   0  0  0  0  0
  -18.3408  -20.9225    5.9364 H   0  0  0  0  0
  -22.3656  -20.5343    5.7739 H   0  0  0  0  0
  -21.3415  -19.2010    5.2309 H   0  0  0  0  0
  -19.6565  -22.6232    6.6297 H   0  0  0  0  0
  -18.3078  -15.9711    8.8814 H   0  0  0  0  0
  -15.3599  -15.6263    9.1160 H   0  0  0  0  0
  -17.4538  -15.5783   11.3214 H   0  0  0  0  0
  -16.7793  -14.1046   10.4900 H   0  0  0  0  0
  -14.6883  -14.4117   11.4399 H   0  0  0  0  0
  -15.0607  -16.0979   11.9324 H   0  0  0  0  0
  -15.0971  -14.5856   13.8716 H   0  0  0  0  0
  -16.7203  -15.2425   13.5443 H   0  0  0  0  0
  -17.4670  -13.2830   12.5870 H   0  0  0  0  0
  -15.7231  -12.6244   12.4648 H   0  0  0  0  0
  -15.1025  -13.2318   15.3961 H   0  0  0  0  0
  -14.6780  -11.7420   14.5178 H   0  0  0  0  0
  -15.6525  -11.6515   16.0055 H   0  0  0  0  0
  -16.4541  -10.4869   13.3388 H   0  0  0  0  0
  -18.1335  -11.0728   13.4256 H   0  0  0  0  0
  -17.3393  -10.4272   14.8828 H   0  0  0  0  0
  -18.6635  -13.1106   14.5717 H   0  0  0  0  0
  -17.3880  -14.0476   15.3879 H   0  0  0  0  0
  -17.8971  -12.4739   16.0476 H   0  0  0  0  0
  -14.3080  -17.4506    9.0693 H   0  0  0  0  0
  -15.6780  -19.9541    9.8080 H   0  0  0  0  0
  -15.0595  -18.3550   11.8810 H   0  0  0  0  0
  -14.3852  -19.9069    7.7368 H   0  0  0  0  0
  -13.6116  -21.0290    8.9081 H   0  0  0  0  0
  -12.0978  -19.6345    7.8656 H   0  0  0  0  0
  1  2  1  0  0  0
  2  3  1  0  0  0
  2  5  1  0  0  0
  3  4  2  0  0  0
  3 10  1  0  0  0
  5  6  1  0  0  0
  6  7  1  0  0  0
  7  8  2  0  0  0
  7  9  1  0  0  0
 10 11  1  0  0  0
 11 12  1  0  0  0
 11 14  1  0  0  0
 12 13  2  0  0  0
 12 17  1  0  0  0
 14 15  1  0  0  0
 14 16  1  0  0  0
 17 18  1  0  0  0
 18 19  1  0  0  0
 18 21  1  0  0  0
 19 20  2  0  0  0
 19 22  1  0  0  0
 22 23  1  0  0  0
 23 24  1  0  0  0
 23 26  1  0  0  0
 24 25  2  0  0  0
 24 33  1  0  0  0
 26 27  1  0  0  0
 27 28  1  0  0  0
 28 29  1  0  0  0
 29 30  1  0  0  0
 30 31  1  0  0  0
 30 32  2  0  0  0
 33 34  1  0  0  0
 34 35  1  0  0  0
 34 40  1  0  0  0
 35 36  1  0  0  0
 36 37  1  0  0  0
 37 38  1  0  0  0
 38 39  1  0  0  0
 39 42  1  0  0  0
 39 43  1  0  0  0
 39 44  1  0  0  0
 40 41  2  0  0  0
 40 45  1  0  0  0
 45 46  1  0  0  0
 46 47  1  0  0  0
 46 49  1  0  0  0
 47 48  1  0  0  0
 47 51  2  0  0  0
 49 50  1  0  0  0
  1 52  1  0  0  0
  1 53  1  0  0  0
  1 54  1  0  0  0
  2 55  1  0  0  0
  5 56  1  0  0  0
  5 57  1  0  0  0
  6 58  1  0  0  0
  6 59  1  0  0  0
  9 60  1  0  0  0
  9 61  1  0  0  0
 10 62  1  0  0  0
 11 63  1  0  0  0
 14 64  1  0  0  0
 15 65  1  0  0  0
 16 66  1  0  0  0
 16 67  1  0  0  0
 16 68  1  0  0  0
 17 69  1  0  0  0
 18 70  1  0  0  0
 21 71  1  0  0  0
 21 72  1  0  0  0
 21 73  1  0  0  0
 22 74  1  0  0  0
 23 75  1  0  0  0
 26 76  1  0  0  0
 26 77  1  0  0  0
 27 78  1  0  0  0
 27 79  1  0  0  0
 28 80  1  0  0  0
 28 81  1  0  0  0
 29 82  1  0  0  0
 31 83  1  0  0  0
 31 84  1  0  0  0
 32 85  1  0  0  0
 33 86  1  0  0  0
 34 87  1  0  0  0
 35 88  1  0  0  0
 35 89  1  0  0  0
 36 90  1  0  0  0
 36 91  1  0  0  0
 37 92  1  0  0  0
 37 93  1  0  0  0
 38 94  1  0  0  0
 38 95  1  0  0  0
 42 96  1  0  0  0
 42 97  1  0  0  0
 42 98  1  0  0  0
 43 99  1  0  0  0
 43100  1  0  0  0
 43101  1  0  0  0
 44102  1  0  0  0
 44103  1  0  0  0
 44104  1  0  0  0
 45105  1  0  0  0
 46106  1  0  0  0
 48107  1  0  0  0
 49108  1  0  0  0
 49109  1  0  0  0
 50110  1  0  0  0
M  END
$$$$
