2wqb_ligand
  -I-interpret- 

 50 54  0  0  0  0  0  0  0  0999 V2000
   33.1710   42.4900   34.6710 C   0  0  0  0  0
   34.5110   42.7900   34.6760 C   0  0  0  0  0
   32.7440   41.2340   35.0320 C   0  0  0  0  0
   35.4390   41.8280   35.0530 C   0  0  0  0  0
   33.6570   40.2670   35.4100 C   0  0  0  0  0
   39.9340   44.6280   38.6820 C   0  0  0  0  0
   36.8400   37.5910   36.0250 C   0  0  0  0  0
   35.0190   40.5520   35.4270 C   0  0  0  0  0
   37.9490   42.8740   38.2050 C   0  0  0  0  0
   36.0050   39.5310   35.8530 C   0  0  0  0  0
   37.1460   39.6760   36.5800 C   0  0  0  0  0
   37.6820   44.1050   38.8950 C   0  0  0  0  0
   39.2540   42.6780   37.8100 C   0  0  0  0  0
   37.7570   40.8770   37.1690 C   0  0  0  0  0
   38.4270   37.3010   41.5580 C   0  0  0  0  0
   39.7630   37.0380   40.9070 C   0  0  0  0  0
   37.2910   37.0000   40.6280 C   0  0  0  0  0
   39.8590   37.7820   39.5990 C   0  0  0  0  0
   37.4570   37.7670   39.3370 C   0  0  0  0  0
   38.7410   37.3700   38.6820 C   0  0  0  0  0
   38.9070   37.9740   37.3360 C   0  0  0  0  0
   38.7140   44.9690   39.1170 N   0  0  0  0  0
   40.2640   43.5060   38.0260 N   0  0  0  0  0
   35.8190   38.1980   35.5130 N   0  0  0  0  0
   37.1090   41.8160   37.8160 N   0  0  0  0  0
   37.6780   38.4040   36.6840 N   0  0  0  0  0
   36.4830   44.4680   39.3400 N   0  0  0  0  0
   39.4560   41.1800   36.9720 S   0  0  0  0  0
   32.4446   43.2489   34.3803 H   0  0  0  0  0
   34.8469   43.7849   34.3836 H   0  0  0  0  0
   31.6796   40.9993   35.0201 H   0  0  0  0  0
   36.5014   42.0717   35.0566 H   0  0  0  0  0
   33.3077   39.2750   35.6965 H   0  0  0  0  0
   40.7402   45.3340   38.8814 H   0  0  0  0  0
   37.0040   36.5176   35.9295 H   0  0  0  0  0
   38.3785   38.3552   41.8308 H   0  0  0  0  0
   38.3368   36.6557   42.4318 H   0  0  0  0  0
   39.8642   35.9692   40.7183 H   0  0  0  0  0
   40.5573   37.3790   41.5711 H   0  0  0  0  0
   36.3545   37.2957   41.1010 H   0  0  0  0  0
   37.2815   35.9321   40.4100 H   0  0  0  0  0
   40.8125   37.5482   39.1254 H   0  0  0  0  0
   39.7854   38.8523   39.7918 H   0  0  0  0  0
   37.4732   38.8360   39.5494 H   0  0  0  0  0
   36.6245   37.5408   38.6708 H   0  0  0  0  0
   38.7449   36.2920   38.5210 H   0  0  0  0  0
   39.3404   37.2013   36.7011 H   0  0  0  0  0
   39.5154   38.8683   37.4707 H   0  0  0  0  0
   35.6796   43.8556   39.1986 H   0  0  0  0  0
   36.3664   45.3589   39.8228 H   0  0  0  0  0
  2  1  4  0  0  0
  3  1  4  0  0  0
  4  2  4  0  0  0
  5  3  4  0  0  0
  8  4  4  0  0  0
  8  5  4  0  0  0
  6 22  4  0  0  0
 23  6  4  0  0  0
  7 24  4  0  0  0
 26  7  4  0  0  0
 10  8  1  0  0  0
  9 12  4  0  0  0
 13  9  4  0  0  0
 25  9  4  0  0  0
 11 10  4  0  0  0
 10 24  4  0  0  0
 11 14  1  0  0  0
 26 11  4  0  0  0
 12 22  4  0  0  0
 12 27  1  0  0  0
 13 23  4  0  0  0
 28 13  4  0  0  0
 14 25  4  0  0  0
 14 28  4  0  0  0
 16 15  1  0  0  0
 17 15  1  0  0  0
 18 16  1  0  0  0
 19 17  1  0  0  0
 20 18  1  0  0  0
 20 19  1  0  0  0
 21 20  1  0  0  0
 21 26  1  0  0  0
  1 29  1  0  0  0
  2 30  1  0  0  0
  3 31  1  0  0  0
  4 32  1  0  0  0
  5 33  1  0  0  0
  6 34  1  0  0  0
  7 35  1  0  0  0
 15 36  1  0  0  0
 15 37  1  0  0  0
 16 38  1  0  0  0
 16 39  1  0  0  0
 17 40  1  0  0  0
 17 41  1  0  0  0
 18 42  1  0  0  0
 18 43  1  0  0  0
 19 44  1  0  0  0
 19 45  1  0  0  0
 20 46  1  0  0  0
 21 47  1  0  0  0
 21 48  1  0  0  0
 27 49  1  0  0  0
 27 50  1  0  0  0
M  END
$$$$
