1x70_ligand
  -I-interpret- 

 44 46  0  0  0  0  0  0  0  0999 V2000
   34.5880   50.5400   36.7400 C   0  0  0  0  0
   35.9160   51.0580   36.8040 C   0  0  0  0  0
   37.0810   50.2570   36.5150 C   0  0  0  0  0
   36.8900   48.8840   36.1400 C   0  0  0  0  0
   35.5560   48.3630   36.0770 C   0  0  0  0  0
   34.4320   49.1800   36.3660 C   0  0  0  0  0
   35.3810   47.1130   35.7320 F   0  0  0  0  0
   36.0680   52.3270   37.1540 F   0  0  0  0  0
   38.4290   50.9030   36.6040 C   0  0  0  0  0
   39.0930   51.0760   35.2230 C   0  0  0  0  0
   40.3800   51.8310   35.4450 C   0  0  0  0  0
   41.5760   51.0710   36.1670 C   0  0  0  0  0
   42.7630   51.8390   36.4340 N   0  0  0  0  0
   38.2030   51.8460   34.3530 N   0  3  0  0  0
   41.4170   49.8850   36.5130 O   0  0  0  0  0
   42.9990   52.7410   35.2820 C   0  0  0  0  0
   44.1670   52.4110   34.3740 C   0  0  0  0  0
   45.3490   51.8910   35.1230 N   0  0  0  0  0
   45.3110   51.1800   36.2900 C   0  0  0  0  0
   43.9160   50.8910   36.8830 C   0  0  0  0  0
   46.6690   51.9620   34.8650 C   0  0  0  0  0
   47.3490   51.3310   35.8410 N   0  0  0  0  0
   46.5370   50.8670   36.6880 N   0  0  0  0  0
   47.3330   52.6430   33.6640 C   0  0  0  0  0
   48.6230   52.4720   33.7700 F   0  0  0  0  0
   47.0130   53.9300   33.7260 F   0  0  0  0  0
   46.8880   52.0850   32.5320 F   0  0  0  0  0
   33.2290   48.6840   36.2980 F   0  0  0  0  0
   33.7255   51.1656   36.9698 H   0  0  0  0  0
   37.7447   48.2489   35.9073 H   0  0  0  0  0
   39.0705   50.2610   37.2076 H   0  0  0  0  0
   38.2994   51.8930   37.0413 H   0  0  0  0  0
   39.2884   50.1131   34.7510 H   0  0  0  0  0
   40.1203   52.6569   36.1073 H   0  0  0  0  0
   40.7499   52.0715   34.4483 H   0  0  0  0  0
   38.6399   51.9619   33.4386 H   0  0  0  0  0
   37.3185   51.3489   34.2479 H   0  0  0  0  0
   38.0324   52.7619   34.7682 H   0  0  0  0  0
   43.2236   53.7175   35.7111 H   0  0  0  0  0
   42.1081   52.6652   34.6586 H   0  0  0  0  0
   44.4680   53.3286   33.8685 H   0  0  0  0  0
   43.8429   51.6358   33.6797 H   0  0  0  0  0
   43.6406   49.8944   36.5379 H   0  0  0  0  0
   44.0123   51.0205   37.9610 H   0  0  0  0  0
  1  2  4  0  0  0
  1  6  4  0  0  0
  2  3  4  0  0  0
  2  8  1  0  0  0
  3  4  4  0  0  0
  3  9  1  0  0  0
  4  5  4  0  0  0
  5  6  4  0  0  0
  5  7  1  0  0  0
  6 28  1  0  0  0
  9 10  1  0  0  0
 10 11  1  0  0  0
 10 14  1  0  0  0
 11 12  1  0  0  0
 12 13  1  0  0  0
 12 15  2  0  0  0
 13 16  1  0  0  0
 13 20  1  0  0  0
 16 17  1  0  0  0
 17 18  1  0  0  0
 18 19  4  0  0  0
 18 21  4  0  0  0
 19 20  1  0  0  0
 19 23  4  0  0  0
 21 22  4  0  0  0
 21 24  1  0  0  0
 22 23  4  0  0  0
 24 25  1  0  0  0
 24 26  1  0  0  0
 24 27  1  0  0  0
  1 29  1  0  0  0
  4 30  1  0  0  0
  9 31  1  0  0  0
  9 32  1  0  0  0
 10 33  1  0  0  0
 11 34  1  0  0  0
 11 35  1  0  0  0
 14 36  1  0  0  0
 14 37  1  0  0  0
 14 38  1  0  0  0
 16 39  1  0  0  0
 16 40  1  0  0  0
 17 41  1  0  0  0
 17 42  1  0  0  0
 20 43  1  0  0  0
 20 44  1  0  0  0
M  END
$$$$
