6d59_ligand
  -I-interpret- 

 61 65  0  0  0  0  0  0  0  0999 V2000
   36.5290   29.3920   23.3890 N   0  0  0  0  0
   39.6070   30.7970   26.5990 N   0  0  0  0  0
   33.0730   28.9940   22.1090 C   0  0  0  0  0
   35.6470   28.9440   22.4770 C   0  0  0  0  0
   35.7290   29.8570   24.4580 C   0  0  0  0  0
   36.1160   30.4640   25.6520 C   0  0  0  0  0
   35.1100   30.7880   26.5570 C   0  0  0  0  0
   33.3330   29.9560   25.0680 C   0  0  0  0  0
   38.2910   31.7680   25.1650 C   0  0  0  0  0
   38.3760   30.1970   26.7990 C   0  0  0  0  0
   37.2910   28.5540   20.7720 C   0  0  0  0  0
   35.5410   26.8980   21.0990 C   0  0  0  0  0
   31.9470   30.2650   20.2300 C   0  0  0  0  0
   31.7160   31.4290   19.4930 C   0  0  0  0  0
   32.4400   32.5950   19.8090 C   0  0  0  0  0
   34.3030   29.1110   22.8860 N   0  0  0  0  0
   34.0910   33.9170   21.1440 C   0  0  0  0  0
   33.3760   32.6300   20.8330 C   0  0  0  0  0
   34.3610   29.6480   24.1760 C   0  0  0  0  0
   37.5050   30.7940   25.8800 C   0  0  0  0  0
   37.8280   32.6960   24.1180 C   0  0  0  0  0
   38.1280   29.1540   27.8050 C   0  0  0  0  0
   37.3560   28.1860   19.2770 C   0  0  0  0  0
   35.6010   26.4590   19.6280 C   0  0  0  0  0
   33.6040   31.4550   21.5550 C   0  0  0  0  0
   30.7060   31.4670   18.3950 C   0  0  0  0  0
   32.8810   30.2690   21.2600 C   0  0  0  0  0
   33.7660   30.5090   26.2470 C   0  0  0  0  0
   32.2190   33.6940   19.0860 F   0  0  0  0  0
   39.5820   31.7480   25.6150 N   0  0  0  0  0
   35.9000   28.3350   21.2120 N   0  0  0  0  0
   36.9190   26.7830   19.0300 N   0  3  0  0  0
   32.5550   30.8430   27.4650 Cl  0  0  0  0  0
   32.2255   28.8746   22.7840 H   0  0  0  0  0
   33.1375   28.1258   21.4532 H   0  0  0  0  0
   35.3632   31.2584   27.5071 H   0  0  0  0  0
   32.2811   29.7738   24.8482 H   0  0  0  0  0
   37.5845   29.5924   20.9260 H   0  0  0  0  0
   37.9793   27.9377   21.3504 H   0  0  0  0  0
   36.2460   26.3042   21.6807 H   0  0  0  0  0
   34.5300   26.7488   21.4780 H   0  0  0  0  0
   31.3953   29.3541   19.9977 H   0  0  0  0  0
   34.6443   34.2455   20.2642 H   0  0  0  0  0
   33.3619   34.6783   21.4215 H   0  0  0  0  0
   34.7829   33.7562   21.9708 H   0  0  0  0  0
   37.4263   32.1256   23.2805 H   0  0  0  0  0
   37.0506   33.3425   24.5252 H   0  0  0  0  0
   38.6659   33.3039   23.7766 H   0  0  0  0  0
   38.7672   28.2950   27.6011 H   0  0  0  0  0
   38.3511   29.5472   28.7968 H   0  0  0  0  0
   37.0824   28.8492   27.7604 H   0  0  0  0  0
   38.3896   28.2852   18.9455 H   0  0  0  0  0
   36.6880   28.8528   18.7318 H   0  0  0  0  0
   34.8258   26.9878   19.0734 H   0  0  0  0  0
   35.4501   25.3806   19.5784 H   0  0  0  0  0
   34.3455   31.4491   22.3539 H   0  0  0  0  0
   30.9737   30.7367   17.6314 H   0  0  0  0  0
   29.7224   31.2279   18.7994 H   0  0  0  0  0
   30.6868   32.4641   17.9551 H   0  0  0  0  0
   37.6097   26.1671   19.4589 H   0  0  0  0  0
   36.8356   26.6614   18.0207 H   0  0  0  0  0
  4  1  4  0  0  0
  1  5  4  0  0  0
 10  2  4  0  0  0
  2 30  4  0  0  0
  3 16  1  0  0  0
 27  3  1  0  0  0
 16  4  4  0  0  0
  4 31  1  0  0  0
  5  6  4  0  0  0
  5 19  4  0  0  0
  6  7  4  0  0  0
  6 20  1  0  0  0
  7 28  4  0  0  0
 19  8  4  0  0  0
  8 28  4  0  0  0
 20  9  4  0  0  0
  9 21  1  0  0  0
  9 30  4  0  0  0
 20 10  4  0  0  0
 10 22  1  0  0  0
 11 23  1  0  0  0
 31 11  1  0  0  0
 12 24  1  0  0  0
 31 12  1  0  0  0
 13 14  4  0  0  0
 13 27  4  0  0  0
 14 15  4  0  0  0
 14 26  1  0  0  0
 15 18  4  0  0  0
 15 29  1  0  0  0
 16 19  4  0  0  0
 18 17  1  0  0  0
 18 25  4  0  0  0
 23 32  1  0  0  0
 24 32  1  0  0  0
 25 27  4  0  0  0
 28 33  1  0  0  0
  3 34  1  0  0  0
  3 35  1  0  0  0
  7 36  1  0  0  0
  8 37  1  0  0  0
 11 38  1  0  0  0
 11 39  1  0  0  0
 12 40  1  0  0  0
 12 41  1  0  0  0
 13 42  1  0  0  0
 17 43  1  0  0  0
 17 44  1  0  0  0
 17 45  1  0  0  0
 21 46  1  0  0  0
 21 47  1  0  0  0
 21 48  1  0  0  0
 22 49  1  0  0  0
 22 50  1  0  0  0
 22 51  1  0  0  0
 23 52  1  0  0  0
 23 53  1  0  0  0
 24 54  1  0  0  0
 24 55  1  0  0  0
 25 56  1  0  0  0
 26 57  1  0  0  0
 26 58  1  0  0  0
 26 59  1  0  0  0
 32 60  1  0  0  0
 32 61  1  0  0  0
M  END
$$$$
