1f7b_ligand
  -I-interpret- 

 39 38  0  0  0  0  0  0  0  0999 V2000
    7.3730   12.4050   42.4780 C   0  0  0  0  0
    6.3060   12.0780   43.0440 O   0  0  0  0  0
    8.4900   11.9850   42.8520 O   0  0  0  0  0
    7.3480   13.2280   41.3100 C   0  0  0  0  0
    8.3700   12.7430   40.3130 C   0  0  0  0  0
    8.8450   13.1170   38.9570 C   0  0  0  0  0
    9.8180   12.1300   38.2890 C   0  0  0  0  0
    9.0270   11.0710   37.6200 N   0  0  0  0  0
    9.5450    9.8350   37.2800 C   0  0  0  0  0
    8.7390    8.8900   36.4200 C   0  0  0  0  0
   10.7000    9.4520   37.6560 O   0  0  0  0  0
   11.4610   13.8770   38.0980 O   0  0  0  0  0
   10.7800   12.8590   37.3160 C   0  0  0  0  0
   11.8740   11.8730   36.8110 C   0  0  0  0  0
   12.4860   11.2100   37.9540 O   0  0  0  0  0
   12.8950   12.6480   35.9360 C   0  0  0  0  0
   12.1730   13.5060   35.0050 O   0  0  0  0  0
   13.8360   11.7340   35.1430 C   0  0  0  0  0
   13.0770   11.0730   34.1020 O   0  0  0  0  0
    8.4300   14.1410   38.3730 O   0  0  0  0  0
    5.5678   12.5068   42.6050 H   0  0  0  0  0
    7.5813   14.2550   41.5908 H   0  0  0  0  0
    6.3569   13.1793   40.8590 H   0  0  0  0  0
    7.8696   11.8148   40.0370 H   0  0  0  0  0
    9.2604   13.0460   40.8638 H   0  0  0  0  0
   10.4553   11.6666   39.0421 H   0  0  0  0  0
    8.0501   11.2636   37.3989 H   0  0  0  0  0
    9.2861    8.6812   35.5007 H   0  0  0  0  0
    8.5708    7.9602   36.9633 H   0  0  0  0  0
    7.7806    9.3492   36.1777 H   0  0  0  0  0
   12.0712   14.3575   37.5337 H   0  0  0  0  0
   10.2258   13.2644   36.4695 H   0  0  0  0  0
   11.4420   11.0936   36.1833 H   0  0  0  0  0
   13.1612   10.6012   37.6456 H   0  0  0  0  0
   13.5151   13.2309   36.6170 H   0  0  0  0  0
   12.8015   13.9872   34.4618 H   0  0  0  0  0
   14.2760   10.9907   35.8079 H   0  0  0  0  0
   14.6365   12.3249   34.6979 H   0  0  0  0  0
   13.6587   10.4978   33.5996 H   0  0  0  0  0
  1  2  1  0  0  0
  1  3  2  0  0  0
  1  4  1  0  0  0
  4  5  1  0  0  0
  5  6  1  0  0  0
  6  7  1  0  0  0
  6 20  2  0  0  0
  7  8  1  0  0  0
  7 13  1  0  0  0
  8  9  1  0  0  0
  9 10  1  0  0  0
  9 11  2  0  0  0
 13 12  1  0  0  0
 13 14  1  0  0  0
 14 15  1  0  0  0
 14 16  1  0  0  0
 16 17  1  0  0  0
 16 18  1  0  0  0
 18 19  1  0  0  0
  2 21  1  0  0  0
  4 22  1  0  0  0
  4 23  1  0  0  0
  5 24  1  0  0  0
  5 25  1  0  0  0
  7 26  1  0  0  0
  8 27  1  0  0  0
 10 28  1  0  0  0
 10 29  1  0  0  0
 10 30  1  0  0  0
 12 31  1  0  0  0
 13 32  1  0  0  0
 14 33  1  0  0  0
 15 34  1  0  0  0
 16 35  1  0  0  0
 17 36  1  0  0  0
 18 37  1  0  0  0
 18 38  1  0  0  0
 19 39  1  0  0  0
M  END
$$$$
