4x69_ligand
  -I-interpret- 

 38 38  0  0  0  0  0  0  0  0999 V2000
   13.1300    5.8960    4.6280 C   0  0  0  0  0
   11.9840    6.3310    4.8490 O   0  0  0  0  0
   14.2440    6.5000    5.1250 N   0  0  0  0  0
   14.0500    7.7250    5.9370 C   0  0  0  0  0
   15.0510    8.8250    5.6390 C   0  0  0  0  0
   14.7990    9.9850    6.2780 N   0  0  0  0  0
   16.0130    8.6680    4.8830 O   0  0  0  0  0
   15.4590    5.7010    5.4070 C   0  0  0  0  0
   15.3410    5.2100    6.8750 C   0  0  0  0  0
   15.2840    6.4450    7.8160 C   0  0  0  0  0
   14.0830    7.3350    7.4250 C   0  0  0  0  0
   14.1150    4.4220    6.9990 N   0  3  0  0  0
   12.5300    3.6130    8.7180 S   0  0  0  0  0
   13.9860    3.8440    8.2720 O   0  0  0  0  0
   12.7050    2.7860    9.8750 O   0  0  0  0  0
   11.9830    4.8860    9.0140 O   0  0  0  0  0
   11.9590    2.8850    7.6420 O   0  0  0  0  0
   14.4940   13.1370    5.8580 C   0  0  0  0  0
   15.2680   12.0300    5.1130 C   0  0  0  0  0
   15.6800   11.0590    6.1140 O   0  0  0  0  0
   13.2447    5.0014    4.0159 H   0  0  0  0  0
   13.0812    8.1480    5.6711 H   0  0  0  0  0
   13.9762   10.0783    6.8736 H   0  0  0  0  0
   16.3584    6.3012    5.2699 H   0  0  0  0  0
   15.5365    4.8576    4.7209 H   0  0  0  0  0
   16.1986    4.5955    7.1489 H   0  0  0  0  0
   16.2067    7.0174    7.7208 H   0  0  0  0  0
   15.1685    6.1112    8.8472 H   0  0  0  0  0
   13.1775    6.7636    7.6293 H   0  0  0  0  0
   14.1646    8.2580    7.9991 H   0  0  0  0  0
   14.1484    3.6706    6.3100 H   0  0  0  0  0
   13.3204    5.0438    6.8496 H   0  0  0  0  0
   13.0770    1.9416    9.6101 H   0  0  0  0  0
   13.6273   12.7011    6.3549 H   0  0  0  0  0
   15.1460   13.5981    6.5999 H   0  0  0  0  0
   14.1637   13.8913    5.1438 H   0  0  0  0  0
   16.1333   12.4436    4.5950 H   0  0  0  0  0
   14.6408   11.5621    4.3542 H   0  0  0  0  0
  1  2  2  0  0  0
  3  1  1  0  0  0
  4  3  1  0  0  0
  3  8  1  0  0  0
  5  4  1  0  0  0
  4 11  1  0  0  0
  6  5  1  0  0  0
  5  7  2  0  0  0
 20  6  1  0  0  0
  8  9  1  0  0  0
 10  9  1  0  0  0
  9 12  1  0  0  0
 11 10  1  0  0  0
 12 14  1  0  0  0
 14 13  1  0  0  0
 13 15  1  0  0  0
 13 16  2  0  0  0
 13 17  2  0  0  0
 19 18  1  0  0  0
 19 20  1  0  0  0
  1 21  1  0  0  0
  4 22  1  0  0  0
  6 23  1  0  0  0
  8 24  1  0  0  0
  8 25  1  0  0  0
  9 26  1  0  0  0
 10 27  1  0  0  0
 10 28  1  0  0  0
 11 29  1  0  0  0
 11 30  1  0  0  0
 12 31  1  0  0  0
 12 32  1  0  0  0
 15 33  1  0  0  0
 18 34  1  0  0  0
 18 35  1  0  0  0
 18 36  1  0  0  0
 19 37  1  0  0  0
 19 38  1  0  0  0
M  END
$$$$
