4b7n_ligand
  -I-interpret- 

 43 43  0  0  0  0  0  0  0  0999 V2000
   29.0600   -5.5790   12.0760 C   0  0  0  0  0
   29.9370   -4.7960   11.6480 O   0  0  0  0  0
   27.8400   -5.3200   11.9730 O   0  0  0  0  0
   29.4410   -6.8380   12.7170 C   0  0  0  0  0
   30.7140   -7.1040   13.0790 C   0  0  0  0  0
   31.0100   -8.1110   14.1760 C   0  0  0  0  0
   29.9420   -9.2110   14.1660 C   0  0  0  0  0
   30.1120  -10.1330   15.2820 N   0  0  0  0  0
   30.5420  -11.3930   15.1360 C   0  0  0  0  0
   30.7420  -11.9130   14.0490 O   0  0  0  0  0
   30.7690  -12.1540   16.4100 C   0  0  0  0  0
   28.5490   -8.5730   14.1620 C   0  0  0  0  0
   28.3900   -7.8170   12.9580 O   0  0  0  0  0
   27.4030   -9.5790   14.2360 C   0  0  0  0  0
   27.4290  -10.4030   13.0630 O   0  0  0  0  0
   26.0500   -8.8670   14.3450 C   0  0  0  0  0
   25.8900   -8.2910   15.6460 O   0  0  0  0  0
   24.8720   -9.8000   14.0870 C   0  0  0  0  0
   24.9010  -10.8780   15.0300 O   0  0  0  0  0
   32.3000   -8.7680   13.9710 N   0  0  0  0  0
   33.0960   -9.0750   14.9120 C   0  0  0  0  0
   34.2510   -9.6720   14.6170 N   0  0  0  0  0
   32.8010   -8.8210   16.1910 N   0  0  0  0  0
   27.3285   -6.0359   12.3569 H   0  0  0  0  0
   31.5362   -6.5915   12.5796 H   0  0  0  0  0
   31.0200   -7.5647   15.1191 H   0  0  0  0  0
   30.0553   -9.8027   13.2576 H   0  0  0  0  0
   29.8924   -9.8020   16.2215 H   0  0  0  0  0
   30.1249  -13.0332   16.4262 H   0  0  0  0  0
   31.8122  -12.4652   16.4649 H   0  0  0  0  0
   30.5341  -11.5142   17.2606 H   0  0  0  0  0
   28.4953   -7.9537   15.0573 H   0  0  0  0  0
   27.5306  -10.1936   15.1271 H   0  0  0  0  0
   26.7103  -11.0382   13.1035 H   0  0  0  0  0
   26.0519   -8.0929   13.5776 H   0  0  0  0  0
   25.0389   -7.8498   15.6969 H   0  0  0  0  0
   24.9404  -10.2003   13.0755 H   0  0  0  0  0
   23.9394   -9.2465   14.1966 H   0  0  0  0  0
   24.1589  -11.4647   14.8666 H   0  0  0  0  0
   32.5772   -8.9932   13.0156 H   0  0  0  0  0
   34.4859   -9.8766   13.6457 H   0  0  0  0  0
   33.4562   -9.0835   16.9273 H   0  0  0  0  0
   31.9207   -8.3648   16.4305 H   0  0  0  0  0
  1  2  2  0  0  0
  1  3  1  0  0  0
  1  4  1  0  0  0
  4  5  2  0  0  0
  4 13  1  0  0  0
  5  6  1  0  0  0
  6  7  1  0  0  0
  6 20  1  0  0  0
  7  8  1  0  0  0
  7 12  1  0  0  0
  8  9  1  0  0  0
  9 10  2  0  0  0
  9 11  1  0  0  0
 12 13  1  0  0  0
 12 14  1  0  0  0
 14 15  1  0  0  0
 14 16  1  0  0  0
 16 17  1  0  0  0
 16 18  1  0  0  0
 18 19  1  0  0  0
 20 21  1  0  0  0
 21 22  2  0  0  0
 21 23  1  0  0  0
  3 24  1  0  0  0
  5 25  1  0  0  0
  6 26  1  0  0  0
  7 27  1  0  0  0
  8 28  1  0  0  0
 11 29  1  0  0  0
 11 30  1  0  0  0
 11 31  1  0  0  0
 12 32  1  0  0  0
 14 33  1  0  0  0
 15 34  1  0  0  0
 16 35  1  0  0  0
 17 36  1  0  0  0
 18 37  1  0  0  0
 18 38  1  0  0  0
 19 39  1  0  0  0
 20 40  1  0  0  0
 22 41  1  0  0  0
 23 42  1  0  0  0
 23 43  1  0  0  0
M  END
$$$$
