2viy_ligand
  -I-interpret- 

 86 88  0  0  0  0  0  0  0  0999 V2000
   30.5470    1.2450   34.3590 C   0  0  0  0  0
   29.3600    1.4560   33.7170 N   0  0  0  0  0
   29.2020    2.3450   32.5500 C   0  0  0  0  0
   28.3370    3.5240   33.0190 C   0  0  0  0  0
   28.5600    1.5640   31.3760 C   0  0  0  0  0
   31.5040    2.0170   34.2240 O   0  0  0  0  0
   30.5720    0.0470   35.2150 C   0  0  0  0  0
   30.1530   -1.2290   34.7310 C   0  0  0  0  0
   30.1760   -2.3610   35.5830 C   0  0  0  0  0
   30.6110   -2.2340   36.9210 C   0  0  0  0  0
   31.0290   -0.9730   37.4100 C   0  0  0  0  0
   31.0110    0.1680   36.5650 C   0  0  0  0  0
   29.2090    0.2240   31.1020 C   0  0  0  0  0
   28.4280   -0.9650   31.0890 C   0  0  0  0  0
   29.0350   -2.2200   30.8350 C   0  0  0  0  0
   30.4270   -2.2960   30.5930 C   0  0  0  0  0
   31.2140   -1.1170   30.6050 C   0  0  0  0  0
   30.6090    0.1360   30.8570 C   0  0  0  0  0
   28.0980    4.4500   31.9870 O   0  0  0  0  0
   28.9560    6.7450   34.8900 C   0  0  0  0  0
   28.9930    4.2820   34.1860 C   0  0  0  0  0
   28.2730    5.5240   34.4250 N   0  3  0  0  0
   31.5550   -0.8330   39.1000 S   0  0  0  0  0
   29.5260    6.5250   36.3070 C   0  0  0  0  0
   30.0910    7.1540   33.9040 C   0  0  0  0  0
   29.6350    7.9310   32.9040 N   0  0  0  0  0
   30.4790    8.4020   31.8030 C   0  0  0  0  0
   31.2560    6.7770   34.0420 O   0  0  0  0  0
   30.8950    9.8650   32.0780 C   0  0  0  0  0
   31.7800   10.4030   30.8840 C   0  0  0  0  0
   31.0860   10.2440   29.5070 C   0  0  0  0  0
   30.5680    8.7980   29.2790 C   0  0  0  0  0
   29.7070    8.2950   30.4680 C   0  0  0  0  0
   32.9950   -1.8910   39.1700 C   0  0  0  0  0
   33.5530   -1.8840   40.6000 C   0  0  0  0  0
   34.7870   -2.7790   40.7760 C   0  0  0  0  0
   35.3160   -2.7550   42.2180 C   0  0  0  0  0
   36.5490   -3.6500   42.4020 C   0  0  0  0  0
   30.5300   -1.4170   39.9240 O   0  0  0  0  0
   31.9300    0.5250   39.3430 O   0  0  0  0  0
   28.5335    0.9700   34.0651 H   0  0  0  0  0
   30.1570    2.7167   32.1786 H   0  0  0  0  0
   27.3937    3.0832   33.3415 H   0  0  0  0  0
   28.6799    2.1714   30.4789 H   0  0  0  0  0
   27.5212    1.3719   31.6444 H   0  0  0  0  0
   29.8135   -1.3331   33.7004 H   0  0  0  0  0
   29.8572   -3.3324   35.2050 H   0  0  0  0  0
   30.6248   -3.1054   37.5757 H   0  0  0  0  0
   31.3329    1.1360   36.9490 H   0  0  0  0  0
   27.3555   -0.9103   31.2757 H   0  0  0  0  0
   28.4298   -3.1265   30.8261 H   0  0  0  0  0
   30.8942   -3.2611   30.3973 H   0  0  0  0  0
   32.2865   -1.1764   30.4198 H   0  0  0  0  0
   31.2180    1.0400   30.8638 H   0  0  0  0  0
   27.6876    4.0009   31.2443 H   0  0  0  0  0
   28.2290    7.5564   34.9243 H   0  0  0  0  0
   30.0300    4.5060   33.9360 H   0  0  0  0  0
   28.9600    3.6648   35.0838 H   0  0  0  0  0
   27.9244    5.7809   33.5015 H   0  0  0  0  0
   27.6444    5.2928   35.1943 H   0  0  0  0  0
   28.7121    6.2862   36.9916 H   0  0  0  0  0
   30.2389    5.7007   36.2865 H   0  0  0  0  0
   30.0282    7.4332   36.6403 H   0  0  0  0  0
   28.6527    8.2056   32.9132 H   0  0  0  0  0
   31.3744    7.7848   31.7299 H   0  0  0  0  0
   31.4715    9.9083   33.0021 H   0  0  0  0  0
   30.0016   10.4824   32.1713 H   0  0  0  0  0
   32.7026    9.8229   30.8631 H   0  0  0  0  0
   31.9557   11.4659   31.0498 H   0  0  0  0  0
   31.8158   10.4708   28.7297 H   0  0  0  0  0
   30.2319   10.9205   29.4761 H   0  0  0  0  0
   31.4303    8.1387   29.1795 H   0  0  0  0  0
   29.9469    8.7956   28.3833 H   0  0  0  0  0
   28.8111    8.9123   30.5341 H   0  0  0  0  0
   29.4538    7.2489   30.2958 H   0  0  0  0  0
   33.7535   -1.5248   38.4782 H   0  0  0  0  0
   32.7180   -2.9071   38.8891 H   0  0  0  0  0
   32.7733   -2.2655   41.2592 H   0  0  0  0  0
   33.8524   -0.8618   40.8312 H   0  0  0  0  0
   35.5733   -2.4077   40.1188 H   0  0  0  0  0
   34.5019   -3.8031   40.5351 H   0  0  0  0  0
   34.5281   -3.1265   42.8731 H   0  0  0  0  0
   35.6036   -1.7308   42.4554 H   0  0  0  0  0
   36.2894   -4.6793   42.1544 H   0  0  0  0  0
   37.3470   -3.3068   41.7436 H   0  0  0  0  0
   36.8832   -3.5974   43.4382 H   0  0  0  0  0
  2  1  1  0  0  0
  1  6  2  0  0  0
  1  7  1  0  0  0
  3  2  1  0  0  0
  4  3  1  0  0  0
  3  5  1  0  0  0
  4 19  1  0  0  0
 21  4  1  0  0  0
  5 13  1  0  0  0
  7  8  4  0  0  0
  7 12  4  0  0  0
  8  9  4  0  0  0
  9 10  4  0  0  0
 11 10  4  0  0  0
 12 11  4  0  0  0
 11 23  1  0  0  0
 13 14  4  0  0  0
 13 18  4  0  0  0
 14 15  4  0  0  0
 15 16  4  0  0  0
 17 16  4  0  0  0
 18 17  4  0  0  0
 22 20  1  0  0  0
 20 24  1  0  0  0
 20 25  1  0  0  0
 21 22  1  0  0  0
 23 34  1  0  0  0
 23 39  2  0  0  0
 23 40  2  0  0  0
 25 26  1  0  0  0
 25 28  2  0  0  0
 26 27  1  0  0  0
 27 29  1  0  0  0
 27 33  1  0  0  0
 29 30  1  0  0  0
 30 31  1  0  0  0
 31 32  1  0  0  0
 32 33  1  0  0  0
 34 35  1  0  0  0
 35 36  1  0  0  0
 36 37  1  0  0  0
 37 38  1  0  0  0
  2 41  1  0  0  0
  3 42  1  0  0  0
  4 43  1  0  0  0
  5 44  1  0  0  0
  5 45  1  0  0  0
  8 46  1  0  0  0
  9 47  1  0  0  0
 10 48  1  0  0  0
 12 49  1  0  0  0
 14 50  1  0  0  0
 15 51  1  0  0  0
 16 52  1  0  0  0
 17 53  1  0  0  0
 18 54  1  0  0  0
 19 55  1  0  0  0
 20 56  1  0  0  0
 21 57  1  0  0  0
 21 58  1  0  0  0
 22 59  1  0  0  0
 22 60  1  0  0  0
 24 61  1  0  0  0
 24 62  1  0  0  0
 24 63  1  0  0  0
 26 64  1  0  0  0
 27 65  1  0  0  0
 29 66  1  0  0  0
 29 67  1  0  0  0
 30 68  1  0  0  0
 30 69  1  0  0  0
 31 70  1  0  0  0
 31 71  1  0  0  0
 32 72  1  0  0  0
 32 73  1  0  0  0
 33 74  1  0  0  0
 33 75  1  0  0  0
 34 76  1  0  0  0
 34 77  1  0  0  0
 35 78  1  0  0  0
 35 79  1  0  0  0
 36 80  1  0  0  0
 36 81  1  0  0  0
 37 82  1  0  0  0
 37 83  1  0  0  0
 38 84  1  0  0  0
 38 85  1  0  0  0
 38 86  1  0  0  0
M  END
$$$$
