2fdd_ligand
  -I-interpret- 

 89 94  0  0  0  0  0  0  0  0999 V2000
   19.1120   16.4550   -2.6680 C   0  0  0  0  0
   19.1160   17.8320   -3.3210 C   0  0  0  0  0
   17.8580   15.7450   -3.2830 C   0  0  0  0  0
   19.1730   16.7540   -1.1380 C   0  0  0  0  0
   18.1130   17.8380   -4.3430 O   0  0  0  0  0
   18.8290   18.8250   -2.3170 O   0  0  0  0  0
   17.7050   16.4760   -4.6130 C   0  0  0  0  0
   16.6510   15.8910   -2.5020 O   0  0  0  0  0
   18.5420   18.1800   -1.0650 C   0  0  0  0  0
   16.1360   14.9530   -1.6710 C   0  0  0  0  0
   15.2730   15.3280   -0.7260 N   0  0  0  0  0
   16.4630   13.7880   -1.7890 O   0  0  0  0  0
   14.5630   14.5580    0.3010 C   0  0  0  0  0
   14.9040   15.1850    1.6950 C   0  0  0  0  0
   13.0500   14.4330   -0.0530 C   0  0  0  0  0
   16.3190   15.4780    2.0190 C   0  0  0  0  0
   12.2780   13.3500    0.7240 C   0  0  0  0  0
   12.4420   15.6830    0.1640 O   0  0  0  0  0
   16.7650   16.8210    2.1710 C   0  0  0  0  0
   17.2540   14.4010    2.1620 C   0  0  0  0  0
   12.7790   12.0370    0.3920 N   0  0  0  0  0
   18.1430   17.0970    2.4590 C   0  0  0  0  0
   18.6080   14.6730    2.4450 C   0  0  0  0  0
   13.6070   11.1740    1.6290 S   0  0  0  0  0
   11.9630   11.2370   -0.5190 C   0  0  0  0  0
   19.0540   16.0180    2.5900 C   0  0  0  0  0
   12.4000   10.4830    2.6670 C   0  0  0  0  0
   14.4820   12.0190    2.3990 O   0  0  0  0  0
   14.3940   10.1000    1.0750 O   0  0  0  0  0
   12.1150   11.5210   -2.0320 C   0  0  0  0  0
   20.3470   16.2800    2.8360 O   0  0  0  0  0
   11.8290    9.2120    2.3430 C   0  0  0  0  0
   11.9540   11.1860    3.8300 C   0  0  0  0  0
   11.0020   10.8420   -2.8490 C   0  0  0  0  0
   13.5260   11.1920   -2.5770 C   0  0  0  0  0
   21.2310   16.9730    2.0080 C   0  0  0  0  0
   10.8300    8.6510    3.1650 C   0  0  0  0  0
   10.9490   10.6200    4.6560 C   0  0  0  0  0
   22.6790   16.6290    2.3140 C   0  0  0  0  0
   10.3830    9.3510    4.3200 C   0  0  0  0  0
   10.1540    7.4850    3.0580 O   0  0  0  0  0
   23.5190   17.4660    2.9650 N   0  0  0  0  0
   23.2240   15.4300    1.9360 C   0  0  0  0  0
    9.4260    8.6180    4.9320 O   0  0  0  0  0
    9.2510    7.4200    4.1580 C   0  0  0  0  0
   24.7090   16.9850    3.1170 C   0  0  0  0  0
   24.8660   15.3960    2.4370 S   0  0  0  0  0
   25.8380   17.7150    3.8070 C   0  0  0  0  0
   19.9335   15.7598   -2.8409 H   0  0  0  0  0
   20.0861   18.0581   -3.7635 H   0  0  0  0  0
   17.9992   14.6661   -3.3467 H   0  0  0  0  0
   20.1813   16.7049   -0.7269 H   0  0  0  0  0
   18.6479   16.0163   -0.5312 H   0  0  0  0  0
   16.6813   16.4278   -4.9842 H   0  0  0  0  0
   18.3121   16.0208   -5.3955 H   0  0  0  0  0
   18.9591   18.7465   -0.2324 H   0  0  0  0  0
   17.4667   18.1201   -0.8972 H   0  0  0  0  0
   15.0707   16.3277   -0.7155 H   0  0  0  0  0
   14.8931   13.5202    0.3466 H   0  0  0  0  0
   14.5967   14.4356    2.4244 H   0  0  0  0  0
   14.4071   16.1552    1.6973 H   0  0  0  0  0
   13.0062   14.1202   -1.0962 H   0  0  0  0  0
   11.2230   13.4052    0.4556 H   0  0  0  0  0
   12.4085   13.5195    1.7928 H   0  0  0  0  0
   11.5078   15.6246   -0.0494 H   0  0  0  0  0
   16.0567   17.6431    2.0682 H   0  0  0  0  0
   16.9176   13.3701    2.0518 H   0  0  0  0  0
   18.4862   18.1250    2.5759 H   0  0  0  0  0
   19.3160   13.8513    2.5532 H   0  0  0  0  0
   10.9271   11.4723   -0.2748 H   0  0  0  0  0
   12.2832   10.2049   -0.3765 H   0  0  0  0  0
   11.9994   12.5979   -2.1542 H   0  0  0  0  0
   12.1676    8.6749    1.4570 H   0  0  0  0  0
   12.3855   12.1549    4.0812 H   0  0  0  0  0
   11.0455    9.7639   -2.6941 H   0  0  0  0  0
   10.0324   11.2184   -2.5228 H   0  0  0  0  0
   11.1424   11.0643   -3.9068 H   0  0  0  0  0
   14.2666   11.7959   -2.0526 H   0  0  0  0  0
   13.7383   10.1349   -2.4174 H   0  0  0  0  0
   13.5632   11.4144   -3.6434 H   0  0  0  0  0
   21.0902   18.0410    2.1745 H   0  0  0  0  0
   21.0235   16.6931    0.9752 H   0  0  0  0  0
   10.6092   11.1515    5.5449 H   0  0  0  0  0
   22.7030   14.6323    1.4065 H   0  0  0  0  0
    9.4551    6.5395    4.7672 H   0  0  0  0  0
    8.2233    7.3421    3.8033 H   0  0  0  0  0
   26.0412   18.6477    3.2807 H   0  0  0  0  0
   25.5532   17.9319    4.8365 H   0  0  0  0  0
   26.7311   17.0902    3.7997 H   0  0  0  0  0
  1  2  1  0  0  0
  1  3  1  0  0  0
  1  4  1  0  0  0
  2  5  1  0  0  0
  2  6  1  0  0  0
  3  7  1  0  0  0
  3  8  1  0  0  0
  4  9  1  0  0  0
  5  7  1  0  0  0
  6  9  1  0  0  0
  8 10  1  0  0  0
 10 11  1  0  0  0
 10 12  2  0  0  0
 11 13  1  0  0  0
 13 14  1  0  0  0
 13 15  1  0  0  0
 14 16  1  0  0  0
 15 17  1  0  0  0
 15 18  1  0  0  0
 16 19  4  0  0  0
 16 20  4  0  0  0
 17 21  1  0  0  0
 19 22  4  0  0  0
 20 23  4  0  0  0
 21 24  1  0  0  0
 21 25  1  0  0  0
 22 26  4  0  0  0
 23 26  4  0  0  0
 24 27  1  0  0  0
 24 28  2  0  0  0
 24 29  2  0  0  0
 25 30  1  0  0  0
 26 31  1  0  0  0
 27 32  4  0  0  0
 27 33  4  0  0  0
 30 34  1  0  0  0
 30 35  1  0  0  0
 31 36  1  0  0  0
 32 37  4  0  0  0
 33 38  4  0  0  0
 36 39  1  0  0  0
 37 40  4  0  0  0
 37 41  1  0  0  0
 38 40  4  0  0  0
 39 42  4  0  0  0
 39 43  4  0  0  0
 40 44  1  0  0  0
 41 45  1  0  0  0
 42 46  4  0  0  0
 43 47  4  0  0  0
 44 45  1  0  0  0
 46 47  4  0  0  0
 46 48  1  0  0  0
  1 49  1  0  0  0
  2 50  1  0  0  0
  3 51  1  0  0  0
  4 52  1  0  0  0
  4 53  1  0  0  0
  7 54  1  0  0  0
  7 55  1  0  0  0
  9 56  1  0  0  0
  9 57  1  0  0  0
 11 58  1  0  0  0
 13 59  1  0  0  0
 14 60  1  0  0  0
 14 61  1  0  0  0
 15 62  1  0  0  0
 17 63  1  0  0  0
 17 64  1  0  0  0
 18 65  1  0  0  0
 19 66  1  0  0  0
 20 67  1  0  0  0
 22 68  1  0  0  0
 23 69  1  0  0  0
 25 70  1  0  0  0
 25 71  1  0  0  0
 30 72  1  0  0  0
 32 73  1  0  0  0
 33 74  1  0  0  0
 34 75  1  0  0  0
 34 76  1  0  0  0
 34 77  1  0  0  0
 35 78  1  0  0  0
 35 79  1  0  0  0
 35 80  1  0  0  0
 36 81  1  0  0  0
 36 82  1  0  0  0
 38 83  1  0  0  0
 43 84  1  0  0  0
 45 85  1  0  0  0
 45 86  1  0  0  0
 48 87  1  0  0  0
 48 88  1  0  0  0
 48 89  1  0  0  0
M  END
$$$$
