4lts_ligand
  -I-interpret- 

 51 53  0  0  0  0  0  0  0  0999 V2000
   16.0160    3.9020   -2.6220 C   0  0  0  0  0
   15.1670    4.8760   -3.1130 C   0  0  0  0  0
   15.3960    5.4080   -4.3790 C   0  0  0  0  0
   14.6660    6.5230   -1.0220 C   0  0  0  0  0
   16.0820    8.2650    0.6280 C   0  0  0  0  0
   15.0270    7.7750   -1.4700 C   0  0  0  0  0
   14.2670   10.5900    2.0580 C   0  0  0  0  0
   15.9000    9.9830    7.3830 C   0  0  0  0  0
   14.2640   11.0540    6.0260 C   0  0  0  0  0
   16.4730    4.9640   -5.1420 C   0  0  0  0  0
   17.3190    3.9880   -4.6410 C   0  0  0  0  0
   17.1030    3.4650   -3.3700 C   0  0  0  0  0
   13.8120    5.4220   -2.1100 S   0  0  0  0  0
   12.9610    6.1870   -2.9450 O   0  0  0  0  0
   13.3560    4.2890   -1.4000 O   0  0  0  0  0
   15.0410    6.1170    0.2460 C   0  0  0  0  0
   15.7390    6.9910    1.0570 C   0  0  0  0  0
   15.7250    8.6510   -0.6550 C   0  0  0  0  0
   16.8800    9.2300    1.4650 C   0  0  0  0  0
   16.7130    9.0930    2.9050 N   0  0  0  0  0
   15.9150    9.8880    3.6820 C   0  0  0  0  0
   14.8530   10.5750    3.2690 N   0  0  0  0  0
   13.7740   10.6170    1.0460 N   0  0  0  0  0
   16.2880    9.9950    5.0040 N   0  0  0  0  0
   15.4680   10.3350    6.0980 C   0  0  0  0  0
   15.1390   10.3120    8.4870 C   0  0  0  0  0
   14.0020   10.9730    8.3820 N   0  0  0  0  0
   13.5680   11.3580    7.1840 C   0  0  0  0  0
   17.9200    2.4900   -2.8850 O   0  0  0  0  0
   18.7020    2.6830   -1.6920 C   0  0  0  0  0
   18.0070    3.4220   -0.7630 F   0  0  0  0  0
   19.0300    1.4720   -1.0970 F   0  0  0  0  0
   19.8930    3.3300   -1.9550 F   0  0  0  0  0
   15.8311    3.4720   -1.6376 H   0  0  0  0  0
   14.7299    6.1748   -4.7744 H   0  0  0  0  0
   14.7592    8.0808   -2.4814 H   0  0  0  0  0
   16.8405    9.4473    7.5119 H   0  0  0  0  0
   13.8770   11.3730    5.0582 H   0  0  0  0  0
   16.6502    5.3838   -6.1322 H   0  0  0  0  0
   18.1542    3.6297   -5.2428 H   0  0  0  0  0
   14.7885    5.1181    0.6016 H   0  0  0  0  0
   16.0273    6.6717    2.0585 H   0  0  0  0  0
   15.9931    9.6419   -1.0216 H   0  0  0  0  0
   16.5320   10.2296    1.2048 H   0  0  0  0  0
   17.9306    9.0313    1.2530 H   0  0  0  0  0
   17.6456    9.3139    3.2540 H   0  0  0  0  0
   15.3041    9.7452    2.7906 H   0  0  0  0  0
   14.4214   11.1763    3.9709 H   0  0  0  0  0
   17.2682    9.8069    5.2143 H   0  0  0  0  0
   15.4885   10.0164    9.4762 H   0  0  0  0  0
   12.6411   11.9271    7.1126 H   0  0  0  0  0
  2  1  4  0  0  0
  1 12  4  0  0  0
  2  3  4  0  0  0
 13  2  1  0  0  0
  3 10  4  0  0  0
  6  4  4  0  0  0
  4 13  1  0  0  0
 16  4  4  0  0  0
  5 17  4  0  0  0
  5 18  4  0  0  0
 19  5  1  0  0  0
 18  6  4  0  0  0
 22  7  1  0  0  0
  7 23  3  0  0  0
 25  8  4  0  0  0
  8 26  4  0  0  0
 25  9  4  0  0  0
  9 28  4  0  0  0
 10 11  4  0  0  0
 12 11  4  0  0  0
 12 29  1  0  0  0
 13 14  2  0  0  0
 13 15  2  0  0  0
 17 16  4  0  0  0
 20 19  1  0  0  0
 21 20  1  0  0  0
 21 22  1  0  0  0
 24 21  1  0  0  0
 24 25  1  0  0  0
 26 27  4  0  0  0
 27 28  4  0  0  0
 29 30  1  0  0  0
 30 31  1  0  0  0
 30 32  1  0  0  0
 30 33  1  0  0  0
  1 34  1  0  0  0
  3 35  1  0  0  0
  6 36  1  0  0  0
  8 37  1  0  0  0
  9 38  1  0  0  0
 10 39  1  0  0  0
 11 40  1  0  0  0
 16 41  1  0  0  0
 17 42  1  0  0  0
 18 43  1  0  0  0
 19 44  1  0  0  0
 19 45  1  0  0  0
 20 46  1  0  0  0
 21 47  1  0  0  0
 22 48  1  0  0  0
 24 49  1  0  0  0
 26 50  1  0  0  0
 28 51  1  0  0  0
M  END
$$$$
