3lil_ligand
  -I-interpret- 

 70 72  0  0  0  0  0  0  0  0999 V2000
    7.9270   24.8860    3.5260 C   0  0  0  0  0
    8.5820   29.1280    7.8280 N   0  0  0  0  0
    6.7380   28.1940    6.8540 O   0  0  0  0  0
   -2.7870   22.7180   11.1680 Cl  0  0  0  0  0
    8.0350   23.5920    4.3160 C   0  0  0  0  0
    7.9600   27.1250    4.7170 N   0  0  0  0  0
    9.8400   25.7920    4.5680 O   0  0  0  0  0
    6.8060   23.1240    5.1080 C   0  0  0  0  0
    5.3920   23.6500    5.0670 C   0  0  0  0  0
    8.5240   31.3740    2.1350 O   0  0  0  0  0
    4.6620   22.8010    5.9380 C   0  0  0  0  0
    3.1860   22.8150    6.2750 C   0  0  0  0  0
    2.7790   22.0030    7.4720 C   0  0  0  0  0
    1.4150   21.9680    7.8250 C   0  0  0  0  0
   11.1410   32.2680   10.8010 O   0  0  0  0  0
    0.4760   22.6700    7.0160 C   0  0  0  0  0
    5.6640   30.9480    9.3460 N   0  0  0  0  0
    7.0790   31.3330    7.6130 O   0  0  0  0  0
    0.8790   23.4470    5.8540 C   0  0  0  0  0
    2.2730   23.4980    5.4670 C   0  0  0  0  0
    8.7250   25.9950    4.2060 C   0  0  0  0  0
    5.5100   21.8280    6.5050 N   0  0  0  0  0
    6.8520   22.0690    5.9610 O   0  0  0  0  0
    8.6640   28.1570    5.4790 C   0  0  0  0  0
    7.9200   28.3580    6.7980 C   0  0  0  0  0
    8.6070   29.5080    4.7610 C   0  0  0  0  0
    9.5930   29.8290    3.6490 C   0  0  0  0  0
    9.2810   31.2240    3.1480 C   0  0  0  0  0
   -0.9850   22.7050    7.4610 C   0  0  0  0  0
   -1.2420   22.6970    8.9270 C   0  0  0  0  0
   -2.5230   22.8020    9.4000 C   0  0  0  0  0
   -3.5950   22.9940    8.4870 C   0  0  0  0  0
   -3.3300   23.0880    7.0730 C   0  0  0  0  0
   -1.9940   22.9740    6.5820 C   0  0  0  0  0
    7.7440   29.4870    8.9500 C   0  0  0  0  0
    8.5710   29.6200   10.2390 C   0  0  0  0  0
    8.9290   31.0230   10.7300 C   0  0  0  0  0
   10.3240   31.2540   11.3310 C   0  0  0  0  0
    6.8750   30.6960    8.5980 C   0  0  0  0  0
    9.7230   32.2590    3.9020 O   0  0  0  0  0
   10.5950   30.7470   12.3760 O   0  0  0  0  0
    6.8796   25.1835    3.4748 H   0  0  0  0  0
    8.3270   24.7244    2.5250 H   0  0  0  0  0
    9.5641   29.3969    7.7674 H   0  0  0  0  0
    8.8075   23.7739    5.0632 H   0  0  0  0  0
    8.2126   22.8145    3.5730 H   0  0  0  0  0
    6.9566   27.1951    4.5474 H   0  0  0  0  0
    5.0144   24.4967    4.4937 H   0  0  0  0  0
    3.5204   21.4545    8.0530 H   0  0  0  0  0
    1.0840   21.4128    8.7027 H   0  0  0  0  0
   10.7802   32.5619    9.9613 H   0  0  0  0  0
    5.0060   31.6590    9.0267 H   0  0  0  0  0
    5.4675   30.4149   10.1931 H   0  0  0  0  0
    0.1320   23.9903    5.2753 H   0  0  0  0  0
    2.5970   24.0462    4.5824 H   0  0  0  0  0
    9.6985   27.8393    5.6090 H   0  0  0  0  0
    8.8319   30.2369    5.5396 H   0  0  0  0  0
    7.6347   29.5108    4.2684 H   0  0  0  0  0
    9.5014   29.1051    2.8393 H   0  0  0  0  0
   10.6159   29.7792    4.0221 H   0  0  0  0  0
   -0.4096   22.6075    9.6250 H   0  0  0  0  0
   -4.6178   23.0702    8.8559 H   0  0  0  0  0
   -4.1528   23.2467    6.3759 H   0  0  0  0  0
   -1.7829   23.1000    5.5201 H   0  0  0  0  0
    7.0404   28.6826    9.1646 H   0  0  0  0  0
    9.5252   29.1420   10.0176 H   0  0  0  0  0
    7.9479   29.1921   11.0244 H   0  0  0  0  0
    8.2309   31.2282   11.5416 H   0  0  0  0  0
    8.8926   31.6541    9.8421 H   0  0  0  0  0
   10.2770   31.9235    4.6106 H   0  0  0  0  0
  1  5  1  0  0  0
 21  1  1  0  0  0
  2 25  1  0  0  0
 35  2  1  0  0  0
 25  3  2  0  0  0
 31  4  1  0  0  0
  5  8  1  0  0  0
  6 21  1  0  0  0
 24  6  1  0  0  0
 21  7  2  0  0  0
  8  9  4  0  0  0
  8 23  4  0  0  0
  9 11  4  0  0  0
 28 10  2  0  0  0
 11 12  1  0  0  0
 22 11  4  0  0  0
 12 13  4  0  0  0
 12 20  4  0  0  0
 13 14  4  0  0  0
 14 16  4  0  0  0
 38 15  1  0  0  0
 19 16  4  0  0  0
 16 29  1  0  0  0
 39 17  1  0  0  0
 39 18  2  0  0  0
 20 19  4  0  0  0
 23 22  4  0  0  0
 25 24  1  0  0  0
 24 26  1  0  0  0
 26 27  1  0  0  0
 27 28  1  0  0  0
 28 40  1  0  0  0
 29 30  4  0  0  0
 29 34  4  0  0  0
 30 31  4  0  0  0
 31 32  4  0  0  0
 33 32  4  0  0  0
 34 33  4  0  0  0
 36 35  1  0  0  0
 35 39  1  0  0  0
 37 36  1  0  0  0
 37 38  1  0  0  0
 38 41  2  0  0  0
  1 42  1  0  0  0
  1 43  1  0  0  0
  2 44  1  0  0  0
  5 45  1  0  0  0
  5 46  1  0  0  0
  6 47  1  0  0  0
  9 48  1  0  0  0
 13 49  1  0  0  0
 14 50  1  0  0  0
 15 51  1  0  0  0
 17 52  1  0  0  0
 17 53  1  0  0  0
 19 54  1  0  0  0
 20 55  1  0  0  0
 24 56  1  0  0  0
 26 57  1  0  0  0
 26 58  1  0  0  0
 27 59  1  0  0  0
 27 60  1  0  0  0
 30 61  1  0  0  0
 32 62  1  0  0  0
 33 63  1  0  0  0
 34 64  1  0  0  0
 35 65  1  0  0  0
 36 66  1  0  0  0
 36 67  1  0  0  0
 37 68  1  0  0  0
 37 69  1  0  0  0
 40 70  1  0  0  0
M  END
$$$$
