1tfz_ligand
  -I-interpret- 

 57 59  0  0  0  0  0  0  0  0999 V2000
   37.2990   37.4720   52.3400 O   0  0  0  0  0
   37.3490   36.1570   51.7690 C   0  0  0  0  0
   39.2230   38.8020   51.7340 C   0  0  0  0  0
   40.5120   39.2700   52.0120 C   0  0  0  0  0
   41.1830   38.8450   53.1830 C   0  0  0  0  0
   40.5610   37.9640   54.0510 C   0  0  0  0  0
   39.2720   37.5030   53.7710 C   0  0  0  0  0
   38.6050   37.9240   52.6090 C   0  0  0  0  0
   43.5410   38.8610   52.6570 C   0  0  0  0  0
   44.8480   39.3390   52.9030 C   0  0  0  0  0
   45.0640   40.2680   53.9310 C   0  0  0  0  0
   44.0120   40.7300   54.7330 C   0  0  0  0  0
   42.6860   40.2750   54.5290 C   0  0  0  0  0
   42.4480   39.3100   53.4540 C   0  0  0  0  0
   43.3390   37.8200   51.7150 C   0  0  0  0  0
   46.9410   37.7970   52.5700 C   0  0  0  0  0
   47.9950   37.3700   51.8590 C   0  0  0  0  0
   46.8590   37.4050   53.8810 C   0  0  0  0  0
   48.6900   36.6260   52.7610 N   0  0  0  0  0
   47.9750   36.6540   54.0260 N   0  0  0  0  0
   48.2040   37.4520   50.4770 O   0  0  0  0  0
   45.9790   38.9070   52.0840 C   0  0  0  0  0
   45.8480   39.1190   50.8620 O   0  0  0  0  0
   41.5240   41.0020   55.3790 S   0  0  0  0  0
   40.6190   41.5870   54.5200 O   0  0  0  0  0
   42.0670   42.0320   56.1110 O   0  0  0  0  0
   40.6990   39.9780   56.4900 C   0  0  0  0  0
   49.6170   35.5020   52.3890 C   0  0  0  0  0
   48.8050   34.3050   51.9020 C   0  0  0  0  0
   50.5580   35.9400   51.2870 C   0  0  0  0  0
   50.5090   35.0720   53.5780 C   0  0  0  0  0
   37.9195   36.1868   50.8407 H   0  0  0  0  0
   37.8299   35.4756   52.4708 H   0  0  0  0  0
   36.3354   35.8129   51.5631 H   0  0  0  0  0
   38.7065   39.1276   50.8311 H   0  0  0  0  0
   40.9996   39.9625   51.3259 H   0  0  0  0  0
   41.0762   37.6303   54.9518 H   0  0  0  0  0
   38.7817   36.8132   54.4579 H   0  0  0  0  0
   46.0731   40.6391   54.1102 H   0  0  0  0  0
   44.2169   41.4499   55.5254 H   0  0  0  0  0
   43.6937   38.1434   50.7364 H   0  0  0  0  0
   43.8923   36.9350   52.0292 H   0  0  0  0  0
   42.2763   37.5844   51.6581 H   0  0  0  0  0
   46.3439   37.1494   51.9280 H   0  0  0  0  0
   46.0909   37.6386   54.6183 H   0  0  0  0  0
   39.9858   40.5682   57.0654 H   0  0  0  0  0
   40.1691   39.2000   55.9404 H   0  0  0  0  0
   41.4216   39.5197   57.1652 H   0  0  0  0  0
   48.1357   33.9743   52.6962 H   0  0  0  0  0
   48.2199   34.5953   51.0294 H   0  0  0  0  0
   49.4815   33.4935   51.6338 H   0  0  0  0  0
   49.9788   36.2294   50.4101 H   0  0  0  0  0
   51.1479   36.7896   51.6310 H   0  0  0  0  0
   51.2224   35.1153   51.0292 H   0  0  0  0  0
   51.1125   35.9195   53.9030 H   0  0  0  0  0
   49.8781   34.7367   54.4012 H   0  0  0  0  0
   51.1626   34.2580   53.2645 H   0  0  0  0  0
  1  2  1  0  0  0
  8  1  1  0  0  0
  4  3  4  0  0  0
  3  8  4  0  0  0
  5  4  4  0  0  0
  5  6  4  0  0  0
 14  5  1  0  0  0
  6  7  4  0  0  0
  7  8  4  0  0  0
 10  9  4  0  0  0
  9 14  4  0  0  0
  9 15  1  0  0  0
 10 11  4  0  0  0
 22 10  1  0  0  0
 11 12  4  0  0  0
 12 13  4  0  0  0
 14 13  4  0  0  0
 13 24  1  0  0  0
 16 17  1  0  0  0
 16 18  1  0  0  0
 16 22  1  0  0  0
 17 19  1  0  0  0
 17 21  2  0  0  0
 18 20  2  0  0  0
 19 20  1  0  0  0
 19 28  1  0  0  0
 22 23  2  0  0  0
 24 25  2  0  0  0
 24 26  2  0  0  0
 24 27  1  0  0  0
 28 29  1  0  0  0
 28 30  1  0  0  0
 28 31  1  0  0  0
  2 32  1  0  0  0
  2 33  1  0  0  0
  2 34  1  0  0  0
  3 35  1  0  0  0
  4 36  1  0  0  0
  6 37  1  0  0  0
  7 38  1  0  0  0
 11 39  1  0  0  0
 12 40  1  0  0  0
 15 41  1  0  0  0
 15 42  1  0  0  0
 15 43  1  0  0  0
 16 44  1  0  0  0
 18 45  1  0  0  0
 27 46  1  0  0  0
 27 47  1  0  0  0
 27 48  1  0  0  0
 29 49  1  0  0  0
 29 50  1  0  0  0
 29 51  1  0  0  0
 30 52  1  0  0  0
 30 53  1  0  0  0
 30 54  1  0  0  0
 31 55  1  0  0  0
 31 56  1  0  0  0
 31 57  1  0  0  0
M  END
$$$$
