6fnj_ligand
  -I-interpret- 

 57 61  0  0  0  0  0  0  0  0999 V2000
    1.1180   12.2350   98.4740 F   0  0  0  0  0
    0.7580   12.2010   99.7020 C   0  0  0  0  0
   -0.0930   11.4890   99.8720 F   0  0  0  0  0
    0.5360   13.2400  100.1140 F   0  0  0  0  0
    1.8500   11.6660  100.4850 C   0  0  0  0  0
    1.8660   11.7790  101.8940 C   0  0  0  0  0
    2.9200   10.9930   99.8970 C   0  0  0  0  0
    3.9690   10.4660  100.6590 C   0  0  0  0  0
    3.9650   10.6000  102.0540 C   0  0  0  0  0
    2.9040   11.2390  102.6850 C   0  0  0  0  0
    2.9890   11.3550  104.0510 N   0  0  0  0  0
    1.9090   11.3790  104.8820 C   0  0  0  0  0
    0.7420   11.2980  104.5020 O   0  0  0  0  0
    2.1500   11.6330  106.2530 C   0  0  0  0  0
    1.0520   11.8530  107.0850 C   0  0  0  0  0
    3.4280   11.7300  106.8190 C   0  0  0  0  0
    3.5870   12.0260  108.1890 C   0  0  0  0  0
    2.4750   12.2410  109.0160 C   0  0  0  0  0
    2.6280   12.5390  110.4120 C   0  0  0  0  0
    1.2030   12.1450  108.4380 C   0  0  0  0  0
    0.1460   12.3660  109.2430 N   0  0  0  0  0
   -0.6430   11.4020  109.7740 C   0  0  0  0  0
   -1.8000   11.7980  110.3000 N   0  0  0  0  0
   -0.3210   10.0960  109.7760 C   0  0  0  0  0
    0.7000    9.3600  109.3430 C   0  0  0  0  0
    0.4470    8.0910  109.6500 N   0  0  0  0  0
    1.3170    6.9300  109.3590 C   0  0  0  0  0
   -0.6420    8.0060  110.2390 N   0  0  0  0  0
   -1.1650    9.2250  110.3400 C   0  0  0  0  0
   -2.3250    9.6290  110.8770 N   0  0  0  0  0
   -2.6410   10.9240  110.8570 C   0  0  0  0  0
   -3.8400   11.3720  111.3970 C   0  0  0  0  0
   -4.7040   10.4780  112.0280 C   0  0  0  0  0
   -5.9100   10.9590  112.5420 C   0  0  0  0  0
   -6.2530   12.3050  112.4040 C   0  0  0  0  0
   -5.3890   13.2020  111.7680 N   0  0  0  0  0
   -4.1890   12.7110  111.2530 C   0  0  0  0  0
    1.0472   12.3021  102.3881 H   0  0  0  0  0
    2.9402   10.8739   98.8137 H   0  0  0  0  0
    4.7922    9.9494  100.1656 H   0  0  0  0  0
    4.7922   10.2039  102.6430 H   0  0  0  0  0
    3.9167   11.4276  104.4688 H   0  0  0  0  0
    0.0482   11.7947  106.6643 H   0  0  0  0  0
    4.3079   11.5752  106.1946 H   0  0  0  0  0
    4.5899   12.0886  108.6115 H   0  0  0  0  0
    3.1496   11.7172  110.9026 H   0  0  0  0  0
    3.2053   13.4566  110.5252 H   0  0  0  0  0
    1.6448   12.6686  110.8644 H   0  0  0  0  0
   -0.0776   13.3349  109.4704 H   0  0  0  0  0
    1.5861    9.7314  108.8282 H   0  0  0  0  0
    1.4656    6.8498  108.2822 H   0  0  0  0  0
    2.2801    7.0670  109.8508 H   0  0  0  0  0
    0.8439    6.0210  109.7304 H   0  0  0  0  0
   -4.4430    9.4236  112.1184 H   0  0  0  0  0
   -6.5890   10.2779  113.0551 H   0  0  0  0  0
   -7.2055   12.6611  112.7966 H   0  0  0  0  0
   -3.5138   13.3876  110.7292 H   0  0  0  0  0
  1  2  1  0  0  0
  2  3  1  0  0  0
  2  4  1  0  0  0
  2  5  1  0  0  0
  5  6  4  0  0  0
  5  7  4  0  0  0
  6 10  4  0  0  0
  7  8  4  0  0  0
  8  9  4  0  0  0
  9 10  4  0  0  0
 10 11  1  0  0  0
 11 12  1  0  0  0
 12 13  2  0  0  0
 12 14  1  0  0  0
 14 15  4  0  0  0
 14 16  4  0  0  0
 15 20  4  0  0  0
 16 17  4  0  0  0
 17 18  4  0  0  0
 18 19  1  0  0  0
 18 20  4  0  0  0
 20 21  1  0  0  0
 21 22  1  0  0  0
 22 23  4  0  0  0
 22 24  4  0  0  0
 23 31  4  0  0  0
 24 25  4  0  0  0
 24 29  4  0  0  0
 25 26  4  0  0  0
 26 27  1  0  0  0
 26 28  4  0  0  0
 28 29  4  0  0  0
 29 30  4  0  0  0
 30 31  4  0  0  0
 31 32  1  0  0  0
 32 33  4  0  0  0
 32 37  4  0  0  0
 33 34  4  0  0  0
 34 35  4  0  0  0
 35 36  4  0  0  0
 36 37  4  0  0  0
  6 38  1  0  0  0
  7 39  1  0  0  0
  8 40  1  0  0  0
  9 41  1  0  0  0
 11 42  1  0  0  0
 15 43  1  0  0  0
 16 44  1  0  0  0
 17 45  1  0  0  0
 19 46  1  0  0  0
 19 47  1  0  0  0
 19 48  1  0  0  0
 21 49  1  0  0  0
 25 50  1  0  0  0
 27 51  1  0  0  0
 27 52  1  0  0  0
 27 53  1  0  0  0
 33 54  1  0  0  0
 34 55  1  0  0  0
 35 56  1  0  0  0
 37 57  1  0  0  0
M  END
$$$$
