5uv5_ligand
  -I-interpret- 

 27 29  0  0  0  0  0  0  0  0999 V2000
  -30.0030   77.4630   -2.9660 N   0  0  0  0  0
  -29.4800   76.3590   -3.6360 C   0  0  0  0  0
  -30.0980   72.8370   -6.6930 C   0  0  0  0  0
  -30.6220   72.2030   -7.7600 C   0  0  0  0  0
  -29.7650   71.2190   -8.0610 C   0  0  0  0  0
  -28.8020   71.3500   -7.1430 C   0  0  0  0  0
  -30.3120   75.6820   -4.4830 C   0  0  0  0  0
  -31.6000   76.0520   -4.6490 C   0  0  0  0  0
  -32.2290   77.2230   -3.9370 C   0  0  0  0  0
  -31.2740   77.9920   -3.0580 C   0  0  0  0  0
  -29.8510   74.6170   -5.1730 C   0  0  0  0  0
  -30.6080   73.8990   -6.0270 C   0  0  0  0  0
  -31.8880   74.2930   -6.1690 C   0  0  0  0  0
  -32.3700   75.3460   -5.4970 C   0  0  0  0  0
  -28.3220   76.0350   -3.4520 O   0  0  0  0  0
  -31.5610   79.0060   -2.4610 O   0  0  0  0  0
  -29.2380   78.1550   -2.1370 O   0  0  0  0  0
  -29.0330   72.2850   -6.3810 O   0  0  0  0  0
  -31.5533   72.4421   -8.2734 H   0  0  0  0  0
  -29.8358   70.4853   -8.8640 H   0  0  0  0  0
  -27.9232   70.7083   -7.0790 H   0  0  0  0  0
  -33.0133   76.8261   -3.2924 H   0  0  0  0  0
  -32.5894   77.9108   -4.7020 H   0  0  0  0  0
  -28.8112   74.3219   -5.0321 H   0  0  0  0  0
  -32.5444   73.7439   -6.8442 H   0  0  0  0  0
  -33.4103   75.6381   -5.6402 H   0  0  0  0  0
  -28.3653   77.7566   -2.1007 H   0  0  0  0  0
  2  1  1  0  0  0
  1 10  1  0  0  0
  1 17  1  0  0  0
  7  2  1  0  0  0
  2 15  2  0  0  0
  3  4  4  0  0  0
 12  3  1  0  0  0
  3 18  4  0  0  0
  4  5  4  0  0  0
  6  5  4  0  0  0
 18  6  4  0  0  0
  7  8  4  0  0  0
 11  7  4  0  0  0
  8  9  1  0  0  0
  8 14  4  0  0  0
  9 10  1  0  0  0
 10 16  2  0  0  0
 11 12  4  0  0  0
 12 13  4  0  0  0
 13 14  4  0  0  0
  4 19  1  0  0  0
  5 20  1  0  0  0
  6 21  1  0  0  0
  9 22  1  0  0  0
  9 23  1  0  0  0
 11 24  1  0  0  0
 13 25  1  0  0  0
 14 26  1  0  0  0
 17 27  1  0  0  0
M  END
$$$$
