3b4f_ligand
  -I-interpret- 

 37 39  0  0  0  0  0  0  0  0999 V2000
   -2.4140    1.6580   11.2490 C   0  0  0  0  0
   -1.9940    0.4340   10.7000 C   0  0  0  0  0
   -2.8160   -0.6950   10.7670 C   0  0  0  0  0
   -4.0750   -0.6110   11.3640 C   0  0  0  0  0
   -4.4930    0.6050   11.8950 C   0  0  0  0  0
   -3.6840    1.7580   11.8330 C   0  0  0  0  0
   -4.1570    2.9510   12.4100 C   0  0  0  0  0
   -4.7460    2.9690   13.6630 C   0  0  0  0  0
   -5.0200    1.9580   14.5960 C   0  0  0  0  0
   -5.6280    2.3050   15.7980 C   0  0  0  0  0
   -6.1020    1.2520   17.1160 S   0  0  0  0  0
   -5.2090    0.8740   18.2180 O   0  0  0  0  0
   -7.5510    1.0130   17.0290 O   0  0  0  0  0
   -5.6520   -0.1380   16.4070 N   0  0  0  0  0
   -5.9790    3.6350   16.0300 C   0  0  0  0  0
   -5.7020    4.6350   15.1040 C   0  0  0  0  0
   -5.0820    4.3000   13.9150 C   0  0  0  0  0
   -4.7130    5.0600   12.8800 N   0  0  0  0  0
   -4.1610    4.2810   11.9520 C   0  0  0  0  0
   -3.6340    4.9130   10.6450 C   0  0  0  0  0
   -3.1760    6.0570   10.6680 O   0  0  0  0  0
   -3.7040    4.2100    9.5330 N   0  0  0  0  0
   -4.2070    2.9650    9.4790 N   0  3  0  0  0
   -1.7547    2.5256   11.2206 H   0  0  0  0  0
   -1.0189    0.3645   10.2178 H   0  0  0  0  0
   -2.4730   -1.6428   10.3522 H   0  0  0  0  0
   -4.7221   -1.4867   11.4135 H   0  0  0  0  0
   -5.4714    0.6680   12.3714 H   0  0  0  0  0
   -4.7615    0.9207   14.3832 H   0  0  0  0  0
   -4.9873   -0.7560   16.8724 H   0  0  0  0  0
   -6.0341   -0.3930   15.4963 H   0  0  0  0  0
   -6.4830    3.8970   16.9603 H   0  0  0  0  0
   -5.9706    5.6704   15.3134 H   0  0  0  0  0
   -3.3594    4.6315    8.6705 H   0  0  0  0  0
   -4.1589    2.6215    8.5198 H   0  0  0  0  0
   -3.6636    2.3533   10.0881 H   0  0  0  0  0
   -5.1789    2.9785    9.7883 H   0  0  0  0  0
  1  2  4  0  0  0
  1  6  4  0  0  0
  2  3  4  0  0  0
  3  4  4  0  0  0
  4  5  4  0  0  0
  5  6  4  0  0  0
  6  7  1  0  0  0
  7  8  4  0  0  0
  7 19  4  0  0  0
  8  9  4  0  0  0
  8 17  4  0  0  0
  9 10  4  0  0  0
 10 11  1  0  0  0
 10 15  4  0  0  0
 11 12  2  0  0  0
 11 13  2  0  0  0
 11 14  1  0  0  0
 15 16  4  0  0  0
 16 17  4  0  0  0
 17 18  4  0  0  0
 18 19  4  0  0  0
 19 20  1  0  0  0
 20 21  2  0  0  0
 20 22  1  0  0  0
 22 23  1  0  0  0
  1 24  1  0  0  0
  2 25  1  0  0  0
  3 26  1  0  0  0
  4 27  1  0  0  0
  5 28  1  0  0  0
  9 29  1  0  0  0
 14 30  1  0  0  0
 14 31  1  0  0  0
 15 32  1  0  0  0
 16 33  1  0  0  0
 22 34  1  0  0  0
 23 35  1  0  0  0
 23 36  1  0  0  0
 23 37  1  0  0  0
M  END
$$$$
