4ymh_ligand
  -I-interpret- 

 47 49  0  0  0  0  0  0  0  0999 V2000
   35.0570  270.9920  160.8450 N   0  3  0  0  0
   35.6070  271.7730  159.7730 C   0  0  0  0  0
   37.1020  271.5180  159.6020 C   0  0  0  0  0
   37.9350  271.3650  160.8710 C   0  0  0  0  0
   39.6430  271.2590  160.4860 S   0  0  0  0  0
   34.9170  271.4720  158.4700 C   0  0  0  0  0
   34.9670  272.2710  157.5650 O   0  0  0  0  0
   34.3210  270.4130  158.3450 O   0  0  0  0  0
   40.2420  271.1180  162.1200 C   0  0  0  0  0
   40.1790  272.4030  162.9310 C   0  0  0  0  0
   40.5030  272.1230  164.2800 O   0  0  0  0  0
   41.1850  273.4330  162.4770 C   0  0  0  0  0
   40.5590  274.6660  162.2140 O   0  0  0  0  0
   42.1400  273.5670  163.6350 C   0  0  0  0  0
   42.6950  274.8380  163.7570 O   0  0  0  0  0
   41.3120  273.1370  164.8210 C   0  0  0  0  0
   42.1070  272.5930  165.9310 N   0  0  0  0  0
   43.1950  271.8480  165.8620 C   0  0  0  0  0
   43.6320  271.5380  167.0700 N   0  0  0  0  0
   42.8130  272.0840  167.9350 C   0  0  0  0  0
   42.6900  272.1370  169.3900 C   0  0  0  0  0
   43.5880  271.5180  170.1230 N   0  0  0  0  0
   41.6730  272.8030  169.9300 N   0  0  0  0  0
   40.7770  273.4050  169.1560 C   0  0  0  0  0
   40.8140  273.3980  167.8370 N   0  0  0  0  0
   41.7940  272.7640  167.1830 C   0  0  0  0  0
   35.5436  271.2174  161.7127 H   0  0  0  0  0
   34.0646  271.2053  160.9450 H   0  0  0  0  0
   35.1735  270.0004  160.6362 H   0  0  0  0  0
   35.4487  272.8183  160.0384 H   0  0  0  0  0
   37.4956  272.3990  159.0950 H   0  0  0  0  0
   37.1810  270.5642  159.0803 H   0  0  0  0  0
   37.6325  270.4509  161.3819 H   0  0  0  0  0
   37.7712  272.2357  161.5060 H   0  0  0  0  0
   34.3883  269.9110  159.1605 H   0  0  0  0  0
   41.2929  270.8372  162.0503 H   0  0  0  0  0
   39.6102  270.3898  162.6285 H   0  0  0  0  0
   39.1688  272.7918  162.8025 H   0  0  0  0  0
   41.6843  273.1374  161.5542 H   0  0  0  0  0
   41.2174  275.3032  161.9276 H   0  0  0  0  0
   43.0327  272.9531  163.5152 H   0  0  0  0  0
   43.2905  274.8550  164.5098 H   0  0  0  0  0
   40.7748  273.9801  165.2554 H   0  0  0  0  0
   43.6692  271.5312  164.9331 H   0  0  0  0  0
   44.3524  271.0130  169.6745 H   0  0  0  0  0
   43.5207  271.5425  171.1405 H   0  0  0  0  0
   39.9595  273.9385  169.6410 H   0  0  0  0  0
  1  2  1  0  0  0
  2  3  1  0  0  0
  2  6  1  0  0  0
  3  4  1  0  0  0
  4  5  1  0  0  0
  5  9  1  0  0  0
  6  7  2  0  0  0
  6  8  1  0  0  0
  9 10  1  0  0  0
 10 11  1  0  0  0
 10 12  1  0  0  0
 11 16  1  0  0  0
 12 13  1  0  0  0
 12 14  1  0  0  0
 14 15  1  0  0  0
 14 16  1  0  0  0
 16 17  1  0  0  0
 17 18  4  0  0  0
 17 26  4  0  0  0
 18 19  4  0  0  0
 19 20  4  0  0  0
 20 21  4  0  0  0
 20 26  4  0  0  0
 21 22  1  0  0  0
 21 23  4  0  0  0
 23 24  4  0  0  0
 24 25  4  0  0  0
 25 26  4  0  0  0
  1 27  1  0  0  0
  1 28  1  0  0  0
  1 29  1  0  0  0
  2 30  1  0  0  0
  3 31  1  0  0  0
  3 32  1  0  0  0
  4 33  1  0  0  0
  4 34  1  0  0  0
  8 35  1  0  0  0
  9 36  1  0  0  0
  9 37  1  0  0  0
 10 38  1  0  0  0
 12 39  1  0  0  0
 13 40  1  0  0  0
 14 41  1  0  0  0
 15 42  1  0  0  0
 16 43  1  0  0  0
 18 44  1  0  0  0
 22 45  1  0  0  0
 22 46  1  0  0  0
 24 47  1  0  0  0
M  END
$$$$
