1wkm_ligand
  -I-interpret- 

 21 20  0  0  0  0  0  0  0  0999 V2000
   49.1320   61.3430   -0.2750 N   0  3  0  0  0
   50.5770   60.9600   -0.1400 C   0  0  0  0  0
   51.0840   61.7160    1.0610 C   0  0  0  0  0
   52.2540   61.9680    1.1200 O   0  0  0  0  0
   51.2890   61.4160   -1.4330 C   0  0  0  0  0
   51.0510   60.3850   -2.5360 C   0  0  0  0  0
   51.8850   60.7200   -4.0750 S   0  0  0  0  0
   53.3540   59.7990   -3.8570 C   0  0  0  0  0
   50.3620   62.0760    1.9650 O   0  0  0  0  0
   48.6260   61.0572    0.5633 H   0  0  0  0  0
   49.0587   62.3539   -0.3897 H   0  0  0  0  0
   48.7328   60.8773   -1.0899 H   0  0  0  0  0
   50.7450   59.8912   -0.0080 H   0  0  0  0  0
   52.3589   61.5076   -1.2458 H   0  0  0  0  0
   50.8912   62.3814   -1.7459 H   0  0  0  0  0
   49.9821   60.3942   -2.7494 H   0  0  0  0  0
   51.4401   59.4356   -2.1680 H   0  0  0  0  0
   53.8868   60.1692   -2.9811 H   0  0  0  0  0
   53.1044   58.7476   -3.7145 H   0  0  0  0  0
   53.9839   59.9078   -4.7399 H   0  0  0  0  0
   49.4598   61.8051    1.7798 H   0  0  0  0  0
  1  2  1  0  0  0
  2  3  1  0  0  0
  2  5  1  0  0  0
  3  4  2  0  0  0
  3  9  1  0  0  0
  5  6  1  0  0  0
  6  7  1  0  0  0
  7  8  1  0  0  0
  1 10  1  0  0  0
  1 11  1  0  0  0
  1 12  1  0  0  0
  2 13  1  0  0  0
  5 14  1  0  0  0
  5 15  1  0  0  0
  6 16  1  0  0  0
  6 17  1  0  0  0
  8 18  1  0  0  0
  8 19  1  0  0  0
  8 20  1  0  0  0
  9 21  1  0  0  0
M  END
$$$$
