5erg_ligand
  -I-interpret- 

 51 53  0  0  0  0  0  0  0  0999 V2000
   79.0030   -1.2580  -13.3580 N   0  3  0  0  0
   78.7860   -0.2040  -12.4110 C   0  0  0  0  0
   77.3090    0.0060  -12.2630 C   0  0  0  0  0
   76.8770    0.7980  -11.4320 O   0  0  0  0  0
   76.5420   -0.6310  -12.9650 O   0  0  0  0  0
   79.5140    1.0490  -12.8900 C   0  0  0  0  0
   81.0300    0.8910  -12.8940 C   0  0  0  0  0
   81.8270    2.3110  -13.2190 S   0  0  0  0  0
   81.4080    2.8040  -14.7190 C   0  0  0  0  0
   83.4660    2.0780  -13.2380 C   0  0  0  0  0
   84.0590    1.8850  -11.8510 C   0  0  0  0  0
   85.2560    1.1380  -11.9490 O   0  0  0  0  0
   84.4660    3.1870  -11.2220 C   0  0  0  0  0
   83.8340    3.2870   -9.9790 O   0  0  0  0  0
   85.9500    3.0770  -10.9810 C   0  0  0  0  0
   86.2610    3.7030   -9.7510 O   0  0  0  0  0
   86.1650    1.5810  -10.9650 C   0  0  0  0  0
   87.5300    1.1590  -11.3360 N   0  0  0  0  0
   88.2880    1.7170  -12.2690 C   0  0  0  0  0
   89.4600    1.0930  -12.3600 N   0  0  0  0  0
   89.4780    0.1150  -11.4670 C   0  0  0  0  0
   90.4360   -0.9280  -11.0460 C   0  0  0  0  0
   91.6310   -1.0110  -11.6450 N   0  0  0  0  0
   90.0770   -1.7700  -10.0740 N   0  0  0  0  0
   88.8850   -1.6640   -9.5070 C   0  0  0  0  0
   87.9720   -0.7460   -9.8340 N   0  0  0  0  0
   88.2000    0.1610  -10.7920 C   0  0  0  0  0
   78.5193   -2.0997  -13.0449 H   0  0  0  0  0
   78.6409   -0.9752  -14.2686 H   0  0  0  0  0
   80.0027   -1.4465  -13.4319 H   0  0  0  0  0
   79.1861   -0.4571  -11.4292 H   0  0  0  0  0
   77.6120    1.2094  -10.9714 H   0  0  0  0  0
   79.2661    1.8598  -12.2049 H   0  0  0  0  0
   79.1977    1.2461  -13.9143 H   0  0  0  0  0
   81.2883    0.1777  -13.6767 H   0  0  0  0  0
   81.3327    0.5592  -11.9008 H   0  0  0  0  0
   81.6926    2.0411  -15.4436 H   0  0  0  0  0
   80.3303    2.9621  -14.7603 H   0  0  0  0  0
   81.9224    3.7367  -14.9505 H   0  0  0  0  0
   83.9215    2.9684  -13.6713 H   0  0  0  0  0
   83.6646    1.1725  -13.8114 H   0  0  0  0  0
   83.2898    1.3927  -11.2560 H   0  0  0  0  0
   84.2079    4.0440  -11.8441 H   0  0  0  0  0
   84.0824    4.1146   -9.5606 H   0  0  0  0  0
   86.5879    3.5632  -11.7191 H   0  0  0  0  0
   87.2051    3.6375   -9.5896 H   0  0  0  0  0
   86.0208    1.1742   -9.9641 H   0  0  0  0  0
   87.9919    2.5706  -12.8787 H   0  0  0  0  0
   91.8758   -0.3562  -12.3877 H   0  0  0  0  0
   92.2963   -1.7291  -11.3584 H   0  0  0  0  0
   88.6319   -2.3743   -8.7199 H   0  0  0  0  0
  1  2  1  0  0  0
  2  3  1  0  0  0
  2  6  1  0  0  0
  3  4  1  0  0  0
  3  5  2  0  0  0
  6  7  1  0  0  0
  7  8  1  0  0  0
  8  9  1  0  0  0
  8 10  1  0  0  0
 10 11  1  0  0  0
 11 12  1  0  0  0
 11 13  1  0  0  0
 12 17  1  0  0  0
 13 14  1  0  0  0
 13 15  1  0  0  0
 15 16  1  0  0  0
 15 17  1  0  0  0
 17 18  1  0  0  0
 18 19  4  0  0  0
 18 27  4  0  0  0
 19 20  4  0  0  0
 20 21  4  0  0  0
 21 22  4  0  0  0
 21 27  4  0  0  0
 22 23  1  0  0  0
 22 24  4  0  0  0
 24 25  4  0  0  0
 25 26  4  0  0  0
 26 27  4  0  0  0
  1 28  1  0  0  0
  1 29  1  0  0  0
  1 30  1  0  0  0
  2 31  1  0  0  0
  4 32  1  0  0  0
  6 33  1  0  0  0
  6 34  1  0  0  0
  7 35  1  0  0  0
  7 36  1  0  0  0
  9 37  1  0  0  0
  9 38  1  0  0  0
  9 39  1  0  0  0
 10 40  1  0  0  0
 10 41  1  0  0  0
 11 42  1  0  0  0
 13 43  1  0  0  0
 14 44  1  0  0  0
 15 45  1  0  0  0
 16 46  1  0  0  0
 17 47  1  0  0  0
 19 48  1  0  0  0
 23 49  1  0  0  0
 23 50  1  0  0  0
 25 51  1  0  0  0
M  END
$$$$
