### 
### Created by X-TOOL on Mon Sep 10 21:12:55 2018
### 

@<TRIPOS>MOLECULE
2gqn_ligand
   48    49     1     0     0
SMALL
GAST_HUCK


@<TRIPOS>ATOM
      1 O8        -12.8740    6.5150   51.7590 O.2       1 BLP         0.1796
      2 N5        -13.2040    6.4870   50.5450 N.2       1 BLP         0.3185
      3 O7        -13.4880    5.3210   50.0700 O.2       1 BLP         0.1796
      4 C16       -13.2970    7.5950   49.7160 C.ar      1 BLP         0.2186
      5 C15       -13.7630    7.3110   48.4000 C.ar      1 BLP        -0.0136
      6 C14       -13.8990    8.3310   47.4220 C.ar      1 BLP        -0.0496
      7 C13       -13.6060    9.6720   47.7690 C.ar      1 BLP        -0.0511
      8 C12       -13.1610    9.9170   49.0600 C.ar      1 BLP        -0.0342
      9 C11       -12.9840    8.9160   50.0540 C.ar      1 BLP         0.0921
     10 C10       -12.5810    9.3860   51.4560 C.2       1 BLP         0.2130
     11 O6        -12.6810    8.5970   52.4490 O.2       1 BLP        -0.3823
     12 N4        -12.2710   10.7080   51.6990 N.am      1 BLP        -0.2662
     13 C9        -11.9090   11.4460   52.9430 C.3       1 BLP         0.1281
     14 C8        -10.5400   11.0340   52.9920 C.2       1 BLP         0.2443
     15 O5        -10.2930   10.4080   54.0210 O.2       1 BLP        -0.3782
     16 N3         -9.7010   11.2780   51.8690 N.am      1 BLP        -0.1666
     17 N2         -8.3730   10.6990   52.0350 N.2       1 BLP        -0.1881
     18 C7         -7.4090   10.4640   51.2110 C.2       1 BLP         0.0319
     19 C6         -6.2130    9.6720   51.7270 C.ar      1 BLP         0.0303
     20 C17        -6.0110    9.3090   53.0920 C.ar      1 BLP         0.1172
     21 O9         -6.8670    9.6970   54.0990 O.3       1 BLP        -0.3300
     22 C2         -4.9020    8.5200   53.4530 C.ar      1 BLP         0.0433
     23 C1         -4.6130    8.1200   54.8850 C.3       1 BLP        -0.0216
     24 C4         -5.2920    9.1640   50.7810 C.ar      1 BLP         0.0045
     25 C3         -4.2190    8.3790   51.1950 C.ar      1 BLP        -0.0092
     26 N1         -4.0400    8.0840   52.4860 N.ar      1 BLP        -0.3218
     27 C5         -5.4270    9.4160   49.2750 C.3       1 BLP         0.1127
     28 O1         -4.7080   10.5680   48.8460 O.3       1 BLP        -0.2638
     29 P1         -5.2460   11.4460   47.5990 P.3       1 BLP         0.2038
     30 O2         -6.6830   11.8050   48.0690 O.co2     1 BLP        -0.5536
     31 O3         -4.3080   12.6080   47.6150 O.co2     1 BLP        -0.5536
     32 O4         -5.2040   10.4340   46.4490 O.co2     1 BLP        -0.5536
     33 H1        -14.0201    6.2908   48.1390 H         1 BLP         0.0704
     34 H2        -14.2245    8.0851   46.4177 H         1 BLP         0.0666
     35 H3        -13.7249   10.4770   47.0529 H         1 BLP         0.0670
     36 H4        -12.9326   10.9419   49.3293 H         1 BLP         0.0684
     37 H5        -12.2934   11.2836   50.8816 H         1 BLP         0.1875
     38 H6        -12.4832   11.1058   53.8173 H         1 BLP         0.0770
     39 H7        -12.0179   12.5351   52.8340 H         1 BLP         0.0770
     40 H8         -9.9891   11.7882   51.0586 H         1 BLP         0.2533
     41 H9         -7.4481   10.8191   50.1822 H         1 BLP         0.0706
     42 H10        -7.7368    9.3588   53.9216 H         1 BLP         0.2491
     43 H11        -3.6993    7.5084   54.9176 H         1 BLP         0.0382
     44 H12        -5.4582    7.5378   55.2808 H         1 BLP         0.0382
     45 H13        -4.4716    9.0233   55.4966 H         1 BLP         0.0382
     46 H14        -3.5184    8.0015   50.4590 H         1 BLP         0.0627
     47 H15        -6.4914    9.5555   49.0351 H         1 BLP         0.0779
     48 H16        -5.0413    8.5387   48.7350 H         1 BLP         0.0779
@<TRIPOS>BOND
     1    1    2 2  
     2    2    3 2  
     3    2    4 1  
     4    4    5 ar 
     5    4    9 ar 
     6    5    6 ar 
     7    6    7 ar 
     8    7    8 ar 
     9    8    9 ar 
    10    9   10 1  
    11   10   11 2  
    12   10   12 am 
    13   12   13 1  
    14   13   14 1  
    15   14   15 2  
    16   14   16 am 
    17   16   17 1  
    18   17   18 2  
    19   18   19 1  
    20   19   20 ar 
    21   19   24 ar 
    22   20   21 1  
    23   20   22 ar 
    24   22   23 1  
    25   22   26 ar 
    26   24   25 ar 
    27   24   27 1  
    28   25   26 ar 
    29   27   28 1  
    30   28   29 1  
    31   29   30 ar 
    32   29   31 ar 
    33   29   32 ar 
    34    5   33 1  
    35    6   34 1  
    36    7   35 1  
    37    8   36 1  
    38   12   37 1  
    39   13   38 1  
    40   13   39 1  
    41   16   40 1  
    42   18   41 1  
    43   21   42 1  
    44   23   43 1  
    45   23   44 1  
    46   23   45 1  
    47   25   46 1  
    48   27   47 1  
    49   27   48 1  
@<TRIPOS>SUBSTRUCTURE
     1 BLP         1

