2gqn_ligand
  -I-interpret- 

 50 51  0  0  0  0  0  0  0  0999 V2000
  -12.8740    6.5150   51.7590 O   0  0  0  0  0
  -13.2040    6.4870   50.5450 N   0  0  0  0  0
  -13.4880    5.3210   50.0700 O   0  0  0  0  0
  -13.2970    7.5950   49.7160 C   0  0  0  0  0
  -13.7630    7.3110   48.4000 C   0  0  0  0  0
  -13.8990    8.3310   47.4220 C   0  0  0  0  0
  -13.6060    9.6720   47.7690 C   0  0  0  0  0
  -13.1610    9.9170   49.0600 C   0  0  0  0  0
  -12.9840    8.9160   50.0540 C   0  0  0  0  0
  -12.5810    9.3860   51.4560 C   0  0  0  0  0
  -12.6810    8.5970   52.4490 O   0  0  0  0  0
  -12.2710   10.7080   51.6990 N   0  0  0  0  0
  -11.9090   11.4460   52.9430 C   0  0  0  0  0
  -10.5400   11.0340   52.9920 C   0  0  0  0  0
  -10.2930   10.4080   54.0210 O   0  0  0  0  0
   -9.7010   11.2780   51.8690 N   0  0  0  0  0
   -8.3730   10.6990   52.0350 N   0  0  0  0  0
   -7.4090   10.4640   51.2110 C   0  0  0  0  0
   -6.2130    9.6720   51.7270 C   0  0  0  0  0
   -6.0110    9.3090   53.0920 C   0  0  0  0  0
   -6.8670    9.6970   54.0990 O   0  0  0  0  0
   -4.9020    8.5200   53.4530 C   0  0  0  0  0
   -4.6130    8.1200   54.8850 C   0  0  0  0  0
   -5.2920    9.1640   50.7810 C   0  0  0  0  0
   -4.2190    8.3790   51.1950 C   0  0  0  0  0
   -4.0400    8.0840   52.4860 N   0  0  0  0  0
   -5.4270    9.4160   49.2750 C   0  0  0  0  0
   -4.7080   10.5680   48.8460 O   0  0  0  0  0
   -5.2460   11.4460   47.5990 P   0  0  0  0  0
   -6.6830   11.8050   48.0690 O   0  0  0  0  0
   -4.3080   12.6080   47.6150 O   0  0  0  0  0
   -5.2040   10.4340   46.4490 O   0  0  0  0  0
  -14.0215    6.2851   48.1375 H   0  0  0  0  0
  -14.2263    8.0838   46.4121 H   0  0  0  0  0
  -13.7256   10.4815   47.0489 H   0  0  0  0  0
  -12.9313   10.9475   49.3308 H   0  0  0  0  0
  -12.2939   11.2951   50.8652 H   0  0  0  0  0
  -12.5094   11.2241   53.8253 H   0  0  0  0  0
  -12.0871   12.5213   52.9328 H   0  0  0  0  0
   -9.9949   11.7984   51.0424 H   0  0  0  0  0
   -7.4481   10.8194   50.1813 H   0  0  0  0  0
   -6.5521    9.3496   54.9367 H   0  0  0  0  0
   -4.4731    9.0159   55.4900 H   0  0  0  0  0
   -5.4512    7.5432   55.2760 H   0  0  0  0  0
   -3.7075    7.5141   54.9159 H   0  0  0  0  0
   -3.5145    7.9994   50.4549 H   0  0  0  0  0
   -6.4822    9.5781   49.0553 H   0  0  0  0  0
   -5.0181    8.5514   48.7522 H   0  0  0  0  0
   -7.2347   11.0200   48.0361 H   0  0  0  0  0
   -5.8685    9.7569   46.5957 H   0  0  0  0  0
  1  2  2  0  0  0
  2  3  2  0  0  0
  2  4  1  0  0  0
  4  5  4  0  0  0
  4  9  4  0  0  0
  5  6  4  0  0  0
  6  7  4  0  0  0
  7  8  4  0  0  0
  8  9  4  0  0  0
  9 10  1  0  0  0
 10 11  2  0  0  0
 10 12  1  0  0  0
 12 13  1  0  0  0
 13 14  1  0  0  0
 14 15  2  0  0  0
 14 16  1  0  0  0
 16 17  1  0  0  0
 17 18  2  0  0  0
 18 19  1  0  0  0
 19 20  4  0  0  0
 19 24  4  0  0  0
 20 21  1  0  0  0
 20 22  4  0  0  0
 22 23  1  0  0  0
 22 26  4  0  0  0
 24 25  4  0  0  0
 24 27  1  0  0  0
 25 26  4  0  0  0
 27 28  1  0  0  0
 28 29  1  0  0  0
 29 30  1  0  0  0
 29 31  2  0  0  0
 29 32  1  0  0  0
  5 33  1  0  0  0
  6 34  1  0  0  0
  7 35  1  0  0  0
  8 36  1  0  0  0
 12 37  1  0  0  0
 13 38  1  0  0  0
 13 39  1  0  0  0
 16 40  1  0  0  0
 18 41  1  0  0  0
 21 42  1  0  0  0
 23 43  1  0  0  0
 23 44  1  0  0  0
 23 45  1  0  0  0
 25 46  1  0  0  0
 27 47  1  0  0  0
 27 48  1  0  0  0
 30 49  1  0  0  0
 32 50  1  0  0  0
M  END
$$$$
