5xg4_ligand
  -I-interpret- 

 34 36  0  0  0  0  0  0  0  0999 V2000
  -24.9380  -10.3990   -2.2480 C   0  0  0  0  0
  -25.9660  -10.5260   -3.1840 C   0  0  0  0  0
  -26.7860  -11.6660   -3.1610 C   0  0  0  0  0
  -26.5990  -12.6900   -2.2030 C   0  0  0  0  0
  -25.5630  -12.5350   -1.2680 C   0  0  0  0  0
  -24.7390  -11.3980   -1.2950 C   0  0  0  0  0
  -27.8820  -11.8060   -4.1570 C   0  0  0  0  0
  -28.7200  -13.0170   -4.0970 C   0  0  0  0  0
  -28.4410  -14.0630   -3.0690 C   0  0  0  0  0
  -29.3500  -15.2650   -2.9920 C   0  0  0  0  0
  -30.0850  -15.3920   -1.8020 C   0  0  0  0  0
  -30.9950  -16.4410   -1.6120 C   0  0  0  0  0
  -31.2220  -17.3840   -2.6070 C   0  0  0  0  0
  -30.5100  -17.2590   -3.8040 C   0  0  0  0  0
  -29.5860  -16.2060   -4.0140 C   0  0  0  0  0
  -27.4120  -13.8250   -2.1640 O   0  0  0  0  0
  -28.0960  -10.9280   -5.0210 O   0  0  0  0  0
  -30.7390  -18.1870   -4.7710 O   0  0  0  0  0
  -32.1260  -18.3930   -2.3940 O   0  0  0  0  0
  -29.7080  -13.1460   -5.0070 O   0  0  0  0  0
  -23.7350  -11.2550   -0.3890 O   0  0  0  0  0
  -26.1640   -9.5480   -4.1200 O   0  0  0  0  0
  -24.2922   -9.5210   -2.2619 H   0  0  0  0  0
  -25.3967  -13.3044   -0.5141 H   0  0  0  0  0
  -29.3038  -13.6539   -3.4324 H   0  0  0  0  0
  -27.8484  -14.9642   -3.2261 H   0  0  0  0  0
  -29.9446  -14.6582   -1.0083 H   0  0  0  0  0
  -31.5338  -16.5184   -0.6676 H   0  0  0  0  0
  -29.0586  -16.1238   -4.9643 H   0  0  0  0  0
  -30.1934  -17.9914   -5.5363 H   0  0  0  0  0
  -32.1658  -18.9549   -3.1714 H   0  0  0  0  0
  -30.1733  -13.9723   -4.8575 H   0  0  0  0  0
  -23.7228  -12.0159    0.1962 H   0  0  0  0  0
  -26.9045   -9.7891   -4.6814 H   0  0  0  0  0
  1  2  4  0  0  0
  1  6  4  0  0  0
  2  3  4  0  0  0
  2 22  1  0  0  0
  3  4  4  0  0  0
  3  7  1  0  0  0
  4  5  4  0  0  0
  4 16  1  0  0  0
  5  6  4  0  0  0
  6 21  1  0  0  0
  7  8  1  0  0  0
  7 17  2  0  0  0
  8  9  1  0  0  0
  8 20  1  0  0  0
  9 10  1  0  0  0
  9 16  1  0  0  0
 10 11  4  0  0  0
 10 15  4  0  0  0
 11 12  4  0  0  0
 12 13  4  0  0  0
 13 14  4  0  0  0
 13 19  1  0  0  0
 14 15  4  0  0  0
 14 18  1  0  0  0
  1 23  1  0  0  0
  5 24  1  0  0  0
  8 25  1  0  0  0
  9 26  1  0  0  0
 11 27  1  0  0  0
 12 28  1  0  0  0
 15 29  1  0  0  0
 18 30  1  0  0  0
 19 31  1  0  0  0
 20 32  1  0  0  0
 21 33  1  0  0  0
 22 34  1  0  0  0
M  END
$$$$
