2pqz_ligand
  -I-interpret- 

 71 75  0  0  0  0  0  0  0  0999 V2000
   11.2410  -22.8170  -17.3600 O   0  0  0  0  0
   11.1490  -22.5440  -18.7790 S   0  0  0  0  0
   11.4720  -20.8680  -19.0940 N   0  0  0  0  0
   10.9500  -20.3150  -20.3600 C   0  0  0  0  0
    9.6670  -19.4960  -20.2630 C   0  0  0  0  0
    8.6580  -19.7860  -19.3040 C   0  0  0  0  0
    7.4620  -19.0210  -19.2510 C   0  0  0  0  0
    7.2830  -17.9280  -20.1440 C   0  0  0  0  0
    8.2820  -17.6450  -21.1130 C   0  0  0  0  0
    9.4830  -18.3890  -21.1370 C   0  0  0  0  0
   12.3090  -20.1040  -18.1380 C   0  0  0  0  0
   13.6900  -19.7650  -18.7680 C   0  0  0  0  0
   13.9240  -18.3100  -18.6300 N   0  3  0  0  0
   12.6150  -17.6520  -18.3440 C   0  0  0  0  0
   11.7530  -18.7050  -17.6190 C   0  0  0  0  0
   12.0140  -18.7490  -16.1130 N   0  0  0  0  0
   10.6490  -19.0780  -15.1710 S   0  0  0  0  0
    9.8870  -20.2020  -15.7280 O   0  0  0  0  0
    9.6740  -17.6360  -15.0480 C   0  0  0  0  0
    8.3470  -17.6650  -15.5880 C   0  0  0  0  0
    7.4950  -16.5340  -15.4930 C   0  0  0  0  0
    7.9830  -15.3590  -14.8910 C   0  0  0  0  0
    9.2990  -15.3370  -14.3430 C   0  0  0  0  0
   10.1670  -16.4590  -14.4320 C   0  0  0  0  0
   11.0800  -19.1760  -13.7600 O   0  0  0  0  0
   13.3300  -18.5990  -15.4190 C   0  0  0  0  0
   14.1160  -19.9160  -15.2890 C   0  0  0  0  0
   13.4650  -21.1020  -14.8650 C   0  0  0  0  0
   14.2470  -22.2880  -14.7550 C   0  0  0  0  0
   15.6250  -22.3090  -15.1090 C   0  0  0  0  0
   16.3030  -21.1030  -15.4740 C   0  0  0  0  0
   15.5040  -19.9410  -15.6250 C   0  0  0  0  0
    9.9520  -22.9130  -19.5530 O   0  0  0  0  0
   12.5610  -23.1610  -19.6710 C   0  0  0  0  0
   13.7330  -23.5290  -18.9450 C   0  0  0  0  0
   14.9000  -23.9940  -19.6500 C   0  0  0  0  0
   14.8560  -24.0990  -21.0650 C   0  0  0  0  0
   13.6700  -23.7480  -21.7870 C   0  0  0  0  0
   12.5210  -23.3070  -21.0810 C   0  0  0  0  0
   10.7155  -21.1721  -20.9912 H   0  0  0  0  0
   11.7162  -19.6351  -20.7325 H   0  0  0  0  0
    8.8040  -20.6057  -18.6005 H   0  0  0  0  0
    6.6845  -19.2705  -18.5289 H   0  0  0  0  0
    6.3856  -17.3122  -20.0849 H   0  0  0  0  0
    8.1215  -16.8502  -21.8415 H   0  0  0  0  0
   10.2759  -18.1120  -21.8318 H   0  0  0  0  0
   12.3392  -20.7861  -17.2884 H   0  0  0  0  0
   13.6975  -20.0450  -19.8214 H   0  0  0  0  0
   14.4780  -20.3189  -18.2578 H   0  0  0  0  0
   14.3238  -17.9360  -19.4906 H   0  0  0  0  0
   14.5799  -18.1309  -17.8697 H   0  0  0  0  0
   12.1348  -17.3167  -19.2633 H   0  0  0  0  0
   12.7487  -16.7625  -17.7284 H   0  0  0  0  0
   10.7012  -18.4862  -17.8030 H   0  0  0  0  0
    7.9867  -18.5690  -16.0789 H   0  0  0  0  0
    6.4771  -16.5747  -15.8807 H   0  0  0  0  0
    7.3565  -14.4683  -14.8439 H   0  0  0  0  0
    9.6492  -14.4346  -13.8418 H   0  0  0  0  0
   11.1823  -16.4153  -14.0379 H   0  0  0  0  0
   13.1268  -18.2402  -14.4100 H   0  0  0  0  0
   13.9358  -17.9158  -16.0142 H   0  0  0  0  0
   12.4005  -21.1064  -14.6307 H   0  0  0  0  0
   13.7779  -23.2019  -14.3906 H   0  0  0  0  0
   16.1695  -23.2532  -15.1021 H   0  0  0  0  0
   17.3817  -21.0785  -15.6286 H   0  0  0  0  0
   15.9665  -19.0330  -16.0120 H   0  0  0  0  0
   13.7452  -23.4583  -17.8574 H   0  0  0  0  0
   15.8048  -24.2617  -19.1042 H   0  0  0  0  0
   15.7337  -24.4503  -21.6075 H   0  0  0  0  0
   13.6501  -23.8194  -22.8745 H   0  0  0  0  0
   11.6040  -23.0795  -21.6245 H   0  0  0  0  0
  1  2  2  0  0  0
  2  3  1  0  0  0
  2 33  2  0  0  0
  2 34  1  0  0  0
  3  4  1  0  0  0
  3 11  1  0  0  0
  4  5  1  0  0  0
  5  6  4  0  0  0
  5 10  4  0  0  0
  6  7  4  0  0  0
  7  8  4  0  0  0
  8  9  4  0  0  0
  9 10  4  0  0  0
 11 12  1  0  0  0
 11 15  1  0  0  0
 12 13  1  0  0  0
 13 14  1  0  0  0
 14 15  1  0  0  0
 15 16  1  0  0  0
 16 17  1  0  0  0
 16 26  1  0  0  0
 17 18  2  0  0  0
 17 19  1  0  0  0
 17 25  2  0  0  0
 19 20  4  0  0  0
 19 24  4  0  0  0
 20 21  4  0  0  0
 21 22  4  0  0  0
 22 23  4  0  0  0
 23 24  4  0  0  0
 26 27  1  0  0  0
 27 28  4  0  0  0
 27 32  4  0  0  0
 28 29  4  0  0  0
 29 30  4  0  0  0
 30 31  4  0  0  0
 31 32  4  0  0  0
 34 35  4  0  0  0
 34 39  4  0  0  0
 35 36  4  0  0  0
 36 37  4  0  0  0
 37 38  4  0  0  0
 38 39  4  0  0  0
  4 40  1  0  0  0
  4 41  1  0  0  0
  6 42  1  0  0  0
  7 43  1  0  0  0
  8 44  1  0  0  0
  9 45  1  0  0  0
 10 46  1  0  0  0
 11 47  1  0  0  0
 12 48  1  0  0  0
 12 49  1  0  0  0
 13 50  1  0  0  0
 13 51  1  0  0  0
 14 52  1  0  0  0
 14 53  1  0  0  0
 15 54  1  0  0  0
 20 55  1  0  0  0
 21 56  1  0  0  0
 22 57  1  0  0  0
 23 58  1  0  0  0
 24 59  1  0  0  0
 26 60  1  0  0  0
 26 61  1  0  0  0
 28 62  1  0  0  0
 29 63  1  0  0  0
 30 64  1  0  0  0
 31 65  1  0  0  0
 32 66  1  0  0  0
 35 67  1  0  0  0
 36 68  1  0  0  0
 37 69  1  0  0  0
 38 70  1  0  0  0
 39 71  1  0  0  0
M  END
$$$$
