6q8b_ligand
  -I-interpret- 

 57 58  0  0  0  0  0  0  0  0999 V2000
   -0.5030   -3.1620  -28.5910 N   0  3  0  0  0
   -1.5960   -2.1700  -28.5090 C   0  0  0  0  0
   -2.8090   -2.8800  -27.8790 C   0  0  0  0  0
   -3.8540   -2.3310  -27.5350 O   0  0  0  0  0
   -1.9250   -1.5940  -29.8860 C   0  0  0  0  0
   -0.8850   -0.6000  -30.3960 C   0  0  0  0  0
   -0.8590    0.6140  -29.4810 C   0  0  0  0  0
   -1.2020   -0.1950  -31.8250 C   0  0  0  0  0
   -8.2820   -5.3710  -29.4600 C   0  0  0  0  0
  -10.4570   -6.1130  -28.6970 C   0  0  0  0  0
   -7.7220   -4.0150  -29.0640 C   0  0  0  0  0
   -6.5470   -3.9010  -30.0450 C   0  0  0  0  0
  -12.6890   -6.6760  -27.9070 C   0  0  0  0  0
  -10.7680   -6.9410  -26.3920 C   0  0  0  0  0
   -6.0750   -5.3520  -30.1930 C   0  0  0  0  0
   -9.3520   -6.8180  -26.2130 C   0  0  0  0  0
   -4.7900   -5.6750  -29.4690 C   0  0  0  0  0
   -8.5790   -6.3440  -27.2020 C   0  0  0  0  0
   -9.1130   -5.9840  -28.4120 N   0  0  0  0  0
  -11.2480   -6.5780  -27.6550 N   0  0  0  0  0
   -2.6640   -4.2800  -27.6470 N   0  0  0  0  0
   -4.4040   -4.8340  -25.9040 O   0  0  0  0  0
  -10.9290   -5.8890  -29.7970 O   0  0  0  0  0
   -8.7440   -3.0450  -29.2340 O   0  0  0  0  0
   -3.0930   -6.5350  -27.1360 O   0  0  0  0  0
   -6.9050   -3.3820  -31.3220 O   0  0  0  0  0
  -11.5580   -7.2860  -25.5180 O   0  0  0  0  0
   -7.1500   -6.1840  -29.6890 O   0  0  0  0  0
   -5.0100   -5.3120  -28.0820 O   0  0  0  0  0
   -3.7660   -5.2870  -27.0850 S   0  0  0  0  0
   -0.3066   -3.5276  -27.6592 H   0  0  0  0  0
   -0.7845   -3.9263  -29.2050 H   0  0  0  0  0
    0.3336   -2.7142  -28.9651 H   0  0  0  0  0
   -1.2997   -1.3207  -27.8934 H   0  0  0  0  0
   -2.8721   -1.0613  -29.8000 H   0  0  0  0  0
   -1.9552   -2.4258  -30.5898 H   0  0  0  0  0
    0.0999   -1.0670  -30.3904 H   0  0  0  0  0
   -0.0953    1.3110  -29.8259 H   0  0  0  0  0
   -1.8334    1.1023  -29.4995 H   0  0  0  0  0
   -0.6298    0.2960  -28.4639 H   0  0  0  0  0
   -2.1782    0.2889  -31.8561 H   0  0  0  0  0
   -0.4401    0.4977  -32.1825 H   0  0  0  0  0
   -1.2144   -1.0820  -32.4584 H   0  0  0  0  0
   -8.9308   -5.2639  -30.3293 H   0  0  0  0  0
   -7.3953   -3.8789  -28.0331 H   0  0  0  0  0
   -5.7960   -3.2057  -29.6699 H   0  0  0  0  0
  -13.0809   -5.6899  -28.1562 H   0  0  0  0  0
  -12.8656   -7.3592  -28.7378 H   0  0  0  0  0
  -13.1881   -7.0516  -27.0137 H   0  0  0  0  0
   -5.8493   -5.5326  -31.2440 H   0  0  0  0  0
   -8.8991   -7.1117  -25.2661 H   0  0  0  0  0
   -3.9495   -5.1250  -29.8923 H   0  0  0  0  0
   -4.5375   -6.7310  -29.5653 H   0  0  0  0  0
   -7.5058   -6.2433  -27.0401 H   0  0  0  0  0
   -1.7526   -4.6826  -27.8652 H   0  0  0  0  0
   -8.4071   -2.1804  -28.9879 H   0  0  0  0  0
   -6.1244   -3.3395  -31.8792 H   0  0  0  0  0
  2  1  1  0  0  0
  3  2  1  0  0  0
  2  5  1  0  0  0
  3  4  2  0  0  0
 21  3  1  0  0  0
  5  6  1  0  0  0
  6  7  1  0  0  0
  6  8  1  0  0  0
  9 11  1  0  0  0
  9 19  1  0  0  0
 28  9  1  0  0  0
 19 10  1  0  0  0
 10 20  1  0  0  0
 10 23  2  0  0  0
 12 11  1  0  0  0
 11 24  1  0  0  0
 15 12  1  0  0  0
 12 26  1  0  0  0
 20 13  1  0  0  0
 16 14  1  0  0  0
 20 14  1  0  0  0
 14 27  2  0  0  0
 17 15  1  0  0  0
 15 28  1  0  0  0
 18 16  2  0  0  0
 29 17  1  0  0  0
 19 18  1  0  0  0
 30 21  1  0  0  0
 30 22  2  0  0  0
 30 25  2  0  0  0
 29 30  1  0  0  0
  1 31  1  0  0  0
  1 32  1  0  0  0
  1 33  1  0  0  0
  2 34  1  0  0  0
  5 35  1  0  0  0
  5 36  1  0  0  0
  6 37  1  0  0  0
  7 38  1  0  0  0
  7 39  1  0  0  0
  7 40  1  0  0  0
  8 41  1  0  0  0
  8 42  1  0  0  0
  8 43  1  0  0  0
  9 44  1  0  0  0
 11 45  1  0  0  0
 12 46  1  0  0  0
 13 47  1  0  0  0
 13 48  1  0  0  0
 13 49  1  0  0  0
 15 50  1  0  0  0
 16 51  1  0  0  0
 17 52  1  0  0  0
 17 53  1  0  0  0
 18 54  1  0  0  0
 21 55  1  0  0  0
 24 56  1  0  0  0
 26 57  1  0  0  0
M  END
$$$$
