4q0k_ligand
  -I-interpret- 

 47 51  0  0  0  0  0  0  0  0999 V2000
    0.8840   20.1060   34.2810 O   0  0  0  0  0
    1.4510   20.8740   33.4710 C   0  0  0  0  0
    1.5120   20.6320   32.2440 O   0  0  0  0  0
    2.0690   22.1480   34.0220 C   0  0  0  0  0
    3.3410   22.6290   33.2990 C   0  0  0  0  0
    1.0960   23.3550   33.9870 C   0  0  0  0  0
   -0.0350   23.3290   32.9440 C   0  0  0  0  0
   -0.8630   24.4790   33.4340 C   0  0  0  0  0
   -1.7660   25.1440   32.7370 C   0  0  0  0  0
   -0.5660   24.7590   34.8980 C   0  0  0  0  0
    0.2620   23.5120   35.2620 C   0  0  0  0  0
   -1.7820   24.9190   35.6560 O   0  0  0  0  0
    0.3060   26.0190   35.0630 C   0  0  0  0  0
    1.7840   25.7070   34.8180 C   0  0  0  0  0
    1.9910   24.6040   33.7730 C   0  0  0  0  0
    3.4270   24.1040   33.7260 C   0  0  0  0  0
    3.9990   23.9280   35.1000 O   0  0  0  0  0
    4.4740   24.8370   32.9360 C   0  0  0  0  0
    5.6600   24.2320   32.8460 C   0  0  0  0  0
    5.7950   22.7340   32.9670 C   0  0  0  0  0
    5.6930   22.2210   31.6490 O   0  0  0  0  0
    4.6880   22.0820   33.8350 C   0  0  0  0  0
    4.8010   20.5560   33.9160 C   0  0  0  0  0
    4.7360   22.7870   35.1730 C   0  0  0  0  0
    5.3320   22.5700   36.1840 O   0  0  0  0  0
    1.9857   21.3406   31.8024 H   0  0  0  0  0
    2.3171   21.8476   35.0400 H   0  0  0  0  0
    3.2457   22.3472   32.2504 H   0  0  0  0  0
   -0.5701   22.3815   32.8817 H   0  0  0  0  0
    0.3009   23.4221   31.9112 H   0  0  0  0  0
   -1.9657   24.8693   31.7013 H   0  0  0  0  0
   -2.3117   25.9677   33.1974 H   0  0  0  0  0
    0.8520   23.6167   36.1725 H   0  0  0  0  0
   -0.3356   22.6367   35.5164 H   0  0  0  0  0
   -1.5645   25.0943   36.5745 H   0  0  0  0  0
    0.1933   26.3884   36.0823 H   0  0  0  0  0
   -0.0173   26.7630   34.3349 H   0  0  0  0  0
    2.2134   25.3617   35.7585 H   0  0  0  0  0
    2.2602   26.6141   34.4458 H   0  0  0  0  0
    1.7162   25.0948   32.8393 H   0  0  0  0  0
    4.2774   25.8009   32.4666 H   0  0  0  0  0
    6.5531   24.8347   32.6810 H   0  0  0  0  0
    6.7430   22.5061   33.4542 H   0  0  0  0  0
    5.7733   21.2646   31.6720 H   0  0  0  0  0
    4.7247   20.1336   32.9141 H   0  0  0  0  0
    5.7627   20.2868   34.3529 H   0  0  0  0  0
    3.9957   20.1659   34.5384 H   0  0  0  0  0
  1  2  2  0  0  0
  2  3  1  0  0  0
  2  4  1  0  0  0
  4  5  1  0  0  0
  4  6  1  0  0  0
  5 16  1  0  0  0
  5 22  1  0  0  0
  6  7  1  0  0  0
  6 11  1  0  0  0
  6 15  1  0  0  0
  7  8  1  0  0  0
  8  9  2  0  0  0
  8 10  1  0  0  0
 10 11  1  0  0  0
 10 12  1  0  0  0
 10 13  1  0  0  0
 13 14  1  0  0  0
 14 15  1  0  0  0
 15 16  1  0  0  0
 16 17  1  0  0  0
 16 18  1  0  0  0
 17 24  1  0  0  0
 18 19  2  0  0  0
 19 20  1  0  0  0
 20 21  1  0  0  0
 20 22  1  0  0  0
 22 23  1  0  0  0
 22 24  1  0  0  0
 24 25  2  0  0  0
  3 26  1  0  0  0
  4 27  1  0  0  0
  5 28  1  0  0  0
  7 29  1  0  0  0
  7 30  1  0  0  0
  9 31  1  0  0  0
  9 32  1  0  0  0
 11 33  1  0  0  0
 11 34  1  0  0  0
 12 35  1  0  0  0
 13 36  1  0  0  0
 13 37  1  0  0  0
 14 38  1  0  0  0
 14 39  1  0  0  0
 15 40  1  0  0  0
 18 41  1  0  0  0
 19 42  1  0  0  0
 20 43  1  0  0  0
 21 44  1  0  0  0
 23 45  1  0  0  0
 23 46  1  0  0  0
 23 47  1  0  0  0
M  END
$$$$
