4ie4_ligand
  -I-interpret- 

 21 22  0  0  0  0  0  0  0  0999 V2000
   34.1790   -7.5540  -20.4720 O   0  0  0  0  0
   34.7780   -9.2000  -21.7610 O   0  0  0  0  0
   30.1550   -6.7170  -25.3910 O   0  0  0  0  0
   31.1430   -5.0230  -20.8950 C   0  0  0  0  0
   30.2220   -4.7290  -21.9100 C   0  0  0  0  0
   32.0030   -8.1270  -24.6980 C   0  0  0  0  0
   32.9470   -8.4910  -23.7390 C   0  0  0  0  0
   32.0750   -6.0430  -21.0720 C   0  0  0  0  0
   30.2510   -5.4320  -23.0500 N   0  0  0  0  0
   34.0280   -8.2100  -21.5350 C   0  0  0  0  0
   31.1100   -7.0960  -24.4510 C   0  0  0  0  0
   33.0000   -7.8130  -22.5340 C   0  0  0  0  0
   32.0880   -6.7680  -22.2860 C   0  0  0  0  0
   31.1610   -6.4220  -23.2380 C   0  0  0  0  0
   34.5415   -9.5933  -22.6042 H   0  0  0  0  0
   29.6334   -5.9911  -25.0408 H   0  0  0  0  0
   31.1299   -4.4528  -19.9661 H   0  0  0  0  0
   29.4882   -3.9348  -21.7728 H   0  0  0  0  0
   31.9668   -8.6573  -25.6496 H   0  0  0  0  0
   33.6414   -9.3074  -23.9378 H   0  0  0  0  0
   32.7877   -6.2801  -20.2821 H   0  0  0  0  0
 10  1  2  0  0  0
 10  2  1  0  0  0
 11  3  1  0  0  0
  5  4  4  0  0  0
  4  8  4  0  0  0
  9  5  4  0  0  0
  6  7  4  0  0  0
 11  6  4  0  0  0
  7 12  4  0  0  0
  8 13  4  0  0  0
 14  9  4  0  0  0
 12 10  1  0  0  0
 11 14  4  0  0  0
 12 13  4  0  0  0
 13 14  4  0  0  0
  2 15  1  0  0  0
  3 16  1  0  0  0
  4 17  1  0  0  0
  5 18  1  0  0  0
  6 19  1  0  0  0
  7 20  1  0  0  0
  8 21  1  0  0  0
M  END
$$$$
