1fzj_ligand
  -I-interpret- 

135136  0  0  0  0  0  0  0  0999 V2000
   49.2160   56.7600    4.6750 N   0  3  0  0  0
   47.9330   57.4080    4.2530 C   0  0  0  0  0
   47.6710   57.1250    2.7910 C   0  0  0  0  0
   48.5920   57.0920    1.9780 O   0  0  0  0  0
   47.9960   58.9360    4.4610 C   0  0  0  0  0
   48.2580   59.3730    5.9010 C   0  0  0  0  0
   47.9460   60.8660    6.0850 C   0  0  0  0  0
   46.5090   61.1130    5.9680 N   0  0  0  0  0
   45.9430   62.3170    5.9140 C   0  0  0  0  0
   46.6920   63.4130    5.9680 N   0  0  0  0  0
   44.6240   62.4200    5.7890 N   0  0  0  0  0
   46.4030   56.9490    2.4590 N   0  0  0  0  0
   46.0280   56.6550    1.0930 C   0  0  0  0  0
   45.8950   57.8530    0.1790 C   0  0  0  0  0
   45.9150   59.0130    0.6140 O   0  0  0  0  0
   45.7650   57.5500   -1.1010 N   0  0  0  0  0
   45.6370   58.5540   -2.1360 C   0  0  0  0  0
   44.1740   58.9050   -2.3360 C   0  0  0  0  0
   43.2970   58.1450   -1.9430 O   0  0  0  0  0
   46.2230   57.9890   -3.4250 C   0  0  0  0  0
   46.1860   58.9120   -4.6140 C   0  0  0  0  0
   46.8760   60.1260   -4.6030 C   0  0  0  0  0
   45.5200   58.5410   -5.7780 C   0  0  0  0  0
   46.9150   60.9390   -5.7280 C   0  0  0  0  0
   45.5490   59.3500   -6.9140 C   0  0  0  0  0
   46.2550   60.5490   -6.8800 C   0  0  0  0  0
   46.3170   61.3300   -8.0170 O   0  0  0  0  0
   43.9110   60.0800   -2.9070 N   0  0  0  0  0
   42.5430   60.4940   -3.2150 C   0  0  0  0  0
   42.4010   60.1090   -4.6920 C   0  0  0  0  0
   42.9400   60.7740   -5.5850 O   0  0  0  0  0
   42.3450   62.0230   -3.0410 C   0  0  0  0  0
   40.9530   62.4230   -3.5370 C   0  0  0  0  0
   42.5130   62.4060   -1.5690 C   0  0  0  0  0
   41.6920   59.0130   -4.9500 N   0  0  0  0  0
   41.5540   58.5130   -6.3100 C   0  0  0  0  0
   40.8050   59.4060   -7.2880 C   0  0  0  0  0
   39.8140   60.0450   -6.9380 O   0  0  0  0  0
   40.9250   57.1050   -6.2890 C   0  0  0  0  0
   41.6890   56.1590   -5.3810 C   0  0  0  0  0
   41.2710   55.9290   -4.0770 C   0  0  0  0  0
   42.8750   55.5610   -5.8070 C   0  0  0  0  0
   42.0200   55.1250   -3.2090 C   0  0  0  0  0
   43.6320   54.7560   -4.9470 C   0  0  0  0  0
   43.2000   54.5450   -3.6560 C   0  0  0  0  0
   43.9390   53.7620   -2.7920 O   0  0  0  0  0
   41.2920   59.4040   -8.5220 N   0  0  0  0  0
   40.7270   60.1850   -9.6170 C   0  0  0  0  0
   39.6660   59.3900  -10.3760 C   0  0  0  0  0
   39.8220   58.1790  -10.5920 O   0  0  0  0  0
   41.8500   60.5910  -10.5710 C   0  0  0  0  0
   42.9270   61.4120   -9.8910 C   0  0  0  0  0
   42.3770   62.7110   -9.3350 C   0  0  0  0  0
   41.8310   63.5300  -10.0790 O   0  0  0  0  0
   42.5080   62.9050   -8.0230 N   0  0  0  0  0
   38.6040   60.0840  -10.7810 N   0  0  0  0  0
   37.5130   59.4720  -11.5190 C   0  0  0  0  0
   37.9160   58.8360  -12.8380 C   0  0  0  0  0
   38.8180   59.3220  -13.5200 O   0  0  0  0  0
   37.2340   57.7490  -13.2020 N   0  0  0  0  0
   37.5200   57.0260  -14.4450 C   0  0  0  0  0
   36.7880   57.5990  -15.6640 C   0  0  0  0  0
   35.7830   58.3160  -15.4700 O   0  0  0  0  0
   37.1300   55.5430  -14.2820 C   0  0  0  0  0
   37.8010   54.7720  -13.1380 C   0  0  0  0  0
   37.2700   53.3210  -13.1230 C   0  0  0  0  0
   39.3090   54.7770  -13.3260 C   0  0  0  0  0
   37.2020   57.2920  -16.8070 O   0  0  0  0  0
   49.1509   55.7526    4.5287 H   0  0  0  0  0
   49.9844   57.1365    4.1198 H   0  0  0  0  0
   49.3832   56.9512    5.6629 H   0  0  0  0  0
   47.1294   56.9970    4.8640 H   0  0  0  0  0
   47.0213   59.3352    4.1803 H   0  0  0  0  0
   48.8282   59.3041    3.8610 H   0  0  0  0  0
   49.3092   59.2029    6.1336 H   0  0  0  0  0
   47.6151   58.7957    6.5654 H   0  0  0  0  0
   48.4647   61.4320    5.3112 H   0  0  0  0  0
   48.2768   61.1752    7.0765 H   0  0  0  0  0
   45.8935   60.3008    5.9245 H   0  0  0  0  0
   47.7056   63.3345    6.0512 H   0  0  0  0  0
   44.1872   63.3401    5.7346 H   0  0  0  0  0
   44.0484   61.5789    5.7475 H   0  0  0  0  0
   45.6803   57.0215    3.1751 H   0  0  0  0  0
   46.8252   56.0373    0.6794 H   0  0  0  0  0
   45.0441   56.1879    1.1360 H   0  0  0  0  0
   45.7544   56.5665   -1.3711 H   0  0  0  0  0
   46.1713   59.4602   -1.8506 H   0  0  0  0  0
   45.6172   57.1215   -3.6869 H   0  0  0  0  0
   47.2746   57.7843   -3.2240 H   0  0  0  0  0
   47.3926   60.4406   -3.6962 H   0  0  0  0  0
   44.9663   57.6024   -5.8026 H   0  0  0  0  0
   47.4634   61.8807   -5.7038 H   0  0  0  0  0
   45.0239   59.0461   -7.8195 H   0  0  0  0  0
   45.8073   60.9153   -8.7169 H   0  0  0  0  0
   44.6833   60.7061   -3.1349 H   0  0  0  0  0
   41.8081   60.0305   -2.5568 H   0  0  0  0  0
   43.0954   62.5523   -3.6282 H   0  0  0  0  0
   40.8557   62.1632   -4.5911 H   0  0  0  0  0
   40.1964   61.8921   -2.9593 H   0  0  0  0  0
   40.8192   63.4976   -3.4125 H   0  0  0  0  0
   41.7719   61.8765   -0.9703 H   0  0  0  0  0
   43.5140   62.1323   -1.2357 H   0  0  0  0  0
   42.3723   63.4810   -1.4563 H   0  0  0  0  0
   41.2385   58.5159   -4.1834 H   0  0  0  0  0
   42.5731   58.4909   -6.6962 H   0  0  0  0  0
   40.9513   56.7032   -7.3019 H   0  0  0  0  0
   39.9054   57.1912   -5.9134 H   0  0  0  0  0
   40.3447   56.3817   -3.7232 H   0  0  0  0  0
   43.2189   55.7234   -6.8285 H   0  0  0  0  0
   41.6786   54.9553   -2.1878 H   0  0  0  0  0
   44.5576   54.2990   -5.2969 H   0  0  0  0  0
   44.7198   53.4362   -3.2456 H   0  0  0  0  0
   42.1078   58.8234   -8.7162 H   0  0  0  0  0
   40.2474   61.0713   -9.2015 H   0  0  0  0  0
   41.4132   61.2012  -11.3616 H   0  0  0  0  0
   42.3130   59.6798  -10.9499 H   0  0  0  0  0
   43.6925   61.6518  -10.6289 H   0  0  0  0  0
   43.3315   60.8289   -9.0636 H   0  0  0  0  0
   42.1493   63.7587   -7.5954 H   0  0  0  0  0
   42.9670   62.1997   -7.4465 H   0  0  0  0  0
   38.5551   61.0798  -10.5655 H   0  0  0  0  0
   37.1138   58.6750  -10.8917 H   0  0  0  0  0
   36.8042   60.2662  -11.7535 H   0  0  0  0  0
   36.4881   57.4092  -12.5949 H   0  0  0  0  0
   38.5890   57.1355  -14.6279 H   0  0  0  0  0
   37.4449   55.0484  -15.2009 H   0  0  0  0  0
   36.0627   55.5372  -14.0608 H   0  0  0  0  0
   37.5674   55.2511  -12.1872 H   0  0  0  0  0
   36.1903   53.3321  -12.9736 H   0  0  0  0  0
   37.5016   52.8409  -14.0738 H   0  0  0  0  0
   37.7448   52.7701  -12.3111 H   0  0  0  0  0
   39.5571   54.3017  -14.2750 H   0  0  0  0  0
   39.6702   55.8054  -13.3279 H   0  0  0  0  0
   39.7775   54.2275  -12.5095 H   0  0  0  0  0
   37.9819   56.7381  -16.7256 H   0  0  0  0  0
  3  2  1  0  0  0
  2  5  1  0  0  0
  2  1  1  0  0  0
  5  6  1  0  0  0
  6  7  1  0  0  0
  7  8  1  0  0  0
  8  9  1  0  0  0
  9 10  2  0  0  0
  9 11  1  0  0  0
  3  4  2  0  0  0
 14 13  1  0  0  0
 13 12  1  0  0  0
 14 15  2  0  0  0
 18 17  1  0  0  0
 17 20  1  0  0  0
 17 16  1  0  0  0
 20 21  1  0  0  0
 21 23  4  0  0  0
 21 22  4  0  0  0
 22 24  4  0  0  0
 24 26  4  0  0  0
 26 27  1  0  0  0
 25 26  4  0  0  0
 23 25  4  0  0  0
 18 19  2  0  0  0
 30 29  1  0  0  0
 29 32  1  0  0  0
 29 28  1  0  0  0
 32 33  1  0  0  0
 32 34  1  0  0  0
 30 31  2  0  0  0
 37 36  1  0  0  0
 36 39  1  0  0  0
 36 35  1  0  0  0
 39 40  1  0  0  0
 40 42  4  0  0  0
 40 41  4  0  0  0
 41 43  4  0  0  0
 43 45  4  0  0  0
 45 46  1  0  0  0
 44 45  4  0  0  0
 42 44  4  0  0  0
 37 38  2  0  0  0
 49 48  1  0  0  0
 48 51  1  0  0  0
 48 47  1  0  0  0
 51 52  1  0  0  0
 52 53  1  0  0  0
 53 54  2  0  0  0
 53 55  1  0  0  0
 49 50  2  0  0  0
 58 57  1  0  0  0
 57 56  1  0  0  0
 58 59  2  0  0  0
 61 62  1  0  0  0
 61 64  1  0  0  0
 60 61  1  0  0  0
 64 65  1  0  0  0
 65 67  1  0  0  0
 65 66  1  0  0  0
 62 68  1  0  0  0
 62 63  2  0  0  0
 12  3  1  0  0  0
 16 14  1  0  0  0
 28 18  1  0  0  0
 35 30  1  0  0  0
 47 37  1  0  0  0
 56 49  1  0  0  0
 58 60  1  0  0  0
  1 69  1  0  0  0
  1 70  1  0  0  0
  1 71  1  0  0  0
  2 72  1  0  0  0
  5 73  1  0  0  0
  5 74  1  0  0  0
  6 75  1  0  0  0
  6 76  1  0  0  0
  7 77  1  0  0  0
  7 78  1  0  0  0
  8 79  1  0  0  0
 10 80  1  0  0  0
 11 81  1  0  0  0
 11 82  1  0  0  0
 12 83  1  0  0  0
 13 84  1  0  0  0
 13 85  1  0  0  0
 16 86  1  0  0  0
 17 87  1  0  0  0
 20 88  1  0  0  0
 20 89  1  0  0  0
 22 90  1  0  0  0
 23 91  1  0  0  0
 24 92  1  0  0  0
 25 93  1  0  0  0
 27 94  1  0  0  0
 28 95  1  0  0  0
 29 96  1  0  0  0
 32 97  1  0  0  0
 33 98  1  0  0  0
 33 99  1  0  0  0
 33100  1  0  0  0
 34101  1  0  0  0
 34102  1  0  0  0
 34103  1  0  0  0
 35104  1  0  0  0
 36105  1  0  0  0
 39106  1  0  0  0
 39107  1  0  0  0
 41108  1  0  0  0
 42109  1  0  0  0
 43110  1  0  0  0
 44111  1  0  0  0
 46112  1  0  0  0
 47113  1  0  0  0
 48114  1  0  0  0
 51115  1  0  0  0
 51116  1  0  0  0
 52117  1  0  0  0
 52118  1  0  0  0
 55119  1  0  0  0
 55120  1  0  0  0
 56121  1  0  0  0
 57122  1  0  0  0
 57123  1  0  0  0
 60124  1  0  0  0
 61125  1  0  0  0
 64126  1  0  0  0
 64127  1  0  0  0
 65128  1  0  0  0
 66129  1  0  0  0
 66130  1  0  0  0
 66131  1  0  0  0
 67132  1  0  0  0
 67133  1  0  0  0
 67134  1  0  0  0
 68135  1  0  0  0
M  END
$$$$
