1k03_ligand
  -I-interpret- 

 15 15  0  0  0  0  0  0  0  0999 V2000
   32.8990   72.1150   18.2710 C   0  0  0  0  0
   32.2290   71.5000   17.4140 O   0  0  0  0  0
   34.0480   71.5070   18.7700 C   0  0  0  0  0
   34.5200   70.2120   18.3630 C   0  0  0  0  0
   35.6960   69.6950   18.9450 C   0  0  0  0  0
   36.3790   70.4620   19.9120 C   0  0  0  0  0
   35.9090   71.7230   20.2960 C   0  0  0  0  0
   34.7500   72.2310   19.7220 C   0  0  0  0  0
   37.4160   70.0820   20.4800 O   0  0  0  0  0
   32.5921   73.1014   18.6187 H   0  0  0  0  0
   33.9759   69.6367   17.6139 H   0  0  0  0  0
   36.0724   68.7151   18.6513 H   0  0  0  0  0
   36.4500   72.3045   21.0425 H   0  0  0  0  0
   34.3871   73.2133   20.0245 H   0  0  0  0  0
   37.7080   70.7578   21.0962 H   0  0  0  0  0
  1  2  2  0  0  0
  1  3  1  0  0  0
  3  4  4  0  0  0
  3  8  4  0  0  0
  4  5  4  0  0  0
  5  6  4  0  0  0
  6  7  4  0  0  0
  6  9  1  0  0  0
  7  8  4  0  0  0
  1 10  1  0  0  0
  4 11  1  0  0  0
  5 12  1  0  0  0
  7 13  1  0  0  0
  8 14  1  0  0  0
  9 15  1  0  0  0
M  END
$$$$
