5fnj_ligand
  -I-interpret- 

 25 25  0  0  0  0  0  0  0  0999 V2000
   -6.3240    4.9430   15.1810 C   0  0  0  0  0
   -5.6520    3.8880   15.7390 C   0  0  0  0  0
   -4.9140    3.0520   14.9480 C   0  0  0  0  0
   -4.9050    3.2620   13.5730 C   0  0  0  0  0
   -5.6040    4.3370   12.9890 C   0  0  0  0  0
   -6.3130    5.1620   13.8190 C   0  0  0  0  0
   -4.9150    0.5430   15.3500 C   0  0  0  0  0
   -7.0320    6.3010   13.3140 O   0  0  0  0  0
   -6.6840    6.7720   12.0260 C   0  0  0  0  0
   -7.3940    8.1030   11.8240 C   0  0  0  0  0
   -4.4980   -0.2280   14.4060 O   0  0  0  0  0
   -5.8730    0.3570   16.1440 O   0  0  0  0  0
   -4.1170    1.8710   15.5390 C   0  0  0  0  0
   -6.8790    5.6237   15.8265 H   0  0  0  0  0
   -5.7056    3.7149   16.8138 H   0  0  0  0  0
   -4.3449    2.5800   12.9333 H   0  0  0  0  0
   -5.5807    4.5057   11.9124 H   0  0  0  0  0
   -6.9870    6.0564   11.2617 H   0  0  0  0  0
   -5.6044    6.8973   11.9427 H   0  0  0  0  0
   -8.4711    7.9539   11.8994 H   0  0  0  0  0
   -7.0688    8.8068   12.5902 H   0  0  0  0  0
   -7.1488    8.4982   10.8382 H   0  0  0  0  0
   -3.7475    0.1807   13.9686 H   0  0  0  0  0
   -3.9543    2.0440   16.6028 H   0  0  0  0  0
   -3.1592    1.7909   15.0248 H   0  0  0  0  0
  2  1  4  0  0  0
  1  6  4  0  0  0
  3  2  4  0  0  0
  3  4  4  0  0  0
 13  3  1  0  0  0
  4  5  4  0  0  0
  5  6  4  0  0  0
  6  8  1  0  0  0
  7 11  1  0  0  0
  7 12  2  0  0  0
  7 13  1  0  0  0
  8  9  1  0  0  0
  9 10  1  0  0  0
  1 14  1  0  0  0
  2 15  1  0  0  0
  4 16  1  0  0  0
  5 17  1  0  0  0
  9 18  1  0  0  0
  9 19  1  0  0  0
 10 20  1  0  0  0
 10 21  1  0  0  0
 10 22  1  0  0  0
 11 23  1  0  0  0
 13 24  1  0  0  0
 13 25  1  0  0  0
M  END
$$$$
