6eux_ligand
  -I-interpret- 

 46 50  0  0  0  0  0  0  0  0999 V2000
   25.3040  -25.0060   -5.4100 C   0  0  0  0  0
   26.5850  -24.6990   -4.9500 C   0  0  0  0  0
   24.7340  -24.1970   -6.3760 C   0  0  0  0  0
   25.4660  -23.0960   -6.8560 C   0  0  0  0  0
   26.7500  -22.8400   -6.3370 C   0  0  0  0  0
   27.2560  -23.6460   -5.3990 N   0  0  0  0  0
   27.2210  -21.7240   -6.9790 N   0  0  0  0  0
   26.2680  -21.2720   -7.8970 N   0  0  0  0  0
   25.2020  -22.0480   -7.8450 C   0  0  0  0  0
   23.9900  -21.9380   -8.6860 C   0  0  0  0  0
   23.0120  -22.8480   -8.5570 N   0  0  0  0  0
   21.9170  -22.8130   -9.3240 C   0  0  0  0  0
   21.8160  -21.7920  -10.2860 C   0  0  0  0  0
   22.8550  -20.8690  -10.4030 C   0  0  0  0  0
   23.9200  -20.9750   -9.6060 N   0  0  0  0  0
   20.8860  -23.7470   -9.1980 N   0  0  0  0  0
   21.0000  -24.9090   -8.3020 C   0  0  0  0  0
   20.3750  -24.6020   -6.9130 C   0  0  0  0  0
   18.8310  -24.4830   -7.0090 C   0  0  0  0  0
   18.2390  -25.7780   -7.6130 C   0  0  0  0  0
   19.3840  -26.7850   -7.8590 C   0  0  0  0  0
   20.3440  -26.1800   -8.9150 C   0  0  0  0  0
   24.6160  -26.0800   -4.9400 F   0  0  0  0  0
   20.7220  -21.7210  -11.0750 F   0  0  0  0  0
   21.3500  -27.2200   -9.3880 C   0  0  0  0  0
   20.9170  -28.3090  -10.0400 O   0  0  0  0  0
   22.5420  -27.1070   -9.1960 O   0  0  0  0  0
   20.7420  -25.7690   -5.9630 C   0  0  0  0  0
   20.1230  -27.0780   -6.5210 C   0  0  0  0  0
   27.0473  -25.3420   -4.2011 H   0  0  0  0  0
   23.7355  -24.4087   -6.7585 H   0  0  0  0  0
   22.7976  -20.0675  -11.1395 H   0  0  0  0  0
   20.0319  -23.6204   -9.7411 H   0  0  0  0  0
   22.0636  -25.1100   -8.1736 H   0  0  0  0  0
   20.7613  -23.6530   -6.5413 H   0  0  0  0  0
   18.5749  -23.6385   -7.6487 H   0  0  0  0  0
   18.4196  -24.3313   -6.0111 H   0  0  0  0  0
   17.7401  -25.5504   -8.5550 H   0  0  0  0  0
   17.5127  -26.2076   -6.9231 H   0  0  0  0  0
   18.9931  -27.7312   -8.2332 H   0  0  0  0  0
   19.8012  -25.8791   -9.8111 H   0  0  0  0  0
   19.9613  -28.2720  -10.1230 H   0  0  0  0  0
   20.3515  -25.5708   -4.9649 H   0  0  0  0  0
   21.8256  -25.8690   -5.9007 H   0  0  0  0  0
   20.9165  -27.8037   -6.6996 H   0  0  0  0  0
   19.4123  -27.4770   -5.7973 H   0  0  0  0  0
  1  2  4  0  0  0
  1  3  4  0  0  0
  1 23  1  0  0  0
  2  6  4  0  0  0
  3  4  4  0  0  0
  4  5  4  0  0  0
  4  9  4  0  0  0
  5  6  4  0  0  0
  5  7  4  0  0  0
  7  8  4  0  0  0
  8  9  4  0  0  0
  9 10  1  0  0  0
 10 11  4  0  0  0
 10 15  4  0  0  0
 11 12  4  0  0  0
 12 13  4  0  0  0
 12 16  1  0  0  0
 13 14  4  0  0  0
 13 24  1  0  0  0
 14 15  4  0  0  0
 16 17  1  0  0  0
 17 18  1  0  0  0
 17 22  1  0  0  0
 18 19  1  0  0  0
 18 28  1  0  0  0
 19 20  1  0  0  0
 20 21  1  0  0  0
 21 22  1  0  0  0
 21 29  1  0  0  0
 22 25  1  0  0  0
 25 26  1  0  0  0
 25 27  2  0  0  0
 28 29  1  0  0  0
  2 30  1  0  0  0
  3 31  1  0  0  0
 14 32  1  0  0  0
 16 33  1  0  0  0
 17 34  1  0  0  0
 18 35  1  0  0  0
 19 36  1  0  0  0
 19 37  1  0  0  0
 20 38  1  0  0  0
 20 39  1  0  0  0
 21 40  1  0  0  0
 22 41  1  0  0  0
 26 42  1  0  0  0
 28 43  1  0  0  0
 28 44  1  0  0  0
 29 45  1  0  0  0
 29 46  1  0  0  0
M  END
$$$$
