4q9m_ligand
  -I-interpret- 

 44 46  0  0  0  0  0  0  0  0999 V2000
   88.0550   39.6630   57.7340 C   0  0  0  0  0
   89.2570   40.1500   56.9230 C   0  0  0  0  0
   90.3790   39.1100   56.9730 C   0  0  0  0  0
   89.6990   41.5430   57.3670 C   0  0  0  0  0
   89.1780   42.6740   56.7420 C   0  0  0  0  0
   89.5920   43.9480   57.1000 C   0  0  0  0  0
   90.6230   41.7250   58.3920 C   0  0  0  0  0
   91.0310   42.9940   58.7710 C   0  0  0  0  0
   90.5230   44.1200   58.1210 C   0  0  0  0  0
   91.0240   45.3840   58.5280 N   0  0  0  0  0
   90.4520   46.6410   58.4240 C   0  0  0  0  0
   89.2880   46.8330   58.0750 O   0  0  0  0  0
   91.3110   47.7820   58.8400 C   0  0  0  0  0
   90.8760   49.0410   59.0840 C   0  0  0  0  0
   89.6360   49.7960   58.7770 C   0  0  0  0  0
   91.8050   49.6870   59.8100 O   0  0  0  0  0
   92.8890   48.7910   60.0450 N   0  0  0  0  0
   92.5820   47.6660   59.4190 C   0  0  0  0  0
   93.7460   46.7800   59.2140 C   0  0  0  0  0
   94.2880   46.4570   57.9690 C   0  0  0  0  0
   93.7030   47.2150   56.5180 Cl  0  0  0  0  0
   95.3820   45.6090   57.8580 C   0  0  0  0  0
   95.9400   45.0640   59.0020 C   0  0  0  0  0
   95.4440   45.4070   60.2450 C   0  0  0  0  0
   94.4010   46.3140   60.3540 C   0  0  0  0  0
   88.3231   39.6221   58.7897 H   0  0  0  0  0
   87.2218   40.3521   57.5958 H   0  0  0  0  0
   87.7665   38.6690   57.3923 H   0  0  0  0  0
   88.9672   40.2551   55.8775 H   0  0  0  0  0
   91.1906   39.4211   56.3153 H   0  0  0  0  0
   90.7494   39.0259   57.9947 H   0  0  0  0  0
   89.9931   38.1450   56.6445 H   0  0  0  0  0
   88.4311   42.5551   55.9571 H   0  0  0  0  0
   89.1876   44.8170   56.5809 H   0  0  0  0  0
   91.0325   40.8549   58.9051 H   0  0  0  0  0
   91.7516   43.1134   59.5801 H   0  0  0  0  0
   91.9461   45.3635   58.9636 H   0  0  0  0  0
   89.4961   49.8387   57.6969 H   0  0  0  0  0
   88.7838   49.2944   59.2355 H   0  0  0  0  0
   89.7204   50.8076   59.1740 H   0  0  0  0  0
   95.7981   45.3743   56.8783 H   0  0  0  0  0
   96.7714   44.3637   58.9218 H   0  0  0  0  0
   95.8740   44.9631   61.1429 H   0  0  0  0  0
   94.0905   46.6656   61.3379 H   0  0  0  0  0
  1  2  1  0  0  0
  2  3  1  0  0  0
  2  4  1  0  0  0
  4  5  4  0  0  0
  4  7  4  0  0  0
  5  6  4  0  0  0
  6  9  4  0  0  0
  7  8  4  0  0  0
  8  9  4  0  0  0
  9 10  1  0  0  0
 10 11  1  0  0  0
 11 12  2  0  0  0
 11 13  1  0  0  0
 13 14  4  0  0  0
 13 18  4  0  0  0
 14 15  1  0  0  0
 14 16  4  0  0  0
 16 17  4  0  0  0
 17 18  4  0  0  0
 18 19  1  0  0  0
 19 20  4  0  0  0
 19 25  4  0  0  0
 20 21  1  0  0  0
 20 22  4  0  0  0
 22 23  4  0  0  0
 23 24  4  0  0  0
 24 25  4  0  0  0
  1 26  1  0  0  0
  1 27  1  0  0  0
  1 28  1  0  0  0
  2 29  1  0  0  0
  3 30  1  0  0  0
  3 31  1  0  0  0
  3 32  1  0  0  0
  5 33  1  0  0  0
  6 34  1  0  0  0
  7 35  1  0  0  0
  8 36  1  0  0  0
 10 37  1  0  0  0
 15 38  1  0  0  0
 15 39  1  0  0  0
 15 40  1  0  0  0
 22 41  1  0  0  0
 23 42  1  0  0  0
 24 43  1  0  0  0
 25 44  1  0  0  0
M  END
$$$$
