3efr_ligand
  -I-interpret- 

 32 33  0  0  0  0  0  0  0  0999 V2000
   13.1660    4.3510   12.8710 C   0  0  0  0  0
   13.0800    5.1890   11.9470 O   0  0  0  0  0
   14.1040    3.5220   12.8480 O   0  0  0  0  0
   12.1400    4.3490   13.9810 C   0  0  0  0  0
   12.7870    4.6550   15.3250 C   0  0  0  0  0
   13.7330    3.5290   15.7180 C   0  0  0  0  0
   13.2560    2.8390   16.9910 C   0  0  0  0  0
   13.2070    3.7810   18.1840 C   0  0  0  0  0
   14.4560    3.3770   19.2160 S   0  0  0  0  0
   13.4710    3.7360   20.6920 C   0  0  0  0  0
   11.9910    3.7080   20.3690 C   0  0  0  0  0
   11.3850    2.4580   20.7830 N   0  0  0  0  0
   10.9950    1.7370   19.7390 C   0  0  0  0  0
   10.4040    0.4580   19.8090 O   0  0  0  0  0
   11.2410    2.3910   18.6120 N   0  0  0  0  0
   11.8470    3.6820   18.8610 C   0  0  0  0  0
   14.0411    2.9479   13.6149 H   0  0  0  0  0
   11.6817    3.3613   14.0310 H   0  0  0  0  0
   11.3952    5.1162   13.7694 H   0  0  0  0  0
   12.0096    4.7503   16.0830 H   0  0  0  0  0
   13.3502    5.5850   15.2476 H   0  0  0  0  0
   14.7232    3.9485   15.8960 H   0  0  0  0  0
   13.7612    2.7966   14.9112 H   0  0  0  0  0
   13.9601    2.0400   17.2233 H   0  0  0  0  0
   12.2460    2.4695   16.8138 H   0  0  0  0  0
   13.3336    4.8178   17.8725 H   0  0  0  0  0
   13.7329    4.7291   21.0571 H   0  0  0  0  0
   13.6808    2.9792   21.4479 H   0  0  0  0  0
   11.5301    4.5637   20.8625 H   0  0  0  0  0
   11.2724    2.1688   21.7546 H   0  0  0  0  0
   11.0290    2.0285   17.6825 H   0  0  0  0  0
   11.2610    4.5145   18.4716 H   0  0  0  0  0
  1  2  2  0  0  0
  1  3  1  0  0  0
  1  4  1  0  0  0
  4  5  1  0  0  0
  5  6  1  0  0  0
  6  7  1  0  0  0
  7  8  1  0  0  0
  8  9  1  0  0  0
  8 16  1  0  0  0
  9 10  1  0  0  0
 10 11  1  0  0  0
 11 12  1  0  0  0
 11 16  1  0  0  0
 12 13  1  0  0  0
 13 14  2  0  0  0
 13 15  1  0  0  0
 15 16  1  0  0  0
  3 17  1  0  0  0
  4 18  1  0  0  0
  4 19  1  0  0  0
  5 20  1  0  0  0
  5 21  1  0  0  0
  6 22  1  0  0  0
  6 23  1  0  0  0
  7 24  1  0  0  0
  7 25  1  0  0  0
  8 26  1  0  0  0
 10 27  1  0  0  0
 10 28  1  0  0  0
 11 29  1  0  0  0
 12 30  1  0  0  0
 15 31  1  0  0  0
 16 32  1  0  0  0
M  END
$$$$
