3bel_ligand
  -I-interpret- 

 54 57  0  0  0  0  0  0  0  0999 V2000
   16.2990   37.4260   96.8340 C   0  0  0  0  0
   14.9610   37.3430   96.2990 C   0  0  0  0  0
   14.1390   38.4860   96.2120 C   0  0  0  0  0
   13.6390   32.6540   86.7070 N   0  0  0  0  0
   17.1620   36.1640   96.9160 C   0  0  0  0  0
   15.4530   33.3690   95.6360 C   0  0  0  0  0
   16.4760   34.1520   92.0150 C   0  0  0  0  0
   17.2310   35.3030   92.3670 C   0  0  0  0  0
   17.3560   35.7340   93.7050 C   0  0  0  0  0
   16.6890   34.9690   94.7050 C   0  0  0  0  0
   15.9390   33.8240   94.3990 C   0  0  0  0  0
   15.8280   33.4070   93.0430 C   0  0  0  0  0
   12.8970   34.1310   89.8140 C   0  0  0  0  0
   15.1670   33.6350   89.9000 C   0  0  0  0  0
   16.3330   32.5230   87.9850 C   0  0  0  0  0
   18.3720   31.9620   85.1860 C   0  0  0  0  0
   19.9100   31.8560   85.2010 C   0  0  0  0  0
   21.8320   31.8250   83.8940 C   0  0  0  0  0
   14.6110   39.7530   96.6510 C   0  0  0  0  0
   15.9310   39.8620   97.1820 C   0  0  0  0  0
   16.7710   38.7010   97.2720 C   0  0  0  0  0
   12.9030   38.3620   95.7080 F   0  0  0  0  0
   16.5820   35.1030   96.0790 N   0  0  0  0  0
   15.8300   34.1290   96.6580 N   0  0  0  0  0
   16.3180   33.7180   90.6900 N   0  0  0  0  0
   12.7520   33.6300   88.5560 N   0  0  0  0  0
   14.0450   34.1580   90.5010 N   0  0  0  0  0
   15.1190   33.0870   88.6170 C   0  0  0  0  0
   13.8530   33.1220   87.9740 C   0  0  0  0  0
   16.6570   32.6170   86.7330 N   0  0  0  0  0
   17.8930   31.9180   86.5560 O   0  0  0  0  0
   20.4030   31.9070   83.8520 O   0  0  0  0  0
   14.5794   36.3811   95.9565 H   0  0  0  0  0
   12.7087   32.7111   86.2926 H   0  0  0  0  0
   14.4096   32.2478   86.1764 H   0  0  0  0  0
   17.2017   35.8232   97.9506 H   0  0  0  0  0
   18.1666   36.3927   96.5601 H   0  0  0  0  0
   14.8294   32.4818   95.7460 H   0  0  0  0  0
   17.7285   35.8700   91.5802 H   0  0  0  0  0
   17.9399   36.6174   93.9633 H   0  0  0  0  0
   15.2482   32.5191   92.7908 H   0  0  0  0  0
   12.0107   34.5411   90.2980 H   0  0  0  0  0
   17.0190   31.9774   88.6330 H   0  0  0  0  0
   17.9478   31.1346   84.6171 H   0  0  0  0  0
   18.0684   32.8973   84.7158 H   0  0  0  0  0
   20.2063   30.9139   85.6623 H   0  0  0  0  0
   20.3272   32.6845   85.7734 H   0  0  0  0  0
   22.2260   32.6629   84.4692 H   0  0  0  0  0
   22.1272   30.8879   84.3660 H   0  0  0  0  0
   22.2268   31.8621   82.8787 H   0  0  0  0  0
   13.9709   40.6326   96.5827 H   0  0  0  0  0
   16.3026   40.8293   97.5202 H   0  0  0  0  0
   17.7782   38.7935   97.6783 H   0  0  0  0  0
   17.1773   33.4157   90.2311 H   0  0  0  0  0
  1  2  4  0  0  0
  5  1  1  0  0  0
  1 21  4  0  0  0
  2  3  4  0  0  0
  3 19  4  0  0  0
  3 22  1  0  0  0
 29  4  1  0  0  0
 23  5  1  0  0  0
 11  6  4  0  0  0
  6 24  4  0  0  0
  7  8  4  0  0  0
  7 12  4  0  0  0
 25  7  1  0  0  0
  8  9  4  0  0  0
  9 10  4  0  0  0
 11 10  4  0  0  0
 10 23  4  0  0  0
 12 11  4  0  0  0
 26 13  4  0  0  0
 27 13  4  0  0  0
 14 25  1  0  0  0
 14 27  4  0  0  0
 28 14  4  0  0  0
 15 28  1  0  0  0
 30 15  2  0  0  0
 16 17  1  0  0  0
 31 16  1  0  0  0
 17 32  1  0  0  0
 32 18  1  0  0  0
 20 19  4  0  0  0
 21 20  4  0  0  0
 23 24  4  0  0  0
 29 26  4  0  0  0
 28 29  4  0  0  0
 30 31  1  0  0  0
  2 33  1  0  0  0
  4 34  1  0  0  0
  4 35  1  0  0  0
  5 36  1  0  0  0
  5 37  1  0  0  0
  6 38  1  0  0  0
  8 39  1  0  0  0
  9 40  1  0  0  0
 12 41  1  0  0  0
 13 42  1  0  0  0
 15 43  1  0  0  0
 16 44  1  0  0  0
 16 45  1  0  0  0
 17 46  1  0  0  0
 17 47  1  0  0  0
 18 48  1  0  0  0
 18 49  1  0  0  0
 18 50  1  0  0  0
 19 51  1  0  0  0
 20 52  1  0  0  0
 21 53  1  0  0  0
 25 54  1  0  0  0
M  END
$$$$
