1hpo_ligand
  -I-interpret- 

 64 68  0  0  0  0  0  0  0  0999 V2000
   13.6440   23.0550    5.7580 C   0  0  0  0  0
   12.4620   22.4300    6.2330 C   0  0  0  0  0
   12.5220   21.3710    6.7520 O   0  0  0  0  0
   11.2320   22.9530    6.0750 O   0  0  0  0  0
   11.1730   24.1780    5.3710 C   0  0  0  0  0
   12.2830   24.8340    4.8700 C   0  0  0  0  0
   13.5440   24.2550    5.0790 C   0  0  0  0  0
   14.7200   24.8210    4.7030 O   0  0  0  0  0
   15.3970   21.2880    5.0660 C   0  0  0  0  0
   15.1540   21.3690    3.6670 C   0  0  0  0  0
   15.5220   20.2830    2.8340 C   0  0  0  0  0
   16.1290   19.1410    3.3570 C   0  0  0  0  0
   16.3510   19.0480    4.7530 C   0  0  0  0  0
   15.9960   20.1240    5.5870 C   0  0  0  0  0
   15.0550   22.4530    5.9880 C   0  0  0  0  0
   15.5140   22.2140    7.4440 C   0  0  0  0  0
   15.4090   23.3410    8.4740 C   0  0  0  0  0
   16.7720   22.9310    7.9340 C   0  0  0  0  0
    9.7560   24.7210    5.2000 C   0  0  0  0  0
    9.0920   24.5760    3.8190 C   0  0  0  0  0
    9.8770   23.8900    2.7510 C   0  0  0  0  0
   11.0450   24.6630    2.1980 C   0  0  0  0  0
   11.2850   26.0690    2.7980 C   0  0  0  0  0
   12.1320   26.1330    4.1020 C   0  0  0  0  0
   16.9830   17.9420    5.3080 N   0  0  0  0  0
   18.5350   18.0980    5.4930 S   0  0  0  0  0
   18.8700   16.6830    5.5030 O   0  0  0  0  0
   18.9170   18.8390    4.2920 O   0  0  0  0  0
   19.1800   18.9950    6.8380 C   0  0  0  0  0
   19.1190   18.5400    8.1890 C   0  0  0  0  0
   19.6730   19.3400    9.2240 C   0  0  0  0  0
   20.2810   20.5780    8.8980 C   0  0  0  0  0
   20.3310   21.0200    7.5600 C   0  0  0  0  0
   19.7850   20.2350    6.5360 C   0  0  0  0  0
   20.8740   21.3540    9.8890 C   0  0  0  0  0
   21.3780   22.0050   10.7220 N   0  0  0  0  0
   14.5445   25.6445    4.2419 H   0  0  0  0  0
   14.6893   22.2576    3.2397 H   0  0  0  0  0
   15.3268   20.3412    1.7632 H   0  0  0  0  0
   16.4299   18.3273    2.6972 H   0  0  0  0  0
   16.1882   20.0558    6.6577 H   0  0  0  0  0
   15.6735   23.2984    5.6866 H   0  0  0  0  0
   15.1669   21.1815    7.4050 H   0  0  0  0  0
   14.9340   23.5250    9.4376 H   0  0  0  0  0
   14.8333   24.2532    8.6306 H   0  0  0  0  0
   17.6580   23.4046    7.5112 H   0  0  0  0  0
   17.7589   22.6751    8.3196 H   0  0  0  0  0
    9.8334   25.7943    5.3737 H   0  0  0  0  0
    9.1374   24.1380    5.8823 H   0  0  0  0  0
    8.2089   23.9576    3.9796 H   0  0  0  0  0
    8.9316   25.5928    3.4604 H   0  0  0  0  0
   10.2906   22.9887    3.2035 H   0  0  0  0  0
    9.1913   23.7307    1.9188 H   0  0  0  0  0
   11.9340   24.0777    2.4329 H   0  0  0  0  0
   10.8324   24.8174    1.1402 H   0  0  0  0  0
   11.8453   26.6258    2.0469 H   0  0  0  0  0
   10.3006   26.4578    3.0585 H   0  0  0  0  0
   13.1372   26.4237    3.7969 H   0  0  0  0  0
   11.6115   26.8207    4.7685 H   0  0  0  0  0
   16.4791   17.0960    5.5741 H   0  0  0  0  0
   18.6503   17.5847    8.4254 H   0  0  0  0  0
   19.6308   19.0045   10.2602 H   0  0  0  0  0
   20.7963   21.9763    7.3213 H   0  0  0  0  0
   19.8272   20.5821    5.5036 H   0  0  0  0  0
  1 15  1  0  0  0
  1  7  2  0  0  0
  1  2  1  0  0  0
  2  4  1  0  0  0
  2  3  2  0  0  0
  4  5  1  0  0  0
  5 19  1  0  0  0
  5  6  2  0  0  0
  6 24  1  0  0  0
  6  7  1  0  0  0
  7  8  1  0  0  0
 24 23  1  0  0  0
 23 22  1  0  0  0
 22 21  1  0  0  0
 21 20  1  0  0  0
 20 19  1  0  0  0
 15 16  1  0  0  0
 15  9  1  0  0  0
  9 14  4  0  0  0
  9 10  4  0  0  0
 10 11  4  0  0  0
 11 12  4  0  0  0
 12 13  4  0  0  0
 13 25  1  0  0  0
 13 14  4  0  0  0
 25 26  1  0  0  0
 26 29  1  0  0  0
 26 28  2  0  0  0
 26 27  2  0  0  0
 29 34  4  0  0  0
 29 30  4  0  0  0
 30 31  4  0  0  0
 31 32  4  0  0  0
 32 35  1  0  0  0
 32 33  4  0  0  0
 33 34  4  0  0  0
 35 36  3  0  0  0
 16 18  1  0  0  0
 16 17  1  0  0  0
 17 18  1  0  0  0
  8 37  1  0  0  0
 10 38  1  0  0  0
 11 39  1  0  0  0
 12 40  1  0  0  0
 14 41  1  0  0  0
 15 42  1  0  0  0
 16 43  1  0  0  0
 17 44  1  0  0  0
 17 45  1  0  0  0
 18 46  1  0  0  0
 18 47  1  0  0  0
 19 48  1  0  0  0
 19 49  1  0  0  0
 20 50  1  0  0  0
 20 51  1  0  0  0
 21 52  1  0  0  0
 21 53  1  0  0  0
 22 54  1  0  0  0
 22 55  1  0  0  0
 23 56  1  0  0  0
 23 57  1  0  0  0
 24 58  1  0  0  0
 24 59  1  0  0  0
 25 60  1  0  0  0
 30 61  1  0  0  0
 31 62  1  0  0  0
 33 63  1  0  0  0
 34 64  1  0  0  0
M  END
$$$$
