3d9p_ligand
  -I-interpret- 

123126  0  0  0  0  0  0  0  0999 V2000
   13.3110    0.6890   -0.6660 N   0  3  0  0  0
   12.8130    1.4270   -1.8180 C   0  0  0  0  0
   13.8890    2.3430   -2.3650 C   0  0  0  0  0
   14.2660    3.3110   -1.7110 O   0  0  0  0  0
   11.6600    2.2440   -1.2330 C   0  0  0  0  0
   11.1420    1.4060   -0.1270 C   0  0  0  0  0
   12.3320    0.6680    0.4420 C   0  0  0  0  0
   14.3720    2.0250   -3.5610 N   0  0  0  0  0
   15.4840    2.7340   -4.1760 C   0  0  0  0  0
   15.0600    4.0400   -4.8390 C   0  0  0  0  0
   13.9210    4.1740   -5.3050 O   0  0  0  0  0
   16.2020    1.8310   -5.1890 C   0  0  0  0  0
   15.2900    1.2090   -6.0790 O   0  0  0  0  0
   15.9940    4.9920   -4.8710 N   0  0  0  0  0
   15.7980    6.2820   -5.5300 C   0  0  0  0  0
   15.4930    6.1210   -7.0180 C   0  0  0  0  0
   16.1250    5.3180   -7.7200 O   0  0  0  0  0
   17.0170    7.2070   -5.3400 C   0  0  0  0  0
   16.8310    8.5740   -5.9840 C   0  0  0  0  0
   16.1850    9.6090   -5.3000 C   0  0  0  0  0
   17.2640    8.8170   -7.2870 C   0  0  0  0  0
   15.9970   10.8550   -5.8880 C   0  0  0  0  0
   17.0780   10.0690   -7.8940 C   0  0  0  0  0
   16.4450   11.0790   -7.1860 C   0  0  0  0  0
   16.2580   12.3080   -7.7740 O   0  0  0  0  0
   14.5090    6.8840   -7.4830 N   0  0  0  0  0
   14.2150    6.9710   -8.9000 C   0  0  0  0  0
   12.9930    6.1180   -9.2630 C   0  0  0  0  0
   12.5580    6.4160  -10.5780 O   0  0  0  0  0
   14.0110    8.4290   -9.3150 C   0  0  0  0  0
   13.2870    9.1710   -8.6400 O   0  0  0  0  0
   12.4520    5.1290  -11.5500 P   0  0  0  0  0
   10.9930    4.4660  -11.4050 O   0  0  0  0  0
   12.6580    5.6390  -13.0650 O   0  0  0  0  0
   13.5900    4.0370  -11.2050 O   0  0  0  0  0
   14.6440    8.8380  -10.4380 N   0  0  0  0  0
   14.5320   10.2040  -10.9810 C   0  0  0  0  0
   13.1210   10.5770  -11.4430 C   0  0  0  0  0
   12.8330   11.7610  -11.6030 O   0  0  0  0  0
   15.4710   10.1740  -12.1940 C   0  0  0  0  0
   15.5380    8.7410  -12.5830 C   0  0  0  0  0
   15.5110    7.9940  -11.2830 C   0  0  0  0  0
   12.2680    9.5770  -11.6660 N   0  0  0  0  0
   10.8940    9.8020  -12.1360 C   0  0  0  0  0
    9.9510   10.2630  -11.0280 C   0  0  0  0  0
    8.9260   10.8930  -11.2990 O   0  0  0  0  0
   10.2680    8.5270  -12.7550 C   0  0  0  0  0
   10.4170    7.4270  -11.8480 O   0  0  0  0  0
   10.9050    8.1840  -14.0950 C   0  0  0  0  0
   10.2910    9.9340   -9.7850 N   0  0  0  0  0
    9.4010   10.1770   -8.6510 C   0  0  0  0  0
    9.5070    9.0320   -7.6410 C   0  0  0  0  0
   10.8610    8.7520   -7.3500 O   0  0  0  0  0
    9.6580   11.5220   -7.9660 C   0  0  0  0  0
   10.8110   11.9610   -7.8800 O   0  0  0  0  0
   11.0310    8.0610   -5.9040 P   0  0  0  0  0
   10.5720    6.5150   -5.9750 O   0  0  0  0  0
   12.5960    8.1540   -5.5220 O   0  0  0  0  0
   10.1240    8.8220   -4.8020 O   0  0  0  0  0
    8.5790   12.1800   -7.4840 N   0  0  0  0  0
    8.6750   13.4650   -6.7870 C   0  0  0  0  0
    9.5090   13.3810   -5.5110 C   0  0  0  0  0
    9.7540   14.4030   -4.8660 O   0  0  0  0  0
    7.2120   13.7910   -6.4400 C   0  0  0  0  0
    6.4000   12.9900   -7.3900 C   0  0  0  0  0
    7.1780   11.7290   -7.5930 C   0  0  0  0  0
   14.1590    1.1487   -0.3344 H   0  0  0  0  0
   13.4872   -0.2732   -0.9549 H   0  0  0  0  0
   12.5097    0.7844   -2.6446 H   0  0  0  0  0
   10.8932    2.4623   -1.9763 H   0  0  0  0  0
   11.9863    3.2247   -0.8867 H   0  0  0  0  0
   10.3844    0.7092   -0.4857 H   0  0  0  0  0
   10.6602    2.0183    0.6353 H   0  0  0  0  0
   12.7174    1.1323    1.3497 H   0  0  0  0  0
   12.0831   -0.3440    0.7614 H   0  0  0  0  0
   13.9452    1.2509   -4.0699 H   0  0  0  0  0
   16.1716    2.9959   -3.3718 H   0  0  0  0  0
   16.7299    1.0517   -4.6394 H   0  0  0  0  0
   16.8849    2.4474   -5.7737 H   0  0  0  0  0
   15.7739    0.6544   -6.6953 H   0  0  0  0  0
   16.8876    4.8111   -4.4138 H   0  0  0  0  0
   14.9339    6.7445   -5.0530 H   0  0  0  0  0
   17.8740    6.7295   -5.8150 H   0  0  0  0  0
   17.1549    7.3597   -4.2696 H   0  0  0  0  0
   15.8221    9.4356   -4.2869 H   0  0  0  0  0
   17.7560    8.0200   -7.8446 H   0  0  0  0  0
   15.5010   11.6524   -5.3346 H   0  0  0  0  0
   17.4276   10.2452   -8.9113 H   0  0  0  0  0
   16.6220   12.2952   -8.6622 H   0  0  0  0  0
   13.9456    7.4228   -6.8252 H   0  0  0  0  0
   15.0684    6.5755   -9.4508 H   0  0  0  0  0
   12.1862    6.3364   -8.5634 H   0  0  0  0  0
   13.2661    5.0641   -9.2089 H   0  0  0  0  0
   13.5282    6.0348  -13.1527 H   0  0  0  0  0
   14.4565    4.4405  -11.2939 H   0  0  0  0  0
   14.7780   10.9434  -10.2189 H   0  0  0  0  0
   16.4553   10.5777  -11.9567 H   0  0  0  0  0
   15.1047   10.7999  -13.0078 H   0  0  0  0  0
   16.4337    8.5177  -13.1626 H   0  0  0  0  0
   14.7111    8.4564  -13.2336 H   0  0  0  0  0
   15.1389    6.9748  -11.3873 H   0  0  0  0  0
   16.5038    7.8469  -10.8579 H   0  0  0  0  0
   12.5809    8.6197  -11.5043 H   0  0  0  0  0
   10.9950   10.5853  -12.8872 H   0  0  0  0  0
    9.2096    8.7209  -12.9290 H   0  0  0  0  0
   10.0280    6.6394  -12.2353 H   0  0  0  0  0
   10.7577    9.0120  -14.7884 H   0  0  0  0  0
   11.9721    8.0111  -13.9550 H   0  0  0  0  0
   10.4396    7.2842  -14.4974 H   0  0  0  0  0
   11.1987    9.4997   -9.6182 H   0  0  0  0  0
    8.3870   10.2200   -9.0485 H   0  0  0  0  0
    9.0448    8.1411   -8.0661 H   0  0  0  0  0
    9.0002    9.3234   -6.7211 H   0  0  0  0  0
    9.6405    6.4691   -6.2026 H   0  0  0  0  0
    9.1987    8.7542   -5.0487 H   0  0  0  0  0
    9.1675   14.2195   -7.4004 H   0  0  0  0  0
    9.8879   12.4175   -5.1701 H   0  0  0  0  0
    7.0044   14.8570   -6.5325 H   0  0  0  0  0
    6.9794   13.5441   -5.4041 H   0  0  0  0  0
    6.2355   13.5196   -8.3284 H   0  0  0  0  0
    5.4013   12.7913   -7.0013 H   0  0  0  0  0
    6.9259   10.9564   -6.8666 H   0  0  0  0  0
    6.9624   11.2495   -8.5478 H   0  0  0  0  0
  1  2  1  0  0  0
  1  7  1  0  0  0
  2  3  1  0  0  0
  2  5  1  0  0  0
  3  4  2  0  0  0
  3  8  1  0  0  0
  5  6  1  0  0  0
  6  7  1  0  0  0
  8  9  1  0  0  0
  9 10  1  0  0  0
  9 12  1  0  0  0
 10 11  2  0  0  0
 10 14  1  0  0  0
 12 13  1  0  0  0
 14 15  1  0  0  0
 15 16  1  0  0  0
 15 18  1  0  0  0
 16 17  2  0  0  0
 16 26  1  0  0  0
 18 19  1  0  0  0
 19 20  4  0  0  0
 19 21  4  0  0  0
 20 22  4  0  0  0
 21 23  4  0  0  0
 22 24  4  0  0  0
 23 24  4  0  0  0
 24 25  1  0  0  0
 26 27  1  0  0  0
 27 28  1  0  0  0
 27 30  1  0  0  0
 28 29  1  0  0  0
 29 32  1  0  0  0
 30 31  2  0  0  0
 30 36  1  0  0  0
 32 33  2  0  0  0
 32 34  1  0  0  0
 32 35  1  0  0  0
 36 37  1  0  0  0
 36 42  1  0  0  0
 37 38  1  0  0  0
 37 40  1  0  0  0
 38 39  2  0  0  0
 38 43  1  0  0  0
 40 41  1  0  0  0
 41 42  1  0  0  0
 43 44  1  0  0  0
 44 45  1  0  0  0
 44 47  1  0  0  0
 45 46  2  0  0  0
 45 50  1  0  0  0
 47 48  1  0  0  0
 47 49  1  0  0  0
 50 51  1  0  0  0
 51 52  1  0  0  0
 51 54  1  0  0  0
 52 53  1  0  0  0
 53 56  1  0  0  0
 54 55  2  0  0  0
 54 60  1  0  0  0
 56 57  1  0  0  0
 56 58  2  0  0  0
 56 59  1  0  0  0
 60 61  1  0  0  0
 60 66  1  0  0  0
 61 62  1  0  0  0
 61 64  1  0  0  0
 62 63  2  0  0  0
 64 65  1  0  0  0
 65 66  1  0  0  0
  1 67  1  0  0  0
  1 68  1  0  0  0
  2 69  1  0  0  0
  5 70  1  0  0  0
  5 71  1  0  0  0
  6 72  1  0  0  0
  6 73  1  0  0  0
  7 74  1  0  0  0
  7 75  1  0  0  0
  8 76  1  0  0  0
  9 77  1  0  0  0
 12 78  1  0  0  0
 12 79  1  0  0  0
 13 80  1  0  0  0
 14 81  1  0  0  0
 15 82  1  0  0  0
 18 83  1  0  0  0
 18 84  1  0  0  0
 20 85  1  0  0  0
 21 86  1  0  0  0
 22 87  1  0  0  0
 23 88  1  0  0  0
 25 89  1  0  0  0
 26 90  1  0  0  0
 27 91  1  0  0  0
 28 92  1  0  0  0
 28 93  1  0  0  0
 34 94  1  0  0  0
 35 95  1  0  0  0
 37 96  1  0  0  0
 40 97  1  0  0  0
 40 98  1  0  0  0
 41 99  1  0  0  0
 41100  1  0  0  0
 42101  1  0  0  0
 42102  1  0  0  0
 43103  1  0  0  0
 44104  1  0  0  0
 47105  1  0  0  0
 48106  1  0  0  0
 49107  1  0  0  0
 49108  1  0  0  0
 49109  1  0  0  0
 50110  1  0  0  0
 51111  1  0  0  0
 52112  1  0  0  0
 52113  1  0  0  0
 57114  1  0  0  0
 59115  1  0  0  0
 61116  1  0  0  0
 62117  1  0  0  0
 64118  1  0  0  0
 64119  1  0  0  0
 65120  1  0  0  0
 65121  1  0  0  0
 66122  1  0  0  0
 66123  1  0  0  0
M  END
$$$$
