### 
### Created by X-TOOL on Mon Sep 10 21:12:57 2018
### 

@<TRIPOS>MOLECULE
3d9p_ligand
  119   122     1     0     0
SMALL
GAST_HUCK


@<TRIPOS>ATOM
      1 N          13.3110    0.6890   -0.6660 N.4       1 PRO         0.2461
      2 CA         12.8130    1.4270   -1.8180 C.3       1 PRO         0.0670
      3 C          13.8890    2.3430   -2.3650 C.2       1 PRO         0.2268
      4 O          14.2660    3.3110   -1.7110 O.2       1 PRO        -0.3907
      5 CB         11.6600    2.2440   -1.2330 C.3       1 PRO         0.0127
      6 CG         11.1420    1.4060   -0.1270 C.3       1 PRO        -0.0053
      7 CD         12.3320    0.6680    0.4420 C.3       1 PRO        -0.0313
      8 N          14.3720    2.0250   -3.5610 N.am      1 SER        -0.2589
      9 CA         15.4840    2.7340   -4.1760 C.3       1 SER         0.1540
     10 C          15.0600    4.0400   -4.8390 C.2       1 SER         0.2063
     11 O          13.9210    4.1740   -5.3050 O.2       1 SER        -0.3943
     12 CB         16.2020    1.8310   -5.1890 C.3       1 SER         0.0843
     13 OG         15.2900    1.2090   -6.0790 O.3       1 SER        -0.3903
     14 N          15.9940    4.9920   -4.8710 N.am      1 TYR        -0.2621
     15 CA         15.7980    6.2820   -5.5300 C.3       1 TYR         0.1390
     16 C          15.4930    6.1210   -7.0180 C.2       1 TYR         0.2058
     17 O          16.1250    5.3180   -7.7200 O.2       1 TYR        -0.3942
     18 CB         17.0170    7.2070   -5.3400 C.3       1 TYR         0.0163
     19 CG         16.8310    8.5740   -5.9840 C.ar      1 TYR        -0.0493
     20 CD1        16.1850    9.6090   -5.3000 C.ar      1 TYR        -0.0685
     21 CD2        17.2640    8.8170   -7.2870 C.ar      1 TYR        -0.0685
     22 CE1        15.9970   10.8550   -5.8880 C.ar      1 TYR        -0.0398
     23 CE2        17.0780   10.0690   -7.8940 C.ar      1 TYR        -0.0398
     24 CZ         16.4450   11.0790   -7.1860 C.ar      1 TYR         0.0805
     25 OH         16.2580   12.3080   -7.7740 O.3       1 TYR        -0.3376
     26 N          14.5090    6.8840   -7.4830 N.am      1 SEP        -0.2611
     27 CA         14.2150    6.9710   -8.9000 C.3       1 SEP         0.1588
     28 CB         12.9930    6.1180   -9.2630 C.3       1 SEP         0.1184
     29 OG         12.5580    6.4160  -10.5780 O.3       1 SEP        -0.2714
     30 C          14.0110    8.4290   -9.3150 C.2       1 SEP         0.2090
     31 O          13.2870    9.1710   -8.6400 O.2       1 SEP        -0.3941
     32 P          12.4520    5.1290  -11.5500 P.3       1 SEP         0.2010
     33 O1P        10.9930    4.4660  -11.4050 O.co2     1 SEP        -0.5537
     34 O2P        12.6580    5.6390  -13.0650 O.co2     1 SEP        -0.5537
     35 O3P        13.5900    4.0370  -11.2050 O.co2     1 SEP        -0.5537
     36 N          14.6440    8.8380  -10.4380 N.am      1 PRO        -0.2498
     37 CA         14.5320   10.2040  -10.9810 C.3       1 PRO         0.1338
     38 C          13.1210   10.5770  -11.4430 C.2       1 PRO         0.2042
     39 O          12.8330   11.7610  -11.6030 O.2       1 PRO        -0.3944
     40 CB         15.4710   10.1740  -12.1940 C.3       1 PRO        -0.0104
     41 CG         15.5380    8.7410  -12.5830 C.3       1 PRO        -0.0281
     42 CD         15.5110    7.9940  -11.2830 C.3       1 PRO         0.0369
     43 N          12.2680    9.5770  -11.6660 N.am      1 THR        -0.2613
     44 CA         10.8940    9.8020  -12.1360 C.3       1 THR         0.1565
     45 C           9.9510   10.2630  -11.0280 C.2       1 THR         0.2065
     46 O           8.9260   10.8930  -11.2990 O.2       1 THR        -0.3943
     47 CB         10.2680    8.5270  -12.7550 C.3       1 THR         0.0924
     48 OG1        10.4170    7.4270  -11.8480 O.3       1 THR        -0.3874
     49 CG2        10.9050    8.1840  -14.0950 C.3       1 THR        -0.0346
     50 N          10.2910    9.9340   -9.7850 N.am      1 SEP        -0.2612
     51 CA          9.4010   10.1770   -8.6510 C.3       1 SEP         0.1588
     52 CB          9.5070    9.0320   -7.6410 C.3       1 SEP         0.1184
     53 OG         10.8610    8.7520   -7.3500 O.3       1 SEP        -0.2714
     54 C           9.6580   11.5220   -7.9660 C.2       1 SEP         0.2091
     55 O          10.8110   11.9610   -7.8800 O.2       1 SEP        -0.3941
     56 P          11.0310    8.0610   -5.9040 P.3       1 SEP         0.2010
     57 O1P        10.5720    6.5150   -5.9750 O.co2     1 SEP        -0.5537
     58 O2P        12.5960    8.1540   -5.5220 O.co2     1 SEP        -0.5537
     59 O3P        10.1240    8.8220   -4.8020 O.co2     1 SEP        -0.5537
     60 N           8.5790   12.1800   -7.4840 N.am      1 PRO        -0.2510
     61 CA          8.6750   13.4650   -6.7870 C.3       1 PRO         0.1156
     62 C           9.5090   13.3810   -5.5110 C.2       1 PRO         0.1247
     63 O           9.7540   14.4030   -4.8660 O.2       1 PRO        -0.3725
     64 CB          7.2120   13.7910   -6.4400 C.3       1 PRO        -0.0117
     65 CG          6.4000   12.9900   -7.3900 C.3       1 PRO        -0.0281
     66 CD          7.1780   11.7290   -7.5930 C.3       1 PRO         0.0370
     67 H1         14.1601    1.1250   -0.3421 H         1 PRO         0.2035
     68 H2         13.5060   -0.2594   -0.9462 H         1 PRO         0.2035
     69 H3         12.4620    0.7475   -2.6086 H         1 PRO         0.1099
     70 H4         10.8805    2.4155   -1.9900 H         1 PRO         0.0347
     71 H5         12.0211    3.2110   -0.8530 H         1 PRO         0.0347
     72 H6         10.3975    0.6913   -0.5076 H         1 PRO         0.0320
     73 H7         10.6814    2.0385    0.6461 H         1 PRO         0.0320
     74 H8         12.7291    1.1854    1.3278 H         1 PRO         0.0814
     75 H9         12.0632   -0.3644    0.7101 H         1 PRO         0.0814
     76 H10        13.9536    1.2660   -4.0599 H         1 SER         0.1885
     77 H11        16.1983    2.9844   -3.3779 H         1 SER         0.0823
     78 H12        16.7540    1.0519   -4.6429 H         1 SER         0.0606
     79 H13        16.9082    2.4407   -5.7716 H         1 SER         0.0606
     80 H14        15.7689    0.6602   -6.6889 H         1 SER         0.2097
     81 H15        16.8701    4.8146   -4.4227 H         1 TYR         0.1885
     82 H16        14.9299    6.7659   -5.0587 H         1 TYR         0.0821
     83 H17        17.8971    6.7243   -5.7898 H         1 TYR         0.0453
     84 H18        17.1864    7.3472   -4.2622 H         1 TYR         0.0453
     85 H19        15.8241    9.4365   -4.2925 H         1 TYR         0.0530
     86 H20        17.7533    8.0244   -7.8415 H         1 TYR         0.0530
     87 H21        15.5037   11.6480   -5.3377 H         1 TYR         0.0525
     88 H22        17.4257   10.2443   -8.9057 H         1 TYR         0.0525
     89 H23        15.7301   12.2061   -8.5572 H         1 TYR         0.2458
     90 H24        13.9566    7.4122   -6.8381 H         1 SEP         0.1884
     91 H25        15.0802    6.5766   -9.4530 H         1 SEP         0.0827
     92 H26        12.1788    6.3306   -8.5546 H         1 SEP         0.0662
     93 H27        13.2629    5.0533   -9.2027 H         1 SEP         0.0662
     94 H28        14.8701   10.9381  -10.2348 H         1 PRO         0.0802
     95 H29        16.4686   10.5492  -11.9219 H         1 PRO         0.0313
     96 H30        15.0627   10.7805  -13.0159 H         1 PRO         0.0313
     97 H31        16.4676    8.5308  -13.1322 H         1 PRO         0.0287
     98 H32        14.6739    8.4670  -13.2062 H         1 PRO         0.0287
     99 H33        15.0815    6.9896  -11.4122 H         1 PRO         0.0524
    100 H34        16.5204    7.9088  -10.8541 H         1 PRO         0.0524
    101 H35        12.5747    8.6385  -11.5075 H         1 THR         0.1884
    102 H36        10.9341   10.5845  -12.9081 H         1 THR         0.0826
    103 H37         9.1954    8.7094  -12.9171 H         1 THR         0.0639
    104 H38        11.3405    7.2770  -11.6829 H         1 THR         0.2101
    105 H39        10.4361    7.2760  -14.5021 H         1 THR         0.0257
    106 H40        11.9820    8.0092  -13.9550 H         1 THR         0.0257
    107 H41        10.7570    9.0188  -14.7958 H         1 THR         0.0257
    108 H42        11.1809    9.5082   -9.6214 H         1 SEP         0.1884
    109 H43         8.3711   10.1953   -9.0370 H         1 SEP         0.0827
    110 H44         9.0340    8.1327   -8.0624 H         1 SEP         0.0662
    111 H45         8.9893    9.3183   -6.7136 H         1 SEP         0.0662
    112 H46         9.1039   14.2313   -7.4494 H         1 PRO         0.0792
    113 H47         9.8876   12.4184   -5.1704 H         1 PRO         0.1373
    114 H48         7.0138   14.8648   -6.5731 H         1 PRO         0.0314
    115 H49         6.9880   13.5026   -5.4024 H         1 PRO         0.0314
    116 H50         6.2774   13.5266   -8.3424 H         1 PRO         0.0287
    117 H51         5.4104   12.7697   -6.9632 H         1 PRO         0.0287
    118 H52         6.9398   10.9884   -6.8154 H         1 PRO         0.0524
    119 H53         6.9781   11.2968   -8.5846 H         1 PRO         0.0524
@<TRIPOS>BOND
     1    1    2 1  
     2    1    7 1  
     3    2    3 1  
     4    2    5 1  
     5    3    4 2  
     6    3    8 am 
     7    5    6 1  
     8    6    7 1  
     9    8    9 1  
    10    9   10 1  
    11    9   12 1  
    12   10   11 2  
    13   10   14 am 
    14   12   13 1  
    15   14   15 1  
    16   15   16 1  
    17   15   18 1  
    18   16   17 2  
    19   16   26 am 
    20   18   19 1  
    21   19   20 ar 
    22   19   21 ar 
    23   20   22 ar 
    24   21   23 ar 
    25   22   24 ar 
    26   23   24 ar 
    27   24   25 1  
    28   26   27 1  
    29   27   28 1  
    30   27   30 1  
    31   28   29 1  
    32   29   32 1  
    33   30   31 2  
    34   30   36 am 
    35   32   33 ar 
    36   32   34 ar 
    37   32   35 ar 
    38   36   37 1  
    39   36   42 1  
    40   37   38 1  
    41   37   40 1  
    42   38   39 2  
    43   38   43 am 
    44   40   41 1  
    45   41   42 1  
    46   43   44 1  
    47   44   45 1  
    48   44   47 1  
    49   45   46 2  
    50   45   50 am 
    51   47   48 1  
    52   47   49 1  
    53   50   51 1  
    54   51   52 1  
    55   51   54 1  
    56   52   53 1  
    57   53   56 1  
    58   54   55 2  
    59   54   60 am 
    60   56   57 ar 
    61   56   58 ar 
    62   56   59 ar 
    63   60   61 1  
    64   60   66 1  
    65   61   62 1  
    66   61   64 1  
    67   62   63 2  
    68   64   65 1  
    69   65   66 1  
    70    1   67 1  
    71    1   68 1  
    72    2   69 1  
    73    5   70 1  
    74    5   71 1  
    75    6   72 1  
    76    6   73 1  
    77    7   74 1  
    78    7   75 1  
    79    8   76 1  
    80    9   77 1  
    81   12   78 1  
    82   12   79 1  
    83   13   80 1  
    84   14   81 1  
    85   15   82 1  
    86   18   83 1  
    87   18   84 1  
    88   20   85 1  
    89   21   86 1  
    90   22   87 1  
    91   23   88 1  
    92   25   89 1  
    93   26   90 1  
    94   27   91 1  
    95   28   92 1  
    96   28   93 1  
    97   37   94 1  
    98   40   95 1  
    99   40   96 1  
   100   41   97 1  
   101   41   98 1  
   102   42   99 1  
   103   42  100 1  
   104   43  101 1  
   105   44  102 1  
   106   47  103 1  
   107   48  104 1  
   108   49  105 1  
   109   49  106 1  
   110   49  107 1  
   111   50  108 1  
   112   51  109 1  
   113   52  110 1  
   114   52  111 1  
   115   61  112 1  
   116   62  113 1  
   117   64  114 1  
   118   64  115 1  
   119   65  116 1  
   120   65  117 1  
   121   66  118 1  
   122   66  119 1  
@<TRIPOS>SUBSTRUCTURE
     1 PRO         1

