### 
### Created by X-TOOL on Mon Sep 10 21:13:00 2018
### 

@<TRIPOS>MOLECULE
3ksl_ligand
   47    46     1     0     0
SMALL
GAST_HUCK


@<TRIPOS>ATOM
      1 C1        193.0670  123.5120   31.4730 C.2       1 SZH        -0.0784
      2 C2        192.4360  122.9830   30.3950 C.2       1 SZH        -0.0816
      3 C3        183.7190  121.1890   31.8760 C.2       1 SZH         0.4971
      4 C4        185.0910  120.7100   32.3270 C.2       1 SZH         0.4121
      5 C5        193.0540  122.6700   29.0830 C.3       1 SZH        -0.0403
      6 C6        188.1740  122.2240   33.9570 C.3       1 SZH        -0.0600
      7 C7        194.4940  123.9110   31.6950 C.3       1 SZH         0.0916
      8 C8        190.9450  122.6960   30.4300 C.3       1 SZH        -0.0285
      9 C9        190.4740  121.3260   30.9310 C.3       1 SZH        -0.0443
     10 C10       189.8280  121.3920   32.3330 C.3       1 SZH        -0.0464
     11 C11       187.3710  121.2760   31.7220 C.3       1 SZH         0.0795
     12 C12       188.4590  122.0970   32.4510 C.3       1 SZH        -0.0160
     13 C13       182.5390  120.3250   31.5530 C.3       1 SZH         0.4686
     14 N14       183.4780  123.6260   31.7060 N.1       1 SZH         0.4487
     15 N15       183.5640  122.4910   31.7760 N.1       1 SZH         0.1808
     16 O16       195.3320  123.6030   36.4530 O.co2     1 SZH        -0.5891
     17 O17       197.5170  124.4310   35.5120 O.co2     1 SZH        -0.5891
     18 O18       197.0350  125.4260   32.6640 O.co2     1 SZH        -0.5555
     19 O19       185.2470  119.6010   32.8250 O.2       1 SZH        -0.2785
     20 O20       196.2510  122.6380   34.2020 O.co2     1 SZH        -0.5891
     21 O21       195.4870  127.3060   33.4140 O.co2     1 SZH        -0.5555
     22 O22       186.0370  121.6750   32.1130 O.3       1 SZH        -0.2587
     23 O23       194.4610  125.2040   32.3120 O.3       1 SZH        -0.2411
     24 O24       195.3220  124.9660   34.5000 O.3       1 SZH        -0.1547
     25 F25       182.6590  118.9970   31.7060 F         1 SZH        -0.2349
     26 F26       181.5050  120.5890   32.3750 F         1 SZH        -0.2349
     27 F27       182.1080  120.5360   30.2820 F         1 SZH        -0.2349
     28 P28       196.1840  123.7950   35.2280 P.3       1 SZH         0.2070
     29 P29       195.6660  125.8210   33.1820 P.3       1 SZH         0.3288
     30 H1        192.4191  123.6764   32.3327 H         1 SZH         0.0268
     31 H2        192.2918  122.2516   28.4092 H         1 SZH         0.0375
     32 H3        193.8615  121.9364   29.2237 H         1 SZH         0.0375
     33 H4        193.4668  123.5899   28.6433 H         1 SZH         0.0375
     34 H5        188.9714  122.8139   34.4326 H         1 SZH         0.0233
     35 H6        188.1396  121.2220   34.4095 H         1 SZH         0.0233
     36 H7        187.2072  122.7270   34.1061 H         1 SZH         0.0233
     37 H8        195.0288  123.9611   30.7351 H         1 SZH         0.0696
     38 H9        194.9932  123.1869   32.3556 H         1 SZH         0.0696
     39 H10       190.5678  122.8132   29.4034 H         1 SZH         0.0410
     40 H11       190.4837  123.4549   31.0790 H         1 SZH         0.0410
     41 H12       191.3410  120.6505   30.9748 H         1 SZH         0.0287
     42 H13       189.7341  120.9274   30.2214 H         1 SZH         0.0287
     43 H14       190.5296  121.9203   32.9953 H         1 SZH         0.0270
     44 H15       189.6985  120.3582   32.6859 H         1 SZH         0.0270
     45 H16       187.5082  120.2116   31.9633 H         1 SZH         0.0613
     46 H17       187.4820  121.4234   30.6376 H         1 SZH         0.0613
     47 H18       188.5108  123.0983   31.9987 H         1 SZH         0.0324
@<TRIPOS>BOND
     1    1    2 2  
     2    7    1 1  
     3    2    5 1  
     4    2    8 1  
     5    4    3 1  
     6    3   13 1  
     7    3   15 2  
     8    4   19 2  
     9   22    4 1  
    10   12    6 1  
    11   23    7 1  
    12    8    9 1  
    13    9   10 1  
    14   10   12 1  
    15   12   11 1  
    16   11   22 1  
    17   13   25 1  
    18   13   26 1  
    19   13   27 1  
    20   15   14 3  
    21   28   16 ar 
    22   28   17 ar 
    23   29   18 ar 
    24   28   20 ar 
    25   29   21 ar 
    26   29   23 1  
    27   24   28 1  
    28   24   29 1  
    29    1   30 1  
    30    5   31 1  
    31    5   32 1  
    32    5   33 1  
    33    6   34 1  
    34    6   35 1  
    35    6   36 1  
    36    7   37 1  
    37    7   38 1  
    38    8   39 1  
    39    8   40 1  
    40    9   41 1  
    41    9   42 1  
    42   10   43 1  
    43   10   44 1  
    44   11   45 1  
    45   11   46 1  
    46   12   47 1  
@<TRIPOS>SUBSTRUCTURE
     1 SZH         1

