3ksl_ligand
  -I-interpret- 

 50 49  0  0  0  0  0  0  0  0999 V2000
  193.0670  123.5120   31.4730 C   0  0  0  0  0
  192.4360  122.9830   30.3950 C   0  0  0  0  0
  183.7190  121.1890   31.8760 C   0  0  0  0  0
  185.0910  120.7100   32.3270 C   0  0  0  0  0
  193.0540  122.6700   29.0830 C   0  0  0  0  0
  188.1740  122.2240   33.9570 C   0  0  0  0  0
  194.4940  123.9110   31.6950 C   0  0  0  0  0
  190.9450  122.6960   30.4300 C   0  0  0  0  0
  190.4740  121.3260   30.9310 C   0  0  0  0  0
  189.8280  121.3920   32.3330 C   0  0  0  0  0
  187.3710  121.2760   31.7220 C   0  0  0  0  0
  188.4590  122.0970   32.4510 C   0  0  0  0  0
  182.5390  120.3250   31.5530 C   0  0  0  0  0
  183.4780  123.6260   31.7060 N   0  0  0  0  0
  183.5640  122.4910   31.7760 N   0  0  0  0  0
  195.3320  123.6030   36.4530 O   0  0  0  0  0
  197.5170  124.4310   35.5120 O   0  0  0  0  0
  197.0350  125.4260   32.6640 O   0  0  0  0  0
  185.2470  119.6010   32.8250 O   0  0  0  0  0
  196.2510  122.6380   34.2020 O   0  0  0  0  0
  195.4870  127.3060   33.4140 O   0  0  0  0  0
  186.0370  121.6750   32.1130 O   0  0  0  0  0
  194.4610  125.2040   32.3120 O   0  0  0  0  0
  195.3220  124.9660   34.5000 O   0  0  0  0  0
  182.6590  118.9970   31.7060 F   0  0  0  0  0
  181.5050  120.5890   32.3750 F   0  0  0  0  0
  182.1080  120.5360   30.2820 F   0  0  0  0  0
  196.1840  123.7950   35.2280 P   0  0  0  0  0
  195.6660  125.8210   33.1820 P   0  0  0  0  0
  192.4185  123.6766   32.3335 H   0  0  0  0  0
  193.4627  123.5823   28.6484 H   0  0  0  0  0
  193.8539  121.9431   29.2238 H   0  0  0  0  0
  192.2978  122.2555   28.4163 H   0  0  0  0  0
  188.1453  121.2308   34.4051 H   0  0  0  0  0
  188.9620  122.8131   34.4262 H   0  0  0  0  0
  187.2134  122.7179   34.1033 H   0  0  0  0  0
  195.0429  123.9405   30.7538 H   0  0  0  0  0
  195.0083  123.1883   32.3284 H   0  0  0  0  0
  190.6213  122.7453   29.3903 H   0  0  0  0  0
  190.5335  123.4149   31.1385 H   0  0  0  0  0
  191.3464  120.6757   30.9953 H   0  0  0  0  0
  189.7224  120.9556   30.2339 H   0  0  0  0  0
  190.5141  121.9762   32.9463 H   0  0  0  0  0
  189.6524  120.3568   32.6255 H   0  0  0  0  0
  187.5032  120.2264   31.9847 H   0  0  0  0  0
  187.4769  121.4459   30.6505 H   0  0  0  0  0
  188.4620  123.0810   31.9822 H   0  0  0  0  0
  194.5001  123.1948   36.2021 H   0  0  0  0  0
  197.0679  124.4742   32.5435 H   0  0  0  0  0
  195.3707  122.2792   34.0680 H   0  0  0  0  0
  1  2  2  0  0  0
  7  1  1  0  0  0
  2  5  1  0  0  0
  2  8  1  0  0  0
  4  3  1  0  0  0
  3 13  1  0  0  0
  3 15  2  0  0  0
  4 19  2  0  0  0
 22  4  1  0  0  0
 12  6  1  0  0  0
 23  7  1  0  0  0
  8  9  1  0  0  0
  9 10  1  0  0  0
 10 12  1  0  0  0
 12 11  1  0  0  0
 11 22  1  0  0  0
 13 25  1  0  0  0
 13 26  1  0  0  0
 13 27  1  0  0  0
 15 14  3  0  0  0
 28 16  1  0  0  0
 28 17  2  0  0  0
 29 18  1  0  0  0
 28 20  1  0  0  0
 29 21  2  0  0  0
 29 23  1  0  0  0
 24 28  1  0  0  0
 24 29  1  0  0  0
  1 30  1  0  0  0
  5 31  1  0  0  0
  5 32  1  0  0  0
  5 33  1  0  0  0
  6 34  1  0  0  0
  6 35  1  0  0  0
  6 36  1  0  0  0
  7 37  1  0  0  0
  7 38  1  0  0  0
  8 39  1  0  0  0
  8 40  1  0  0  0
  9 41  1  0  0  0
  9 42  1  0  0  0
 10 43  1  0  0  0
 10 44  1  0  0  0
 11 45  1  0  0  0
 11 46  1  0  0  0
 12 47  1  0  0  0
 16 48  1  0  0  0
 18 49  1  0  0  0
 20 50  1  0  0  0
M  END
$$$$
