2o7e_ligand
  -I-interpret- 

 27 28  0  0  0  0  0  0  0  0999 V2000
   17.8760   11.8540   38.4490 O   0  0  0  0  0
   19.2930   11.4230   38.1420 P   0  0  0  0  0
   20.2770   11.6930   39.2550 O   0  0  0  0  0
   19.3540    9.9740   37.7040 O   0  0  0  0  0
   19.8360   12.4190   36.7270 C   0  0  0  0  0
   19.5240   13.9100   37.0140 C   0  0  0  0  0
   20.8060   14.6090   36.6620 C   0  0  0  0  0
   19.0560   11.9370   35.5460 N   0  3  0  0  0
   21.3650   12.2120   36.5160 C   0  0  0  0  0
   21.8810   13.6180   36.3640 C   0  0  0  0  0
   23.1730   14.0480   36.0090 C   0  0  0  0  0
   23.4070   15.4520   35.9310 C   0  0  0  0  0
   22.3750   16.4050   36.2170 C   0  0  0  0  0
   21.0650   15.9890   36.5770 C   0  0  0  0  0
   17.3116   11.6514   37.6994 H   0  0  0  0  0
   18.7209    9.8276   36.9973 H   0  0  0  0  0
   19.2232   14.0831   38.0473 H   0  0  0  0  0
   18.6750   14.2781   36.4380 H   0  0  0  0  0
   18.0609   12.0856   35.7137 H   0  0  0  0  0
   19.3432   12.4553   34.7158 H   0  0  0  0  0
   19.2336   10.9424   35.4057 H   0  0  0  0  0
   21.5907   11.5844   35.6539 H   0  0  0  0  0
   21.8359   11.6767   37.3405 H   0  0  0  0  0
   23.9679   13.3318   35.8007 H   0  0  0  0  0
   24.3963   15.8103   35.6465 H   0  0  0  0  0
   22.5997   17.4699   36.1571 H   0  0  0  0  0
   20.2821   16.7193   36.7817 H   0  0  0  0  0
  1  2  1  0  0  0
  2  3  2  0  0  0
  2  4  1  0  0  0
  2  5  1  0  0  0
  5  6  1  0  0  0
  5  8  1  0  0  0
  5  9  1  0  0  0
  6  7  1  0  0  0
  7 10  4  0  0  0
  7 14  4  0  0  0
  9 10  1  0  0  0
 10 11  4  0  0  0
 11 12  4  0  0  0
 12 13  4  0  0  0
 13 14  4  0  0  0
  1 15  1  0  0  0
  4 16  1  0  0  0
  6 17  1  0  0  0
  6 18  1  0  0  0
  8 19  1  0  0  0
  8 20  1  0  0  0
  8 21  1  0  0  0
  9 22  1  0  0  0
  9 23  1  0  0  0
 11 24  1  0  0  0
 12 25  1  0  0  0
 13 26  1  0  0  0
 14 27  1  0  0  0
M  END
$$$$
