### 
### Created by X-TOOL on Mon Sep 10 21:12:55 2018
### 

@<TRIPOS>MOLECULE
2o7e_ligand
   25    26     1     0     0
SMALL
GAST_HUCK


@<TRIPOS>ATOM
      1 O14        17.8760   11.8540   38.4490 O.co2     1 PMI        -0.5581
      2 P10        19.2930   11.4230   38.1420 P.3       1 PMI         0.1177
      3 O12        20.2770   11.6930   39.2550 O.co2     1 PMI        -0.5581
      4 O13        19.3540    9.9740   37.7040 O.co2     1 PMI        -0.5581
      5 C8'        19.8360   12.4190   36.7270 C.3       1 PMI         0.0707
      6 C9'        19.5240   13.9100   37.0140 C.3       1 PMI         0.0419
      7 C2'        20.8060   14.6090   36.6620 C.ar      1 PMI        -0.0334
      8 N11        19.0560   11.9370   35.5460 N.4       1 PMI         0.2377
      9 C7'        21.3650   12.2120   36.5160 C.3       1 PMI         0.0419
     10 C1'        21.8810   13.6180   36.3640 C.ar      1 PMI        -0.0334
     11 C6'        23.1730   14.0480   36.0090 C.ar      1 PMI        -0.0666
     12 C5'        23.4070   15.4520   35.9310 C.ar      1 PMI        -0.0755
     13 C4'        22.3750   16.4050   36.2170 C.ar      1 PMI        -0.0755
     14 C3'        21.0650   15.9890   36.5770 C.ar      1 PMI        -0.0666
     15 H1         19.2711   14.0622   38.0737 H         1 PMI         0.0487
     16 H2         18.6956   14.2669   36.3844 H         1 PMI         0.0487
     17 H3         19.3237   12.4633   34.7290 H         1 PMI         0.2017
     18 H4         18.0711   12.0636   35.7194 H         1 PMI         0.2017
     19 H5         19.2473   10.9592   35.3933 H         1 PMI         0.2017
     20 H6         21.5622   11.6188   35.6109 H         1 PMI         0.0487
     21 H7         21.8203   11.7160   37.3859 H         1 PMI         0.0487
     22 H8         23.9635   13.3358   35.8019 H         1 PMI         0.0537
     23 H9         24.3909   15.8083   35.6481 H         1 PMI         0.0541
     24 H10        22.5985   17.4640   36.1574 H         1 PMI         0.0541
     25 H11        20.2864   16.7152   36.7806 H         1 PMI         0.0537
@<TRIPOS>BOND
     1    1    2 ar 
     2    2    3 ar 
     3    2    4 ar 
     4    2    5 1  
     5    5    6 1  
     6    5    8 1  
     7    5    9 1  
     8    6    7 1  
     9    7   10 ar 
    10    7   14 ar 
    11    9   10 1  
    12   10   11 ar 
    13   11   12 ar 
    14   12   13 ar 
    15   13   14 ar 
    16    6   15 1  
    17    6   16 1  
    18    8   17 1  
    19    8   18 1  
    20    8   19 1  
    21    9   20 1  
    22    9   21 1  
    23   11   22 1  
    24   12   23 1  
    25   13   24 1  
    26   14   25 1  
@<TRIPOS>SUBSTRUCTURE
     1 PMI         1

