4bcf_ligand
  -I-interpret- 

 59 62  0  0  0  0  0  0  0  0999 V2000
   49.0660  -19.3240  -10.4380 C   0  0  0  0  0
   50.1740  -19.3740  -11.3640 N   0  0  0  0  0
   50.7870  -18.2040  -11.8460 C   0  0  0  0  0
   50.3660  -17.3680  -12.7950 N   0  0  0  0  0
   51.1630  -16.3110  -13.0980 C   0  0  0  0  0
   50.7040  -15.3590  -14.1970 C   0  0  0  0  0
   52.3450  -16.1790  -12.3410 C   0  0  0  0  0
   53.4380  -15.2830  -12.3350 C   0  0  0  0  0
   54.7170  -15.8110  -12.2700 N   0  0  0  0  0
   55.8300  -14.9830  -12.2790 C   0  0  0  0  0
   57.1780  -15.5320  -12.2220 N   0  0  0  0  0
   57.4890  -16.9070  -11.8550 C   0  0  0  0  0
   58.8440  -17.1350  -11.5460 C   0  0  0  0  0
   59.2550  -18.4120  -11.1910 C   0  0  0  0  0
   58.2940  -19.4680  -11.1510 C   0  0  0  0  0
   56.9490  -19.2590  -11.4450 C   0  0  0  0  0
   56.0180  -20.4020  -11.3660 N   0  0  0  0  0
   56.8300  -21.5310  -11.7140 C   0  0  0  0  0
   57.1170  -22.4160  -10.5550 C   0  0  0  0  0
   56.0040  -22.4210   -9.5580 C   0  0  0  0  0
   54.6740  -22.6090  -10.0820 N   0  0  0  0  0
   53.9190  -23.7130   -9.4310 C   0  0  0  0  0
   52.4940  -24.1030   -9.7940 C   0  0  0  0  0
   54.4420  -24.3750   -8.5320 O   0  0  0  0  0
   53.9960  -21.8580  -11.1380 C   0  0  0  0  0
   54.6240  -20.5910  -11.6860 C   0  0  0  0  0
   56.5280  -17.9720  -11.8160 C   0  0  0  0  0
   55.7070  -13.6290  -12.3370 N   0  0  0  0  0
   54.4320  -13.0720  -12.3910 C   0  0  0  0  0
   53.2770  -13.8870  -12.3950 C   0  0  0  0  0
   51.9350  -13.2770  -12.4050 C   0  0  0  0  0
   50.8740  -12.7960  -12.4410 N   0  0  0  0  0
   52.2960  -17.5530  -11.3700 S   0  0  0  0  0
   49.3788  -18.8151   -9.5263 H   0  0  0  0  0
   48.2380  -18.7805  -10.8931 H   0  0  0  0  0
   48.7482  -20.3388  -10.1985 H   0  0  0  0  0
   50.5204  -20.2812  -11.6760 H   0  0  0  0  0
   50.5962  -15.9098  -15.1314 H   0  0  0  0  0
   49.7454  -14.9208  -13.9193 H   0  0  0  0  0
   51.4435  -14.5682  -14.3231 H   0  0  0  0  0
   57.9549  -14.9132  -12.4542 H   0  0  0  0  0
   59.5628  -16.3165  -11.5853 H   0  0  0  0  0
   60.2990  -18.6069  -10.9456 H   0  0  0  0  0
   58.6245  -20.4711  -10.8813 H   0  0  0  0  0
   57.7816  -21.1539  -12.0887 H   0  0  0  0  0
   56.2853  -22.1175  -12.4539 H   0  0  0  0  0
   58.0141  -22.0449  -10.0594 H   0  0  0  0  0
   57.2423  -23.4325  -10.9279 H   0  0  0  0  0
   56.0095  -21.4349   -9.0936 H   0  0  0  0  0
   56.1921  -23.2686   -8.8990 H   0  0  0  0  0
   52.4764  -25.1405  -10.1279 H   0  0  0  0  0
   51.8538  -23.9907   -8.9190 H   0  0  0  0  0
   52.1343  -23.4563  -10.5943 H   0  0  0  0  0
   53.0633  -21.5260  -10.6820 H   0  0  0  0  0
   53.9720  -22.5409  -11.9872 H   0  0  0  0  0
   54.5605  -20.6571  -12.7721 H   0  0  0  0  0
   54.0857  -19.7571  -11.2355 H   0  0  0  0  0
   55.4850  -17.7843  -12.0710 H   0  0  0  0  0
   54.3226  -11.9882  -12.4309 H   0  0  0  0  0
  1  2  1  0  0  0
  2  3  1  0  0  0
  3  4  4  0  0  0
  3 33  4  0  0  0
  4  5  4  0  0  0
  5  6  1  0  0  0
  5  7  4  0  0  0
  7  8  1  0  0  0
  7 33  4  0  0  0
  8  9  4  0  0  0
  8 30  4  0  0  0
  9 10  4  0  0  0
 10 11  1  0  0  0
 10 28  4  0  0  0
 11 12  1  0  0  0
 12 13  4  0  0  0
 12 27  4  0  0  0
 13 14  4  0  0  0
 14 15  4  0  0  0
 15 16  4  0  0  0
 16 17  1  0  0  0
 16 27  4  0  0  0
 17 18  1  0  0  0
 17 26  1  0  0  0
 18 19  1  0  0  0
 19 20  1  0  0  0
 20 21  1  0  0  0
 21 22  1  0  0  0
 21 25  1  0  0  0
 22 23  1  0  0  0
 22 24  2  0  0  0
 25 26  1  0  0  0
 28 29  4  0  0  0
 29 30  4  0  0  0
 30 31  1  0  0  0
 31 32  3  0  0  0
  1 34  1  0  0  0
  1 35  1  0  0  0
  1 36  1  0  0  0
  2 37  1  0  0  0
  6 38  1  0  0  0
  6 39  1  0  0  0
  6 40  1  0  0  0
 11 41  1  0  0  0
 13 42  1  0  0  0
 14 43  1  0  0  0
 15 44  1  0  0  0
 18 45  1  0  0  0
 18 46  1  0  0  0
 19 47  1  0  0  0
 19 48  1  0  0  0
 20 49  1  0  0  0
 20 50  1  0  0  0
 23 51  1  0  0  0
 23 52  1  0  0  0
 23 53  1  0  0  0
 25 54  1  0  0  0
 25 55  1  0  0  0
 26 56  1  0  0  0
 26 57  1  0  0  0
 27 58  1  0  0  0
 29 59  1  0  0  0
M  END
$$$$
