6bir_ligand
  -I-interpret- 

206205  0  0  0  0  0  0  0  0999 V2000
  -49.7350   -7.7050    1.9100 N   0  3  0  0  0
  -49.1990   -8.2460    3.1480 C   0  0  0  0  0
  -49.2860   -9.7740    3.1630 C   0  0  0  0  0
  -48.4820  -10.4510    3.8020 O   0  0  0  0  0
  -49.9510   -7.6580    4.3410 C   0  0  0  0  0
  -50.2010   -6.2710    4.1460 O   0  0  0  0  0
  -50.2580  -10.3180    2.4430 N   0  0  0  0  0
  -50.5450  -11.7470    2.4520 C   0  0  0  0  0
  -50.1200  -12.3550    1.1160 C   0  0  0  0  0
  -50.5690  -11.9020    0.0600 O   0  0  0  0  0
  -52.0360  -11.9770    2.7100 C   0  0  0  0  0
  -52.2860  -13.2760    3.1990 O   0  0  0  0  0
  -49.2550  -13.3750    1.1620 N   0  0  0  0  0
  -48.9190  -14.1410   -0.0380 C   0  0  0  0  0
  -50.0180  -15.1580   -0.3070 C   0  0  0  0  0
  -50.4500  -15.8630    0.6070 O   0  0  0  0  0
  -47.5690  -14.8550    0.1100 C   0  0  0  0  0
  -46.2830  -14.0220    0.0310 C   0  0  0  0  0
  -45.0410  -14.8650    0.3260 C   0  0  0  0  0
  -46.1390  -13.3650   -1.3210 C   0  0  0  0  0
  -50.4740  -15.2260   -1.5600 N   0  0  0  0  0
  -51.5800  -16.0890   -1.9640 C   0  0  0  0  0
  -51.0570  -17.4190   -2.4750 C   0  0  0  0  0
  -50.0330  -17.4600   -3.1570 O   0  0  0  0  0
  -52.3840  -15.4400   -3.0880 C   0  0  0  0  0
  -53.2170  -14.2650   -2.6290 C   0  0  0  0  0
  -53.2810  -13.9310   -1.4340 O   0  0  0  0  0
  -53.8630  -13.6150   -3.5940 N   0  0  0  0  0
  -51.7840  -18.5000   -2.2040 N   0  0  0  0  0
  -51.4240  -19.7480   -2.8720 C   0  0  0  0  0
  -52.2820  -19.9310   -4.1260 C   0  0  0  0  0
  -53.4430  -19.5260   -4.1670 O   0  0  0  0  0
  -51.5390  -20.9590   -1.9320 C   0  0  0  0  0
  -52.8330  -21.5620   -1.3740 C   0  0  0  0  0
  -53.7290  -22.1980   -2.4150 C   0  0  0  0  0
  -52.4140  -22.6370   -0.4190 C   0  0  0  0  0
  -52.5650  -22.6880   -5.9120 C   0  0  0  0  0
  -51.8320  -23.4980   -5.2900 O   0  0  0  0  0
  -52.2280  -21.2380   -5.9830 C   0  0  0  0  0
  -51.5850  -20.8150   -4.7710 N   0  0  0  0  0
  -51.3410  -20.9460   -7.1540 C   0  0  0  0  0
  -51.7080  -21.8430   -8.3140 C   0  0  0  0  0
  -52.5800  -21.1240   -9.3230 C   0  0  0  0  0
  -53.2080  -19.9130   -8.8060 N   0  0  0  0  0
  -54.3480  -19.3430   -9.4930 C   0  0  0  0  0
  -54.8210  -19.8450  -10.5060 O   0  0  0  0  0
  -54.9610  -18.1500   -8.9770 N   0  0  0  0  0
  -53.8570  -23.0740   -5.7620 N   0  0  0  0  0
  -54.5020  -24.3630   -5.5350 C   0  0  0  0  0
  -54.0290  -25.3900   -6.5480 C   0  0  0  0  0
  -53.9030  -25.1050   -7.7440 O   0  0  0  0  0
  -56.0380  -24.2520   -5.6140 C   0  0  0  0  0
  -56.6780  -23.2480   -4.6410 C   0  0  0  0  0
  -56.6910  -21.8220   -5.1860 C   0  0  0  0  0
  -57.1740  -20.9130   -4.4770 O   0  0  0  0  0
  -56.2130  -21.6150   -6.3270 O   0  0  0  0  0
  -53.8030  -26.5950   -6.0570 N   0  0  0  0  0
  -53.4250  -27.7360   -6.8740 C   0  0  0  0  0
  -54.6800  -28.5180   -7.2430 C   0  0  0  0  0
  -55.5700  -28.6820   -6.4170 O   0  0  0  0  0
  -52.4260  -28.6020   -6.0920 C   0  0  0  0  0
  -51.1820  -27.8880   -5.9540 O   0  0  0  0  0
  -52.1850  -29.9310   -6.7630 C   0  0  0  0  0
  -54.7550  -28.9690   -8.4940 N   0  0  0  0  0
  -55.9350  -29.6250   -9.0400 C   0  0  0  0  0
  -55.9400  -31.1170   -8.7410 C   0  0  0  0  0
  -54.9570  -31.8160   -9.0230 O   0  0  0  0  0
  -56.0060  -29.4650  -10.5610 C   0  0  0  0  0
  -55.7790  -28.0490  -11.0280 C   0  0  0  0  0
  -56.2400  -27.0890  -10.4150 O   0  0  0  0  0
  -55.0570  -27.9150  -12.1280 N   0  0  0  0  0
  -57.0780  -31.6200   -8.2580 N   0  0  0  0  0
  -57.2730  -33.0630   -8.1720 C   0  0  0  0  0
  -57.4630  -33.6400   -9.5730 C   0  0  0  0  0
  -58.2810  -33.1450  -10.3520 O   0  0  0  0  0
  -58.4710  -33.3900   -7.2770 C   0  0  0  0  0
  -58.8620  -34.8680   -7.1660 C   0  0  0  0  0
  -57.7510  -35.6800   -6.5040 C   0  0  0  0  0
  -60.1930  -35.0520   -6.4140 C   0  0  0  0  0
  -56.6780  -34.6680   -9.9010 N   0  0  0  0  0
  -56.6990  -35.3110  -11.2060 C   0  0  0  0  0
  -57.8100  -36.3650  -11.2280 C   0  0  0  0  0
  -58.5460  -36.5340  -10.2580 O   0  0  0  0  0
  -55.3200  -35.9150  -11.5020 C   0  0  0  0  0
  -55.0120  -36.0140  -12.9990 C   0  0  0  0  0
  -55.8870  -36.4150  -13.8030 O   0  0  0  0  0
  -53.8680  -35.6760  -13.3720 O   0  0  0  0  0
  -57.9340  -37.1010  -12.3310 N   0  0  0  0  0
  -58.9410  -38.1530  -12.4340 C   0  0  0  0  0
  -58.2970  -39.5060  -12.6980 C   0  0  0  0  0
  -57.2700  -39.6030  -13.3760 O   0  0  0  0  0
  -59.9470  -37.8710  -13.5580 C   0  0  0  0  0
  -59.3160  -37.9300  -14.8310 O   0  0  0  0  0
  -58.9240  -40.5570  -12.1830 N   0  0  0  0  0
  -58.5640  -41.9110  -12.6050 C   0  0  0  0  0
  -58.8890  -42.1300  -14.0930 C   0  0  0  0  0
  -59.9080  -41.6510  -14.6130 O   0  0  0  0  0
  -59.2830  -42.9590  -11.7480 C   0  0  0  0  0
  -58.5880  -43.3230  -10.4310 C   0  0  0  0  0
  -59.4980  -44.1840   -9.5410 C   0  0  0  0  0
  -57.2250  -44.0090  -10.6790 C   0  0  0  0  0
  -58.1450  -42.7940  -14.8300 O   0  0  0  0  0
  -49.2280   -8.1022    1.1191 H   0  0  0  0  0
  -50.7239   -7.9438    1.8360 H   0  0  0  0  0
  -49.6280   -6.6906    1.9092 H   0  0  0  0  0
  -48.1470   -7.9694    3.2181 H   0  0  0  0  0
  -49.3426   -7.7832    5.2367 H   0  0  0  0  0
  -50.9044   -8.1759    4.4458 H   0  0  0  0  0
  -50.6733   -5.9223    4.9055 H   0  0  0  0  0
  -50.8299   -9.7096    1.8572 H   0  0  0  0  0
  -49.9847  -12.2323    3.2512 H   0  0  0  0  0
  -52.5704  -11.8558    1.7678 H   0  0  0  0  0
  -52.3702  -11.2581    3.4580 H   0  0  0  0  0
  -53.2280  -13.3845    3.3490 H   0  0  0  0  0
  -48.8215  -13.6232    2.0513 H   0  0  0  0  0
  -48.8371  -13.4495   -0.8766 H   0  0  0  0  0
  -47.5159  -15.5393   -0.7367 H   0  0  0  0  0
  -47.5767  -15.2697    1.1180 H   0  0  0  0  0
  -46.3640  -13.2488    0.7950 H   0  0  0  0  0
  -45.1174  -15.2833    1.3296 H   0  0  0  0  0
  -44.9710  -15.6735   -0.4017 H   0  0  0  0  0
  -44.1528  -14.2367    0.2595 H   0  0  0  0  0
  -46.1047  -14.1322   -2.0945 H   0  0  0  0  0
  -46.9907  -12.7078   -1.4967 H   0  0  0  0  0
  -45.2180  -12.7824   -1.3442 H   0  0  0  0  0
  -50.0274  -14.6461   -2.2704 H   0  0  0  0  0
  -52.2122  -16.2427   -1.0895 H   0  0  0  0  0
  -53.0668  -16.1933   -3.4809 H   0  0  0  0  0
  -51.6746  -15.0706   -3.8285 H   0  0  0  0  0
  -54.4406  -12.8059   -3.3657 H   0  0  0  0  0
  -53.7805  -13.9259   -4.5620 H   0  0  0  0  0
  -52.5668  -18.4585   -1.5514 H   0  0  0  0  0
  -50.3769  -19.6852   -3.1681 H   0  0  0  0  0
  -51.0636  -20.5812   -1.0268 H   0  0  0  0  0
  -51.1757  -21.7666   -2.5676 H   0  0  0  0  0
  -53.4103  -20.7540   -0.9245 H   0  0  0  0  0
  -54.0195  -21.4473   -3.1500 H   0  0  0  0  0
  -53.1907  -23.0053   -2.9115 H   0  0  0  0  0
  -54.6198  -22.5977   -1.9305 H   0  0  0  0  0
  -51.8289  -23.3866   -0.9517 H   0  0  0  0  0
  -51.8095  -22.1998    0.3757 H   0  0  0  0  0
  -53.2997  -23.1041    0.0116 H   0  0  0  0  0
  -53.1589  -20.6852   -6.1088 H   0  0  0  0  0
  -50.6828  -21.1692   -4.4532 H   0  0  0  0  0
  -50.3036  -21.1278   -6.8732 H   0  0  0  0  0
  -51.4682  -19.9048   -7.4505 H   0  0  0  0  0
  -52.2636  -22.6968   -7.9260 H   0  0  0  0  0
  -50.7897  -22.1533   -8.8125 H   0  0  0  0  0
  -53.3799  -21.8083   -9.6057 H   0  0  0  0  0
  -51.9382  -20.8272  -10.1525 H   0  0  0  0  0
  -52.8449  -19.4689   -7.9626 H   0  0  0  0  0
  -55.7672  -17.7443   -9.4523 H   0  0  0  0  0
  -54.5899  -17.7090   -8.1355 H   0  0  0  0  0
  -54.5174  -22.2988   -5.8203 H   0  0  0  0  0
  -54.2235  -24.6833   -4.5310 H   0  0  0  0  0
  -56.4346  -25.2334   -5.3539 H   0  0  0  0  0
  -56.2734  -23.9039   -6.6197 H   0  0  0  0  0
  -56.0885  -23.2496   -3.7242 H   0  0  0  0  0
  -57.7119  -23.5529   -4.4790 H   0  0  0  0  0
  -55.8980  -22.4434   -6.6959 H   0  0  0  0  0
  -53.8988  -26.7322   -5.0508 H   0  0  0  0  0
  -52.9431  -27.4114   -7.7963 H   0  0  0  0  0
  -52.8526  -28.8058   -5.1099 H   0  0  0  0  0
  -50.5567  -28.4283   -5.4654 H   0  0  0  0  0
  -53.1261  -30.4763   -6.8348 H   0  0  0  0  0
  -51.7829  -29.7644   -7.7623 H   0  0  0  0  0
  -51.4724  -30.5095   -6.1751 H   0  0  0  0  0
  -53.9441  -28.8487   -9.1009 H   0  0  0  0  0
  -56.7912  -29.1460   -8.5650 H   0  0  0  0  0
  -57.0082  -29.7568  -10.8748 H   0  0  0  0  0
  -55.2184  -30.0826  -10.9926 H   0  0  0  0  0
  -54.8627  -26.9855  -12.5004 H   0  0  0  0  0
  -54.6945  -28.7411  -12.6039 H   0  0  0  0  0
  -57.8174  -30.9902   -7.9465 H   0  0  0  0  0
  -56.3892  -33.5176   -7.7243 H   0  0  0  0  0
  -59.3273  -32.8850   -7.7241 H   0  0  0  0  0
  -58.1898  -33.0769   -6.2715 H   0  0  0  0  0
  -59.0031  -35.2416   -8.1802 H   0  0  0  0  0
  -56.8415  -35.6023   -7.0998 H   0  0  0  0  0
  -57.5654  -35.2908   -5.5029 H   0  0  0  0  0
  -58.0558  -36.7245   -6.4385 H   0  0  0  0  0
  -60.0991  -34.6455   -5.4070 H   0  0  0  0  0
  -60.9855  -34.5266   -6.9469 H   0  0  0  0  0
  -60.4332  -36.1137   -6.3577 H   0  0  0  0  0
  -56.0282  -35.0221   -9.1990 H   0  0  0  0  0
  -56.9124  -34.5840  -11.9896 H   0  0  0  0  0
  -55.3086  -36.9262  -11.0953 H   0  0  0  0  0
  -54.5709  -35.2624  -11.0536 H   0  0  0  0  0
  -56.6908  -36.6238  -13.3215 H   0  0  0  0  0
  -57.3123  -36.9260  -13.1205 H   0  0  0  0  0
  -59.4645  -38.1703  -11.4781 H   0  0  0  0  0
  -60.3588  -36.8717  -13.4171 H   0  0  0  0  0
  -60.7335  -38.6248  -13.5215 H   0  0  0  0  0
  -59.9637  -37.7507  -15.5166 H   0  0  0  0  0
  -59.6599  -40.4199  -11.4901 H   0  0  0  0  0
  -57.4890  -42.0263  -12.4663 H   0  0  0  0  0
  -60.4031  -41.1612  -13.9522 H   0  0  0  0  0
  -59.3216  -43.8723  -12.3416 H   0  0  0  0  0
  -60.2498  -42.5321  -11.4814 H   0  0  0  0  0
  -58.3894  -42.3937   -9.8971 H   0  0  0  0  0
  -60.4091  -43.6310   -9.3125 H   0  0  0  0  0
  -59.7523  -45.1046  -10.0664 H   0  0  0  0  0
  -58.9758  -44.4250   -8.6151 H   0  0  0  0  0
  -57.3788  -44.9232  -11.2523 H   0  0  0  0  0
  -56.5760  -43.3338  -11.2366 H   0  0  0  0  0
  -56.7626  -44.2520   -9.7223 H   0  0  0  0  0
  2  1  1  0  0  0
  3  2  1  0  0  0
  2  5  1  0  0  0
  3  4  2  0  0  0
  7  3  1  0  0  0
  5  6  1  0  0  0
  8  7  1  0  0  0
  9  8  1  0  0  0
  8 11  1  0  0  0
  9 10  2  0  0  0
 13  9  1  0  0  0
 11 12  1  0  0  0
 14 13  1  0  0  0
 15 14  1  0  0  0
 14 17  1  0  0  0
 15 16  2  0  0  0
 21 15  1  0  0  0
 17 18  1  0  0  0
 18 19  1  0  0  0
 18 20  1  0  0  0
 22 21  1  0  0  0
 23 22  1  0  0  0
 22 25  1  0  0  0
 23 24  2  0  0  0
 29 23  1  0  0  0
 25 26  1  0  0  0
 26 27  2  0  0  0
 26 28  1  0  0  0
 30 29  1  0  0  0
 31 30  1  0  0  0
 30 33  1  0  0  0
 31 32  2  0  0  0
 40 31  1  0  0  0
 33 34  1  0  0  0
 34 35  1  0  0  0
 34 36  1  0  0  0
 37 38  2  0  0  0
 39 37  1  0  0  0
 37 48  1  0  0  0
 39 40  1  0  0  0
 39 41  1  0  0  0
 41 42  1  0  0  0
 42 43  1  0  0  0
 43 44  1  0  0  0
 44 45  1  0  0  0
 45 46  2  0  0  0
 45 47  1  0  0  0
 48 49  1  0  0  0
 49 50  1  0  0  0
 49 52  1  0  0  0
 50 51  2  0  0  0
 50 57  1  0  0  0
 52 53  1  0  0  0
 53 54  1  0  0  0
 54 55  2  0  0  0
 54 56  1  0  0  0
 57 58  1  0  0  0
 58 59  1  0  0  0
 58 61  1  0  0  0
 59 60  2  0  0  0
 59 64  1  0  0  0
 61 62  1  0  0  0
 61 63  1  0  0  0
 64 65  1  0  0  0
 65 66  1  0  0  0
 65 68  1  0  0  0
 66 67  2  0  0  0
 66 72  1  0  0  0
 68 69  1  0  0  0
 69 70  2  0  0  0
 69 71  1  0  0  0
 72 73  1  0  0  0
 73 74  1  0  0  0
 73 76  1  0  0  0
 74 75  2  0  0  0
 74 80  1  0  0  0
 76 77  1  0  0  0
 77 78  1  0  0  0
 77 79  1  0  0  0
 80 81  1  0  0  0
 81 82  1  0  0  0
 81 84  1  0  0  0
 82 83  2  0  0  0
 82 88  1  0  0  0
 84 85  1  0  0  0
 85 86  1  0  0  0
 85 87  2  0  0  0
 88 89  1  0  0  0
 89 90  1  0  0  0
 89 92  1  0  0  0
 90 91  2  0  0  0
 90 94  1  0  0  0
 92 93  1  0  0  0
 94 95  1  0  0  0
 95 96  1  0  0  0
 95 98  1  0  0  0
 96 97  1  0  0  0
 96102  2  0  0  0
 98 99  1  0  0  0
 99100  1  0  0  0
 99101  1  0  0  0
  1103  1  0  0  0
  1104  1  0  0  0
  1105  1  0  0  0
  2106  1  0  0  0
  5107  1  0  0  0
  5108  1  0  0  0
  6109  1  0  0  0
  7110  1  0  0  0
  8111  1  0  0  0
 11112  1  0  0  0
 11113  1  0  0  0
 12114  1  0  0  0
 13115  1  0  0  0
 14116  1  0  0  0
 17117  1  0  0  0
 17118  1  0  0  0
 18119  1  0  0  0
 19120  1  0  0  0
 19121  1  0  0  0
 19122  1  0  0  0
 20123  1  0  0  0
 20124  1  0  0  0
 20125  1  0  0  0
 21126  1  0  0  0
 22127  1  0  0  0
 25128  1  0  0  0
 25129  1  0  0  0
 28130  1  0  0  0
 28131  1  0  0  0
 29132  1  0  0  0
 30133  1  0  0  0
 33134  1  0  0  0
 33135  1  0  0  0
 34136  1  0  0  0
 35137  1  0  0  0
 35138  1  0  0  0
 35139  1  0  0  0
 36140  1  0  0  0
 36141  1  0  0  0
 36142  1  0  0  0
 39143  1  0  0  0
 40144  1  0  0  0
 41145  1  0  0  0
 41146  1  0  0  0
 42147  1  0  0  0
 42148  1  0  0  0
 43149  1  0  0  0
 43150  1  0  0  0
 44151  1  0  0  0
 47152  1  0  0  0
 47153  1  0  0  0
 48154  1  0  0  0
 49155  1  0  0  0
 52156  1  0  0  0
 52157  1  0  0  0
 53158  1  0  0  0
 53159  1  0  0  0
 56160  1  0  0  0
 57161  1  0  0  0
 58162  1  0  0  0
 61163  1  0  0  0
 62164  1  0  0  0
 63165  1  0  0  0
 63166  1  0  0  0
 63167  1  0  0  0
 64168  1  0  0  0
 65169  1  0  0  0
 68170  1  0  0  0
 68171  1  0  0  0
 71172  1  0  0  0
 71173  1  0  0  0
 72174  1  0  0  0
 73175  1  0  0  0
 76176  1  0  0  0
 76177  1  0  0  0
 77178  1  0  0  0
 78179  1  0  0  0
 78180  1  0  0  0
 78181  1  0  0  0
 79182  1  0  0  0
 79183  1  0  0  0
 79184  1  0  0  0
 80185  1  0  0  0
 81186  1  0  0  0
 84187  1  0  0  0
 84188  1  0  0  0
 86189  1  0  0  0
 88190  1  0  0  0
 89191  1  0  0  0
 92192  1  0  0  0
 92193  1  0  0  0
 93194  1  0  0  0
 94195  1  0  0  0
 95196  1  0  0  0
 97197  1  0  0  0
 98198  1  0  0  0
 98199  1  0  0  0
 99200  1  0  0  0
100201  1  0  0  0
100202  1  0  0  0
100203  1  0  0  0
101204  1  0  0  0
101205  1  0  0  0
101206  1  0  0  0
M  END
$$$$
