### 
### Created by X-TOOL on Wed Jan  1 15:39:36 2020
### 

@<TRIPOS>MOLECULE
6bir_ligand
  203   202     1     0     0
SMALL
GAST_HUCK


@<TRIPOS>ATOM
      1 N         -49.7350   -7.7050    1.9100 N.4       1 SER         0.2396
      2 CA        -49.1990   -8.2460    3.1480 C.3       1 SER         0.0885
      3 C         -49.2860   -9.7740    3.1630 C.2       1 SER         0.2290
      4 O         -48.4820  -10.4510    3.8020 O.2       1 SER        -0.3906
      5 CB        -49.9510   -7.6580    4.3410 C.3       1 SER         0.1041
      6 OG        -50.2010   -6.2710    4.1460 O.3       1 SER        -0.3870
      7 N         -50.2580  -10.3180    2.4430 N.am      1 SER        -0.2588
      8 CA        -50.5450  -11.7470    2.4520 C.3       1 SER         0.1540
      9 C         -50.1200  -12.3550    1.1160 C.2       1 SER         0.2062
     10 O         -50.5690  -11.9020    0.0600 O.2       1 SER        -0.3943
     11 CB        -52.0360  -11.9770    2.7100 C.3       1 SER         0.0843
     12 OG        -52.2860  -13.2760    3.1990 O.3       1 SER        -0.3903
     13 N         -49.2550  -13.3750    1.1620 N.am      1 LEU        -0.2636
     14 CA        -48.9190  -14.1410   -0.0380 C.3       1 LEU         0.1312
     15 C         -50.0180  -15.1580   -0.3070 C.2       1 LEU         0.2040
     16 O         -50.4500  -15.8630    0.6070 O.2       1 LEU        -0.3944
     17 CB        -47.5690  -14.8550    0.1100 C.3       1 LEU        -0.0101
     18 CG        -46.2830  -14.0220    0.0310 C.3       1 LEU        -0.0425
     19 CD1       -45.0410  -14.8650    0.3260 C.3       1 LEU        -0.0625
     20 CD2       -46.1390  -13.3650   -1.3210 C.3       1 LEU        -0.0625
     21 N         -50.4740  -15.2260   -1.5600 N.am      1 ASN        -0.2616
     22 CA        -51.5800  -16.0890   -1.9640 C.3       1 ASN         0.1476
     23 C         -51.0570  -17.4190   -2.4750 C.2       1 ASN         0.2063
     24 O         -50.0330  -17.4600   -3.1570 O.2       1 ASN        -0.3942
     25 CB        -52.3840  -15.4400   -3.0880 C.3       1 ASN         0.0773
     26 CG        -53.2170  -14.2650   -2.6290 C.2       1 ASN         0.1780
     27 OD1       -53.2810  -13.9310   -1.4340 O.2       1 ASN        -0.3970
     28 ND2       -53.8630  -13.6150   -3.5940 N.am      1 ASN        -0.3007
     29 N         -51.7840  -18.5000   -2.2040 N.am      1 LEU        -0.2636
     30 CA        -51.4240  -19.7480   -2.8720 C.3       1 LEU         0.1312
     31 C         -52.2820  -19.9310   -4.1260 C.2       1 LEU         0.2039
     32 O         -53.4430  -19.5260   -4.1670 O.2       1 LEU        -0.3944
     33 CB        -51.5390  -20.9590   -1.9320 C.3       1 LEU        -0.0101
     34 CG        -52.8330  -21.5620   -1.3740 C.3       1 LEU        -0.0425
     35 CD1       -53.7290  -22.1980   -2.4150 C.3       1 LEU        -0.0625
     36 CD2       -52.4140  -22.6370   -0.4190 C.3       1 LEU        -0.0625
     37 C1        -52.5650  -22.6880   -5.9120 C.2       1 CIR         0.2039
     38 O1        -51.8320  -23.4980   -5.2900 O.2       1 CIR        -0.3944
     39 C2        -52.2280  -21.2380   -5.9830 C.3       1 CIR         0.1310
     40 N2        -51.5850  -20.8150   -4.7710 N.am      1 CIR        -0.2637
     41 C3        -51.3410  -20.9460   -7.1540 C.3       1 CIR        -0.0106
     42 C4        -51.7080  -21.8430   -8.3140 C.3       1 CIR        -0.0288
     43 C5        -52.5800  -21.1240   -9.3230 C.3       1 CIR         0.0314
     44 N6        -53.2080  -19.9130   -8.8060 N.am      1 CIR        -0.2733
     45 C7        -54.3480  -19.3430   -9.4930 C.2       1 CIR         0.2548
     46 O7        -54.8210  -19.8450  -10.5060 O.2       1 CIR        -0.4010
     47 N8        -54.9610  -18.1500   -8.9770 N.am      1 CIR        -0.2870
     48 N         -53.8570  -23.0740   -5.7620 N.am      1 GLU        -0.2636
     49 CA        -54.5020  -24.3630   -5.5350 C.3       1 GLU         0.1325
     50 C         -54.0290  -25.3900   -6.5480 C.2       1 GLU         0.2041
     51 O         -53.9030  -25.1050   -7.7440 O.2       1 GLU        -0.3944
     52 CB        -56.0380  -24.2520   -5.6140 C.3       1 GLU        -0.0008
     53 CG        -56.6780  -23.2480   -4.6410 C.3       1 GLU         0.0044
     54 CD        -56.6910  -21.8220   -5.1860 C.2       1 GLU         0.0350
     55 OE1       -57.1740  -20.9130   -4.4770 O.co2     1 GLU        -0.5690
     56 OE2       -56.2130  -21.6150   -6.3270 O.co2     1 GLU        -0.5690
     57 N         -53.8030  -26.5950   -6.0570 N.am      1 THR        -0.2613
     58 CA        -53.4250  -27.7360   -6.8740 C.3       1 THR         0.1565
     59 C         -54.6800  -28.5180   -7.2430 C.2       1 THR         0.2066
     60 O         -55.5700  -28.6820   -6.4170 O.2       1 THR        -0.3943
     61 CB        -52.4260  -28.6020   -6.0920 C.3       1 THR         0.0924
     62 OG1       -51.1820  -27.8880   -5.9540 O.3       1 THR        -0.3874
     63 CG2       -52.1850  -29.9310   -6.7630 C.3       1 THR        -0.0346
     64 N         -54.7550  -28.9690   -8.4940 N.am      1 ASN        -0.2615
     65 CA        -55.9350  -29.6250   -9.0400 C.3       1 ASN         0.1476
     66 C         -55.9400  -31.1170   -8.7410 C.2       1 ASN         0.2063
     67 O         -54.9570  -31.8160   -9.0230 O.2       1 ASN        -0.3942
     68 CB        -56.0060  -29.4650  -10.5610 C.3       1 ASN         0.0773
     69 CG        -55.7790  -28.0490  -11.0280 C.2       1 ASN         0.1780
     70 OD1       -56.2400  -27.0890  -10.4150 O.2       1 ASN        -0.3970
     71 ND2       -55.0570  -27.9150  -12.1280 N.am      1 ASN        -0.3007
     72 N         -57.0780  -31.6200   -8.2580 N.am      1 LEU        -0.2636
     73 CA        -57.2730  -33.0630   -8.1720 C.3       1 LEU         0.1312
     74 C         -57.4630  -33.6400   -9.5730 C.2       1 LEU         0.2040
     75 O         -58.2810  -33.1450  -10.3520 O.2       1 LEU        -0.3944
     76 CB        -58.4710  -33.3900   -7.2770 C.3       1 LEU        -0.0101
     77 CG        -58.8620  -34.8680   -7.1660 C.3       1 LEU        -0.0425
     78 CD1       -57.7510  -35.6800   -6.5040 C.3       1 LEU        -0.0625
     79 CD2       -60.1930  -35.0520   -6.4140 C.3       1 LEU        -0.0625
     80 N         -56.6780  -34.6680   -9.9010 N.am      1 ASP        -0.2622
     81 CA        -56.6990  -35.3110  -11.2060 C.3       1 ASP         0.1423
     82 C         -57.8100  -36.3650  -11.2280 C.2       1 ASP         0.2057
     83 O         -58.5460  -36.5340  -10.2580 O.2       1 ASP        -0.3943
     84 CB        -55.3200  -35.9150  -11.5020 C.3       1 ASP         0.0406
     85 CG        -55.0120  -36.0140  -12.9990 C.2       1 ASP         0.0393
     86 OD1       -55.8870  -36.4150  -13.8030 O.co2     1 ASP        -0.5688
     87 OD2       -53.8680  -35.6760  -13.3720 O.co2     1 ASP        -0.5688
     88 N         -57.9340  -37.1010  -12.3310 N.am      1 SER        -0.2615
     89 CA        -58.9410  -38.1530  -12.4340 C.3       1 SER         0.1539
     90 C         -58.2970  -39.5060  -12.6980 C.2       1 SER         0.2056
     91 O         -57.2700  -39.6030  -13.3760 O.2       1 SER        -0.3943
     92 CB        -59.9470  -37.8710  -13.5580 C.3       1 SER         0.0843
     93 OG        -59.3160  -37.9300  -14.8310 O.3       1 SER        -0.3903
     94 N         -58.9240  -40.5570  -12.1830 N.am      1 LEU        -0.2694
     95 CA        -58.5640  -41.9110  -12.6050 C.3       1 LEU         0.0946
     96 C         -58.8890  -42.1300  -14.0930 C.2       1 LEU         0.0601
     97 O         -59.9080  -41.6510  -14.6130 O.co2     1 LEU        -0.5666
     98 CB        -59.2830  -42.9590  -11.7480 C.3       1 LEU        -0.0156
     99 CG        -58.5880  -43.3230  -10.4310 C.3       1 LEU        -0.0431
    100 CD1       -59.4980  -44.1840   -9.5410 C.3       1 LEU        -0.0625
    101 CD2       -57.2250  -44.0090  -10.6790 C.3       1 LEU        -0.0625
    102 OXT       -58.1450  -42.7940  -14.8300 O.co2     1 LEU        -0.5666
    103 H1        -49.6662   -6.6995    1.9252 H         1 SER         0.2016
    104 H2        -50.7018   -7.9742    1.8164 H         1 SER         0.2016
    105 H3        -49.2086   -8.0660    1.1298 H         1 SER         0.2016
    106 H4        -48.1401   -7.9583    3.2245 H         1 SER         0.1122
    107 H5        -49.3461   -7.7912    5.2500 H         1 SER         0.0640
    108 H6        -50.9097   -8.1844    4.4582 H         1 SER         0.0640
    109 H7        -50.6684   -5.9259    4.8976 H         1 SER         0.2099
    110 H8        -50.8186   -9.7215    1.8687 H         1 SER         0.1885
    111 H9        -49.9694  -12.2242    3.2588 H         1 SER         0.0823
    112 H10       -52.5864  -11.8387    1.7677 H         1 SER         0.0606
    113 H11       -52.3870  -11.2435    3.4508 H         1 SER         0.0606
    114 H12       -51.8177  -13.4012    4.0160 H         1 SER         0.2097
    115 H13       -48.8300  -13.6183    2.0339 H         1 LEU         0.1883
    116 H14       -48.8561  -13.4490   -0.8908 H         1 LEU         0.0800
    117 H15       -47.5139  -15.6120   -0.6862 H         1 LEU         0.0315
    118 H16       -47.5721  -15.3537    1.0905 H         1 LEU         0.0315
    119 H17       -46.3480  -13.2309    0.7925 H         1 LEU         0.0298
    120 H18       -44.1439  -14.2320    0.2592 H         1 LEU         0.0232
    121 H19       -44.9691  -15.6813   -0.4077 H         1 LEU         0.0232
    122 H20       -45.1168  -15.2878    1.3387 H         1 LEU         0.0232
    123 H21       -47.0328  -12.7594   -1.5314 H         1 LEU         0.0232
    124 H22       -46.0300  -14.1389   -2.0950 H         1 LEU         0.0232
    125 H23       -45.2494  -12.7181   -1.3214 H         1 LEU         0.0232
    126 H24       -50.0361  -14.6575   -2.2564 H         1 ASN         0.1885
    127 H25       -52.2345  -16.2606   -1.0967 H         1 ASN         0.0826
    128 H26       -53.0562  -16.1971   -3.5180 H         1 ASN         0.0551
    129 H27       -51.6836  -15.0902   -3.8607 H         1 ASN         0.0551
    130 H28       -54.4350  -12.8261   -3.3693 H         1 ASN         0.1814
    131 H29       -53.7765  -13.9155   -4.5439 H         1 ASN         0.1814
    132 H30       -52.5514  -18.4593   -1.5642 H         1 LEU         0.1883
    133 H31       -50.3730  -19.6713   -3.1874 H         1 LEU         0.0800
    134 H32       -50.9440  -20.6908   -1.0466 H         1 LEU         0.0315
    135 H33       -51.0474  -21.7842   -2.4679 H         1 LEU         0.0315
    136 H34       -53.3988  -20.7784   -0.8489 H         1 LEU         0.0298
    137 H35       -54.6284  -22.6018   -1.9272 H         1 LEU         0.0232
    138 H36       -53.1869  -23.0130   -2.9169 H         1 LEU         0.0232
    139 H37       -54.0229  -21.4414   -3.1574 H         1 LEU         0.0232
    140 H38       -51.7594  -22.2067    0.3532 H         1 LEU         0.0232
    141 H39       -51.8698  -23.4213   -0.9655 H         1 LEU         0.0232
    142 H40       -53.3050  -23.0725    0.0568 H         1 LEU         0.0232
    143 H41       -53.1624  -20.6701   -6.1026 H         1 CIR         0.0800
    144 H42       -50.7005  -21.1622   -4.4594 H         1 CIR         0.1883
    145 H43       -50.2932  -21.1255   -6.8715 H         1 CIR         0.0313
    146 H44       -51.4654  -19.8946   -7.4525 H         1 CIR         0.0313
    147 H45       -52.2538  -22.7174   -7.9300 H         1 CIR         0.0287
    148 H46       -50.7860  -22.1762   -8.8128 H         1 CIR         0.0287
    149 H47       -53.3730  -21.8132   -9.6486 H         1 CIR         0.0517
    150 H48       -51.9560  -20.8489  -10.1861 H         1 CIR         0.0517
    151 H49       -52.8520  -19.4776   -7.9791 H         1 CIR         0.1845
    152 H50       -55.7487  -17.7498   -9.4454 H         1 CIR         0.1808
    153 H51       -54.5998  -17.7200   -8.1495 H         1 CIR         0.1808
    154 H52       -54.5045  -22.3140   -5.8191 H         1 GLU         0.1883
    155 H53       -54.2284  -24.7101   -4.5277 H         1 GLU         0.0801
    156 H54       -56.4612  -25.2453   -5.4036 H         1 GLU         0.0330
    157 H55       -56.3041  -23.9493   -6.6375 H         1 GLU         0.0330
    158 H56       -56.1090  -23.2592   -3.6997 H         1 GLU         0.0433
    159 H57       -57.7149  -23.5593   -4.4464 H         1 GLU         0.0433
    160 H58       -53.8970  -26.7295   -5.0705 H         1 THR         0.1884
    161 H59       -52.9424  -27.3814   -7.7967 H         1 THR         0.0826
    162 H60       -52.8396  -28.7910   -5.0904 H         1 THR         0.0639
    163 H61       -50.5633  -28.4226   -5.4705 H         1 THR         0.2101
    164 H62       -51.4659  -30.5158   -6.1706 H         1 THR         0.0257
    165 H63       -51.7792  -29.7643   -7.7717 H         1 THR         0.0257
    166 H64       -53.1340  -30.4823   -6.8361 H         1 THR         0.0257
    167 H65       -53.9600  -28.8511   -9.0890 H         1 ASN         0.1885
    168 H66       -56.8257  -29.1652   -8.5870 H         1 ASN         0.0826
    169 H67       -57.0018  -29.7877  -10.8990 H         1 ASN         0.0551
    170 H68       -55.2382  -30.1087  -11.0151 H         1 ASN         0.0551
    171 H69       -54.8676  -27.0038  -12.4938 H         1 ASN         0.1814
    172 H70       -54.7005  -28.7249  -12.5939 H         1 ASN         0.1814
    173 H71       -57.8029  -31.0025   -7.9526 H         1 LEU         0.1883
    174 H72       -56.3739  -33.5137   -7.7266 H         1 LEU         0.0800
    175 H73       -59.3407  -32.8435   -7.6707 H         1 LEU         0.0315
    176 H74       -58.2391  -33.0293   -6.2640 H         1 LEU         0.0315
    177 H75       -58.9989  -35.2539   -8.1869 H         1 LEU         0.0298
    178 H76       -58.0574  -36.7344   -6.4373 H         1 LEU         0.0232
    179 H77       -57.5628  -35.2883   -5.4935 H         1 LEU         0.0232
    180 H78       -56.8326  -35.6024   -7.1043 H         1 LEU         0.0232
    181 H79       -60.9777  -34.4594   -6.9071 H         1 LEU         0.0232
    182 H80       -60.0765  -34.7130   -5.3741 H         1 LEU         0.0232
    183 H81       -60.4757  -36.1150   -6.4237 H         1 LEU         0.0232
    184 H82       -56.0409  -35.0152   -9.2128 H         1 ASP         0.1884
    185 H83       -56.9196  -34.5556  -11.9746 H         1 ASP         0.0819
    186 H84       -55.2812  -36.9258  -11.0698 H         1 ASP         0.0478
    187 H85       -54.5533  -35.2841  -11.0286 H         1 ASP         0.0478
    188 H86       -57.3245  -36.9294  -13.1050 H         1 SER         0.1884
    189 H87       -59.4847  -38.1999  -11.4789 H         1 SER         0.0823
    190 H88       -60.3753  -36.8680  -13.4146 H         1 SER         0.0606
    191 H89       -60.7501  -38.6217  -13.5191 H         1 SER         0.0606
    192 H90       -58.9474  -38.7959  -14.9607 H         1 SER         0.2097
    193 H91       -59.6455  -40.4226  -11.5037 H         1 LEU         0.1875
    194 H92       -57.4799  -42.0360  -12.4665 H         1 LEU         0.0726
    195 H93       -59.3794  -43.8775  -12.3456 H         1 LEU         0.0308
    196 H94       -60.2839  -42.5714  -11.5073 H         1 LEU         0.0308
    197 H95       -58.3907  -42.3848   -9.8917 H         1 LEU         0.0297
    198 H96       -58.9721  -44.4279   -8.6061 H         1 LEU         0.0232
    199 H97       -59.7553  -45.1134  -10.0701 H         1 LEU         0.0232
    200 H98       -60.4179  -43.6270   -9.3096 H         1 LEU         0.0232
    201 H99       -56.6018  -43.3660  -11.3178 H         1 LEU         0.0232
    202 H100      -57.3865  -44.9757  -11.1783 H         1 LEU         0.0232
    203 H101      -56.7168  -44.1733   -9.7174 H         1 LEU         0.0232
@<TRIPOS>BOND
     1    2    1 1  
     2    3    2 1  
     3    2    5 1  
     4    3    4 2  
     5    7    3 am 
     6    5    6 1  
     7    8    7 1  
     8    9    8 1  
     9    8   11 1  
    10    9   10 2  
    11   13    9 am 
    12   11   12 1  
    13   14   13 1  
    14   15   14 1  
    15   14   17 1  
    16   15   16 2  
    17   21   15 am 
    18   17   18 1  
    19   18   19 1  
    20   18   20 1  
    21   22   21 1  
    22   23   22 1  
    23   22   25 1  
    24   23   24 2  
    25   29   23 am 
    26   25   26 1  
    27   26   27 2  
    28   26   28 am 
    29   30   29 1  
    30   31   30 1  
    31   30   33 1  
    32   31   32 2  
    33   40   31 am 
    34   33   34 1  
    35   34   35 1  
    36   34   36 1  
    37   37   38 2  
    38   39   37 1  
    39   37   48 am 
    40   39   40 1  
    41   39   41 1  
    42   41   42 1  
    43   42   43 1  
    44   43   44 1  
    45   44   45 am 
    46   45   46 2  
    47   45   47 am 
    48   48   49 1  
    49   49   50 1  
    50   49   52 1  
    51   50   51 2  
    52   50   57 am 
    53   52   53 1  
    54   53   54 1  
    55   54   55 ar 
    56   54   56 ar 
    57   57   58 1  
    58   58   59 1  
    59   58   61 1  
    60   59   60 2  
    61   59   64 am 
    62   61   62 1  
    63   61   63 1  
    64   64   65 1  
    65   65   66 1  
    66   65   68 1  
    67   66   67 2  
    68   66   72 am 
    69   68   69 1  
    70   69   70 2  
    71   69   71 am 
    72   72   73 1  
    73   73   74 1  
    74   73   76 1  
    75   74   75 2  
    76   74   80 am 
    77   76   77 1  
    78   77   78 1  
    79   77   79 1  
    80   80   81 1  
    81   81   82 1  
    82   81   84 1  
    83   82   83 2  
    84   82   88 am 
    85   84   85 1  
    86   85   86 ar 
    87   85   87 ar 
    88   88   89 1  
    89   89   90 1  
    90   89   92 1  
    91   90   91 2  
    92   90   94 am 
    93   92   93 1  
    94   94   95 1  
    95   95   96 1  
    96   95   98 1  
    97   96   97 ar 
    98   96  102 ar 
    99   98   99 1  
   100   99  100 1  
   101   99  101 1  
   102    1  103 1  
   103    1  104 1  
   104    1  105 1  
   105    2  106 1  
   106    5  107 1  
   107    5  108 1  
   108    6  109 1  
   109    7  110 1  
   110    8  111 1  
   111   11  112 1  
   112   11  113 1  
   113   12  114 1  
   114   13  115 1  
   115   14  116 1  
   116   17  117 1  
   117   17  118 1  
   118   18  119 1  
   119   19  120 1  
   120   19  121 1  
   121   19  122 1  
   122   20  123 1  
   123   20  124 1  
   124   20  125 1  
   125   21  126 1  
   126   22  127 1  
   127   25  128 1  
   128   25  129 1  
   129   28  130 1  
   130   28  131 1  
   131   29  132 1  
   132   30  133 1  
   133   33  134 1  
   134   33  135 1  
   135   34  136 1  
   136   35  137 1  
   137   35  138 1  
   138   35  139 1  
   139   36  140 1  
   140   36  141 1  
   141   36  142 1  
   142   39  143 1  
   143   40  144 1  
   144   41  145 1  
   145   41  146 1  
   146   42  147 1  
   147   42  148 1  
   148   43  149 1  
   149   43  150 1  
   150   44  151 1  
   151   47  152 1  
   152   47  153 1  
   153   48  154 1  
   154   49  155 1  
   155   52  156 1  
   156   52  157 1  
   157   53  158 1  
   158   53  159 1  
   159   57  160 1  
   160   58  161 1  
   161   61  162 1  
   162   62  163 1  
   163   63  164 1  
   164   63  165 1  
   165   63  166 1  
   166   64  167 1  
   167   65  168 1  
   168   68  169 1  
   169   68  170 1  
   170   71  171 1  
   171   71  172 1  
   172   72  173 1  
   173   73  174 1  
   174   76  175 1  
   175   76  176 1  
   176   77  177 1  
   177   78  178 1  
   178   78  179 1  
   179   78  180 1  
   180   79  181 1  
   181   79  182 1  
   182   79  183 1  
   183   80  184 1  
   184   81  185 1  
   185   84  186 1  
   186   84  187 1  
   187   88  188 1  
   188   89  189 1  
   189   92  190 1  
   190   92  191 1  
   191   93  192 1  
   192   94  193 1  
   193   95  194 1  
   194   98  195 1  
   195   98  196 1  
   196   99  197 1  
   197  100  198 1  
   198  100  199 1  
   199  100  200 1  
   200  101  201 1  
   201  101  202 1  
   202  101  203 1  
@<TRIPOS>SUBSTRUCTURE
     1 SER         1

