6o68_ligand
  -I-interpret- 

 46 48  0  0  0  0  0  0  0  0999 V2000
   15.0510   66.5860    9.1400 C   0  0  0  0  0
   16.0170   69.1180    8.6670 C   0  0  0  0  0
   14.1610   67.6190    8.9440 C   0  0  0  0  0
   16.0250   71.5520    9.4130 C   0  0  0  0  0
   14.8250   72.9460   11.1600 C   0  0  0  0  0
   16.5140   64.8140   11.1040 C   0  0  0  0  0
   16.4820   63.8370    9.9690 C   0  0  0  0  0
   16.2140   62.4630   10.5380 C   0  0  0  0  0
   17.3690   62.0570   11.4030 C   0  0  0  0  0
   18.5820   61.8840   10.5370 C   0  0  0  0  0
   18.9920   63.2090    9.9510 C   0  0  0  0  0
   17.8220   63.8700    9.2430 C   0  0  0  0  0
   15.3580   64.2380    8.9980 C   0  0  0  0  0
   16.4050   66.8160    9.0900 C   0  0  0  0  0
   16.8880   68.0760    8.8460 C   0  0  0  0  0
   14.6540   68.8870    8.7100 C   0  0  0  0  0
   16.5780   70.5110    8.4220 C   0  0  0  0  0
   16.4800   72.8670    9.6370 C   0  0  0  0  0
   15.8270   73.5700   10.5700 N   0  0  0  0  0
   14.5650   65.3090    9.3940 O   0  0  0  0  0
   17.5370   73.4640    8.9840 O   0  0  0  0  0
   14.0150   73.5160   12.1460 O   0  0  0  0  0
   14.7390   71.4030   10.4920 S   0  0  0  0  0
   13.0865   67.4384    8.9732 H   0  0  0  0  0
   15.5537   64.8016   11.6195 H   0  0  0  0  0
   17.3051   64.5347   11.7999 H   0  0  0  0  0
   16.7064   65.8141   10.7155 H   0  0  0  0  0
   16.0945   61.7464    9.7254 H   0  0  0  0  0
   15.3003   62.4838   11.1320 H   0  0  0  0  0
   17.1399   61.1199   11.9103 H   0  0  0  0  0
   17.5568   62.8246   12.1538 H   0  0  0  0  0
   18.3484   61.1918    9.7281 H   0  0  0  0  0
   19.4000   61.4913   11.1410 H   0  0  0  0  0
   19.7913   63.0420    9.2289 H   0  0  0  0  0
   19.3292   63.8608   10.7570 H   0  0  0  0  0
   18.0854   64.9229    9.1427 H   0  0  0  0  0
   17.6772   63.3150    8.3161 H   0  0  0  0  0
   14.6946   63.3762    8.9245 H   0  0  0  0  0
   15.8468   64.5441    8.0731 H   0  0  0  0  0
   17.1000   65.9909    9.2454 H   0  0  0  0  0
   17.9631   68.2481    8.7946 H   0  0  0  0  0
   13.9617   69.7150    8.5575 H   0  0  0  0  0
   16.2899   70.8176    7.4165 H   0  0  0  0  0
   17.6594   70.4655    8.5506 H   0  0  0  0  0
   16.0871   74.5267   10.8097 H   0  0  0  0  0
   17.6495   74.3593    9.3116 H   0  0  0  0  0
  1  3  4  0  0  0
  1 14  4  0  0  0
 20  1  1  0  0  0
  2 15  4  0  0  0
 16  2  4  0  0  0
  2 17  1  0  0  0
  3 16  4  0  0  0
 17  4  1  0  0  0
  4 18  2  0  0  0
  4 23  1  0  0  0
  5 19  1  0  0  0
  5 22  2  0  0  0
 23  5  1  0  0  0
  7  6  1  0  0  0
  7  8  1  0  0  0
  7 12  1  0  0  0
 13  7  1  0  0  0
  8  9  1  0  0  0
  9 10  1  0  0  0
 11 10  1  0  0  0
 12 11  1  0  0  0
 13 20  1  0  0  0
 14 15  4  0  0  0
 18 19  1  0  0  0
 18 21  1  0  0  0
  3 24  1  0  0  0
  6 25  1  0  0  0
  6 26  1  0  0  0
  6 27  1  0  0  0
  8 28  1  0  0  0
  8 29  1  0  0  0
  9 30  1  0  0  0
  9 31  1  0  0  0
 10 32  1  0  0  0
 10 33  1  0  0  0
 11 34  1  0  0  0
 11 35  1  0  0  0
 12 36  1  0  0  0
 12 37  1  0  0  0
 13 38  1  0  0  0
 13 39  1  0  0  0
 14 40  1  0  0  0
 15 41  1  0  0  0
 16 42  1  0  0  0
 17 43  1  0  0  0
 17 44  1  0  0  0
 19 45  1  0  0  0
 21 46  1  0  0  0
M  END
$$$$
