5wfm_ligand
  -I-interpret- 

 63 66  0  0  0  0  0  0  0  0999 V2000
  195.4540 -311.6820  686.0190 C   0  0  0  0  0
  194.9760 -316.0810  688.5040 C   0  0  0  0  0
  194.0170 -315.0930  688.4600 C   0  0  0  0  0
  193.1290 -315.0400  687.4120 C   0  0  0  0  0
  193.1920 -315.9750  686.3950 C   0  0  0  0  0
  194.2930 -310.8040  685.5970 C   0  0  0  0  0
  193.2470 -310.5340  686.6900 C   0  0  0  0  0
  192.4060 -311.7990  686.6360 C   0  0  0  0  0
  192.2120 -311.9870  685.1480 C   0  0  0  0  0
  193.7940 -311.5900  683.2780 C   0  0  0  0  0
  194.4680 -310.4380  682.5590 C   0  0  0  0  0
  196.6150 -313.6600  685.7460 C   0  0  0  0  0
  197.2620 -311.4170  682.7820 C   0  0  0  0  0
  198.3440 -311.4000  683.6640 C   0  0  0  0  0
  199.2680 -312.4290  683.6560 C   0  0  0  0  0
  199.1340 -313.4750  682.7730 C   0  0  0  0  0
  198.0800 -313.5100  681.8890 C   0  0  0  0  0
  197.1510 -312.4870  681.8880 C   0  0  0  0  0
  197.5140 -313.3170  686.7100 C   0  0  0  0  0
  197.3920 -312.0980  687.3700 C   0  0  0  0  0
  196.7400 -314.9800  685.0320 C   0  0  0  0  0
  195.6820 -316.5300  683.4610 C   0  0  0  0  0
  195.7410 -317.8100  684.2690 C   0  0  0  0  0
  194.1590 -316.9630  686.4380 C   0  0  0  0  0
  195.0500 -317.0250  687.4960 C   0  0  0  0  0
  196.3360 -311.2940  686.9930 N   0  0  0  0  0
  195.5940 -312.8600  685.4050 N   0  0  0  0  0
  195.6960 -315.3280  684.2810 N   0  0  0  0  0
  193.4560 -311.4550  684.5730 N   0  0  0  0  0
  198.1710 -311.7160  688.2560 O   0  0  0  0  0
  198.5420 -314.0930  687.0810 O   0  0  0  0  0
  197.7650 -315.6530  685.1400 O   0  0  0  0  0
  193.4610 -312.5910  682.6520 O   0  0  0  0  0
  194.3760 -319.4580  685.7590 O   0  0  0  0  0
  193.1370 -317.9440  684.2610 O   0  0  0  0  0
  194.2410 -318.1670  685.1490 S   0  0  0  0  0
  196.1970 -310.0120  682.9350 S   0  0  0  0  0
  195.8500 -312.5840  680.7500 Cl  0  0  0  0  0
  195.6789 -316.1189  689.3362 H   0  0  0  0  0
  193.9622 -314.3520  689.2575 H   0  0  0  0  0
  192.3713 -314.2570  687.3824 H   0  0  0  0  0
  192.4853 -315.9337  685.5662 H   0  0  0  0  0
  194.8100 -309.8980  685.2808 H   0  0  0  0  0
  192.6713 -309.6236  686.5233 H   0  0  0  0  0
  193.6839 -310.3458  687.6707 H   0  0  0  0  0
  191.4684 -311.7169  687.1858 H   0  0  0  0  0
  192.8803 -312.6528  687.1200 H   0  0  0  0  0
  191.3252 -311.4759  684.7733 H   0  0  0  0  0
  192.0367 -313.0280  684.8766 H   0  0  0  0  0
  193.8998 -309.5589  682.8629 H   0  0  0  0  0
  194.4853 -310.7440  681.5130 H   0  0  0  0  0
  198.4612 -310.5715  684.3625 H   0  0  0  0  0
  200.1062 -312.4110  684.3526 H   0  0  0  0  0
  199.8674 -314.2814  682.7735 H   0  0  0  0  0
  197.9783 -314.3418  681.1920 H   0  0  0  0  0
  194.7456 -316.5364  682.9032 H   0  0  0  0  0
  196.5655 -316.5030  682.8232 H   0  0  0  0  0
  196.5331 -317.6927  685.0086 H   0  0  0  0  0
  195.9123 -318.6291  683.5705 H   0  0  0  0  0
  195.8037 -317.8115  687.5341 H   0  0  0  0  0
  196.2091 -310.3907  687.4495 H   0  0  0  0  0
  194.8721 -314.7267  684.2808 H   0  0  0  0  0
  199.0409 -313.6522  687.7727 H   0  0  0  0  0
  1  6  1  0  0  0
  1 26  1  0  0  0
 27  1  2  0  0  0
  2  3  4  0  0  0
 25  2  4  0  0  0
  4  3  4  0  0  0
  5  4  4  0  0  0
 24  5  4  0  0  0
  6  7  1  0  0  0
  6 29  1  0  0  0
  7  8  1  0  0  0
  9  8  1  0  0  0
 29  9  1  0  0  0
 10 11  1  0  0  0
 29 10  1  0  0  0
 10 33  2  0  0  0
 11 37  1  0  0  0
 12 19  2  0  0  0
 21 12  1  0  0  0
 12 27  1  0  0  0
 13 14  4  0  0  0
 13 18  4  0  0  0
 37 13  1  0  0  0
 14 15  4  0  0  0
 15 16  4  0  0  0
 17 16  4  0  0  0
 18 17  4  0  0  0
 18 38  1  0  0  0
 19 20  1  0  0  0
 19 31  1  0  0  0
 20 26  1  0  0  0
 20 30  2  0  0  0
 28 21  1  0  0  0
 21 32  2  0  0  0
 23 22  1  0  0  0
 22 28  1  0  0  0
 36 23  1  0  0  0
 24 25  4  0  0  0
 24 36  1  0  0  0
 36 34  2  0  0  0
 36 35  2  0  0  0
  2 39  1  0  0  0
  3 40  1  0  0  0
  4 41  1  0  0  0
  5 42  1  0  0  0
  6 43  1  0  0  0
  7 44  1  0  0  0
  7 45  1  0  0  0
  8 46  1  0  0  0
  8 47  1  0  0  0
  9 48  1  0  0  0
  9 49  1  0  0  0
 11 50  1  0  0  0
 11 51  1  0  0  0
 14 52  1  0  0  0
 15 53  1  0  0  0
 16 54  1  0  0  0
 17 55  1  0  0  0
 22 56  1  0  0  0
 22 57  1  0  0  0
 23 58  1  0  0  0
 23 59  1  0  0  0
 25 60  1  0  0  0
 26 61  1  0  0  0
 28 62  1  0  0  0
 31 63  1  0  0  0
M  END
$$$$
