5f1l_ligand
  -I-interpret- 

 50 52  0  0  0  0  0  0  0  0999 V2000
   10.6160   -3.0560    4.7650 C   0  0  0  0  0
   12.5670   -4.3940    4.9320 C   0  0  0  0  0
   12.7710   -1.9360    5.0110 C   0  0  0  0  0
    6.1420   -4.9560    4.0410 C   0  0  0  0  0
    3.5270   -2.5450    4.4170 N   0  3  0  0  0
    2.7250   -1.5100    2.8070 C   0  0  0  0  0
    8.3270   -4.0920    4.6590 C   0  0  0  0  0
    6.3070   -3.0130    5.4930 C   0  0  0  0  0
    5.4350   -5.9730    1.9740 C   0  0  0  0  0
    6.4030   -1.4790    7.3530 C   0  0  0  0  0
    4.1100   -2.0770    3.1450 C   0  0  0  0  0
   11.7790   -5.5720    4.8240 C   0  0  0  0  0
   10.4280   -5.4640    4.6840 C   0  0  0  0  0
    9.8180   -4.1830    4.6790 C   0  0  0  0  0
   11.9750   -3.1650    4.8650 N   0  0  0  0  0
   13.7770   -4.4950    5.0770 O   0  0  0  0  0
   12.3870   -6.9520    4.8430 C   0  0  0  0  0
    4.0180   -3.8720    4.8290 C   0  0  0  0  0
    7.5380   -5.0460    3.9960 C   0  0  0  0  0
    7.6990   -3.1020    5.4270 C   0  0  0  0  0
    5.5290   -3.9500    4.7980 C   0  0  0  0  0
    5.3680   -5.8800    3.3980 O   0  0  0  0  0
    5.7160   -2.0050    6.2100 O   0  0  0  0  0
    2.2510   -2.6750    3.6860 C   0  0  0  0  0
    2.3840   -1.6050    1.4210 O   0  0  0  0  0
   10.1550   -2.0683    4.7529 H   0  0  0  0  0
   13.2571   -1.9332    5.9866 H   0  0  0  0  0
   13.5271   -1.8991    4.2268 H   0  0  0  0  0
   12.1163   -1.0685    4.9274 H   0  0  0  0  0
    3.6356   -2.0088    5.2778 H   0  0  0  0  0
    2.4173   -0.4754    2.9591 H   0  0  0  0  0
    5.1429   -5.0192    1.5347 H   0  0  0  0  0
    6.4547   -6.2153    1.6746 H   0  0  0  0  0
    4.7584   -6.7553    1.6300 H   0  0  0  0  0
    6.5637   -2.2771    8.0778 H   0  0  0  0  0
    7.3643   -1.0705    7.0413 H   0  0  0  0  0
    5.8015   -0.6909    7.8059 H   0  0  0  0  0
    4.6302   -2.7565    2.4699 H   0  0  0  0  0
    5.0045   -1.4545    3.1205 H   0  0  0  0  0
    9.8169   -6.3601    4.5760 H   0  0  0  0  0
   11.9716   -7.5192    5.6760 H   0  0  0  0  0
   12.1597   -7.4607    3.9062 H   0  0  0  0  0
   13.4675   -6.8700    4.9605 H   0  0  0  0  0
    3.6234   -4.6131    4.1339 H   0  0  0  0  0
    3.6874   -4.0562    5.8512 H   0  0  0  0  0
    8.0135   -5.8578    3.4455 H   0  0  0  0  0
    8.3080   -2.3889    5.9826 H   0  0  0  0  0
    1.2909   -2.6494    4.2014 H   0  0  0  0  0
    1.9323   -3.6242    3.2553 H   0  0  0  0  0
    1.5097   -1.2338    1.2815 H   0  0  0  0  0
 14  1  2  0  0  0
  1 15  1  0  0  0
 12  2  1  0  0  0
 15  2  1  0  0  0
  2 16  2  0  0  0
 15  3  1  0  0  0
  4 19  4  0  0  0
 21  4  4  0  0  0
  4 22  1  0  0  0
  5 11  1  0  0  0
 18  5  1  0  0  0
  5 24  1  0  0  0
 11  6  1  0  0  0
 24  6  1  0  0  0
  6 25  1  0  0  0
  7 14  1  0  0  0
 19  7  4  0  0  0
 20  7  4  0  0  0
  8 20  4  0  0  0
 21  8  4  0  0  0
  8 23  1  0  0  0
 22  9  1  0  0  0
 23 10  1  0  0  0
 13 12  2  0  0  0
 12 17  1  0  0  0
 14 13  1  0  0  0
 18 21  1  0  0  0
  1 26  1  0  0  0
  3 27  1  0  0  0
  3 28  1  0  0  0
  3 29  1  0  0  0
  5 30  1  0  0  0
  6 31  1  0  0  0
  9 32  1  0  0  0
  9 33  1  0  0  0
  9 34  1  0  0  0
 10 35  1  0  0  0
 10 36  1  0  0  0
 10 37  1  0  0  0
 11 38  1  0  0  0
 11 39  1  0  0  0
 13 40  1  0  0  0
 17 41  1  0  0  0
 17 42  1  0  0  0
 17 43  1  0  0  0
 18 44  1  0  0  0
 18 45  1  0  0  0
 19 46  1  0  0  0
 20 47  1  0  0  0
 24 48  1  0  0  0
 24 49  1  0  0  0
 25 50  1  0  0  0
M  END
$$$$
