3ehx_ligand
  -I-interpret- 

 45 46  0  0  0  0  0  0  0  0999 V2000
   -2.0470   -1.5510   -5.7620 O   0  0  0  0  0
   -1.8680   -1.9680   -4.6530 C   0  0  0  0  0
   -2.8710   -2.0680   -3.8170 O   0  0  0  0  0
   -0.4830   -2.3220   -4.2560 C   0  0  0  0  0
   -0.0920   -1.5770   -2.9890 C   0  0  0  0  0
    1.3030   -2.0450   -2.5650 C   0  0  0  0  0
    2.3790   -0.9590   -2.6380 C   0  0  0  0  0
    1.2740   -2.6230   -1.1470 C   0  0  0  0  0
   -0.3040   -3.7240   -4.0580 N   0  0  0  0  0
   -0.6340   -5.0940   -4.8830 S   0  0  0  0  0
    0.4830   -5.3780   -5.7600 O   0  0  0  0  0
   -0.7140   -5.9230   -3.7080 O   0  0  0  0  0
   -2.0190   -5.3460   -5.6640 C   0  0  0  0  0
   -2.0790   -5.3950   -7.0520 C   0  0  0  0  0
   -3.2650   -5.7050   -7.7020 C   0  0  0  0  0
   -3.1590   -5.6180   -4.9190 C   0  0  0  0  0
   -4.3560   -5.8960   -5.5740 C   0  0  0  0  0
   -4.4270   -5.9370   -6.9690 C   0  0  0  0  0
   -5.6910   -6.3160   -7.6470 C   0  0  0  0  0
   -6.8140   -6.6450   -6.8800 C   0  0  0  0  0
   -7.9830   -7.0450   -7.4940 C   0  0  0  0  0
   -8.0280   -7.1810   -8.8820 C   0  0  0  0  0
   -6.9100   -6.9040   -9.6560 C   0  0  0  0  0
   -5.7460   -6.4950   -9.0290 C   0  0  0  0  0
   -2.5551   -2.4167   -2.9802 H   0  0  0  0  0
    0.1632   -2.0242   -5.0818 H   0  0  0  0  0
   -0.8118   -1.7840   -2.1971 H   0  0  0  0  0
   -0.0849   -0.5030   -3.1747 H   0  0  0  0  0
    1.5762   -2.8128   -3.2888 H   0  0  0  0  0
    2.1459   -0.1698   -1.9232 H   0  0  0  0  0
    3.3492   -1.3938   -2.3976 H   0  0  0  0  0
    2.4055   -0.5427   -3.6450 H   0  0  0  0  0
    2.2476   -3.0527   -0.9112 H   0  0  0  0  0
    1.0444   -1.8286   -0.4368 H   0  0  0  0  0
    0.5095   -3.3976   -1.0873 H   0  0  0  0  0
    0.1496   -3.9225   -3.1662 H   0  0  0  0  0
   -1.1831   -5.1873   -7.6370 H   0  0  0  0  0
   -3.2877   -5.7673   -8.7900 H   0  0  0  0  0
   -3.1171   -5.6139   -3.8298 H   0  0  0  0  0
   -5.2549   -6.0853   -4.9873 H   0  0  0  0  0
   -6.7651   -6.5850   -5.7927 H   0  0  0  0  0
   -8.8698   -7.2544   -6.8959 H   0  0  0  0  0
   -8.9500   -7.5079   -9.3628 H   0  0  0  0  0
   -6.9480   -7.0069  -10.7405 H   0  0  0  0  0
   -4.8542   -6.3090   -9.6274 H   0  0  0  0  0
  1  2  2  0  0  0
  2  3  1  0  0  0
  2  4  1  0  0  0
  4  5  1  0  0  0
  4  9  1  0  0  0
  5  6  1  0  0  0
  6  7  1  0  0  0
  6  8  1  0  0  0
  9 10  1  0  0  0
 10 11  2  0  0  0
 10 12  2  0  0  0
 10 13  1  0  0  0
 13 14  4  0  0  0
 13 16  4  0  0  0
 14 15  4  0  0  0
 15 18  4  0  0  0
 16 17  4  0  0  0
 17 18  4  0  0  0
 18 19  1  0  0  0
 19 20  4  0  0  0
 19 24  4  0  0  0
 20 21  4  0  0  0
 21 22  4  0  0  0
 22 23  4  0  0  0
 23 24  4  0  0  0
  3 25  1  0  0  0
  4 26  1  0  0  0
  5 27  1  0  0  0
  5 28  1  0  0  0
  6 29  1  0  0  0
  7 30  1  0  0  0
  7 31  1  0  0  0
  7 32  1  0  0  0
  8 33  1  0  0  0
  8 34  1  0  0  0
  8 35  1  0  0  0
  9 36  1  0  0  0
 14 37  1  0  0  0
 15 38  1  0  0  0
 16 39  1  0  0  0
 17 40  1  0  0  0
 20 41  1  0  0  0
 21 42  1  0  0  0
 22 43  1  0  0  0
 23 44  1  0  0  0
 24 45  1  0  0  0
M  END
$$$$
