6eq4_ligand
  -I-interpret- 

 23 25  0  0  0  0  0  0  0  0999 V2000
  -15.9360   10.2690  -20.7390 C   0  0  0  0  0
  -16.8640   11.2970  -20.5500 C   0  0  0  0  0
  -14.6730   12.1870  -23.0390 C   0  0  0  0  0
  -13.6280   12.8410  -23.7320 C   0  0  0  0  0
  -12.6480   11.6460  -22.0680 C   0  0  0  0  0
  -14.0430   11.4130  -21.9660 C   0  0  0  0  0
  -14.5180   10.5440  -20.9370 C   0  0  0  0  0
  -13.5820    9.9670  -20.0500 C   0  0  0  0  0
  -12.2070   10.2620  -20.2400 C   0  0  0  0  0
  -16.4350    8.9440  -20.6800 C   0  0  0  0  0
  -17.8190    8.7240  -20.4690 C   0  0  0  0  0
  -18.2260   11.0620  -20.3330 C   0  0  0  0  0
  -16.4250   12.6330  -20.5670 F   0  0  0  0  0
  -12.4120   12.5200  -23.1150 N   0  0  0  0  0
  -11.7600   11.0780  -21.2080 N   0  0  0  0  0
  -18.6690    9.7800  -20.2960 N   0  0  0  0  0
  -15.7387   12.2469  -23.2598 H   0  0  0  0  0
  -13.7486   13.4872  -24.6014 H   0  0  0  0  0
  -13.9073    9.3127  -19.2412 H   0  0  0  0  0
  -11.4799    9.8049  -19.5689 H   0  0  0  0  0
  -15.7576    8.0981  -20.7964 H   0  0  0  0  0
  -18.2080    7.7061  -20.4445 H   0  0  0  0  0
  -18.9181   11.8929  -20.1963 H   0  0  0  0  0
  1  2  4  0  0  0
  7  1  1  0  0  0
  1 10  4  0  0  0
  2 12  4  0  0  0
  2 13  1  0  0  0
  3  4  4  0  0  0
  6  3  4  0  0  0
 14  4  4  0  0  0
  6  5  4  0  0  0
  5 14  4  0  0  0
  5 15  4  0  0  0
  6  7  4  0  0  0
  7  8  4  0  0  0
  8  9  4  0  0  0
  9 15  4  0  0  0
 10 11  4  0  0  0
 11 16  4  0  0  0
 12 16  4  0  0  0
  3 17  1  0  0  0
  4 18  1  0  0  0
  8 19  1  0  0  0
  9 20  1  0  0  0
 10 21  1  0  0  0
 11 22  1  0  0  0
 12 23  1  0  0  0
M  END
$$$$
