3k39_ligand
  -I-interpret- 

 51 51  0  0  0  0  0  0  0  0999 V2000
    7.6990   15.7340   25.7490 C   0  0  0  0  0
    6.5430   15.5920   24.8770 N   0  0  0  0  0
    6.5330   15.8700   23.5220 C   0  0  0  0  0
    5.3200   15.8280   22.8430 N   0  0  0  0  0
    7.6980   16.2020   22.8670 N   0  0  0  0  0
    7.3430   16.2420   27.1190 C   0  0  0  0  0
    6.9670   17.7270   27.1430 C   0  0  0  0  0
    6.5580   18.2650   28.5240 C   0  0  0  0  0
    6.3650   19.7700   28.5150 C   0  0  0  0  0
    7.6880   20.4980   28.4730 C   0  0  0  0  0
    5.3240   17.6170   29.1000 C   0  0  0  0  0
    5.4130   17.5970   30.6010 C   0  0  0  0  0
    5.9380   18.0500   26.1890 N   0  0  0  0  0
    6.1810   18.8680   25.1060 C   0  0  0  0  0
    4.9460   19.0320   24.2750 C   0  0  0  0  0
    7.2410   19.4100   24.8120 O   0  0  0  0  0
    8.5680   15.8620   27.9500 C   0  0  0  0  0
    9.5280   16.9150   27.9560 O   0  0  0  0  0
    9.2640   14.7090   27.2520 C   0  0  0  0  0
    9.2000   13.5040   28.2120 C   0  0  0  0  0
    9.5110   12.3770   27.7720 O   0  0  0  0  0
    8.8480   13.7330   29.3750 O   0  0  0  0  0
    8.3720   14.4080   26.0560 C   0  0  0  0  0
    8.3366   16.4205   25.1919 H   0  0  0  0  0
    5.6738   15.2624   25.2968 H   0  0  0  0  0
    5.2854   16.0447   21.8469 H   0  0  0  0  0
    4.4650   15.5805   23.3411 H   0  0  0  0  0
    7.6784   16.4211   21.8710 H   0  0  0  0  0
    6.4314   15.8018   27.5232 H   0  0  0  0  0
    7.8955   18.2259   26.8652 H   0  0  0  0  0
    7.3969   18.0029   29.1688 H   0  0  0  0  0
    5.8423   20.0564   29.4276 H   0  0  0  0  0
    5.7944   20.0395   27.6262 H   0  0  0  0  0
    8.2765   20.2304   29.3506 H   0  0  0  0  0
    8.2292   20.2137   27.5706 H   0  0  0  0  0
    7.5096   21.5733   28.4676 H   0  0  0  0  0
    5.2474   16.5947   28.7297 H   0  0  0  0  0
    4.4442   18.1855   28.7986 H   0  0  0  0  0
    6.2934   17.0303   30.9040 H   0  0  0  0  0
    5.4914   18.6187   30.9727 H   0  0  0  0  0
    4.5185   17.1276   31.0105 H   0  0  0  0  0
    5.0032   17.6629   26.3180 H   0  0  0  0  0
    4.6758   20.0871   24.2323 H   0  0  0  0  0
    5.1362   18.6632   23.2671 H   0  0  0  0  0
    4.1302   18.4646   24.7229 H   0  0  0  0  0
    8.2331   15.6318   28.9614 H   0  0  0  0  0
    9.1527   17.6862   28.3872 H   0  0  0  0  0
   10.2961   14.9172   26.9699 H   0  0  0  0  0
    9.7478   12.4510   26.8446 H   0  0  0  0  0
    8.9387   14.0282   25.2059 H   0  0  0  0  0
    7.6496   13.6203   26.2700 H   0  0  0  0  0
  1  2  1  0  0  0
  1  6  1  0  0  0
  1 23  1  0  0  0
  2  3  1  0  0  0
  3  4  1  0  0  0
  3  5  2  0  0  0
  6  7  1  0  0  0
  6 17  1  0  0  0
  7  8  1  0  0  0
  7 13  1  0  0  0
  8  9  1  0  0  0
  8 11  1  0  0  0
  9 10  1  0  0  0
 11 12  1  0  0  0
 13 14  1  0  0  0
 14 15  1  0  0  0
 14 16  2  0  0  0
 17 18  1  0  0  0
 17 19  1  0  0  0
 19 20  1  0  0  0
 19 23  1  0  0  0
 20 21  1  0  0  0
 20 22  2  0  0  0
  1 24  1  0  0  0
  2 25  1  0  0  0
  4 26  1  0  0  0
  4 27  1  0  0  0
  5 28  1  0  0  0
  6 29  1  0  0  0
  7 30  1  0  0  0
  8 31  1  0  0  0
  9 32  1  0  0  0
  9 33  1  0  0  0
 10 34  1  0  0  0
 10 35  1  0  0  0
 10 36  1  0  0  0
 11 37  1  0  0  0
 11 38  1  0  0  0
 12 39  1  0  0  0
 12 40  1  0  0  0
 12 41  1  0  0  0
 13 42  1  0  0  0
 15 43  1  0  0  0
 15 44  1  0  0  0
 15 45  1  0  0  0
 17 46  1  0  0  0
 18 47  1  0  0  0
 19 48  1  0  0  0
 21 49  1  0  0  0
 23 50  1  0  0  0
 23 51  1  0  0  0
M  END
$$$$
