4hra_ligand
  -I-interpret- 

 83 88  0  0  0  0  0  0  0  0999 V2000
  -17.3800  -59.1930  -16.2860 C   0  0  0  0  0
  -18.3200  -61.3090  -16.3170 C   0  0  0  0  0
  -17.0800  -61.8530  -16.5780 C   0  0  0  0  0
  -15.9920  -61.0070  -16.6930 C   0  0  0  0  0
  -18.5070  -63.4480  -16.4770 C   0  0  0  0  0
  -23.9420  -62.1630   -7.7480 N   0  0  0  0  0
  -23.5250  -63.1030   -6.9020 C   0  0  0  0  0
  -22.4130  -63.2060   -6.0610 C   0  0  0  0  0
  -22.2400  -64.3430   -5.2700 C   0  0  0  0  0
  -23.1790  -65.3780   -5.3130 C   0  0  0  0  0
  -23.0000  -66.6330   -4.4380 C   0  0  0  0  0
  -21.7610  -66.4630   -3.5540 C   0  0  0  0  0
  -24.2330  -66.8210   -3.5480 C   0  0  0  0  0
  -22.8450  -67.8650   -5.3360 C   0  0  0  0  0
  -24.2920  -65.2640   -6.1510 C   0  0  0  0  0
  -24.4640  -64.1300   -6.9440 C   0  0  0  0  0
  -25.4070  -63.7690   -7.8140 N   0  0  0  0  0
  -25.0900  -62.5690   -8.2900 C   0  0  0  0  0
  -25.8960  -61.8050   -9.3210 C   0  0  0  0  0
  -25.1640  -61.9050  -10.6580 C   0  0  0  0  0
  -25.5060  -63.1920  -11.4130 C   0  0  0  0  0
  -24.5150  -64.3100  -11.0840 C   0  0  0  0  0
  -24.8910  -63.1220  -12.8090 C   0  0  0  0  0
  -24.3080  -64.5230  -12.5920 C   0  0  0  0  0
  -22.8670  -64.5380  -12.9530 N   0  3  0  0  0
  -22.0480  -65.4510  -12.1090 C   0  0  0  0  0
  -22.1890  -66.9310  -12.5110 C   0  0  0  0  0
  -20.5800  -64.9860  -12.1060 C   0  0  0  0  0
  -22.6480  -64.6910  -14.4110 C   0  0  0  0  0
  -22.3400  -63.3150  -15.0200 C   0  0  0  0  0
  -20.9250  -63.1280  -14.9500 O   0  0  0  0  0
  -22.7110  -63.2500  -16.5090 C   0  0  0  0  0
  -23.7410  -62.2780  -16.6950 O   0  0  0  0  0
  -21.4420  -62.7500  -17.1820 C   0  0  0  0  0
  -21.7570  -61.6900  -18.0980 O   0  0  0  0  0
  -20.6340  -62.2110  -16.0040 C   0  0  0  0  0
  -19.1810  -62.3150  -16.2630 N   0  0  0  0  0
  -17.2230  -63.1660  -16.6690 N   0  0  0  0  0
  -18.4420  -59.9800  -16.1780 N   0  0  0  0  0
  -16.1750  -59.6850  -16.5410 N   0  0  0  0  0
  -14.7850  -61.5070  -16.9390 N   0  0  0  0  0
  -17.5003  -58.1167  -16.1623 H   0  0  0  0  0
  -18.9421  -64.4473  -16.4918 H   0  0  0  0  0
  -21.6815  -62.3988   -6.0230 H   0  0  0  0  0
  -21.3708  -64.4242   -4.6173 H   0  0  0  0  0
  -20.8820  -66.3292   -4.1845 H   0  0  0  0  0
  -21.8886  -65.5884   -2.9161 H   0  0  0  0  0
  -21.6337  -67.3507   -2.9345 H   0  0  0  0  0
  -24.3540  -65.9472   -2.9077 H   0  0  0  0  0
  -25.1171  -66.9392   -4.1745 H   0  0  0  0  0
  -24.1019  -67.7099   -2.9309 H   0  0  0  0  0
  -23.7357  -67.9768   -5.9543 H   0  0  0  0  0
  -21.9710  -67.7396   -5.9751 H   0  0  0  0  0
  -22.7185  -68.7519   -4.7152 H   0  0  0  0  0
  -25.0295  -66.0659   -6.1847 H   0  0  0  0  0
  -25.9970  -60.7613   -9.0233 H   0  0  0  0  0
  -26.8970  -62.2278   -9.4063 H   0  0  0  0  0
  -24.0926  -61.9051  -10.4577 H   0  0  0  0  0
  -25.4696  -61.0598  -11.2748 H   0  0  0  0  0
  -26.5743  -63.3226  -11.2403 H   0  0  0  0  0
  -24.8046  -65.1393  -10.4387 H   0  0  0  0  0
  -23.6661  -64.1262  -10.4255 H   0  0  0  0  0
  -24.2455  -62.2898  -13.0899 H   0  0  0  0  0
  -25.5120  -62.9080  -13.6788 H   0  0  0  0  0
  -24.6941  -65.4077  -13.0983 H   0  0  0  0  0
  -22.5096  -63.6103  -12.7248 H   0  0  0  0  0
  -22.4323  -65.3945  -11.0906 H   0  0  0  0  0
  -23.2312  -67.2350  -12.4134 H   0  0  0  0  0
  -21.8675  -67.0576  -13.5448 H   0  0  0  0  0
  -21.5677  -67.5442  -11.8583 H   0  0  0  0  0
  -20.1950  -64.9959  -13.1257 H   0  0  0  0  0
  -20.5214  -63.9745  -11.7040 H   0  0  0  0  0
  -19.9881  -65.6595  -11.4862 H   0  0  0  0  0
  -23.5432  -65.1052  -14.8748 H   0  0  0  0  0
  -21.8103  -65.3658  -14.5872 H   0  0  0  0  0
  -22.9103  -62.5630  -14.4748 H   0  0  0  0  0
  -23.0614  -64.2049  -16.9008 H   0  0  0  0  0
  -23.9749  -62.2353  -17.6251 H   0  0  0  0  0
  -20.9176  -63.5124  -17.7581 H   0  0  0  0  0
  -20.9507  -61.3810  -18.5176 H   0  0  0  0  0
  -20.8775  -61.1682  -15.8005 H   0  0  0  0  0
  -14.6617  -62.5142  -17.0428 H   0  0  0  0  0
  -13.9823  -60.8834  -17.0239 H   0  0  0  0  0
 39  1  4  0  0  0
  1 40  4  0  0  0
  2  3  4  0  0  0
 37  2  4  0  0  0
  2 39  4  0  0  0
  3  4  4  0  0  0
 38  3  4  0  0  0
  4 40  4  0  0  0
  4 41  1  0  0  0
 37  5  4  0  0  0
  5 38  4  0  0  0
  6  7  4  0  0  0
 18  6  4  0  0  0
  7  8  4  0  0  0
 16  7  4  0  0  0
  8  9  4  0  0  0
 10  9  4  0  0  0
 10 11  1  0  0  0
 15 10  4  0  0  0
 11 12  1  0  0  0
 11 13  1  0  0  0
 11 14  1  0  0  0
 16 15  4  0  0  0
 17 16  4  0  0  0
 18 17  4  0  0  0
 19 18  1  0  0  0
 20 19  1  0  0  0
 21 20  1  0  0  0
 22 21  1  0  0  0
 23 21  1  0  0  0
 24 22  1  0  0  0
 24 23  1  0  0  0
 25 24  1  0  0  0
 25 26  1  0  0  0
 29 25  1  0  0  0
 26 27  1  0  0  0
 26 28  1  0  0  0
 30 29  1  0  0  0
 31 30  1  0  0  0
 32 30  1  0  0  0
 36 31  1  0  0  0
 32 33  1  0  0  0
 34 32  1  0  0  0
 34 35  1  0  0  0
 36 34  1  0  0  0
 36 37  1  0  0  0
  1 42  1  0  0  0
  5 43  1  0  0  0
  8 44  1  0  0  0
  9 45  1  0  0  0
 12 46  1  0  0  0
 12 47  1  0  0  0
 12 48  1  0  0  0
 13 49  1  0  0  0
 13 50  1  0  0  0
 13 51  1  0  0  0
 14 52  1  0  0  0
 14 53  1  0  0  0
 14 54  1  0  0  0
 15 55  1  0  0  0
 19 56  1  0  0  0
 19 57  1  0  0  0
 20 58  1  0  0  0
 20 59  1  0  0  0
 21 60  1  0  0  0
 22 61  1  0  0  0
 22 62  1  0  0  0
 23 63  1  0  0  0
 23 64  1  0  0  0
 24 65  1  0  0  0
 25 66  1  0  0  0
 26 67  1  0  0  0
 27 68  1  0  0  0
 27 69  1  0  0  0
 27 70  1  0  0  0
 28 71  1  0  0  0
 28 72  1  0  0  0
 28 73  1  0  0  0
 29 74  1  0  0  0
 29 75  1  0  0  0
 30 76  1  0  0  0
 32 77  1  0  0  0
 33 78  1  0  0  0
 34 79  1  0  0  0
 35 80  1  0  0  0
 36 81  1  0  0  0
 41 82  1  0  0  0
 41 83  1  0  0  0
M  END
$$$$
