3sl1_ligand
  -I-interpret- 

 30 29  0  0  0  0  0  0  0  0999 V2000
   41.9280  -15.2230   23.6890 B   0  0  0  0  0
   35.2820  -16.1330   24.3520 C   0  0  0  0  0
   35.8720  -17.7880   22.7720 N   0  3  0  0  0
   34.7300  -15.5970   23.3990 O   0  0  0  0  0
   35.9450  -17.5050   24.1900 C   0  0  0  0  0
   42.8610  -15.3310   24.6820 O   0  0  0  0  0
   39.6340  -16.2730   24.3710 C   0  0  0  0  0
   42.2900  -15.3360   22.3710 O   0  0  0  0  0
   40.3960  -15.0240   24.0920 C   0  0  0  0  0
   35.2510  -15.5350   25.5890 O   0  0  0  0  0
   37.3450  -17.3140   24.6960 C   0  0  0  0  0
   35.1270  -18.4310   25.0450 C   0  0  0  0  0
   38.1880  -16.2870   24.0240 C   0  0  0  0  0
   34.8960  -17.9054   22.4997 H   0  0  0  0  0
   36.2809  -17.0127   22.2503 H   0  0  0  0  0
   36.3878  -18.6446   22.5705 H   0  0  0  0  0
   42.4326  -15.2268   25.5348 H   0  0  0  0  0
   39.6777  -16.4082   25.4517 H   0  0  0  0  0
   40.0925  -17.0416   23.7488 H   0  0  0  0  0
   43.2413  -15.4494   22.3102 H   0  0  0  0  0
   39.9112  -14.5509   23.2381 H   0  0  0  0  0
   40.3926  -14.4472   25.0169 H   0  0  0  0  0
   35.7267  -16.0811   26.2192 H   0  0  0  0  0
   37.8500  -18.2646   24.5244 H   0  0  0  0  0
   37.2396  -16.9765   25.7271 H   0  0  0  0  0
   35.6031  -19.4111   25.0753 H   0  0  0  0  0
   35.0601  -18.0268   26.0551 H   0  0  0  0  0
   34.1265  -18.5246   24.6227 H   0  0  0  0  0
   38.1386  -16.5105   22.9583 H   0  0  0  0  0
   37.7947  -15.3219   24.3434 H   0  0  0  0  0
  1  6  1  0  0  0
  1  8  1  0  0  0
  9  1  1  0  0  0
  2  4  2  0  0  0
  5  2  1  0  0  0
  2 10  1  0  0  0
  5  3  1  0  0  0
 11  5  1  0  0  0
  5 12  1  0  0  0
  7  9  1  0  0  0
 13  7  1  0  0  0
 11 13  1  0  0  0
  3 14  1  0  0  0
  3 15  1  0  0  0
  3 16  1  0  0  0
  6 17  1  0  0  0
  7 18  1  0  0  0
  7 19  1  0  0  0
  8 20  1  0  0  0
  9 21  1  0  0  0
  9 22  1  0  0  0
 10 23  1  0  0  0
 11 24  1  0  0  0
 11 25  1  0  0  0
 12 26  1  0  0  0
 12 27  1  0  0  0
 12 28  1  0  0  0
 13 29  1  0  0  0
 13 30  1  0  0  0
M  END
$$$$
