### 
### Created by X-TOOL on Mon Sep 10 21:13:05 2018
### 

@<TRIPOS>MOLECULE
3sl1_ligand
   29    28     1     0     0
SMALL
GAST_HUCK


@<TRIPOS>ATOM
      1 B1         41.9280  -15.2230   23.6890 B         1 FB6         3.0000
      2 C1         35.2820  -16.1330   24.3520 C.2       1 FB6         0.0957
      3 N1         35.8720  -17.7880   22.7720 N.4       1 FB6         0.2227
      4 O1         34.7300  -15.5970   23.3990 O.co2     1 FB6        -0.5422
      5 C2         35.9450  -17.5050   24.1900 C.3       1 FB6         0.0295
      6 O2         42.8610  -15.3310   24.6820 O.3       1 FB6        -0.8710
      7 C3         39.6340  -16.2730   24.3710 C.3       1 FB6        -0.1826
      8 O3         42.2900  -15.3360   22.3710 O.3       1 FB6        -0.8710
      9 C4         40.3960  -15.0240   24.0920 C.3       1 FB6        -0.3457
     10 O4         35.2510  -15.5350   25.5890 O.co2     1 FB6        -0.5422
     11 C5         37.3450  -17.3140   24.6960 C.3       1 FB6        -0.0042
     12 C6         35.1270  -18.4310   25.0450 C.3       1 FB6        -0.0136
     13 C7         38.1880  -16.2870   24.0240 C.3       1 FB6        -0.0754
     14 H          34.8960  -17.9054   22.4997 H         1 FB6         0.1999
     15 H          36.2809  -17.0127   22.2503 H         1 FB6         0.1999
     16 H          36.3878  -18.6446   22.5705 H         1 FB6         0.1999
     17 H          43.2778  -16.1946   24.6354 H         1 FB6        -0.1290
     18 H          39.6777  -16.4082   25.4517 H         1 FB6        -0.0084
     19 H          40.0925  -17.0416   23.7488 H         1 FB6        -0.0084
     20 H          42.9289  -14.6525   22.1561 H         1 FB6        -0.1290
     21 H          39.9112  -14.5509   23.2381 H         1 FB6        -0.2101
     22 H          40.3926  -14.4472   25.0169 H         1 FB6        -0.2101
     23 H          37.8500  -18.2646   24.5244 H         1 FB6         0.0315
     24 H          37.2396  -16.9765   25.7271 H         1 FB6         0.0315
     25 H          35.6031  -19.4111   25.0753 H         1 FB6         0.0280
     26 H          35.0601  -18.0268   26.0551 H         1 FB6         0.0280
     27 H          34.1265  -18.5246   24.6227 H         1 FB6         0.0280
     28 H          38.1386  -16.5105   22.9583 H         1 FB6         0.0242
     29 H          37.7947  -15.3219   24.3434 H         1 FB6         0.0242
@<TRIPOS>BOND
     1    1    6 1  
     2    1    8 1  
     3    9    1 1  
     4    2    4 ar 
     5    5    2 1  
     6    2   10 ar 
     7    5    3 1  
     8   11    5 1  
     9    5   12 1  
    10    7    9 1  
    11   13    7 1  
    12   11   13 1  
    13    3   14 1  
    14    3   15 1  
    15    3   16 1  
    16    6   17 1  
    17    7   18 1  
    18    7   19 1  
    19    8   20 1  
    20    9   21 1  
    21    9   22 1  
    22   11   23 1  
    23   11   24 1  
    24   12   25 1  
    25   12   26 1  
    26   12   27 1  
    27   13   28 1  
    28   13   29 1  
@<TRIPOS>SUBSTRUCTURE
     1 FB6         1

