4h1e_ligand
  -I-interpret- 

 54 58  0  0  0  0  0  0  0  0999 V2000
   21.2890   10.4510   21.3730 C   0  0  0  0  0
   20.6780   11.7260   22.0090 C   0  0  0  0  0
   22.4000   11.3990   23.8450 N   0  0  0  0  0
   22.3550   10.0100   23.6130 C   0  0  0  0  0
   21.5860   12.3130   23.1020 C   0  0  0  0  0
   21.6710    9.5780   22.4710 N   0  0  0  0  0
   18.9010   10.3740   21.4430 N   0  0  0  0  0
   22.4340   10.7420   20.4360 C   0  0  0  0  0
   20.0420    9.8310   20.6890 C   0  0  0  0  0
   17.6260    9.8650   21.2580 C   0  0  0  0  0
   19.3400   11.2520   22.5220 C   0  0  0  0  0
   23.7820   10.5090   20.6280 C   0  0  0  0  0
   24.6180   10.9170   19.5580 C   0  0  0  0  0
   22.2100   11.4320   18.8810 S   0  0  0  0  0
   23.8680   11.4350   18.5130 C   0  0  0  0  0
   28.1540   10.3130   20.6990 C   0  0  0  0  0
   16.6140   10.1430   22.2860 C   0  0  0  0  0
   26.0600   10.7850   19.5220 C   0  0  0  0  0
   29.3610    9.7120   22.8720 N   0  0  0  0  0
   28.8210    9.9810   21.8990 C   0  0  0  0  0
   22.8030    9.1180   24.4450 N   0  0  0  0  0
   26.7480   10.4420   20.7190 C   0  0  0  0  0
   21.5390   13.5390   23.2410 O   0  0  0  0  0
   28.8860   10.4860   19.5030 C   0  0  0  0  0
   17.3020    9.2510   20.2320 O   0  0  0  0  0
   16.7120    9.6640   23.6340 C   0  0  0  0  0
   26.8120   10.9480   18.3090 C   0  0  0  0  0
   28.2100   10.7880   18.2930 C   0  0  0  0  0
   23.2970   11.9490   24.9150 C   0  0  0  0  0
   15.6840    9.9910   24.5510 C   0  0  0  0  0
   15.4970   10.9560   21.8370 C   0  0  0  0  0
   14.4800   11.2520   22.7490 C   0  0  0  0  0
   14.5640   10.7600   24.1080 C   0  0  0  0  0
   20.5704   12.5529   21.3071 H   0  0  0  0  0
   21.4255    8.5902   22.4050 H   0  0  0  0  0
   20.0640    8.7414   20.7091 H   0  0  0  0  0
   19.9891   10.0828   19.6298 H   0  0  0  0  0
   18.6434   12.0639   22.7310 H   0  0  0  0  0
   19.3984   10.7539   23.4898 H   0  0  0  0  0
   24.1735   10.0463   21.5339 H   0  0  0  0  0
   24.2888   11.7978   17.5752 H   0  0  0  0  0
   23.2189    9.4091   25.3297 H   0  0  0  0  0
   26.1944   10.2801   21.6439 H   0  0  0  0  0
   29.9715   10.3873   19.5101 H   0  0  0  0  0
   17.5628    9.0589   23.9472 H   0  0  0  0  0
   26.2909   11.1999   17.3853 H   0  0  0  0  0
   28.7667   10.8948   17.3620 H   0  0  0  0  0
   23.0112   11.5279   25.8789 H   0  0  0  0  0
   24.3305   11.6832   24.6930 H   0  0  0  0  0
   23.1985   13.0341   24.9476 H   0  0  0  0  0
   15.7464    9.6586   25.5872 H   0  0  0  0  0
   15.4530   11.3265   20.8129 H   0  0  0  0  0
   13.6251   11.8522   22.4376 H   0  0  0  0  0
   13.7572   10.9805   24.8069 H   0  0  0  0  0
  1  2  1  0  0  0
  1  6  1  0  0  0
  8  1  1  0  0  0
  1  9  1  0  0  0
  2  5  1  0  0  0
  2 11  1  0  0  0
  4  3  4  0  0  0
  5  3  1  0  0  0
  3 29  1  0  0  0
  6  4  1  0  0  0
  4 21  2  0  0  0
  5 23  2  0  0  0
  9  7  1  0  0  0
  7 10  1  0  0  0
  7 11  1  0  0  0
 12  8  4  0  0  0
 14  8  4  0  0  0
 10 17  1  0  0  0
 10 25  2  0  0  0
 13 12  4  0  0  0
 13 15  4  0  0  0
 18 13  1  0  0  0
 15 14  4  0  0  0
 16 20  1  0  0  0
 22 16  4  0  0  0
 16 24  4  0  0  0
 17 26  4  0  0  0
 17 31  4  0  0  0
 18 22  4  0  0  0
 18 27  4  0  0  0
 20 19  3  0  0  0
 24 28  4  0  0  0
 26 30  4  0  0  0
 27 28  4  0  0  0
 30 33  4  0  0  0
 31 32  4  0  0  0
 32 33  4  0  0  0
  2 34  1  0  0  0
  6 35  1  0  0  0
  9 36  1  0  0  0
  9 37  1  0  0  0
 11 38  1  0  0  0
 11 39  1  0  0  0
 12 40  1  0  0  0
 15 41  1  0  0  0
 21 42  1  0  0  0
 22 43  1  0  0  0
 24 44  1  0  0  0
 26 45  1  0  0  0
 27 46  1  0  0  0
 28 47  1  0  0  0
 29 48  1  0  0  0
 29 49  1  0  0  0
 29 50  1  0  0  0
 30 51  1  0  0  0
 31 52  1  0  0  0
 32 53  1  0  0  0
 33 54  1  0  0  0
M  END
$$$$
