4zzy_ligand
  -I-interpret- 

 53 56  0  0  0  0  0  0  0  0999 V2000
   21.2570  -29.4540    7.6200 C   0  0  0  0  0
   20.1070  -30.0100    8.5140 C   0  0  0  0  0
   18.6810  -29.7450    7.9260 C   0  0  0  0  0
   17.7050  -30.1520    8.6670 F   0  0  0  0  0
   18.4160  -30.3980    6.8590 F   0  0  0  0  0
   18.5110  -28.2900    7.5070 C   0  0  0  0  0
   19.6470  -27.8200    6.5800 C   0  0  0  0  0
   20.9660  -27.9390    7.3760 C   0  0  0  0  0
   22.0620  -27.1500    6.7560 N   0  3  0  0  0
   22.2570  -27.2680    5.2740 C   0  0  0  0  0
   23.4980  -26.4740    4.7950 C   0  0  0  0  0
   21.9110  -25.7550    7.1810 C   0  0  0  0  0
   23.1540  -25.0180    6.8950 C   0  0  0  0  0
   23.4260  -25.0170    5.4010 C   0  0  0  0  0
   24.6880  -24.3310    5.1590 N   0  0  0  0  0
   25.9330  -24.3600    5.9540 C   0  0  0  0  0
   24.9560  -23.6270    4.0790 C   0  0  0  0  0
   24.0400  -23.4190    3.2990 O   0  0  0  0  0
   26.2070  -23.0530    4.0740 C   0  0  0  0  0
   26.8010  -23.4860    5.2360 C   0  0  0  0  0
   28.0500  -23.1060    5.5820 C   0  0  0  0  0
   28.7790  -22.2470    4.7730 C   0  0  0  0  0
   30.0470  -21.9090    5.1640 F   0  0  0  0  0
   28.2190  -21.7760    3.5720 C   0  0  0  0  0
   26.9040  -22.1800    3.2220 C   0  0  0  0  0
   26.4380  -21.6560    1.9810 C   0  0  0  0  0
   27.1910  -20.9540    1.2710 O   0  0  0  0  0
   25.2310  -22.0420    1.5590 N   0  0  0  0  0
   21.3001  -29.9926    6.6733 H   0  0  0  0  0
   22.2209  -29.5840    8.1119 H   0  0  0  0  0
   20.1650  -29.5035    9.4774 H   0  0  0  0  0
   20.2382  -31.0897    8.5851 H   0  0  0  0  0
   18.5267  -27.6727    8.4052 H   0  0  0  0  0
   17.5695  -28.1992    6.9653 H   0  0  0  0  0
   19.4820  -26.7903    6.2627 H   0  0  0  0  0
   19.6857  -28.4330    5.6795 H   0  0  0  0  0
   20.8769  -27.4798    8.3605 H   0  0  0  0  0
   22.9277  -27.5665    7.0987 H   0  0  0  0  0
   21.3760  -26.8607    4.7780 H   0  0  0  0  0
   22.4066  -28.3197    5.0297 H   0  0  0  0  0
   23.5099  -26.4238    3.7062 H   0  0  0  0  0
   24.4090  -26.9709    5.1286 H   0  0  0  0  0
   21.7062  -25.7210    8.2510 H   0  0  0  0  0
   21.0838  -25.2972    6.6386 H   0  0  0  0  0
   23.9840  -25.5017    7.4100 H   0  0  0  0  0
   23.0485  -23.9897    7.2407 H   0  0  0  0  0
   22.5976  -24.5060    4.9103 H   0  0  0  0  0
   26.3415  -25.3652    6.0575 H   0  0  0  0  0
   25.7794  -24.0443    6.9859 H   0  0  0  0  0
   28.4899  -23.4785    6.5071 H   0  0  0  0  0
   28.7858  -21.1112    2.9202 H   0  0  0  0  0
   24.9010  -21.7642    0.6347 H   0  0  0  0  0
   24.6393  -22.6145    2.1610 H   0  0  0  0  0
  1  2  1  0  0  0
  1  8  1  0  0  0
  2  3  1  0  0  0
  3  4  1  0  0  0
  3  5  1  0  0  0
  3  6  1  0  0  0
  6  7  1  0  0  0
  7  8  1  0  0  0
  8  9  1  0  0  0
  9 10  1  0  0  0
  9 12  1  0  0  0
 10 11  1  0  0  0
 11 14  1  0  0  0
 12 13  1  0  0  0
 13 14  1  0  0  0
 14 15  1  0  0  0
 15 16  1  0  0  0
 15 17  1  0  0  0
 16 20  1  0  0  0
 17 18  2  0  0  0
 17 19  1  0  0  0
 19 20  4  0  0  0
 19 25  4  0  0  0
 20 21  4  0  0  0
 21 22  4  0  0  0
 22 23  1  0  0  0
 22 24  4  0  0  0
 24 25  4  0  0  0
 25 26  1  0  0  0
 26 27  2  0  0  0
 26 28  1  0  0  0
  1 29  1  0  0  0
  1 30  1  0  0  0
  2 31  1  0  0  0
  2 32  1  0  0  0
  6 33  1  0  0  0
  6 34  1  0  0  0
  7 35  1  0  0  0
  7 36  1  0  0  0
  8 37  1  0  0  0
  9 38  1  0  0  0
 10 39  1  0  0  0
 10 40  1  0  0  0
 11 41  1  0  0  0
 11 42  1  0  0  0
 12 43  1  0  0  0
 12 44  1  0  0  0
 13 45  1  0  0  0
 13 46  1  0  0  0
 14 47  1  0  0  0
 16 48  1  0  0  0
 16 49  1  0  0  0
 21 50  1  0  0  0
 24 51  1  0  0  0
 28 52  1  0  0  0
 28 53  1  0  0  0
M  END
$$$$
