5km0_ligand
  -I-interpret- 

 36 38  0  0  0  0  0  0  0  0999 V2000
   58.6290   30.0920   24.7830 P   0  0  0  0  0
   57.5600   29.4880   23.9040 O   0  0  0  0  0
   58.8870   29.3160   26.0570 O   0  0  0  0  0
   58.5210   31.5790   25.0000 O   0  0  0  0  0
   59.9740   29.9220   23.9530 O   0  0  0  0  0
   61.2110   30.3820   24.4850 C   0  0  0  0  0
   61.6090   31.7080   23.8930 C   0  0  0  0  0
   62.8920   32.0980   24.4580 O   0  0  0  0  0
   61.7970   31.6930   22.3720 C   0  0  0  0  0
   61.3440   32.9280   21.8100 O   0  0  0  0  0
   63.3130   31.5670   22.2200 C   0  0  0  0  0
   63.8430   32.0640   21.0100 O   0  0  0  0  0
   63.8080   32.3660   23.4170 C   0  0  0  0  0
   65.1500   31.9860   23.8590 N   0  0  0  0  0
   65.5940   30.7460   24.1340 C   0  0  0  0  0
   66.9050   30.7670   24.5020 N   0  0  0  0  0
   67.3170   32.0460   24.4620 C   0  0  0  0  0
   68.5740   32.7790   24.7250 C   0  0  0  0  0
   69.6040   32.1640   25.0900 O   0  0  0  0  0
   68.5660   34.1120   24.5630 N   0  0  0  0  0
   67.4600   34.7760   24.1630 C   0  0  0  0  0
   66.2810   34.1820   23.8940 N   0  0  0  0  0
   66.1500   32.8430   24.0300 C   0  0  0  0  0
   57.7095   28.5431   23.8236 H   0  0  0  0  0
   58.9453   28.3796   25.8537 H   0  0  0  0  0
   61.9830   29.6512   24.2439 H   0  0  0  0  0
   61.0985   30.5052   25.5621 H   0  0  0  0  0
   60.7940   32.3935   24.1253 H   0  0  0  0  0
   61.2429   30.8997   21.8703 H   0  0  0  0  0
   61.4658   32.9088   20.8580 H   0  0  0  0  0
   63.6291   30.5243   22.1889 H   0  0  0  0  0
   64.7953   31.9424   21.0052 H   0  0  0  0  0
   63.8692   33.4194   23.1438 H   0  0  0  0  0
   64.9851   29.8442   24.0706 H   0  0  0  0  0
   67.5252   35.8583   24.0510 H   0  0  0  0  0
   65.4862   34.7430   23.5874 H   0  0  0  0  0
  1  2  1  0  0  0
  1  3  1  0  0  0
  1  4  2  0  0  0
  1  5  1  0  0  0
  5  6  1  0  0  0
  6  7  1  0  0  0
  7  8  1  0  0  0
  7  9  1  0  0  0
  8 13  1  0  0  0
  9 10  1  0  0  0
  9 11  1  0  0  0
 11 12  1  0  0  0
 11 13  1  0  0  0
 13 14  1  0  0  0
 14 15  4  0  0  0
 14 23  4  0  0  0
 15 16  4  0  0  0
 16 17  4  0  0  0
 17 18  1  0  0  0
 17 23  4  0  0  0
 18 19  2  0  0  0
 18 20  1  0  0  0
 20 21  2  0  0  0
 21 22  1  0  0  0
 22 23  1  0  0  0
  2 24  1  0  0  0
  3 25  1  0  0  0
  6 26  1  0  0  0
  6 27  1  0  0  0
  7 28  1  0  0  0
  9 29  1  0  0  0
 10 30  1  0  0  0
 11 31  1  0  0  0
 12 32  1  0  0  0
 13 33  1  0  0  0
 15 34  1  0  0  0
 21 35  1  0  0  0
 22 36  1  0  0  0
M  END
$$$$
