### 
### Created by X-TOOL on Mon Sep 10 21:13:32 2018
### 

@<TRIPOS>MOLECULE
5km0_ligand
   34    36     1     0     0
SMALL
GAST_HUCK


@<TRIPOS>ATOM
      1 P          58.6290   30.0920   24.7830 P.3       1 IMP         0.2008
      2 O1P        57.5600   29.4880   23.9040 O.co2     1 IMP        -0.5537
      3 O2P        58.8870   29.3160   26.0570 O.co2     1 IMP        -0.5537
      4 O3P        58.5210   31.5790   25.0000 O.co2     1 IMP        -0.5537
      5 O5'        59.9740   29.9220   23.9530 O.3       1 IMP        -0.2734
      6 C5'        61.2110   30.3820   24.4850 C.3       1 IMP         0.1072
      7 C4'        61.6090   31.7080   23.8930 C.3       1 IMP         0.1182
      8 O4'        62.8920   32.0980   24.4580 O.3       1 IMP        -0.3360
      9 C3'        61.7970   31.6930   22.3720 C.3       1 IMP         0.1149
     10 O3'        61.3440   32.9280   21.8100 O.3       1 IMP        -0.3864
     11 C2'        63.3130   31.5670   22.2200 C.3       1 IMP         0.1390
     12 O2'        63.8430   32.0640   21.0100 O.3       1 IMP        -0.3835
     13 C1'        63.8080   32.3660   23.4170 C.3       1 IMP         0.2027
     14 N9         65.1500   31.9860   23.8590 N.pl3     1 IMP        -0.1837
     15 C8         65.5940   30.7460   24.1340 C.2       1 IMP         0.0991
     16 N7         66.9050   30.7670   24.5020 N.2       1 IMP        -0.3232
     17 C5         67.3170   32.0460   24.4620 C.2       1 IMP         0.1016
     18 C6         68.5740   32.7790   24.7250 C.2       1 IMP         0.1461
     19 O6         69.6040   32.1640   25.0900 O.2       1 IMP        -0.4217
     20 N1         68.5660   34.1120   24.5630 N.2       1 IMP        -0.2575
     21 C2         67.4600   34.7760   24.1630 C.2       1 IMP         0.1280
     22 N3         66.2810   34.1820   23.8940 N.pl3     1 IMP        -0.2068
     23 C4         66.1500   32.8430   24.0300 C.2       1 IMP         0.2141
     24 H1         61.9933   29.6418   24.2613 H         1 IMP         0.0639
     25 H2         61.1119   30.4928   25.5749 H         1 IMP         0.0639
     26 H3         60.8395   32.4507   24.1504 H         1 IMP         0.0650
     27 H4         61.2706   30.8473   21.9054 H         1 IMP         0.0648
     28 H5         61.8447   33.6455   22.1800 H         1 IMP         0.2100
     29 H6         63.6096   30.5116   22.3102 H         1 IMP         0.0677
     30 H7         63.6403   32.9889   20.9331 H         1 IMP         0.2101
     31 H8         63.8055   33.4377   23.1692 H         1 IMP         0.1002
     32 H9         64.9856   29.8450   24.0707 H         1 IMP         0.1177
     33 H10        67.5251   35.8573   24.0511 H         1 IMP         0.1570
     34 H11        65.4784   34.7485   23.5844 H         1 IMP         0.2411
@<TRIPOS>BOND
     1    1    2 ar 
     2    1    3 ar 
     3    1    4 ar 
     4    1    5 1  
     5    5    6 1  
     6    6    7 1  
     7    7    8 1  
     8    7    9 1  
     9    8   13 1  
    10    9   10 1  
    11    9   11 1  
    12   11   12 1  
    13   11   13 1  
    14   13   14 1  
    15   14   15 1  
    16   14   23 1  
    17   15   16 2  
    18   16   17 1  
    19   17   18 1  
    20   17   23 2  
    21   18   19 2  
    22   18   20 1  
    23   20   21 2  
    24   21   22 1  
    25   22   23 1  
    26    6   24 1  
    27    6   25 1  
    28    7   26 1  
    29    9   27 1  
    30   10   28 1  
    31   11   29 1  
    32   12   30 1  
    33   13   31 1  
    34   15   32 1  
    35   21   33 1  
    36   22   34 1  
@<TRIPOS>SUBSTRUCTURE
     1 IMP         1

