4k5z_ligand
  -I-interpret- 

 17 18  0  0  0  0  0  0  0  0999 V2000
   60.1760   59.7810    1.0130 O   0  0  0  0  0
   60.7710   60.6480    0.3850 C   0  0  0  0  0
   60.6800   61.9900    0.5660 N   0  0  0  0  0
   61.5630   62.6650   -0.4020 C   0  0  0  0  0
   61.7110   60.3480   -0.7010 C   0  0  0  0  0
   62.1290   59.1300   -1.2410 C   0  0  0  0  0
   63.0440   59.1440   -2.2740 C   0  0  0  0  0
   63.5750   57.6260   -2.9510 Cl  0  0  0  0  0
   62.2120   61.5580   -1.2010 C   0  0  0  0  0
   63.1250   61.5560   -2.2330 C   0  0  0  0  0
   63.5410   60.3480   -2.7680 C   0  0  0  0  0
   60.0952   62.4560    1.2597 H   0  0  0  0  0
   62.3073   63.2824    0.1009 H   0  0  0  0  0
   61.0037   63.3450   -1.0446 H   0  0  0  0  0
   61.7406   58.1877   -0.8546 H   0  0  0  0  0
   63.5158   62.4953   -2.6243 H   0  0  0  0  0
   64.2642   60.3394   -3.5834 H   0  0  0  0  0
  1  2  2  0  0  0
  2  3  1  0  0  0
  2  5  1  0  0  0
  3  4  1  0  0  0
  4  9  1  0  0  0
  5  6  4  0  0  0
  5  9  4  0  0  0
  6  7  4  0  0  0
  7  8  1  0  0  0
  7 11  4  0  0  0
  9 10  4  0  0  0
 10 11  4  0  0  0
  3 12  1  0  0  0
  4 13  1  0  0  0
  4 14  1  0  0  0
  6 15  1  0  0  0
 10 16  1  0  0  0
 11 17  1  0  0  0
M  END
$$$$
