5znr_ligand
  -I-interpret- 

235235  0  0  0  0  0  0  0  0999 V2000
  -14.0660    3.4250  -34.1010 N   0  3  0  0  0
  -12.7120    2.8890  -34.1050 C   0  0  0  0  0
  -11.8040    4.0320  -33.7760 C   0  0  0  0  0
  -12.0360    5.1270  -34.2460 O   0  0  0  0  0
  -12.3750    2.3120  -35.4700 C   0  0  0  0  0
  -10.7650    3.7970  -32.9850 N   0  0  0  0  0
  -10.0220    4.9170  -32.4540 C   0  0  0  0  0
   -9.4550    5.6430  -33.6370 C   0  0  0  0  0
   -8.7460    5.0780  -34.4430 O   0  0  0  0  0
   -8.8800    4.4590  -31.5370 C   0  0  0  0  0
   -8.9800    3.0550  -31.3180 O   0  0  0  0  0
   -8.9870    5.1170  -30.2280 C   0  0  0  0  0
   -9.7940    6.9120  -33.7280 N   0  0  0  0  0
   -9.3560    7.7240  -34.8170 C   0  0  0  0  0
   -8.0150    8.0790  -34.3190 C   0  0  0  0  0
   -7.7280    7.8020  -33.1890 O   0  0  0  0  0
  -10.2410    8.9450  -34.9630 C   0  0  0  0  0
  -10.6790    9.2090  -36.3910 C   0  0  0  0  0
  -11.1480   10.6430  -36.5730 C   0  0  0  0  0
  -11.2530   11.0300  -38.0420 C   0  0  0  0  0
  -10.5010   12.2720  -38.3930 N   0  3  0  0  0
   -7.1680    8.6320  -35.1560 N   0  0  0  0  0
   -5.8860    9.0740  -34.7060 C   0  0  0  0  0
   -5.9570   10.5490  -34.5320 C   0  0  0  0  0
   -6.6010   11.2280  -35.2830 O   0  0  0  0  0
   -4.8520    8.7300  -35.7310 C   0  0  0  0  0
   -5.2700   11.0520  -33.5380 N   0  0  0  0  0
   -5.2910   12.4650  -33.2740 C   0  0  0  0  0
   -4.3160   13.2200  -34.1540 C   0  0  0  0  0
   -3.1830   12.8290  -34.3150 O   0  0  0  0  0
   -4.9630   12.7070  -31.8290 C   0  0  0  0  0
   -4.7590   14.3210  -34.7150 N   0  0  0  0  0
   -3.8850   15.1600  -35.4800 C   0  0  0  0  0
   -3.8610   16.4240  -34.6950 C   0  0  0  0  0
   -4.8900   16.9380  -34.2990 O   0  0  0  0  0
   -4.4260   15.3880  -36.8810 C   0  0  0  0  0
   -3.4100   15.2050  -37.9950 C   0  0  0  0  0
   -3.1110   16.5160  -38.6980 C   0  0  0  0  0
   -2.0010   16.3980  -39.6390 N   0  0  0  0  0
   -2.0810   16.6730  -40.9360 C   0  0  0  0  0
   -1.0170   16.5410  -41.7040 N   0  0  0  0  0
   -3.2230   17.0850  -41.4660 N   0  0  0  0  0
   -2.6680   16.9060  -34.4330 N   0  0  0  0  0
   -2.5100   18.0170  -33.5900 C   0  0  0  0  0
   -1.2880   17.6750  -32.7890 C   0  0  0  0  0
   -1.6340   17.3380  -31.3680 C   0  0  0  0  0
   -0.5420   17.8790  -30.4990 C   0  0  0  0  0
   -0.2820   16.9010  -29.3950 C   0  0  0  0  0
    0.7220   17.3320  -28.4800 N   0  3  0  0  0
   -2.2200   19.0720  -34.5470 C   0  0  0  0  0
   -1.9400   18.7570  -35.6730 O   0  0  0  0  0
    0.3360   18.5730  -27.8770 C   0  0  0  0  0
    1.9610   17.4930  -29.1860 C   0  0  0  0  0
    0.8640   16.3250  -27.4710 C   0  0  0  0  0
   -2.3130   20.3090  -34.1380 N   0  0  0  0  0
   -1.9440   21.4770  -34.9270 C   0  0  0  0  0
   -0.5230   21.8930  -34.6220 C   0  0  0  0  0
    0.2320   21.1650  -33.9770 O   0  0  0  0  0
   -2.8730   22.6540  -34.6600 C   0  0  0  0  0
   -2.8810   22.9880  -33.2810 O   0  0  0  0  0
   -0.1710   23.0800  -35.0930 N   0  0  0  0  0
    1.1130   23.6770  -34.7850 C   0  0  0  0  0
    0.9110   24.7790  -33.7570 C   0  0  0  0  0
   -0.0880   25.4970  -33.8050 O   0  0  0  0  0
    1.7670   24.2230  -36.0420 C   0  0  0  0  0
    1.8520   24.9010  -32.8120 N   0  0  0  0  0
    1.8010   25.9330  -31.7730 C   0  0  0  0  0
    1.6570   27.3320  -32.3630 C   0  0  0  0  0
    2.3560   27.6670  -33.3200 O   0  0  0  0  0
    3.1450   25.7750  -31.0580 C   0  0  0  0  0
    3.5220   24.3550  -31.2850 C   0  0  0  0  0
    3.0210   24.0190  -32.6570 C   0  0  0  0  0
    0.7460   28.1200  -31.7970 N   0  0  0  0  0
    0.5080   29.4950  -32.2270 C   0  0  0  0  0
    0.1180   29.5780  -33.6990 C   0  0  0  0  0
    0.7890   30.2360  -34.4940 O   0  0  0  0  0
    1.7350   30.3580  -31.9550 C   0  0  0  0  0
   -0.9650   28.8970  -34.0540 N   0  0  0  0  0
   -1.5440   29.0060  -35.3870 C   0  0  0  0  0
   -3.0540   29.1610  -35.2570 C   0  0  0  0  0
   -3.6220   28.8480  -34.2110 O   0  0  0  0  0
   -1.2200   27.7820  -36.2650 C   0  0  0  0  0
   -1.6890   26.5910  -35.6220 O   0  0  0  0  0
    0.2800   27.6710  -36.5020 C   0  0  0  0  0
   -3.7060   29.6290  -36.3170 N   0  0  0  0  0
   -5.1360   29.8790  -36.2650 C   0  0  0  0  0
   -5.9310   29.3400  -37.4390 C   0  0  0  0  0
   -5.3760   29.0250  -38.4930 O   0  0  0  0  0
   -7.2420   29.2310  -37.2460 N   0  0  0  0  0
   -8.1480   28.8170  -38.3000 C   0  0  0  0  0
   -8.7440   30.0220  -39.0020 C   0  0  0  0  0
   -9.4240   30.8400  -38.3820 O   0  0  0  0  0
   -8.4860   30.1260  -40.3010 N   0  0  0  0  0
   -8.8880   31.2870  -41.0910 C   0  0  0  0  0
  -10.4100   31.4370  -41.1780 C   0  0  0  0  0
  -10.9310   32.5550  -41.1970 O   0  0  0  0  0
   -8.2860   31.2050  -42.5160 C   0  0  0  0  0
   -8.9450   32.2020  -43.4600 C   0  0  0  0  0
   -6.7800   31.4180  -42.4650 C   0  0  0  0  0
  -11.1180   30.3100  -41.2000 N   0  0  0  0  0
  -12.5730   30.3020  -41.3630 C   0  0  0  0  0
  -13.3070   31.1400  -40.3130 C   0  0  0  0  0
  -12.7350   31.5310  -39.2950 O   0  0  0  0  0
  -13.1000   28.8640  -41.3220 C   0  0  0  0  0
  -12.4170   27.9160  -42.2960 C   0  0  0  0  0
  -12.5370   28.4060  -43.7300 C   0  0  0  0  0
  -12.4360   27.2530  -44.7180 C   0  0  0  0  0
  -11.0860   26.6260  -44.7160 N   0  3  0  0  0
  -14.4910   31.4480  -40.4560 O   0  0  0  0  0
  -14.2761    3.8078  -33.1792 H   0  0  0  0  0
  -14.1405    4.1624  -34.8017 H   0  0  0  0  0
  -14.7264    2.6789  -34.3193 H   0  0  0  0  0
  -12.6034    2.0821  -33.3803 H   0  0  0  0  0
  -12.4918    3.0856  -36.2289 H   0  0  0  0  0
  -11.3449    1.9556  -35.4681 H   0  0  0  0  0
  -13.0475    1.4824  -35.6885 H   0  0  0  0  0
  -10.4949    2.8406  -32.7553 H   0  0  0  0  0
  -10.6754    5.5500  -31.8536 H   0  0  0  0  0
   -7.9337    4.7141  -32.0140 H   0  0  0  0  0
   -8.2650    2.7700  -30.7443 H   0  0  0  0  0
   -9.9468    4.8683  -29.7752 H   0  0  0  0  0
   -8.1791    4.7725  -29.5825 H   0  0  0  0  0
   -8.9142    6.1967  -30.3585 H   0  0  0  0  0
  -10.3828    7.3240  -33.0041 H   0  0  0  0  0
   -9.3744    7.2558  -35.8012 H   0  0  0  0  0
   -9.6639    9.8087  -34.6328 H   0  0  0  0  0
  -11.1400    8.7700  -34.3721 H   0  0  0  0  0
  -11.5080    8.5418  -36.6270 H   0  0  0  0  0
   -9.8284    9.0374  -37.0506 H   0  0  0  0  0
  -10.4197   11.3013  -36.0995 H   0  0  0  0  0
  -12.1376   10.7362  -36.1256 H   0  0  0  0  0
  -12.3057   11.2161  -38.2548 H   0  0  0  0  0
  -10.8242   10.2146  -38.6246 H   0  0  0  0  0
  -10.6164   12.4684  -39.3872 H   0  0  0  0  0
  -10.8634   13.0533  -37.8466 H   0  0  0  0  0
   -9.5115   12.1394  -38.1840 H   0  0  0  0  0
   -7.4274    8.7470  -36.1357 H   0  0  0  0  0
   -5.6159    8.5923  -33.7663 H   0  0  0  0  0
   -4.8336    7.6502  -35.8785 H   0  0  0  0  0
   -5.0972    9.2224  -36.6720 H   0  0  0  0  0
   -3.8745    9.0676  -35.3867 H   0  0  0  0  0
   -4.7144   10.4356  -32.9450 H   0  0  0  0  0
   -6.2915   12.8340  -33.4999 H   0  0  0  0  0
   -5.7014   12.2077  -31.2016 H   0  0  0  0  0
   -3.9715   12.3100  -31.6114 H   0  0  0  0  0
   -4.9789   13.7783  -31.6286 H   0  0  0  0  0
   -5.7387   14.5828  -34.6048 H   0  0  0  0  0
   -2.8946   14.7285  -35.6250 H   0  0  0  0  0
   -4.7608   16.4244  -36.9257 H   0  0  0  0  0
   -5.2086   14.6466  -37.0421 H   0  0  0  0  0
   -3.8211   14.5082  -38.7254 H   0  0  0  0  0
   -2.4845   14.8287  -37.5591 H   0  0  0  0  0
   -2.8369   17.2512  -37.9414 H   0  0  0  0  0
   -3.9991   16.8107  -39.2571 H   0  0  0  0  0
   -1.1018   16.0825  -39.2752 H   0  0  0  0  0
   -0.1334   16.2279  -41.3019 H   0  0  0  0  0
   -3.2755   17.2979  -42.4622 H   0  0  0  0  0
   -4.0499   17.1893  -40.8779 H   0  0  0  0  0
   -1.8456   16.4674  -34.8474 H   0  0  0  0  0
   -3.3331   18.2852  -32.9277 H   0  0  0  0  0
   -0.6255   18.5405  -32.7857 H   0  0  0  0  0
   -0.8116   16.8058  -33.2425 H   0  0  0  0  0
   -1.7218   16.2588  -31.2426 H   0  0  0  0  0
   -2.5927   17.7785  -31.0942 H   0  0  0  0  0
   -0.8418   18.8399  -30.0809 H   0  0  0  0  0
    0.3638   18.0238  -31.0878 H   0  0  0  0  0
    0.0667   15.9751  -29.8524 H   0  0  0  0  0
   -1.2093   16.7855  -28.8340 H   0  0  0  0  0
    0.2089   19.3283  -28.6525 H   0  0  0  0  0
   -0.6039   18.4385  -27.3416 H   0  0  0  0  0
    1.1103   18.8930  -27.1797 H   0  0  0  0  0
    2.2517   16.5405  -29.6291 H   0  0  0  0  0
    1.8357   18.2376  -29.9721 H   0  0  0  0  0
    2.7334   17.8227  -28.4912 H   0  0  0  0  0
   -0.0864   16.1944  -26.9535 H   0  0  0  0  0
    1.1576   15.3844  -27.9370 H   0  0  0  0  0
    1.6284   16.6327  -26.7575 H   0  0  0  0  0
   -2.6705   20.4692  -33.1962 H   0  0  0  0  0
   -2.0317   21.1956  -35.9764 H   0  0  0  0  0
   -3.8839   22.3786  -34.9604 H   0  0  0  0  0
   -2.5208   23.5152  -35.2278 H   0  0  0  0  0
   -3.4718   23.7307  -33.1362 H   0  0  0  0  0
   -0.8230   23.5888  -35.6901 H   0  0  0  0  0
    1.7776   22.9174  -34.3735 H   0  0  0  0  0
    1.9171   23.4113  -36.7539 H   0  0  0  0  0
    1.1223   24.9820  -36.4851 H   0  0  0  0  0
    2.7294   24.6662  -35.7861 H   0  0  0  0  0
    0.9414   25.8177  -31.1127 H   0  0  0  0  0
    3.0742   26.0146  -29.9970 H   0  0  0  0  0
    3.8965   26.4641  -31.4434 H   0  0  0  0  0
    3.0849   23.7013  -30.5302 H   0  0  0  0  0
    4.5999   24.2119  -31.2084 H   0  0  0  0  0
    3.7729   24.1768  -33.4302 H   0  0  0  0  0
    2.7700   22.9640  -32.7669 H   0  0  0  0  0
    0.1890   27.7467  -31.0283 H   0  0  0  0  0
   -0.3326   29.8741  -31.6458 H   0  0  0  0  0
    1.9520   30.3524  -30.8868 H   0  0  0  0  0
    2.5881   29.9572  -32.5025 H   0  0  0  0  0
    1.5391   31.3792  -32.2819 H   0  0  0  0  0
   -1.4053   28.2785  -33.3729 H   0  0  0  0  0
   -1.1084   29.8776  -35.8755 H   0  0  0  0  0
   -1.7185   27.9045  -37.2266 H   0  0  0  0  0
   -1.4855   25.8306  -36.1716 H   0  0  0  0  0
    0.6345   28.5702  -37.0058 H   0  0  0  0  0
    0.7908   27.5638  -35.5451 H   0  0  0  0  0
    0.4847   26.7998  -37.1242 H   0  0  0  0  0
   -3.1945   29.8153  -37.1796 H   0  0  0  0  0
   -5.2642   30.9614  -36.2717 H   0  0  0  0  0
   -5.5096   29.3715  -35.3756 H   0  0  0  0  0
   -7.6237   29.4460  -36.3249 H   0  0  0  0  0
   -8.9554   28.2318  -37.8597 H   0  0  0  0  0
   -7.5932   28.2250  -39.0279 H   0  0  0  0  0
   -7.9881   29.3660  -40.7645 H   0  0  0  0  0
   -8.5006   32.1679  -40.5790 H   0  0  0  0  0
   -8.4840   30.2076  -42.9085 H   0  0  0  0  0
  -10.0122   31.9896  -43.5235 H   0  0  0  0  0
   -8.7964   33.2128  -43.0802 H   0  0  0  0  0
   -8.4964   32.1147  -44.4495 H   0  0  0  0  0
   -6.5674   32.4006  -42.0438 H   0  0  0  0  0
   -6.3263   30.6479  -41.8411 H   0  0  0  0  0
   -6.3714   31.3575  -43.4737 H   0  0  0  0  0
  -10.6294   29.4202  -41.0997 H   0  0  0  0  0
  -12.7736   30.7562  -42.3333 H   0  0  0  0  0
  -14.1537   28.9017  -41.5983 H   0  0  0  0  0
  -12.9106   28.4826  -40.3186 H   0  0  0  0  0
  -12.8992   26.9411  -42.2235 H   0  0  0  0  0
  -11.3594   27.8602  -42.0383 H   0  0  0  0  0
  -11.7239   29.1046  -43.9274 H   0  0  0  0  0
  -13.5085   28.8847  -43.8532 H   0  0  0  0  0
  -12.6258   27.6454  -45.7171 H   0  0  0  0  0
  -13.1625   26.4939  -44.4281 H   0  0  0  0  0
  -11.0665   25.8615  -45.3909 H   0  0  0  0  0
  -10.3877   27.3243  -44.9713 H   0  0  0  0  0
  -10.8819   26.2641  -43.7845 H   0  0  0  0  0
  -14.8173   31.0850  -41.2827 H   0  0  0  0  0
  1  2  1  0  0  0
  2  3  1  0  0  0
  2  5  1  0  0  0
  3  4  2  0  0  0
  3  6  1  0  0  0
  6  7  1  0  0  0
  7  8  1  0  0  0
  7 10  1  0  0  0
  8  9  2  0  0  0
  8 13  1  0  0  0
 10 11  1  0  0  0
 10 12  1  0  0  0
 13 14  1  0  0  0
 14 15  1  0  0  0
 14 17  1  0  0  0
 15 16  2  0  0  0
 15 22  1  0  0  0
 17 18  1  0  0  0
 18 19  1  0  0  0
 19 20  1  0  0  0
 20 21  1  0  0  0
 22 23  1  0  0  0
 23 24  1  0  0  0
 23 26  1  0  0  0
 24 25  2  0  0  0
 24 27  1  0  0  0
 27 28  1  0  0  0
 28 29  1  0  0  0
 28 31  1  0  0  0
 29 30  2  0  0  0
 29 32  1  0  0  0
 32 33  1  0  0  0
 33 34  1  0  0  0
 33 36  1  0  0  0
 34 35  2  0  0  0
 34 43  1  0  0  0
 36 37  1  0  0  0
 37 38  1  0  0  0
 38 39  1  0  0  0
 39 40  1  0  0  0
 40 41  2  0  0  0
 40 42  1  0  0  0
 43 44  1  0  0  0
 44 45  1  0  0  0
 44 50  1  0  0  0
 45 46  1  0  0  0
 46 47  1  0  0  0
 47 48  1  0  0  0
 48 49  1  0  0  0
 49 52  1  0  0  0
 49 53  1  0  0  0
 49 54  1  0  0  0
 50 51  2  0  0  0
 50 55  1  0  0  0
 55 56  1  0  0  0
 56 57  1  0  0  0
 56 59  1  0  0  0
 57 58  2  0  0  0
 57 61  1  0  0  0
 59 60  1  0  0  0
 61 62  1  0  0  0
 62 63  1  0  0  0
 62 65  1  0  0  0
 63 64  2  0  0  0
 63 66  1  0  0  0
 66 67  1  0  0  0
 66 72  1  0  0  0
 67 68  1  0  0  0
 67 70  1  0  0  0
 68 69  2  0  0  0
 68 73  1  0  0  0
 70 71  1  0  0  0
 71 72  1  0  0  0
 73 74  1  0  0  0
 74 75  1  0  0  0
 74 77  1  0  0  0
 75 76  2  0  0  0
 75 78  1  0  0  0
 78 79  1  0  0  0
 79 80  1  0  0  0
 79 82  1  0  0  0
 80 81  2  0  0  0
 80 85  1  0  0  0
 82 83  1  0  0  0
 82 84  1  0  0  0
 85 86  1  0  0  0
 86 87  1  0  0  0
 87 88  2  0  0  0
 87 89  1  0  0  0
 89 90  1  0  0  0
 90 91  1  0  0  0
 91 92  2  0  0  0
 91 93  1  0  0  0
 93 94  1  0  0  0
 94 95  1  0  0  0
 94 97  1  0  0  0
 95 96  2  0  0  0
 95100  1  0  0  0
 97 98  1  0  0  0
 97 99  1  0  0  0
100101  1  0  0  0
101102  1  0  0  0
101104  1  0  0  0
102103  2  0  0  0
102109  1  0  0  0
104105  1  0  0  0
105106  1  0  0  0
106107  1  0  0  0
107108  1  0  0  0
  1110  1  0  0  0
  1111  1  0  0  0
  1112  1  0  0  0
  2113  1  0  0  0
  5114  1  0  0  0
  5115  1  0  0  0
  5116  1  0  0  0
  6117  1  0  0  0
  7118  1  0  0  0
 10119  1  0  0  0
 11120  1  0  0  0
 12121  1  0  0  0
 12122  1  0  0  0
 12123  1  0  0  0
 13124  1  0  0  0
 14125  1  0  0  0
 17126  1  0  0  0
 17127  1  0  0  0
 18128  1  0  0  0
 18129  1  0  0  0
 19130  1  0  0  0
 19131  1  0  0  0
 20132  1  0  0  0
 20133  1  0  0  0
 21134  1  0  0  0
 21135  1  0  0  0
 21136  1  0  0  0
 22137  1  0  0  0
 23138  1  0  0  0
 26139  1  0  0  0
 26140  1  0  0  0
 26141  1  0  0  0
 27142  1  0  0  0
 28143  1  0  0  0
 31144  1  0  0  0
 31145  1  0  0  0
 31146  1  0  0  0
 32147  1  0  0  0
 33148  1  0  0  0
 36149  1  0  0  0
 36150  1  0  0  0
 37151  1  0  0  0
 37152  1  0  0  0
 38153  1  0  0  0
 38154  1  0  0  0
 39155  1  0  0  0
 41156  1  0  0  0
 42157  1  0  0  0
 42158  1  0  0  0
 43159  1  0  0  0
 44160  1  0  0  0
 45161  1  0  0  0
 45162  1  0  0  0
 46163  1  0  0  0
 46164  1  0  0  0
 47165  1  0  0  0
 47166  1  0  0  0
 48167  1  0  0  0
 48168  1  0  0  0
 52169  1  0  0  0
 52170  1  0  0  0
 52171  1  0  0  0
 53172  1  0  0  0
 53173  1  0  0  0
 53174  1  0  0  0
 54175  1  0  0  0
 54176  1  0  0  0
 54177  1  0  0  0
 55178  1  0  0  0
 56179  1  0  0  0
 59180  1  0  0  0
 59181  1  0  0  0
 60182  1  0  0  0
 61183  1  0  0  0
 62184  1  0  0  0
 65185  1  0  0  0
 65186  1  0  0  0
 65187  1  0  0  0
 67188  1  0  0  0
 70189  1  0  0  0
 70190  1  0  0  0
 71191  1  0  0  0
 71192  1  0  0  0
 72193  1  0  0  0
 72194  1  0  0  0
 73195  1  0  0  0
 74196  1  0  0  0
 77197  1  0  0  0
 77198  1  0  0  0
 77199  1  0  0  0
 78200  1  0  0  0
 79201  1  0  0  0
 82202  1  0  0  0
 83203  1  0  0  0
 84204  1  0  0  0
 84205  1  0  0  0
 84206  1  0  0  0
 85207  1  0  0  0
 86208  1  0  0  0
 86209  1  0  0  0
 89210  1  0  0  0
 90211  1  0  0  0
 90212  1  0  0  0
 93213  1  0  0  0
 94214  1  0  0  0
 97215  1  0  0  0
 98216  1  0  0  0
 98217  1  0  0  0
 98218  1  0  0  0
 99219  1  0  0  0
 99220  1  0  0  0
 99221  1  0  0  0
100222  1  0  0  0
101223  1  0  0  0
104224  1  0  0  0
104225  1  0  0  0
105226  1  0  0  0
105227  1  0  0  0
106228  1  0  0  0
106229  1  0  0  0
107230  1  0  0  0
107231  1  0  0  0
108232  1  0  0  0
108233  1  0  0  0
108234  1  0  0  0
109235  1  0  0  0
M  END
$$$$
