### 
### Created by X-TOOL on Wed Jan  1 15:39:37 2020
### 

@<TRIPOS>MOLECULE
5znr_ligand
  235   235     1     0     0
SMALL
GAST_HUCK


@<TRIPOS>ATOM
      1 N         -14.0660    3.4250  -34.1010 N.4       1 ALA         0.2377
      2 CA        -12.7120    2.8890  -34.1050 C.3       1 ALA         0.0621
      3 C         -11.8040    4.0320  -33.7760 C.2       1 ALA         0.2265
      4 O         -12.0360    5.1270  -34.2460 O.2       1 ALA        -0.3907
      5 CB        -12.3750    2.3120  -35.4700 C.3       1 ALA        -0.0040
      6 N         -10.7650    3.7970  -32.9850 N.am      1 THR        -0.2586
      7 CA        -10.0220    4.9170  -32.4540 C.3       1 THR         0.1566
      8 C          -9.4550    5.6430  -33.6370 C.2       1 THR         0.2065
      9 O          -8.7460    5.0780  -34.4430 O.2       1 THR        -0.3943
     10 CB         -8.8800    4.4590  -31.5370 C.3       1 THR         0.0924
     11 OG1        -8.9800    3.0550  -31.3180 O.3       1 THR        -0.3874
     12 CG2        -8.9870    5.1170  -30.2280 C.3       1 THR        -0.0346
     13 N          -9.7940    6.9120  -33.7280 N.am      1 LYS        -0.2637
     14 CA         -9.3560    7.7240  -34.8170 C.3       1 LYS         0.1310
     15 C          -8.0150    8.0790  -34.3190 C.2       1 LYS         0.2039
     16 O          -7.7280    7.8020  -33.1890 O.2       1 LYS        -0.3944
     17 CB        -10.2410    8.9450  -34.9630 C.3       1 LYS        -0.0122
     18 CG        -10.6790    9.2090  -36.3910 C.3       1 LYS        -0.0440
     19 CD        -11.1480   10.6430  -36.5730 C.3       1 LYS        -0.0124
     20 CE        -11.2530   11.0300  -38.0420 C.3       1 LYS        -0.0354
     21 NZ        -10.5010   12.2720  -38.3930 N.4       1 LYS         0.2185
     22 N          -7.1680    8.6320  -35.1560 N.am      1 ALA        -0.2640
     23 CA         -5.8860    9.0740  -34.7060 C.3       1 ALA         0.1282
     24 C          -5.9570   10.5490  -34.5320 C.2       1 ALA         0.2036
     25 O          -6.6010   11.2280  -35.2830 O.2       1 ALA        -0.3944
     26 CB         -4.8520    8.7300  -35.7310 C.3       1 ALA        -0.0244
     27 N          -5.2700   11.0520  -33.5380 N.am      1 ALA        -0.2640
     28 CA         -5.2910   12.4650  -33.2740 C.3       1 ALA         0.1282
     29 C          -4.3160   13.2200  -34.1540 C.2       1 ALA         0.2036
     30 O          -3.1830   12.8290  -34.3150 O.2       1 ALA        -0.3944
     31 CB         -4.9630   12.7070  -31.8290 C.3       1 ALA        -0.0244
     32 N          -4.7590   14.3210  -34.7150 N.am      1 ARG        -0.2637
     33 CA         -3.8850   15.1600  -35.4800 C.3       1 ARG         0.1311
     34 C          -3.8610   16.4240  -34.6950 C.2       1 ARG         0.2039
     35 O          -4.8900   16.9380  -34.2990 O.2       1 ARG        -0.3944
     36 CB         -4.4260   15.3880  -36.8810 C.3       1 ARG        -0.0092
     37 CG         -3.4100   15.2050  -37.9950 C.3       1 ARG        -0.0156
     38 CD         -3.1110   16.5160  -38.6980 C.3       1 ARG         0.0627
     39 NE         -2.0010   16.3980  -39.6390 N.pl3     1 ARG        -0.2723
     40 CZ         -2.0810   16.6730  -40.9360 C.cat     1 ARG         0.2882
     41 NH1        -1.0170   16.5410  -41.7040 N.pl3     1 ARG        -0.2849
     42 NH2        -3.2230   17.0850  -41.4660 N.pl3     1 ARG        -0.2849
     43 N          -2.6680   16.9060  -34.4330 N.am      1 M3L        -0.2637
     44 CA         -2.5100   18.0170  -33.5900 C.3       1 M3L         0.1310
     45 CB         -1.2880   17.6750  -32.7890 C.3       1 M3L        -0.0122
     46 CG         -1.6340   17.3380  -31.3680 C.3       1 M3L        -0.0440
     47 CD         -0.5420   17.8790  -30.4990 C.3       1 M3L        -0.0123
     48 CE         -0.2820   16.9010  -29.3950 C.3       1 M3L        -0.0309
     49 NZ          0.7220   17.3320  -28.4800 N.4       1 M3L         0.2369
     50 C          -2.2200   19.0720  -34.5470 C.2       1 M3L         0.2040
     51 O          -1.9400   18.7570  -35.6730 O.2       1 M3L        -0.3944
     52 CM1         0.3360   18.5730  -27.8770 C.3       1 M3L        -0.0418
     53 CM2         1.9610   17.4930  -29.1860 C.3       1 M3L        -0.0418
     54 CM3         0.8640   16.3250  -27.4710 C.3       1 M3L        -0.0418
     55 N          -2.3130   20.3090  -34.1380 N.am      1 SER        -0.2616
     56 CA         -1.9440   21.4770  -34.9270 C.3       1 SER         0.1539
     57 C          -0.5230   21.8930  -34.6220 C.2       1 SER         0.2062
     58 O           0.2320   21.1650  -33.9770 O.2       1 SER        -0.3943
     59 CB         -2.8730   22.6540  -34.6600 C.3       1 SER         0.0843
     60 OG         -2.8810   22.9880  -33.2810 O.3       1 SER        -0.3903
     61 N          -0.1710   23.0800  -35.0930 N.am      1 ALA        -0.2639
     62 CA          1.1130   23.6770  -34.7850 C.3       1 ALA         0.1284
     63 C           0.9110   24.7790  -33.7570 C.2       1 ALA         0.2061
     64 O          -0.0880   25.4970  -33.8050 O.2       1 ALA        -0.3942
     65 CB          1.7670   24.2230  -36.0420 C.3       1 ALA        -0.0244
     66 N           1.8520   24.9010  -32.8120 N.am      1 PRO        -0.2498
     67 CA          1.8010   25.9330  -31.7730 C.3       1 PRO         0.1338
     68 C           1.6570   27.3320  -32.3630 C.2       1 PRO         0.2041
     69 O           2.3560   27.6670  -33.3200 O.2       1 PRO        -0.3944
     70 CB          3.1450   25.7750  -31.0580 C.3       1 PRO        -0.0104
     71 CG          3.5220   24.3550  -31.2850 C.3       1 PRO        -0.0281
     72 CD          3.0210   24.0190  -32.6570 C.3       1 PRO         0.0369
     73 N           0.7460   28.1200  -31.7970 N.am      1 ALA        -0.2640
     74 CA          0.5080   29.4950  -32.2270 C.3       1 ALA         0.1282
     75 C           0.1180   29.5780  -33.6990 C.2       1 ALA         0.2037
     76 O           0.7890   30.2360  -34.4940 O.2       1 ALA        -0.3944
     77 CB          1.7350   30.3580  -31.9550 C.3       1 ALA        -0.0244
     78 N          -0.9650   28.8970  -34.0540 N.am      1 THR        -0.2613
     79 CA         -1.5440   29.0060  -35.3870 C.3       1 THR         0.1565
     80 C          -3.0540   29.1610  -35.2570 C.2       1 THR         0.2063
     81 O          -3.6220   28.8480  -34.2110 O.2       1 THR        -0.3943
     82 CB         -1.2200   27.7820  -36.2650 C.3       1 THR         0.0924
     83 OG1        -1.6890   26.5910  -35.6220 O.3       1 THR        -0.3874
     84 CG2         0.2800   27.6710  -36.5020 C.3       1 THR        -0.0346
     85 N          -3.7060   29.6290  -36.3170 N.am      1 GLY        -0.2663
     86 CA         -5.1360   29.8790  -36.2650 C.3       1 GLY         0.1201
     87 C          -5.9310   29.3400  -37.4390 C.2       1 GLY         0.2005
     88 O          -5.3760   29.0250  -38.4930 O.2       1 GLY        -0.3947
     89 N          -7.2420   29.2310  -37.2460 N.am      1 GLY        -0.2666
     90 CA         -8.1480   28.8170  -38.3000 C.3       1 GLY         0.1201
     91 C          -8.7440   30.0220  -39.0020 C.2       1 GLY         0.2008
     92 O          -9.4240   30.8400  -38.3820 O.2       1 GLY        -0.3947
     93 N          -8.4860   30.1260  -40.3010 N.am      1 VAL        -0.2637
     94 CA         -8.8880   31.2870  -41.0910 C.3       1 VAL         0.1332
     95 C         -10.4100   31.4370  -41.1780 C.2       1 VAL         0.2036
     96 O         -10.9310   32.5550  -41.1970 O.2       1 VAL        -0.3944
     97 CB         -8.2860   31.2050  -42.5160 C.3       1 VAL        -0.0063
     98 CG1        -8.9450   32.2020  -43.4600 C.3       1 VAL        -0.0584
     99 CG2        -6.7800   31.4180  -42.4650 C.3       1 VAL        -0.0584
    100 N         -11.1180   30.3100  -41.2000 N.am      1 LYS        -0.2695
    101 CA        -12.5730   30.3020  -41.3630 C.3       1 LYS         0.0944
    102 C         -13.3070   31.1400  -40.3130 C.2       1 LYS         0.0601
    103 O         -12.7350   31.5310  -39.2950 O.co2     1 LYS        -0.5666
    104 CB        -13.1000   28.8640  -41.3220 C.3       1 LYS        -0.0177
    105 CG        -12.4170   27.9160  -42.2960 C.3       1 LYS        -0.0446
    106 CD        -12.5370   28.4060  -43.7300 C.3       1 LYS        -0.0125
    107 CE        -12.4360   27.2530  -44.7180 C.3       1 LYS        -0.0354
    108 NZ        -11.0860   26.6260  -44.7160 N.4       1 LYS         0.2185
    109 OXT       -14.4910   31.4480  -40.4560 O.co2     1 LYS        -0.5666
    110 H1        -14.7194    2.6889  -34.3187 H         1 ALA         0.2015
    111 H2        -14.1403    4.1553  -34.7918 H         1 ALA         0.2015
    112 H3        -14.2756    3.8017  -33.1898 H         1 ALA         0.2015
    113 H4        -12.6157    2.1003  -33.3443 H         1 ALA         0.1095
    114 H5        -11.3504    1.9119  -35.4561 H         1 ALA         0.0310
    115 H6        -12.4495    3.1028  -36.2310 H         1 ALA         0.0310
    116 H7        -13.0810    1.5036  -35.7109 H         1 ALA         0.0310
    117 H8        -10.5002    2.8594  -32.7598 H         1 THR         0.1885
    118 H9        -10.6961    5.5774  -31.8888 H         1 THR         0.0826
    119 H10        -7.9133    4.7018  -32.0023 H         1 THR         0.0639
    120 H11        -8.2724    2.7730  -30.7502 H         1 THR         0.2101
    121 H12        -8.1638    4.7810  -29.5804 H         1 THR         0.0257
    122 H13        -9.9492    4.8552  -29.7636 H         1 THR         0.0257
    123 H14        -8.9281    6.2075  -30.3598 H         1 THR         0.0257
    124 H15       -10.3712    7.3159  -33.0183 H         1 LYS         0.1883
    125 H16        -9.3163    7.1707  -35.7669 H         1 LYS         0.0800
    126 H17        -9.6852    9.8228  -34.6016 H         1 LYS         0.0312
    127 H18       -11.1392    8.7997  -34.3448 H         1 LYS         0.0312
    128 H19       -11.5051    8.5279  -36.6433 H         1 LYS         0.0269
    129 H20        -9.8305    9.0220  -37.0656 H         1 LYS         0.0269
    130 H21       -10.4312   11.3158  -36.0795 H         1 LYS         0.0317
    131 H22       -12.1374   10.7545  -36.1054 H         1 LYS         0.0317
    132 H23       -12.3144   11.1870  -38.2844 H         1 LYS         0.0813
    133 H24       -10.8571   10.2018  -38.6481 H         1 LYS         0.0813
    134 H25       -10.6143   12.4670  -39.3754 H         1 LYS         0.1994
    135 H26        -9.5229   12.1422  -38.1869 H         1 LYS         0.1994
    136 H27       -10.8583   13.0449  -37.8536 H         1 LYS         0.1994
    137 H28        -7.4223    8.7448  -36.1165 H         1 ALA         0.1883
    138 H29        -5.6334    8.5930  -33.7495 H         1 ALA         0.0797
    139 H30        -3.8650    9.0703  -35.3846 H         1 ALA         0.0277
    140 H31        -5.0982    9.2264  -36.6812 H         1 ALA         0.0277
    141 H32        -4.8324    7.6404  -35.8808 H         1 ALA         0.0277
    142 H33        -4.7253   10.4476  -32.9566 H         1 ALA         0.1883
    143 H34        -6.3043   12.8418  -33.4768 H         1 ALA         0.0797
    144 H35        -4.9787   13.7879  -31.6255 H         1 ALA         0.0277
    145 H36        -3.9625   12.3068  -31.6081 H         1 ALA         0.0277
    146 H37        -5.7075   12.2037  -31.1947 H         1 ALA         0.0277
    147 H38        -5.7195   14.5777  -34.6070 H         1 ARG         0.1883
    148 H39        -2.8787   14.7209  -35.5469 H         1 ARG         0.0800
    149 H40        -4.8116   16.4168  -36.9355 H         1 ARG         0.0313
    150 H41        -5.2495   14.6784  -37.0493 H         1 ARG         0.0313
    151 H42        -3.8095   14.4894  -38.7287 H         1 ARG         0.0301
    152 H43        -2.4776   14.8088  -37.5665 H         1 ARG         0.0301
    153 H44        -2.8551   17.2728  -37.9419 H         1 ARG         0.0689
    154 H45        -4.0086   16.8357  -39.2477 H         1 ARG         0.0689
    155 H46        -1.0930   16.0794  -39.2717 H         1 ARG         0.2642
    156 H47        -1.0783   16.7541  -42.7099 H         1 ARG         0.2615
    157 H48        -0.1248   16.2248  -41.2979 H         1 ARG         0.2615
    158 H49        -4.0580   17.1904  -40.8722 H         1 ARG         0.2615
    159 H50        -3.2760   17.3000  -42.4719 H         1 ARG         0.2615
    160 H51        -1.8617   16.4760  -34.8393 H         1 M3L         0.1883
    161 H52        -3.3823   18.2387  -32.9576 H         1 M3L         0.0800
    162 H53        -0.6047   18.5370  -32.7950 H         1 M3L         0.0312
    163 H54        -0.7901   16.8092  -33.2499 H         1 M3L         0.0312
    164 H55        -1.7044   16.2469  -31.2471 H         1 M3L         0.0269
    165 H56        -2.5944   17.7999  -31.0956 H         1 M3L         0.0269
    166 H57        -0.8512   18.8450  -30.0733 H         1 M3L         0.0317
    167 H58         0.3722   18.0168  -31.0950 H         1 M3L         0.0317
    168 H59         0.0395   15.9486  -29.8417 H         1 M3L         0.0815
    169 H60        -1.2180   16.7473  -28.8381 H         1 M3L         0.0815
    170 H61         1.1167   18.8970  -27.1731 H         1 M3L         0.0778
    171 H62        -0.6124   18.4386  -27.3362 H         1 M3L         0.0778
    172 H63         0.2075   19.3362  -28.6587 H         1 M3L         0.0778
    173 H64         2.2485   16.5356  -29.6450 H         1 M3L         0.0778
    174 H65         2.7446   17.8127  -28.4833 H         1 M3L         0.0778
    175 H66         1.8396   18.2540  -29.9709 H         1 M3L         0.0778
    176 H67        -0.0888   16.2069  -26.9342 H         1 M3L         0.0778
    177 H68         1.6497   16.6247  -26.7618 H         1 M3L         0.0778
    178 H69         1.1401   15.3702  -27.9422 H         1 M3L         0.0778
    179 H70        -2.6635   20.4661  -33.2147 H         1 SER         0.1884
    180 H71        -2.0146   21.2101  -35.9918 H         1 SER         0.0823
    181 H72        -3.8932   22.3859  -34.9718 H         1 SER         0.0606
    182 H73        -2.5290   23.5234  -35.2394 H         1 SER         0.0606
    183 H74        -3.1807   22.2406  -32.7770 H         1 SER         0.2097
    184 H75        -0.8102   23.5788  -35.6784 H         1 ALA         0.1883
    185 H76         1.7703   22.9065  -34.3559 H         1 ALA         0.0797
    186 H77         2.7384   24.6706  -35.7851 H         1 ALA         0.0277
    187 H78         1.1174   24.9892  -36.4902 H         1 ALA         0.0277
    188 H79         1.9191   23.4048  -36.7613 H         1 ALA         0.0277
    189 H80         0.9658   25.7462  -31.0820 H         1 PRO         0.0802
    190 H81         3.0403   25.9824  -29.9828 H         1 PRO         0.0313
    191 H82         3.8974   26.4510  -31.4903 H         1 PRO         0.0313
    192 H83         3.0473   23.7069  -30.5336 H         1 PRO         0.0287
    193 H84         4.6143   24.2351  -31.2352 H         1 PRO         0.0287
    194 H85         3.7833   24.2363  -33.4197 H         1 PRO         0.0524
    195 H86         2.7284   22.9607  -32.7221 H         1 PRO         0.0524
    196 H87         0.2000   27.7540  -31.0434 H         1 ALA         0.1883
    197 H88        -0.3289   29.8925  -31.6341 H         1 ALA         0.0797
    198 H89         1.5385   31.3889  -32.2845 H         1 ALA         0.0277
    199 H90         2.5967   29.9546  -32.5070 H         1 ALA         0.0277
    200 H91         1.9551   30.3532  -30.8773 H         1 ALA         0.0277
    201 H92        -1.3967   28.2906  -33.3862 H         1 THR         0.1884
    202 H93        -1.1320   29.9015  -35.8752 H         1 THR         0.0826
    203 H94        -1.7279   27.8937  -37.2343 H         1 THR         0.0639
    204 H95        -1.2605   26.4977  -34.7793 H         1 THR         0.2101
    205 H96         0.4879   26.7920  -37.1298 H         1 THR         0.0257
    206 H97         0.7967   27.5627  -35.5370 H         1 THR         0.0257
    207 H98         0.6390   28.5779  -37.0105 H         1 THR         0.0257
    208 H99        -3.2045   29.8116  -37.1627 H         1 GLY         0.1881
    209 H100       -5.2895   30.9674  -36.2217 H         1 GLY         0.0763
    210 H101       -5.5288   29.4165  -35.3475 H         1 GLY         0.0763
    211 H102       -7.6162   29.4418  -36.3429 H         1 GLY         0.1881
    212 H103       -8.9594   28.2165  -37.8629 H         1 GLY         0.0763
    213 H104       -7.5959   28.2097  -39.0323 H         1 GLY         0.0763
    214 H105       -7.9978   29.3809  -40.7554 H         1 VAL         0.1883
    215 H106       -8.4872   32.1847  -40.5975 H         1 VAL         0.0802
    216 H107       -8.4753   30.1945  -42.9071 H         1 VAL         0.0343
    217 H108       -8.4931   32.1148  -44.4591 H         1 VAL         0.0234
    218 H109       -8.7957   33.2226  -43.0779 H         1 VAL         0.0234
    219 H110      -10.0221   31.9887  -43.5250 H         1 VAL         0.0234
    220 H111       -6.3294   30.6868  -41.7777 H         1 VAL         0.0234
    221 H112       -6.5655   32.4364  -42.1089 H         1 VAL         0.0234
    222 H113       -6.3565   31.2846  -43.4714 H         1 VAL         0.0234
    223 H114      -10.6390   29.4377  -41.1017 H         1 LYS         0.1875
    224 H115      -12.7999   30.7278  -42.3515 H         1 LYS         0.0726
    225 H116      -14.1742   28.8844  -41.5581 H         1 LYS         0.0305
    226 H117      -12.9557   28.4737  -40.3038 H         1 LYS         0.0305
    227 H118      -12.8860   26.9241  -42.2172 H         1 LYS         0.0269
    228 H119      -11.3517   27.8399  -42.0327 H         1 LYS         0.0269
    229 H120      -11.7281   29.1234  -43.9325 H         1 LYS         0.0317
    230 H121      -13.5094   28.9039  -43.8585 H         1 LYS         0.0317
    231 H122      -12.6484   27.6328  -45.7283 H         1 LYS         0.0813
    232 H123      -13.1811   26.4899  -44.4489 H         1 LYS         0.0813
    233 H124      -11.0656   25.8702  -45.3827 H         1 LYS         0.1994
    234 H125      -10.8832   26.2679  -43.7959 H         1 LYS         0.1994
    235 H126      -10.3950   27.3152  -44.9682 H         1 LYS         0.1994
@<TRIPOS>BOND
     1    1    2 1  
     2    2    3 1  
     3    2    5 1  
     4    3    4 2  
     5    3    6 am 
     6    6    7 1  
     7    7    8 1  
     8    7   10 1  
     9    8    9 2  
    10    8   13 am 
    11   10   11 1  
    12   10   12 1  
    13   13   14 1  
    14   14   15 1  
    15   14   17 1  
    16   15   16 2  
    17   15   22 am 
    18   17   18 1  
    19   18   19 1  
    20   19   20 1  
    21   20   21 1  
    22   22   23 1  
    23   23   24 1  
    24   23   26 1  
    25   24   25 2  
    26   24   27 am 
    27   27   28 1  
    28   28   29 1  
    29   28   31 1  
    30   29   30 2  
    31   29   32 am 
    32   32   33 1  
    33   33   34 1  
    34   33   36 1  
    35   34   35 2  
    36   34   43 am 
    37   36   37 1  
    38   37   38 1  
    39   38   39 1  
    40   39   40 ar 
    41   40   41 ar 
    42   40   42 ar 
    43   43   44 1  
    44   44   45 1  
    45   44   50 1  
    46   45   46 1  
    47   46   47 1  
    48   47   48 1  
    49   48   49 1  
    50   49   52 1  
    51   49   53 1  
    52   49   54 1  
    53   50   51 2  
    54   50   55 am 
    55   55   56 1  
    56   56   57 1  
    57   56   59 1  
    58   57   58 2  
    59   57   61 am 
    60   59   60 1  
    61   61   62 1  
    62   62   63 1  
    63   62   65 1  
    64   63   64 2  
    65   63   66 am 
    66   66   67 1  
    67   66   72 1  
    68   67   68 1  
    69   67   70 1  
    70   68   69 2  
    71   68   73 am 
    72   70   71 1  
    73   71   72 1  
    74   73   74 1  
    75   74   75 1  
    76   74   77 1  
    77   75   76 2  
    78   75   78 am 
    79   78   79 1  
    80   79   80 1  
    81   79   82 1  
    82   80   81 2  
    83   80   85 am 
    84   82   83 1  
    85   82   84 1  
    86   85   86 1  
    87   86   87 1  
    88   87   88 2  
    89   87   89 am 
    90   89   90 1  
    91   90   91 1  
    92   91   92 2  
    93   91   93 am 
    94   93   94 1  
    95   94   95 1  
    96   94   97 1  
    97   95   96 2  
    98   95  100 am 
    99   97   98 1  
   100   97   99 1  
   101  100  101 1  
   102  101  102 1  
   103  101  104 1  
   104  102  103 ar 
   105  102  109 ar 
   106  104  105 1  
   107  105  106 1  
   108  106  107 1  
   109  107  108 1  
   110    1  110 1  
   111    1  111 1  
   112    1  112 1  
   113    2  113 1  
   114    5  114 1  
   115    5  115 1  
   116    5  116 1  
   117    6  117 1  
   118    7  118 1  
   119   10  119 1  
   120   11  120 1  
   121   12  121 1  
   122   12  122 1  
   123   12  123 1  
   124   13  124 1  
   125   14  125 1  
   126   17  126 1  
   127   17  127 1  
   128   18  128 1  
   129   18  129 1  
   130   19  130 1  
   131   19  131 1  
   132   20  132 1  
   133   20  133 1  
   134   21  134 1  
   135   21  135 1  
   136   21  136 1  
   137   22  137 1  
   138   23  138 1  
   139   26  139 1  
   140   26  140 1  
   141   26  141 1  
   142   27  142 1  
   143   28  143 1  
   144   31  144 1  
   145   31  145 1  
   146   31  146 1  
   147   32  147 1  
   148   33  148 1  
   149   36  149 1  
   150   36  150 1  
   151   37  151 1  
   152   37  152 1  
   153   38  153 1  
   154   38  154 1  
   155   39  155 1  
   156   41  156 1  
   157   41  157 1  
   158   42  158 1  
   159   42  159 1  
   160   43  160 1  
   161   44  161 1  
   162   45  162 1  
   163   45  163 1  
   164   46  164 1  
   165   46  165 1  
   166   47  166 1  
   167   47  167 1  
   168   48  168 1  
   169   48  169 1  
   170   52  170 1  
   171   52  171 1  
   172   52  172 1  
   173   53  173 1  
   174   53  174 1  
   175   53  175 1  
   176   54  176 1  
   177   54  177 1  
   178   54  178 1  
   179   55  179 1  
   180   56  180 1  
   181   59  181 1  
   182   59  182 1  
   183   60  183 1  
   184   61  184 1  
   185   62  185 1  
   186   65  186 1  
   187   65  187 1  
   188   65  188 1  
   189   67  189 1  
   190   70  190 1  
   191   70  191 1  
   192   71  192 1  
   193   71  193 1  
   194   72  194 1  
   195   72  195 1  
   196   73  196 1  
   197   74  197 1  
   198   77  198 1  
   199   77  199 1  
   200   77  200 1  
   201   78  201 1  
   202   79  202 1  
   203   82  203 1  
   204   83  204 1  
   205   84  205 1  
   206   84  206 1  
   207   84  207 1  
   208   85  208 1  
   209   86  209 1  
   210   86  210 1  
   211   89  211 1  
   212   90  212 1  
   213   90  213 1  
   214   93  214 1  
   215   94  215 1  
   216   97  216 1  
   217   98  217 1  
   218   98  218 1  
   219   98  219 1  
   220   99  220 1  
   221   99  221 1  
   222   99  222 1  
   223  100  223 1  
   224  101  224 1  
   225  104  225 1  
   226  104  226 1  
   227  105  227 1  
   228  105  228 1  
   229  106  229 1  
   230  106  230 1  
   231  107  231 1  
   232  107  232 1  
   233  108  233 1  
   234  108  234 1  
   235  108  235 1  
@<TRIPOS>SUBSTRUCTURE
     1 ALA         1

