### 
### Created by X-TOOL on Mon Sep 10 21:13:12 2018
### 

@<TRIPOS>MOLECULE
4gnf_ligand
  160   159     1     0     0
SMALL
GAST_HUCK


@<TRIPOS>ATOM
      1 N          10.0910   -6.3390   17.6990 N.4       1 ALA         0.2377
      2 CA         10.8640   -5.5740   18.7310 C.3       1 ALA         0.0621
      3 C          10.0810   -5.4800   20.0350 C.2       1 ALA         0.2264
      4 O           8.8470   -5.4510   20.0140 O.2       1 ALA        -0.3907
      5 CB         11.2110   -4.1900   18.2070 C.3       1 ALA        -0.0040
      6 N          10.7950   -5.4380   21.1620 N.am      1 ARG        -0.2610
      7 CA         10.1610   -5.3900   22.4870 C.3       1 ARG         0.1312
      8 C           9.8980   -3.9460   22.9150 C.2       1 ARG         0.2040
      9 O          10.6560   -3.0420   22.5640 O.2       1 ARG        -0.3944
     10 CB         11.0330   -6.0770   23.5450 C.3       1 ARG        -0.0092
     11 CG         11.5770   -7.4430   23.1520 C.3       1 ARG        -0.0156
     12 CD         11.9600   -8.2450   24.3850 C.3       1 ARG         0.0627
     13 NE         13.2250   -8.9600   24.2060 N.pl3     1 ARG        -0.2723
     14 CZ         13.3510  -10.1800   23.6860 C.cat     1 ARG         0.2882
     15 NH1        12.2830  -10.8550   23.2750 N.pl3     1 ARG        -0.2849
     16 NH2        14.5550  -10.7260   23.5740 N.pl3     1 ARG        -0.2849
     17 N           8.8250   -3.7370   23.6760 N.am      1 THR        -0.2613
     18 CA          8.5290   -2.4190   24.2140 C.3       1 THR         0.1565
     19 C           8.4570   -2.4630   25.7290 C.2       1 THR         0.2065
     20 O           8.3360   -3.5340   26.3150 O.2       1 THR        -0.3943
     21 CB          7.2020   -1.8310   23.6780 C.3       1 THR         0.0924
     22 OG1         6.1140   -2.6880   24.0360 O.3       1 THR        -0.3874
     23 CG2         7.2290   -1.6580   22.1660 C.3       1 THR        -0.0346
     24 N           8.5530   -1.2860   26.3430 N.am      1 LYS        -0.2637
     25 CA          8.3390   -1.1220   27.7830 C.3       1 LYS         0.1310
     26 C           7.6640    0.2360   28.0090 C.2       1 LYS         0.2039
     27 O           7.5900    1.0610   27.0850 O.2       1 LYS        -0.3944
     28 CB          9.6560   -1.2270   28.5610 C.3       1 LYS        -0.0122
     29 CG         10.7270   -0.2290   28.1350 C.3       1 LYS        -0.0440
     30 CD         11.9860   -0.4080   28.9900 C.3       1 LYS        -0.0124
     31 CE         13.1280    0.4960   28.5450 C.3       1 LYS        -0.0354
     32 NZ         14.3570    0.2450   29.3620 N.4       1 LYS         0.2185
     33 N           7.1530    0.4550   29.2180 N.am      1 GLN        -0.2636
     34 CA          6.5080    1.7120   29.5490 C.3       1 GLN         0.1330
     35 C           7.2280    2.3230   30.7380 C.2       1 GLN         0.2041
     36 O           7.3010    1.7070   31.8110 O.2       1 GLN        -0.3944
     37 CB          5.0280    1.4900   29.9110 C.3       1 GLN         0.0045
     38 CG          4.2570    2.7680   30.2100 C.3       1 GLN         0.0412
     39 CD          3.9040    3.5490   28.9540 C.2       1 GLN         0.1737
     40 OE1         3.6610    2.9650   27.8930 O.2       1 GLN        -0.3973
     41 NE2         3.8720    4.8760   29.0660 N.am      1 GLN        -0.3009
     42 N           7.7450    3.5330   30.5420 N.am      1 THR        -0.2613
     43 CA          8.4920    4.2360   31.5770 C.3       1 THR         0.1565
     44 C           7.8140    5.5760   31.8720 C.2       1 THR         0.2065
     45 O           6.9340    6.0280   31.1190 O.2       1 THR        -0.3943
     46 CB          9.9510    4.4820   31.1580 C.3       1 THR         0.0924
     47 OG1         9.9800    5.4080   30.0760 O.3       1 THR        -0.3874
     48 CG2        10.6370    3.1690   30.7560 C.3       1 THR        -0.0346
     49 N           8.2030    6.1870   32.9880 N.am      1 ALA        -0.2639
     50 CA          7.6270    7.4540   33.4440 C.3       1 ALA         0.1282
     51 C           8.0030    8.5940   32.5060 C.2       1 ALA         0.2036
     52 O           9.1490    8.6860   32.0660 O.2       1 ALA        -0.3944
     53 CB          8.0810    7.7500   34.8590 C.3       1 ALA        -0.0244
     54 N           7.0260    9.4450   32.1930 N.am      1 ARG        -0.2637
     55 CA          7.2120   10.5370   31.2330 C.3       1 ARG         0.1310
     56 C           7.4450   11.8970   31.9110 C.2       1 ARG         0.2033
     57 O           6.5010   12.5190   32.4050 O.2       1 ARG        -0.3944
     58 CB          6.0250   10.6040   30.2520 C.3       1 ARG        -0.0092
     59 CG          6.2550   11.5340   29.0710 C.3       1 ARG        -0.0156
     60 CD          5.4710   11.1330   27.8270 C.3       1 ARG         0.0627
     61 NE          6.0380   11.7600   26.6240 N.pl3     1 ARG        -0.2723
     62 CZ          5.7250   11.4360   25.3680 C.cat     1 ARG         0.2882
     63 NH1         4.8340   10.4770   25.1130 N.pl3     1 ARG        -0.2849
     64 NH2         6.3120   12.0760   24.3570 N.pl3     1 ARG        -0.2849
     65 N           8.7110   12.3350   31.9120 N.am      1 LYS        -0.2695
     66 CA          9.1510   13.6380   32.4460 C.3       1 LYS         0.0944
     67 C           8.1640   14.7600   32.1510 C.2       1 LYS         0.0601
     68 O           8.2202   15.8480   32.7840 O.co2     1 LYS        -0.5666
     69 CB         10.5090   14.0370   31.8560 C.3       1 LYS        -0.0177
     70 CG         11.6880   13.1390   32.1910 C.3       1 LYS        -0.0446
     71 CD         12.8440   13.4380   31.2430 C.3       1 LYS        -0.0125
     72 CE         14.2000   13.1410   31.8700 C.3       1 LYS        -0.0354
     73 NZ         15.3020   13.1350   30.8650 N.4       1 LYS         0.2185
     74 O           7.2826   14.5985   31.2652 O.co2     1 LYS        -0.5666
     75 H1         10.6266   -6.3887   16.8465 H         1 ALA         0.2015
     76 H2          9.2163   -5.8714   17.5194 H         1 ALA         0.2015
     77 H3          9.9104   -7.2713   18.0371 H         1 ALA         0.2015
     78 H4         11.8016   -6.1132   18.9312 H         1 ALA         0.1095
     79 H5         11.7774   -3.6395   18.9726 H         1 ALA         0.0310
     80 H6         10.2853   -3.6440   17.9724 H         1 ALA         0.0310
     81 H7         11.8215   -4.2849   17.2969 H         1 ALA         0.0310
     82 H8         11.7933   -5.4392   21.1029 H         1 ARG         0.1884
     83 H9          9.1989   -5.9200   22.4276 H         1 ARG         0.0800
     84 H10        10.4283   -6.2011   24.4555 H         1 ARG         0.0313
     85 H11        11.8883   -5.4195   23.7597 H         1 ARG         0.0313
     86 H12        12.4661   -7.3087   22.5184 H         1 ARG         0.0301
     87 H13        10.8058   -7.9907   22.5905 H         1 ARG         0.0301
     88 H14        11.1655   -8.9767   24.5931 H         1 ARG         0.0689
     89 H15        12.0586   -7.5580   25.2384 H         1 ARG         0.0689
     90 H16        14.0863   -8.4815   24.5061 H         1 ARG         0.2642
     91 H17        12.3922  -11.7976   22.8745 H         1 ARG         0.2615
     92 H18        11.3458  -10.4357   23.3569 H         1 ARG         0.2615
     93 H19        15.3869  -10.2079   23.8908 H         1 ARG         0.2615
     94 H20        14.6578  -11.6680   23.1703 H         1 ARG         0.2615
     95 H21         8.2121   -4.5001   23.8810 H         1 THR         0.1884
     96 H22         9.3470   -1.7450   23.9198 H         1 THR         0.0826
     97 H23         7.0468   -0.8448   24.1399 H         1 THR         0.0639
     98 H24         6.0672   -2.7601   24.9821 H         1 THR         0.2101
     99 H25         6.2698   -1.2390   21.8277 H         1 THR         0.0257
    100 H26         7.3911   -2.6353   21.6879 H         1 THR         0.0257
    101 H27         8.0455   -0.9747   21.8896 H         1 THR         0.0257
    102 H28         8.7810   -0.4791   25.7981 H         1 LYS         0.1883
    103 H29         7.6665   -1.9176   28.1361 H         1 LYS         0.0800
    104 H30        10.0573   -2.2415   28.4206 H         1 LYS         0.0312
    105 H31         9.4388   -1.0628   29.6268 H         1 LYS         0.0312
    106 H32        10.3427    0.7936   28.2636 H         1 LYS         0.0269
    107 H33        10.9792   -0.3957   27.0774 H         1 LYS         0.0269
    108 H34        12.3160   -1.4548   28.9168 H         1 LYS         0.0317
    109 H35        11.7382   -0.1739   30.0358 H         1 LYS         0.0317
    110 H36        12.8239    1.5463   28.6652 H         1 LYS         0.0813
    111 H37        13.3526    0.2981   27.4865 H         1 LYS         0.0813
    112 H38        15.0978    0.8533   29.0501 H         1 LYS         0.1994
    113 H39        14.6427   -0.7155   29.2529 H         1 LYS         0.1994
    114 H40        14.1582    0.4282   30.3331 H         1 LYS         0.1994
    115 H41         7.2148   -0.2615   29.9128 H         1 GLN         0.1883
    116 H42         6.5716    2.3927   28.6873 H         1 GLN         0.0801
    117 H43         4.9842    0.8452   30.8011 H         1 GLN         0.0337
    118 H44         4.5392    0.9827   29.0662 H         1 GLN         0.0337
    119 H45         4.8733    3.4068   30.8597 H         1 GLN         0.0504
    120 H46         3.3261    2.5031   30.7326 H         1 GLN         0.0504
    121 H47         3.6456    5.4395   28.2715 H         1 GLN         0.1814
    122 H48         4.0744    5.3087   29.9445 H         1 GLN         0.1814
    123 H49         7.6166    3.9751   29.6543 H         1 THR         0.1884
    124 H50         8.4881    3.6228   32.4902 H         1 THR         0.0826
    125 H51        10.4955    4.9140   32.0106 H         1 THR         0.0639
    126 H52        10.8808    5.5612   29.8158 H         1 THR         0.2101
    127 H53        11.6769    3.3738   30.4616 H         1 THR         0.0257
    128 H54        10.0984    2.7180   29.9095 H         1 THR         0.0257
    129 H55        10.6275    2.4742   31.6088 H         1 THR         0.0257
    130 H56         8.9206    5.7623   33.5400 H         1 ALA         0.1883
    131 H57         6.5314    7.3563   33.4442 H         1 ALA         0.0797
    132 H58         7.6438    8.7026   35.1926 H         1 ALA         0.0277
    133 H59         9.1784    7.8214   34.8847 H         1 ALA         0.0277
    134 H60         7.7504    6.9410   35.5270 H         1 ALA         0.0277
    135 H61         6.1330    9.3344   32.6293 H         1 ARG         0.1883
    136 H62         8.1148   10.3070   30.6481 H         1 ARG         0.0800
    137 H63         5.1398   10.9553   30.8025 H         1 ARG         0.0313
    138 H64         5.8380    9.5916   29.8646 H         1 ARG         0.0313
    139 H65         7.3271   11.5278   28.8252 H         1 ARG         0.0301
    140 H66         5.9515   12.5503   29.3625 H         1 ARG         0.0301
    141 H67         4.4252   11.4542   27.9414 H         1 ARG         0.0689
    142 H68         5.5086   10.0394   27.7147 H         1 ARG         0.0689
    143 H69         6.7318   12.5087   26.7617 H         1 ARG         0.2642
    144 H70         4.6010   10.2363   24.1390 H         1 ARG         0.2615
    145 H71         4.3788    9.9771   25.8901 H         1 ARG         0.2615
    146 H72         7.0010   12.8176   24.5476 H         1 ARG         0.2615
    147 H73         6.0767   11.8290   23.3851 H         1 ARG         0.2615
    148 H74         9.4092   11.7346   31.5221 H         1 LYS         0.1875
    149 H75         9.2518   13.5401   33.5370 H         1 LYS         0.0726
    150 H76        10.7462   15.0480   32.2189 H         1 LYS         0.0305
    151 H77        10.4045   14.0555   30.7611 H         1 LYS         0.0305
    152 H78        11.3887   12.0861   32.0826 H         1 LYS         0.0269
    153 H79        12.0069   13.3248   33.2272 H         1 LYS         0.0269
    154 H80        12.8081   14.5020   30.9664 H         1 LYS         0.0317
    155 H81        12.7294   12.8203   30.3400 H         1 LYS         0.0317
    156 H82        14.1572   12.1537   32.3531 H         1 LYS         0.0813
    157 H83        14.4157   13.9102   32.6261 H         1 LYS         0.0813
    158 H84        16.1759   12.9348   31.3258 H         1 LYS         0.1994
    159 H85        15.3559   14.0379   30.4201 H         1 LYS         0.1994
    160 H86        15.1191   12.4283   30.1699 H         1 LYS         0.1994
@<TRIPOS>BOND
     1    1    2 1  
     2    2    3 1  
     3    2    5 1  
     4    3    4 2  
     5    3    6 am 
     6    6    7 1  
     7    7    8 1  
     8    7   10 1  
     9    8    9 2  
    10    8   17 am 
    11   10   11 1  
    12   11   12 1  
    13   12   13 1  
    14   13   14 ar 
    15   14   15 ar 
    16   14   16 ar 
    17   17   18 1  
    18   18   19 1  
    19   18   21 1  
    20   19   20 2  
    21   19   24 am 
    22   21   22 1  
    23   21   23 1  
    24   24   25 1  
    25   25   26 1  
    26   25   28 1  
    27   26   27 2  
    28   26   33 am 
    29   28   29 1  
    30   29   30 1  
    31   30   31 1  
    32   31   32 1  
    33   33   34 1  
    34   34   35 1  
    35   34   37 1  
    36   35   36 2  
    37   35   42 am 
    38   37   38 1  
    39   38   39 1  
    40   39   40 2  
    41   39   41 am 
    42   42   43 1  
    43   43   44 1  
    44   43   46 1  
    45   44   45 2  
    46   44   49 am 
    47   46   47 1  
    48   46   48 1  
    49   49   50 1  
    50   50   51 1  
    51   50   53 1  
    52   51   52 2  
    53   51   54 am 
    54   54   55 1  
    55   55   56 1  
    56   55   58 1  
    57   56   57 2  
    58   56   65 am 
    59   58   59 1  
    60   59   60 1  
    61   60   61 1  
    62   61   62 ar 
    63   62   63 ar 
    64   62   64 ar 
    65   65   66 1  
    66   66   67 1  
    67   66   69 1  
    68   67   68 ar 
    69   69   70 1  
    70   70   71 1  
    71   71   72 1  
    72   72   73 1  
    73   67   74 ar 
    74    1   75 1  
    75    1   76 1  
    76    1   77 1  
    77    2   78 1  
    78    5   79 1  
    79    5   80 1  
    80    5   81 1  
    81    6   82 1  
    82    7   83 1  
    83   10   84 1  
    84   10   85 1  
    85   11   86 1  
    86   11   87 1  
    87   12   88 1  
    88   12   89 1  
    89   13   90 1  
    90   15   91 1  
    91   15   92 1  
    92   16   93 1  
    93   16   94 1  
    94   17   95 1  
    95   18   96 1  
    96   21   97 1  
    97   22   98 1  
    98   23   99 1  
    99   23  100 1  
   100   23  101 1  
   101   24  102 1  
   102   25  103 1  
   103   28  104 1  
   104   28  105 1  
   105   29  106 1  
   106   29  107 1  
   107   30  108 1  
   108   30  109 1  
   109   31  110 1  
   110   31  111 1  
   111   32  112 1  
   112   32  113 1  
   113   32  114 1  
   114   33  115 1  
   115   34  116 1  
   116   37  117 1  
   117   37  118 1  
   118   38  119 1  
   119   38  120 1  
   120   41  121 1  
   121   41  122 1  
   122   42  123 1  
   123   43  124 1  
   124   46  125 1  
   125   47  126 1  
   126   48  127 1  
   127   48  128 1  
   128   48  129 1  
   129   49  130 1  
   130   50  131 1  
   131   53  132 1  
   132   53  133 1  
   133   53  134 1  
   134   54  135 1  
   135   55  136 1  
   136   58  137 1  
   137   58  138 1  
   138   59  139 1  
   139   59  140 1  
   140   60  141 1  
   141   60  142 1  
   142   61  143 1  
   143   63  144 1  
   144   63  145 1  
   145   64  146 1  
   146   64  147 1  
   147   65  148 1  
   148   66  149 1  
   149   69  150 1  
   150   69  151 1  
   151   70  152 1  
   152   70  153 1  
   153   71  154 1  
   154   71  155 1  
   155   72  156 1  
   156   72  157 1  
   157   73  158 1  
   158   73  159 1  
   159   73  160 1  
@<TRIPOS>SUBSTRUCTURE
     1 ALA         1

