4gnf_ligand
  -I-interpret- 

159158  0  0  0  0  0  0  0  0999 V2000
   10.0910   -6.3390   17.6990 N   0  3  0  0  0
   10.8640   -5.5740   18.7310 C   0  0  0  0  0
   10.0810   -5.4800   20.0350 C   0  0  0  0  0
    8.8470   -5.4510   20.0140 O   0  0  0  0  0
   11.2110   -4.1900   18.2070 C   0  0  0  0  0
   10.7950   -5.4380   21.1620 N   0  0  0  0  0
   10.1610   -5.3900   22.4870 C   0  0  0  0  0
    9.8980   -3.9460   22.9150 C   0  0  0  0  0
   10.6560   -3.0420   22.5640 O   0  0  0  0  0
   11.0330   -6.0770   23.5450 C   0  0  0  0  0
   11.5770   -7.4430   23.1520 C   0  0  0  0  0
   11.9600   -8.2450   24.3850 C   0  0  0  0  0
   13.2250   -8.9600   24.2060 N   0  0  0  0  0
   13.3510  -10.1800   23.6860 C   0  0  0  0  0
   12.2830  -10.8550   23.2750 N   0  0  0  0  0
   14.5550  -10.7260   23.5740 N   0  0  0  0  0
    8.8250   -3.7370   23.6760 N   0  0  0  0  0
    8.5290   -2.4190   24.2140 C   0  0  0  0  0
    8.4570   -2.4630   25.7290 C   0  0  0  0  0
    8.3360   -3.5340   26.3150 O   0  0  0  0  0
    7.2020   -1.8310   23.6780 C   0  0  0  0  0
    6.1140   -2.6880   24.0360 O   0  0  0  0  0
    7.2290   -1.6580   22.1660 C   0  0  0  0  0
    8.5530   -1.2860   26.3430 N   0  0  0  0  0
    8.3390   -1.1220   27.7830 C   0  0  0  0  0
    7.6640    0.2360   28.0090 C   0  0  0  0  0
    7.5900    1.0610   27.0850 O   0  0  0  0  0
    9.6560   -1.2270   28.5610 C   0  0  0  0  0
   10.7270   -0.2290   28.1350 C   0  0  0  0  0
   11.9860   -0.4080   28.9900 C   0  0  0  0  0
   13.1280    0.4960   28.5450 C   0  0  0  0  0
   14.3570    0.2450   29.3620 N   0  3  0  0  0
    7.1530    0.4550   29.2180 N   0  0  0  0  0
    6.5080    1.7120   29.5490 C   0  0  0  0  0
    7.2280    2.3230   30.7380 C   0  0  0  0  0
    7.3010    1.7070   31.8110 O   0  0  0  0  0
    5.0280    1.4900   29.9110 C   0  0  0  0  0
    4.2570    2.7680   30.2100 C   0  0  0  0  0
    3.9040    3.5490   28.9540 C   0  0  0  0  0
    3.6610    2.9650   27.8930 O   0  0  0  0  0
    3.8720    4.8760   29.0660 N   0  0  0  0  0
    7.7450    3.5330   30.5420 N   0  0  0  0  0
    8.4920    4.2360   31.5770 C   0  0  0  0  0
    7.8140    5.5760   31.8720 C   0  0  0  0  0
    6.9340    6.0280   31.1190 O   0  0  0  0  0
    9.9510    4.4820   31.1580 C   0  0  0  0  0
    9.9800    5.4080   30.0760 O   0  0  0  0  0
   10.6370    3.1690   30.7560 C   0  0  0  0  0
    8.2030    6.1870   32.9880 N   0  0  0  0  0
    7.6270    7.4540   33.4440 C   0  0  0  0  0
    8.0030    8.5940   32.5060 C   0  0  0  0  0
    9.1490    8.6860   32.0660 O   0  0  0  0  0
    8.0810    7.7500   34.8590 C   0  0  0  0  0
    7.0260    9.4450   32.1930 N   0  0  0  0  0
    7.2120   10.5370   31.2330 C   0  0  0  0  0
    7.4450   11.8970   31.9110 C   0  0  0  0  0
    6.5010   12.5190   32.4050 O   0  0  0  0  0
    6.0250   10.6040   30.2520 C   0  0  0  0  0
    6.2550   11.5340   29.0710 C   0  0  0  0  0
    5.4710   11.1330   27.8270 C   0  0  0  0  0
    6.0380   11.7600   26.6240 N   0  0  0  0  0
    5.7250   11.4360   25.3680 C   0  0  0  0  0
    4.8340   10.4770   25.1130 N   0  0  0  0  0
    6.3120   12.0760   24.3570 N   0  0  0  0  0
    8.7110   12.3350   31.9120 N   0  0  0  0  0
    9.1510   13.6380   32.4460 C   0  0  0  0  0
    8.1640   14.7600   32.1510 C   0  0  0  0  0
    8.2202   15.8480   32.7840 O   0  0  0  0  0
   10.5090   14.0370   31.8560 C   0  0  0  0  0
   11.6880   13.1390   32.1910 C   0  0  0  0  0
   12.8440   13.4380   31.2430 C   0  0  0  0  0
   14.2000   13.1410   31.8700 C   0  0  0  0  0
   15.3020   13.1350   30.8650 N   0  3  0  0  0
    7.2826   14.5985   31.2652 O   0  0  0  0  0
    9.8646   -7.2647   18.0626 H   0  0  0  0  0
    9.2296   -5.8382   17.4807 H   0  0  0  0  0
   10.6547   -6.4327   16.8541 H   0  0  0  0  0
   11.7914   -6.1087   18.9363 H   0  0  0  0  0
   10.2931   -3.6307   18.0262 H   0  0  0  0  0
   11.8184   -3.6654   18.9446 H   0  0  0  0  0
   11.7695   -4.2850   17.2758 H   0  0  0  0  0
   11.8132   -5.4393   21.1017 H   0  0  0  0  0
    9.2125   -5.9213   22.4088 H   0  0  0  0  0
   10.3997   -6.2327   24.4184 H   0  0  0  0  0
   11.8965   -5.4313   23.7051 H   0  0  0  0  0
   12.4635   -7.3041   22.5331 H   0  0  0  0  0
   10.8055   -7.9851   22.6052 H   0  0  0  0  0
   11.1769   -8.9805   24.5689 H   0  0  0  0  0
   12.0760   -7.5523   25.2186 H   0  0  0  0  0
   14.0780   -8.4862   24.5032 H   0  0  0  0  0
   12.3914  -11.7875   22.8761 H   0  0  0  0  0
   11.3546  -10.4407   23.3584 H   0  0  0  0  0
   15.3791  -10.2119   23.8854 H   0  0  0  0  0
    8.1998   -4.5154   23.8851 H   0  0  0  0  0
    9.3441   -1.7737   23.8863 H   0  0  0  0  0
    7.0715   -0.8473   24.1289 H   0  0  0  0  0
    5.2936   -2.3186   23.7011 H   0  0  0  0  0
    8.0384   -0.9808   21.8935 H   0  0  0  0  0
    7.3897   -2.6270   21.6935 H   0  0  0  0  0
    6.2781   -1.2428   21.8321 H   0  0  0  0  0
    8.7855   -0.4630   25.7872 H   0  0  0  0  0
    7.6986   -1.9217   28.1550 H   0  0  0  0  0
   10.0572   -2.2230   28.3738 H   0  0  0  0  0
    9.4254   -1.0191   29.6058 H   0  0  0  0  0
   10.3454    0.7832   28.2689 H   0  0  0  0  0
   10.9788   -0.4004   27.0884 H   0  0  0  0  0
   12.3168   -1.4416   28.8885 H   0  0  0  0  0
   11.7334   -0.1487   30.0181 H   0  0  0  0  0
   12.8250    1.5346   28.6774 H   0  0  0  0  0
   13.3534    0.2871   27.4992 H   0  0  0  0  0
   15.1058    0.8610   29.0456 H   0  0  0  0  0
   14.1546    0.4307   30.3443 H   0  0  0  0  0
   14.6450   -0.7272   29.2508 H   0  0  0  0  0
    7.2160   -0.2758   29.9267 H   0  0  0  0  0
    6.5545    2.3762   28.6860 H   0  0  0  0  0
    5.0070    0.8838   30.8166 H   0  0  0  0  0
    4.5533    1.0239   29.0475 H   0  0  0  0  0
    4.8892    3.4022   30.8314 H   0  0  0  0  0
    3.3258    2.4891   30.7030 H   0  0  0  0  0
    3.6400    5.4507   28.2559 H   0  0  0  0  0
    4.0795    5.3174   29.9618 H   0  0  0  0  0
    7.6141    3.9840   29.6365 H   0  0  0  0  0
    8.4998    3.6109   32.4699 H   0  0  0  0  0
   10.4963    4.8957   32.0063 H   0  0  0  0  0
   10.8902    5.5628   29.8131 H   0  0  0  0  0
   10.6268    2.4815   31.6018 H   0  0  0  0  0
   10.1023    2.7232   29.9173 H   0  0  0  0  0
   11.6673    3.3733   30.4645 H   0  0  0  0  0
    8.9349    5.7538   33.5510 H   0  0  0  0  0
    6.5408    7.3632   33.4362 H   0  0  0  0  0
    7.7529    6.9477   35.5198 H   0  0  0  0  0
    9.1685    7.8204   34.8831 H   0  0  0  0  0
    7.6471    8.6941   35.1884 H   0  0  0  0  0
    6.1152    9.3322   32.6380 H   0  0  0  0  0
    8.1202   10.3139   30.6732 H   0  0  0  0  0
    5.1679   10.9878   30.8053 H   0  0  0  0  0
    5.8779    9.6010   29.8515 H   0  0  0  0  0
    7.3150   11.4924   28.8203 H   0  0  0  0  0
    5.9206   12.5289   29.3649 H   0  0  0  0  0
    4.4389   11.4644   27.9414 H   0  0  0  0  0
    5.5221   10.0500   27.7147 H   0  0  0  0  0
    6.7251   12.5014   26.7604 H   0  0  0  0  0
    4.6051   10.2369   24.1484 H   0  0  0  0  0
    4.3814    9.9836   25.8825 H   0  0  0  0  0
    6.9961   12.8087   24.5457 H   0  0  0  0  0
    9.4231   11.7226   31.5143 H   0  0  0  0  0
    9.2206   13.5075   33.5259 H   0  0  0  0  0
    8.9404   15.8114   33.4177 H   0  0  0  0  0
   10.7452   15.0134   32.2789 H   0  0  0  0  0
   10.3923   13.9884   30.7734 H   0  0  0  0  0
   11.3911   12.0958   32.0825 H   0  0  0  0  0
   12.0042   13.3242   33.2176 H   0  0  0  0  0
   12.8117   14.4991   30.9956 H   0  0  0  0  0
   12.7324   12.8032   30.3640 H   0  0  0  0  0
   14.1521   12.1512   32.3239 H   0  0  0  0  0
   14.4129   13.9227   32.5992 H   0  0  0  0  0
   16.1857   12.9323   31.3324 H   0  0  0  0  0
   15.1158   12.4196   30.1623 H   0  0  0  0  0
   15.3556   14.0490   30.4155 H   0  0  0  0  0
  1  2  1  0  0  0
  2  3  1  0  0  0
  2  5  1  0  0  0
  3  4  2  0  0  0
  3  6  1  0  0  0
  6  7  1  0  0  0
  7  8  1  0  0  0
  7 10  1  0  0  0
  8  9  2  0  0  0
  8 17  1  0  0  0
 10 11  1  0  0  0
 11 12  1  0  0  0
 12 13  1  0  0  0
 13 14  1  0  0  0
 14 15  1  0  0  0
 14 16  2  0  0  0
 17 18  1  0  0  0
 18 19  1  0  0  0
 18 21  1  0  0  0
 19 20  2  0  0  0
 19 24  1  0  0  0
 21 22  1  0  0  0
 21 23  1  0  0  0
 24 25  1  0  0  0
 25 26  1  0  0  0
 25 28  1  0  0  0
 26 27  2  0  0  0
 26 33  1  0  0  0
 28 29  1  0  0  0
 29 30  1  0  0  0
 30 31  1  0  0  0
 31 32  1  0  0  0
 33 34  1  0  0  0
 34 35  1  0  0  0
 34 37  1  0  0  0
 35 36  2  0  0  0
 35 42  1  0  0  0
 37 38  1  0  0  0
 38 39  1  0  0  0
 39 40  2  0  0  0
 39 41  1  0  0  0
 42 43  1  0  0  0
 43 44  1  0  0  0
 43 46  1  0  0  0
 44 45  2  0  0  0
 44 49  1  0  0  0
 46 47  1  0  0  0
 46 48  1  0  0  0
 49 50  1  0  0  0
 50 51  1  0  0  0
 50 53  1  0  0  0
 51 52  2  0  0  0
 51 54  1  0  0  0
 54 55  1  0  0  0
 55 56  1  0  0  0
 55 58  1  0  0  0
 56 57  2  0  0  0
 56 65  1  0  0  0
 58 59  1  0  0  0
 59 60  1  0  0  0
 60 61  1  0  0  0
 61 62  1  0  0  0
 62 63  1  0  0  0
 62 64  2  0  0  0
 65 66  1  0  0  0
 66 67  1  0  0  0
 66 69  1  0  0  0
 67 68  1  0  0  0
 69 70  1  0  0  0
 70 71  1  0  0  0
 71 72  1  0  0  0
 72 73  1  0  0  0
 67 74  2  0  0  0
  1 75  1  0  0  0
  1 76  1  0  0  0
  1 77  1  0  0  0
  2 78  1  0  0  0
  5 79  1  0  0  0
  5 80  1  0  0  0
  5 81  1  0  0  0
  6 82  1  0  0  0
  7 83  1  0  0  0
 10 84  1  0  0  0
 10 85  1  0  0  0
 11 86  1  0  0  0
 11 87  1  0  0  0
 12 88  1  0  0  0
 12 89  1  0  0  0
 13 90  1  0  0  0
 15 91  1  0  0  0
 15 92  1  0  0  0
 16 93  1  0  0  0
 17 94  1  0  0  0
 18 95  1  0  0  0
 21 96  1  0  0  0
 22 97  1  0  0  0
 23 98  1  0  0  0
 23 99  1  0  0  0
 23100  1  0  0  0
 24101  1  0  0  0
 25102  1  0  0  0
 28103  1  0  0  0
 28104  1  0  0  0
 29105  1  0  0  0
 29106  1  0  0  0
 30107  1  0  0  0
 30108  1  0  0  0
 31109  1  0  0  0
 31110  1  0  0  0
 32111  1  0  0  0
 32112  1  0  0  0
 32113  1  0  0  0
 33114  1  0  0  0
 34115  1  0  0  0
 37116  1  0  0  0
 37117  1  0  0  0
 38118  1  0  0  0
 38119  1  0  0  0
 41120  1  0  0  0
 41121  1  0  0  0
 42122  1  0  0  0
 43123  1  0  0  0
 46124  1  0  0  0
 47125  1  0  0  0
 48126  1  0  0  0
 48127  1  0  0  0
 48128  1  0  0  0
 49129  1  0  0  0
 50130  1  0  0  0
 53131  1  0  0  0
 53132  1  0  0  0
 53133  1  0  0  0
 54134  1  0  0  0
 55135  1  0  0  0
 58136  1  0  0  0
 58137  1  0  0  0
 59138  1  0  0  0
 59139  1  0  0  0
 60140  1  0  0  0
 60141  1  0  0  0
 61142  1  0  0  0
 63143  1  0  0  0
 63144  1  0  0  0
 64145  1  0  0  0
 65146  1  0  0  0
 66147  1  0  0  0
 68148  1  0  0  0
 69149  1  0  0  0
 69150  1  0  0  0
 70151  1  0  0  0
 70152  1  0  0  0
 71153  1  0  0  0
 71154  1  0  0  0
 72155  1  0  0  0
 72156  1  0  0  0
 73157  1  0  0  0
 73158  1  0  0  0
 73159  1  0  0  0
M  END
$$$$
