### 
### Created by X-TOOL on Mon Sep 10 21:12:45 2018
### 

@<TRIPOS>MOLECULE
1tsi_ligand
   19    18     1     0     0
SMALL
GAST_HUCK


@<TRIPOS>ATOM
      1 C1         36.2570   30.8760   19.4530 C.2       1 4PB         0.1988
      2 C2         36.1360   31.1160   20.9330 C.3       1 4PB         0.0402
      3 C3         35.0510   30.1260   21.3560 C.3       1 4PB        -0.0211
      4 C4         34.8020   29.9530   22.8710 C.3       1 4PB         0.0216
      5 N          35.6270   31.7560   18.6790 N.am      1 4PB        -0.1642
      6 O1         36.8980   29.9150   19.0440 O.2       1 4PB        -0.3970
      7 ON         35.6400   31.7050   17.2760 O.3       1 4PB        -0.2717
      8 P          33.3350   28.9660   23.2360 P.3       1 4PB         0.0580
      9 O1P        32.0700   29.8110   23.0370 O.co2     1 4PB        -0.5623
     10 O2P        33.2020   27.7200   22.3420 O.co2     1 4PB        -0.5623
     11 O3P        33.4560   28.5380   24.7080 O.co2     1 4PB        -0.5623
     12 H1         35.8290   32.1515   21.1415 H         1 4PB         0.0502
     13 H2         37.0855   30.9046   21.4465 H         1 4PB         0.0502
     14 H3         35.3267   29.1408   20.9518 H         1 4PB         0.0303
     15 H4         34.1057   30.4574   20.9015 H         1 4PB         0.0303
     16 H5         34.6757   30.9485   23.3215 H         1 4PB         0.0452
     17 H6         35.6775   29.4575   23.3159 H         1 4PB         0.0452
     18 H7         35.1165   32.4938   19.1206 H         1 4PB         0.2216
     19 H8         36.5354   31.7728   16.9661 H         1 4PB         0.2490
@<TRIPOS>BOND
     1    1    2 1  
     2    1    5 am 
     3    1    6 2  
     4    2    3 1  
     5    3    4 1  
     6    4    8 1  
     7    5    7 1  
     8    8    9 ar 
     9    8   10 ar 
    10    8   11 ar 
    11    2   12 1  
    12    2   13 1  
    13    3   14 1  
    14    3   15 1  
    15    4   16 1  
    16    4   17 1  
    17    5   18 1  
    18    7   19 1  
@<TRIPOS>SUBSTRUCTURE
     1 4PB         1

