1tsi_ligand
  -I-interpret- 

 21 20  0  0  0  0  0  0  0  0999 V2000
   36.2570   30.8760   19.4530 C   0  0  0  0  0
   36.1360   31.1160   20.9330 C   0  0  0  0  0
   35.0510   30.1260   21.3560 C   0  0  0  0  0
   34.8020   29.9530   22.8710 C   0  0  0  0  0
   35.6270   31.7560   18.6790 N   0  0  0  0  0
   36.8980   29.9150   19.0440 O   0  0  0  0  0
   35.6400   31.7050   17.2760 O   0  0  0  0  0
   33.3350   28.9660   23.2360 P   0  0  0  0  0
   32.0700   29.8110   23.0370 O   0  0  0  0  0
   33.2020   27.7200   22.3420 O   0  0  0  0  0
   33.4560   28.5380   24.7080 O   0  0  0  0  0
   35.8820   32.1483   21.1735 H   0  0  0  0  0
   37.0760   30.9636   21.4633 H   0  0  0  0  0
   35.3846   29.1518   20.9985 H   0  0  0  0  0
   34.1193   30.5162   20.9463 H   0  0  0  0  0
   34.6502   30.9443   23.2981 H   0  0  0  0  0
   35.6638   29.4355   23.2924 H   0  0  0  0  0
   35.1063   32.5086   19.1294 H   0  0  0  0  0
   35.1229   32.4340   16.9256 H   0  0  0  0  0
   33.9814   27.1691   22.4448 H   0  0  0  0  0
   34.2497   28.0103   24.8224 H   0  0  0  0  0
  1  2  1  0  0  0
  1  5  1  0  0  0
  1  6  2  0  0  0
  2  3  1  0  0  0
  3  4  1  0  0  0
  4  8  1  0  0  0
  5  7  1  0  0  0
  8  9  2  0  0  0
  8 10  1  0  0  0
  8 11  1  0  0  0
  2 12  1  0  0  0
  2 13  1  0  0  0
  3 14  1  0  0  0
  3 15  1  0  0  0
  4 16  1  0  0  0
  4 17  1  0  0  0
  5 18  1  0  0  0
  7 19  1  0  0  0
 10 20  1  0  0  0
 11 21  1  0  0  0
M  END
$$$$
