5boy_ligand
  -I-interpret- 

 34 36  0  0  0  0  0  0  0  0999 V2000
  -10.3190   26.8500   46.3440 C   0  0  0  0  0
   -9.1790   27.6450   46.1320 C   0  0  0  0  0
   -8.2500   27.7930   47.1220 C   0  0  0  0  0
   -9.5790   26.3550   48.5760 C   0  0  0  0  0
   -7.6970   27.1160   49.5020 N   0  0  0  0  0
   -9.4890   25.8380   49.8940 C   0  0  0  0  0
   -7.8450   26.0740   51.7850 C   0  0  0  0  0
   -6.4430   27.0800   54.6490 C   0  0  0  0  0
  -12.6750   26.7320   45.4200 C   0  0  0  0  0
  -11.3230   26.6700   45.2720 C   0  0  0  0  0
  -12.2920   26.2940   43.3360 C   0  0  0  0  0
   -9.7840   26.2120   43.2940 C   0  0  0  0  0
   -8.4100   25.2850   52.5170 O   0  0  0  0  0
   -6.7940   26.7660   52.2550 O   0  0  0  0  0
   -7.0980   27.6310   53.3830 C   0  0  0  0  0
   -8.3370   26.3200   50.4280 C   0  0  0  0  0
   -8.4380   27.1540   48.3500 C   0  0  0  0  0
  -10.5140   26.2000   47.5570 C   0  0  0  0  0
  -11.0880   26.3740   43.9440 N   0  0  0  0  0
  -13.2280   26.5010   44.2230 N   0  0  0  0  0
   -9.0361   28.1450   45.1741 H   0  0  0  0  0
   -7.3653   28.4073   46.9547 H   0  0  0  0  0
  -10.2067   25.1801   50.3841 H   0  0  0  0  0
   -6.8255   26.0790   54.8483 H   0  0  0  0  0
   -5.3630   27.0363   54.5083 H   0  0  0  0  0
   -6.6749   27.7331   55.4903 H   0  0  0  0  0
  -13.2112   26.9337   46.3473 H   0  0  0  0  0
  -12.4554   26.0900   42.2778 H   0  0  0  0  0
   -9.2146   27.1366   43.3892 H   0  0  0  0  0
   -9.2397   25.3977   43.7723 H   0  0  0  0  0
   -9.9315   25.9816   42.2389 H   0  0  0  0  0
   -6.7132   28.6312   53.1842 H   0  0  0  0  0
   -8.1780   27.6724   53.5247 H   0  0  0  0  0
  -11.3929   25.5734   47.7090 H   0  0  0  0  0
  1  2  4  0  0  0
  1 10  1  0  0  0
 18  1  4  0  0  0
  3  2  4  0  0  0
 17  3  4  0  0  0
  6  4  4  0  0  0
  4 17  4  0  0  0
  4 18  4  0  0  0
 16  5  4  0  0  0
  5 17  4  0  0  0
 16  6  4  0  0  0
  7 13  2  0  0  0
 14  7  1  0  0  0
  7 16  1  0  0  0
 15  8  1  0  0  0
 10  9  4  0  0  0
  9 20  4  0  0  0
 10 19  4  0  0  0
 19 11  4  0  0  0
 11 20  4  0  0  0
 19 12  1  0  0  0
 14 15  1  0  0  0
  2 21  1  0  0  0
  3 22  1  0  0  0
  6 23  1  0  0  0
  8 24  1  0  0  0
  8 25  1  0  0  0
  8 26  1  0  0  0
  9 27  1  0  0  0
 11 28  1  0  0  0
 12 29  1  0  0  0
 12 30  1  0  0  0
 12 31  1  0  0  0
 15 32  1  0  0  0
 15 33  1  0  0  0
 18 34  1  0  0  0
M  END
$$$$
