2gg2_ligand
  -I-interpret- 

 27 28  0  0  0  0  0  0  0  0999 V2000
   -6.4070   -2.8570    7.1340 F   0  0  0  0  0
   -7.2510   -2.4110    8.0440 C   0  0  0  0  0
   -7.6470   -3.4240    8.7940 F   0  0  0  0  0
   -8.3010   -1.8940    7.4320 F   0  0  0  0  0
   -6.6140   -1.3590    8.9080 C   0  0  0  0  0
   -7.4200   -0.6510    9.7950 C   0  0  0  0  0
   -6.8760    0.3330   10.6130 C   0  0  0  0  0
   -5.5190    0.6120   10.5460 C   0  0  0  0  0
   -5.2480   -1.0780    8.8420 C   0  0  0  0  0
   -4.7060   -0.0930    9.6660 C   0  0  0  0  0
   -3.3880    0.2340    9.6560 N   0  0  0  0  0
   -2.4860   -0.4600    9.1550 N   0  0  0  0  0
   -1.2090    0.0330    9.2390 C   0  0  0  0  0
   -0.6970    0.9030   10.1800 C   0  0  0  0  0
   -1.3500    1.4440   11.2480 N   0  0  0  0  0
    0.6070    1.1750    9.9220 N   0  0  0  0  0
    1.0380    0.4640    8.7890 N   0  0  0  0  0
   -0.0690   -0.2110    8.3390 C   0  0  0  0  0
   -0.1390   -1.0300    7.2500 N   0  0  0  0  0
   -8.4865   -0.8698    9.8488 H   0  0  0  0  0
   -7.5139    0.8833   11.3046 H   0  0  0  0  0
   -5.0897    1.3846   11.1839 H   0  0  0  0  0
   -4.6088   -1.6260    8.1498 H   0  0  0  0  0
   -2.3290    1.2132   11.4175 H   0  0  0  0  0
   -0.8594    2.0794   11.8773 H   0  0  0  0  0
   -1.0119   -1.5082    7.0267 H   0  0  0  0  0
    0.6816   -1.1641    6.6591 H   0  0  0  0  0
  1  2  1  0  0  0
  2  3  1  0  0  0
  2  4  1  0  0  0
  2  5  1  0  0  0
  5  6  4  0  0  0
  5  9  4  0  0  0
  6  7  4  0  0  0
  7  8  4  0  0  0
  8 10  4  0  0  0
  9 10  4  0  0  0
 10 11  1  0  0  0
 11 12  2  0  0  0
 12 13  1  0  0  0
 13 14  4  0  0  0
 13 18  4  0  0  0
 14 15  1  0  0  0
 14 16  4  0  0  0
 16 17  4  0  0  0
 17 18  4  0  0  0
 18 19  1  0  0  0
  6 20  1  0  0  0
  7 21  1  0  0  0
  8 22  1  0  0  0
  9 23  1  0  0  0
 15 24  1  0  0  0
 15 25  1  0  0  0
 19 26  1  0  0  0
 19 27  1  0  0  0
M  END
$$$$
