1ze8_ligand
  -I-interpret- 

 42 43  0  0  0  0  0  0  0  0999 V2000
   -5.9260    1.0470   16.7310 S   0  0  0  0  0
   -5.3180    1.1370   18.0510 O   0  0  0  0  0
   -7.3600    0.9510   16.6220 O   0  0  0  0  0
   -5.3200   -0.2510   16.0540 N   0  0  0  0  0
   -5.8730    4.8280   15.0170 C   0  0  0  0  0
   -3.6230    3.8390   14.6280 C   0  0  0  0  0
   -4.0530    2.6260   15.2880 C   0  0  0  0  0
   -6.2930    3.6320   15.6680 C   0  0  0  0  0
   -4.5470    4.9360   14.4970 C   0  0  0  0  0
   -5.3920    2.5250   15.8040 C   0  0  0  0  0
   -4.1220    6.2180   13.8160 C   0  0  0  0  0
   -4.6140    6.3900   12.3810 C   0  0  0  0  0
   -4.6250    7.8330   11.9070 N   0  0  0  0  0
   -3.4390    9.8460   11.0770 C   0  0  0  0  0
   -5.9160    9.8620   11.3380 C   0  0  0  0  0
   -5.8850    8.5230   11.8050 C   0  0  0  0  0
   -3.3930    8.5010   11.5400 C   0  0  0  0  0
   -4.6990   10.5110   10.9830 C   0  0  0  0  0
   -4.7510   11.9400   10.5330 C   0  0  0  0  0
   -1.9930    7.9110   11.5970 C   0  0  0  0  0
   -7.2290    7.9440   12.1830 C   0  0  0  0  0
   -4.6430   -0.8216   16.5605 H   0  0  0  0  0
   -5.6068   -0.5160   15.1117 H   0  0  0  0  0
   -6.5659    5.6632   14.9155 H   0  0  0  0  0
   -2.6102    3.9221   14.2338 H   0  0  0  0  0
   -3.3630    1.7890   15.3943 H   0  0  0  0  0
   -7.3054    3.5583   16.0650 H   0  0  0  0  0
   -3.0330    6.2015   13.7722 H   0  0  0  0  0
   -4.5535    7.0356   14.3935 H   0  0  0  0  0
   -5.6411    6.0271   12.3433 H   0  0  0  0  0
   -3.9302    5.8401   11.7343 H   0  0  0  0  0
   -2.5214   10.3633   10.7969 H   0  0  0  0  0
   -6.8652   10.3909   11.2514 H   0  0  0  0  0
   -4.1729   12.5574   11.2206 H   0  0  0  0  0
   -4.3308   12.0194    9.5304 H   0  0  0  0  0
   -5.7870   12.2786   10.5220 H   0  0  0  0  0
   -1.7635    7.6218   12.6226 H   0  0  0  0  0
   -1.9429    7.0344   10.9511 H   0  0  0  0  0
   -1.2724    8.6553   11.2581 H   0  0  0  0  0
   -7.4241    7.0577   11.5793 H   0  0  0  0  0
   -7.2221    7.6719   13.2385 H   0  0  0  0  0
   -8.0066    8.6863   12.0029 H   0  0  0  0  0
  1  2  2  0  0  0
  1  3  2  0  0  0
  1  4  1  0  0  0
 10  1  1  0  0  0
  5  8  4  0  0  0
  9  5  4  0  0  0
  7  6  4  0  0  0
  6  9  4  0  0  0
  7 10  4  0  0  0
  8 10  4  0  0  0
  9 11  1  0  0  0
 11 12  1  0  0  0
 12 13  1  0  0  0
 13 16  4  0  0  0
 13 17  4  0  0  0
 17 14  4  0  0  0
 14 18  4  0  0  0
 16 15  4  0  0  0
 15 18  4  0  0  0
 16 21  1  0  0  0
 17 20  1  0  0  0
 18 19  1  0  0  0
  4 22  1  0  0  0
  4 23  1  0  0  0
  5 24  1  0  0  0
  6 25  1  0  0  0
  7 26  1  0  0  0
  8 27  1  0  0  0
 11 28  1  0  0  0
 11 29  1  0  0  0
 12 30  1  0  0  0
 12 31  1  0  0  0
 14 32  1  0  0  0
 15 33  1  0  0  0
 19 34  1  0  0  0
 19 35  1  0  0  0
 19 36  1  0  0  0
 20 37  1  0  0  0
 20 38  1  0  0  0
 20 39  1  0  0  0
 21 40  1  0  0  0
 21 41  1  0  0  0
 21 42  1  0  0  0
M  END
$$$$
