4cnh_ligand
  -I-interpret- 

 43 45  0  0  0  0  0  0  0  0999 V2000
   48.2310   -1.9910  -47.9280 C   0  0  0  0  0
   48.7500   -0.6740  -47.8890 C   0  0  0  0  0
   43.7320   -1.9260  -46.6380 C   0  0  0  0  0
   47.5590   -0.2530  -45.7830 C   0  0  0  0  0
   41.6330   -0.8970  -47.1300 C   0  0  0  0  0
   43.6680   -3.1190  -49.5040 C   0  0  0  0  0
   42.6280   -1.8190  -47.5200 C   0  0  0  0  0
   47.0160   -1.5800  -45.7940 C   0  0  0  0  0
   47.3600   -2.4660  -46.8890 C   0  0  0  0  0
   43.8460   -1.1640  -45.4370 C   0  0  0  0  0
   48.4130    0.1830  -46.8210 C   0  0  0  0  0
   42.5930   -2.6410  -48.7570 C   0  0  0  0  0
   42.7870   -0.2710  -45.1460 C   0  0  0  0  0
   46.7880   -2.0210  -43.3010 C   0  0  0  0  0
   40.0840   -3.0280  -49.2840 C   0  0  0  0  0
   47.0660   -4.6890  -47.8720 C   0  0  0  0  0
   46.0690   -2.0450  -44.6590 C   0  0  0  0  0
   41.6970   -0.1420  -45.9800 N   0  0  0  0  0
   43.2440   -3.8340  -50.5740 N   0  0  0  0  0
   41.9270   -3.8420  -50.5570 N   0  0  0  0  0
   41.5150   -3.1390  -49.4840 N   0  0  0  0  0
   42.8380    0.5130  -43.9800 N   0  0  0  0  0
   46.7920   -3.7390  -46.8350 O   0  0  0  0  0
   44.8910   -1.1890  -44.5110 O   0  0  0  0  0
   48.9080    1.4280  -46.7890 F   0  0  0  0  0
   48.4950   -2.6508  -48.7545 H   0  0  0  0  0
   49.4089   -0.3232  -48.6833 H   0  0  0  0  0
   44.5316   -2.6231  -46.8888 H   0  0  0  0  0
   47.3109    0.4255  -44.9668 H   0  0  0  0  0
   40.7638   -0.7755  -47.7763 H   0  0  0  0  0
   44.7150   -2.9407  -49.2590 H   0  0  0  0  0
   47.0739   -0.9970  -43.0607 H   0  0  0  0  0
   46.1187   -2.4031  -42.5302 H   0  0  0  0  0
   47.6796   -2.6460  -43.3523 H   0  0  0  0  0
   39.8185   -3.4611  -48.3196 H   0  0  0  0  0
   39.7962   -1.9769  -49.3032 H   0  0  0  0  0
   39.5647   -3.5628  -50.0792 H   0  0  0  0  0
   46.7284   -4.2888  -48.8280 H   0  0  0  0  0
   48.1384   -4.8792  -47.9146 H   0  0  0  0  0
   46.5389   -5.6191  -47.6595 H   0  0  0  0  0
   45.7624   -3.0522  -44.9412 H   0  0  0  0  0
   43.6354    0.4367  -43.3486 H   0  0  0  0  0
   42.0776    1.1581  -43.7655 H   0  0  0  0  0
  1  2  4  0  0  0
  9  1  4  0  0  0
 11  2  4  0  0  0
  3  7  4  0  0  0
 10  3  4  0  0  0
  8  4  4  0  0  0
  4 11  4  0  0  0
  7  5  4  0  0  0
 18  5  4  0  0  0
 12  6  4  0  0  0
  6 19  4  0  0  0
  7 12  1  0  0  0
  8  9  4  0  0  0
 17  8  1  0  0  0
  9 23  1  0  0  0
 10 13  4  0  0  0
 24 10  1  0  0  0
 11 25  1  0  0  0
 12 21  4  0  0  0
 13 18  4  0  0  0
 13 22  1  0  0  0
 17 14  1  0  0  0
 21 15  1  0  0  0
 23 16  1  0  0  0
 17 24  1  0  0  0
 19 20  4  0  0  0
 20 21  4  0  0  0
  1 26  1  0  0  0
  2 27  1  0  0  0
  3 28  1  0  0  0
  4 29  1  0  0  0
  5 30  1  0  0  0
  6 31  1  0  0  0
 14 32  1  0  0  0
 14 33  1  0  0  0
 14 34  1  0  0  0
 15 35  1  0  0  0
 15 36  1  0  0  0
 15 37  1  0  0  0
 16 38  1  0  0  0
 16 39  1  0  0  0
 16 40  1  0  0  0
 17 41  1  0  0  0
 22 42  1  0  0  0
 22 43  1  0  0  0
M  END
$$$$
