6knh_ligand
  -I-interpret- 

 21 20  0  0  0  0  0  0  0  0999 V2000
  -52.0560  -37.6180   24.5980 C   0  0  0  0  0
  -52.2560  -38.4700   23.7070 O   0  0  0  0  0
  -52.3870  -36.4220   24.4540 O   0  0  0  0  0
  -51.3930  -38.0860   25.8820 C   0  0  0  0  0
  -50.7410  -36.9890   26.7290 C   0  0  0  0  0
  -51.7710  -36.2050   27.3520 O   0  0  0  0  0
  -49.8970  -37.6900   27.7980 C   0  0  0  0  0
  -49.3550  -36.7590   28.8670 C   0  0  0  0  0
  -49.8780  -35.6350   29.0480 O   0  0  0  0  0
  -48.3900  -37.1630   29.5480 O   0  0  0  0  0
  -49.8360  -36.0890   25.8910 C   0  0  0  0  0
  -49.0150  -36.6200   25.1060 O   0  0  0  0  0
  -49.9380  -34.8430   26.0020 O   0  0  0  0  0
  -52.1514  -35.9287   25.2431 H   0  0  0  0  0
  -50.5933  -38.7655   25.5872 H   0  0  0  0  0
  -52.1809  -38.5230   26.4954 H   0  0  0  0  0
  -52.2942  -35.7699   26.6748 H   0  0  0  0  0
  -49.0399  -38.1347   27.2923 H   0  0  0  0  0
  -50.5428  -38.4128   28.2966 H   0  0  0  0  0
  -50.6003  -35.5157   28.4270 H   0  0  0  0  0
  -50.6167  -34.6349   26.6483 H   0  0  0  0  0
  1  2  2  0  0  0
  1  3  1  0  0  0
  1  4  1  0  0  0
  4  5  1  0  0  0
  5  6  1  0  0  0
  5  7  1  0  0  0
  5 11  1  0  0  0
  7  8  1  0  0  0
  8  9  1  0  0  0
  8 10  2  0  0  0
 11 12  2  0  0  0
 11 13  1  0  0  0
  3 14  1  0  0  0
  4 15  1  0  0  0
  4 16  1  0  0  0
  6 17  1  0  0  0
  7 18  1  0  0  0
  7 19  1  0  0  0
  9 20  1  0  0  0
 13 21  1  0  0  0
M  END
$$$$
