1so2_ligand
  -I-interpret- 

 54 57  0  0  0  0  0  0  0  0999 V2000
   64.6380    1.7810    7.4770 C   0  0  0  0  0
   64.4330    2.4140    8.7490 C   0  0  0  0  0
   64.6860    1.7000    9.9980 C   0  0  0  0  0
   65.1560    0.3260    9.9120 C   0  0  0  0  0
   65.3740   -0.3470    8.6080 C   0  0  0  0  0
   65.1080    0.4050    7.4120 C   0  0  0  0  0
   64.4640    2.3950   11.3560 C   0  0  0  0  0
   63.2160    3.2920   11.3690 C   0  0  0  0  0
   61.9440    2.8970   11.5700 C   0  0  0  0  0
   60.9490    3.6210   12.5240 C   0  0  0  0  0
   60.9380    5.1950   12.2730 C   0  0  0  0  0
   62.5770    5.6440   12.4410 C   0  0  0  0  0
   63.6500    4.5510   12.2220 C   0  0  0  0  0
   61.5800    1.6900   10.7750 N   0  0  0  0  0
   60.4780    0.9210   10.6330 C   0  0  0  0  0
   59.4320    0.8880   11.5990 C   0  0  0  0  0
   58.3200    0.0610   11.4530 C   0  0  0  0  0
   58.2080   -0.7880   10.3090 C   0  0  0  0  0
   59.2420   -0.7720    9.3010 C   0  0  0  0  0
   60.3820    0.0900    9.4650 C   0  0  0  0  0
   57.0610   -1.6940   10.2260 C   0  0  0  0  0
   56.9590   -2.6250    9.2070 N   0  0  0  0  0
   56.0280   -3.4790    9.0970 N   0  0  0  0  0
   54.8330   -3.4740    9.7710 C   0  0  0  0  0
   54.6200   -2.2900   10.7390 C   0  0  0  0  0
   55.9320   -1.7220   11.3300 C   0  0  0  0  0
   64.7330    4.7000   12.7050 O   0  0  0  0  0
   54.0100   -4.3150    9.6430 O   0  0  0  0  0
   56.4010   -2.5900   12.5490 C   0  0  0  0  0
   66.0770   -2.3830    8.4970 I   0  0  0  0  0
   64.4412    2.3322    6.5575 H   0  0  0  0  0
   64.0824    3.4455    8.7835 H   0  0  0  0  0
   65.3536   -0.2246   10.8317 H   0  0  0  0  0
   65.2609   -0.0634    6.4397 H   0  0  0  0  0
   65.3306    3.0259   11.5537 H   0  0  0  0  0
   64.3255    1.6194   12.1092 H   0  0  0  0  0
   61.2616    3.4378   13.5520 H   0  0  0  0  0
   59.9474    3.2346   12.3355 H   0  0  0  0  0
   60.2889    5.7227   12.9717 H   0  0  0  0  0
   60.5335    5.4571   11.2954 H   0  0  0  0  0
   62.6881    5.9571   13.4791 H   0  0  0  0  0
   62.7562    6.3875   11.6644 H   0  0  0  0  0
   62.3533    1.3641   10.1952 H   0  0  0  0  0
   59.5034    1.5283   12.4782 H   0  0  0  0  0
   57.5364    0.0617   12.2107 H   0  0  0  0  0
   59.1591   -1.4095    8.4208 H   0  0  0  0  0
   61.1668    0.1125    8.7090 H   0  0  0  0  0
   56.1830   -4.2458    8.4424 H   0  0  0  0  0
   54.0200   -2.6556   11.5723 H   0  0  0  0  0
   54.1453   -1.4888   10.1726 H   0  0  0  0  0
   55.7451   -0.7042   11.6724 H   0  0  0  0  0
   56.6022   -3.6072   12.2130 H   0  0  0  0  0
   57.3086   -2.1595   12.9721 H   0  0  0  0  0
   55.6170   -2.6045   13.3061 H   0  0  0  0  0
  1  2  4  0  0  0
  1  6  4  0  0  0
  2  3  4  0  0  0
  3  4  4  0  0  0
  3  7  1  0  0  0
  4  5  4  0  0  0
  5  6  4  0  0  0
  5 30  1  0  0  0
  7  8  1  0  0  0
  8  9  2  0  0  0
  8 13  1  0  0  0
  9 10  1  0  0  0
  9 14  1  0  0  0
 10 11  1  0  0  0
 11 12  1  0  0  0
 12 13  1  0  0  0
 13 27  2  0  0  0
 14 15  1  0  0  0
 15 16  4  0  0  0
 15 20  4  0  0  0
 16 17  4  0  0  0
 17 18  4  0  0  0
 18 19  4  0  0  0
 18 21  1  0  0  0
 19 20  4  0  0  0
 21 22  2  0  0  0
 21 26  1  0  0  0
 22 23  1  0  0  0
 23 24  1  0  0  0
 24 25  1  0  0  0
 24 28  2  0  0  0
 25 26  1  0  0  0
 26 29  1  0  0  0
  1 31  1  0  0  0
  2 32  1  0  0  0
  4 33  1  0  0  0
  6 34  1  0  0  0
  7 35  1  0  0  0
  7 36  1  0  0  0
 10 37  1  0  0  0
 10 38  1  0  0  0
 11 39  1  0  0  0
 11 40  1  0  0  0
 12 41  1  0  0  0
 12 42  1  0  0  0
 14 43  1  0  0  0
 16 44  1  0  0  0
 17 45  1  0  0  0
 19 46  1  0  0  0
 20 47  1  0  0  0
 23 48  1  0  0  0
 25 49  1  0  0  0
 25 50  1  0  0  0
 26 51  1  0  0  0
 29 52  1  0  0  0
 29 53  1  0  0  0
 29 54  1  0  0  0
M  END
$$$$
