### 
### Created by X-TOOL on Mon Aug  2 16:14:39 2021
### 

@<TRIPOS>MOLECULE
6k5t_ligand
  166   165     1     0     0
SMALL
GAST_HUCK


@<TRIPOS>ATOM
      1 N          -8.2830  -20.2940   -4.8850 N.4       1 ASP         0.2391
      2 CA         -8.3330  -19.1190   -4.0180 C.3       1 ASP         0.0764
      3 C          -7.7940  -17.8970   -4.7420 C.2       1 ASP         0.2285
      4 O          -7.5670  -17.9490   -5.9530 O.2       1 ASP        -0.3906
      5 CB         -7.5410  -19.3700   -2.7420 C.3       1 ASP         0.0607
      6 CG         -8.3340  -20.1800   -1.7390 C.2       1 ASP         0.0425
      7 OD1        -7.9320  -21.3260   -1.4400 O.co2     1 ASP        -0.5686
      8 OD2        -9.3650  -19.6740   -1.2490 O.co2     1 ASP        -0.5686
      9 N          -7.5540  -16.8050   -4.0180 N.am      1 ASP        -0.2585
     10 CA         -7.0540  -15.6140   -4.6710 C.3       1 ASP         0.1566
     11 C          -5.6880  -15.2000   -4.1440 C.2       1 ASP         0.2065
     12 O          -5.5150  -14.9330   -2.9550 O.2       1 ASP        -0.3943
     13 CB         -8.0250  -14.4360   -4.4720 C.3       1 ASP         0.0924
     14 OG1        -9.3780  -14.9160   -4.4150 O.3       1 ASP        -0.3874
     15 CG2        -7.8880  -13.4310   -5.5990 C.3       1 ASP        -0.0346
     16 N          -4.7310  -15.1500   -5.0590 N.am      1 ASP        -0.2639
     17 CA         -3.3810  -14.7190   -4.7550 C.3       1 ASP         0.1282
     18 C          -2.9670  -13.6340   -5.7290 C.2       1 ASP         0.2034
     19 O          -3.0670  -13.8220   -6.9400 O.2       1 ASP        -0.3944
     20 CB         -2.4090  -15.8860   -4.8230 C.3       1 ASP        -0.0244
     21 N          -2.5170  -12.5080   -5.2210 N.am      1 ASP        -0.2664
     22 CA         -2.0900  -11.4450   -6.1010 C.3       1 ASP         0.1201
     23 C          -0.6800  -11.0070   -5.8270 C.2       1 ASP         0.2008
     24 O          -0.3380  -10.7290   -4.6850 O.2       1 ASP        -0.3947
     25 N           0.1540  -10.9610   -6.8540 N.am      1 ASP        -0.2632
     26 CA          1.5280  -10.5230   -6.6600 C.3       1 ASP         0.1396
     27 C           1.8230   -9.3090   -7.5420 C.2       1 ASP         0.2047
     28 O           1.6910   -9.3650   -8.7640 O.2       1 ASP        -0.3944
     29 CB          2.4910  -11.6780   -6.9810 C.3       1 ASP         0.0311
     30 SG          2.1790  -13.1810   -6.0220 S.3       1 ASP        -0.1735
     31 N           2.1980   -8.2050   -6.9060 N.am      1 ASP        -0.2634
     32 CA          2.5270   -6.9740   -7.6160 C.3       1 ASP         0.1335
     33 C           3.8930   -6.4370   -7.1800 C.2       1 ASP         0.2042
     34 O           4.1740   -6.3630   -5.9800 O.2       1 ASP        -0.3944
     35 CB          1.4120   -5.9100   -7.4260 C.3       1 ASP        -0.0037
     36 CG1         1.8530   -4.5210   -7.9240 C.3       1 ASP        -0.0491
     37 CG2         0.9760   -5.8380   -5.9700 C.3       1 ASP        -0.0582
     38 CD1         0.7110   -3.5280   -8.0170 C.3       1 ASP        -0.0648
     39 N           4.7490   -6.0860   -8.1380 N.am      1 ASP        -0.2635
     40 CA          6.0630   -5.5340   -7.8160 C.3       1 ASP         0.1332
     41 C           6.1600   -4.1080   -8.3680 C.2       1 ASP         0.2042
     42 O           5.8690   -3.8530   -9.5370 O.2       1 ASP        -0.3944
     43 CB          7.2320   -6.4010   -8.3590 C.3       1 ASP        -0.0063
     44 CG1         7.2370   -6.4470   -9.8840 C.3       1 ASP        -0.0584
     45 CG2         8.5680   -5.8880   -7.8330 C.3       1 ASP        -0.0584
     46 N           6.5660   -3.1800   -7.5140 N.am      1 ASP        -0.2635
     47 CA          6.6630   -1.7770   -7.8880 C.3       1 ASP         0.1335
     48 C           8.0820   -1.2570   -7.7180 C.2       1 ASP         0.2042
     49 O           8.7400   -1.5460   -6.7210 O.2       1 ASP        -0.3944
     50 CB          5.6870   -0.9140   -7.0490 C.3       1 ASP        -0.0037
     51 CG1         5.7970    0.5760   -7.4130 C.3       1 ASP        -0.0491
     52 CG2         5.9440   -1.1150   -5.5570 C.3       1 ASP        -0.0582
     53 CD1         5.3780    0.9070   -8.8330 C.3       1 ASP        -0.0648
     54 N           8.5780   -0.5290   -8.6990 N.am      1 ASP        -0.2613
     55 CA          9.9010    0.0190   -8.5830 C.3       1 ASP         0.1586
     56 CB         10.7340   -0.4820   -9.7570 C.3       1 ASP         0.1184
     57 OG         12.0830   -0.0660   -9.6680 O.3       1 ASP        -0.2714
     58 C           9.8230    1.5310   -8.5740 C.2       1 ASP         0.2066
     59 O           9.3440    2.1630   -9.5190 O.2       1 ASP        -0.3943
     60 P          13.1620   -1.0100   -8.9750 P.3       1 ASP         0.2010
     61 O1P        14.5520   -0.6640   -9.3030 O.co2     1 ASP        -0.5537
     62 O2P        12.8680   -2.4520   -9.0710 O.co2     1 ASP        -0.5537
     63 O3P        13.0340   -0.6840   -7.4200 O.co2     1 ASP        -0.5537
     64 N          10.2500    2.0880   -7.4620 N.am      1 ASP        -0.2621
     65 CA         10.2580    3.5130   -7.2530 C.3       1 ASP         0.1423
     66 C          11.5770    3.9700   -6.6640 C.2       1 ASP         0.2057
     67 O          12.1090    3.3400   -5.7590 O.2       1 ASP        -0.3943
     68 CB          9.0980    3.9490   -6.3940 C.3       1 ASP         0.0406
     69 CG          8.7350    5.3960   -6.6580 C.2       1 ASP         0.0393
     70 OD1         8.8460    5.8430   -7.8250 O.co2     1 ASP        -0.5688
     71 OD2         8.3600    6.0970   -5.7040 O.co2     1 ASP        -0.5688
     72 N          12.1230    5.0300   -7.2000 N.am      1 ASP        -0.2612
     73 CA         13.3880    5.5680   -6.7220 C.3       1 ASP         0.1586
     74 CB         14.4600    5.4460   -7.7490 C.3       1 ASP         0.1184
     75 OG         15.6190    4.8030   -7.2210 O.3       1 ASP        -0.2714
     76 C          13.2770    7.0330   -6.3270 C.2       1 ASP         0.2060
     77 O          12.5750    7.7980   -6.9900 O.2       1 ASP        -0.3943
     78 P          16.9620    5.6350   -7.0220 P.3       1 ASP         0.2010
     79 O1P        16.8860    6.2110   -5.5320 O.co2     1 ASP        -0.5537
     80 O2P        17.0620    6.8230   -7.8780 O.co2     1 ASP        -0.5537
     81 O3P        18.1730    4.8030   -7.0310 O.co2     1 ASP        -0.5537
     82 N          13.9240    7.4020   -5.2250 N.am      1 ASP        -0.2693
     83 CA         13.9370    8.7900   -4.7510 C.3       1 ASP         0.0959
     84 C          14.3940    9.7610   -5.8470 C.2       1 ASP         0.0602
     85 O          14.8370    9.3660   -6.9310 O.co2     1 ASP        -0.5666
     86 CB         14.8600    8.9200   -3.5380 C.3       1 ASP        -0.0064
     87 CG         15.2210   10.3540   -3.1830 C.3       1 ASP         0.0038
     88 CD         14.1110   11.0860   -2.4590 C.2       1 ASP         0.0350
     89 OE1        13.8010   12.2330   -2.8400 O.co2     1 ASP        -0.5690
     90 OE2        13.5370   10.5170   -1.5070 O.co2     1 ASP        -0.5690
     91 OXT        14.3420   10.9870   -5.7010 O.co2     1 ASP        -0.5666
     92 H1         -8.6440  -21.0935   -4.3885 H         1 ASP         0.2016
     93 H2         -7.3286  -20.4704   -5.1572 H         1 ASP         0.2016
     94 H3         -8.8420  -20.1288   -5.7074 H         1 ASP         0.2016
     95 H4         -9.3821  -18.9295   -3.7471 H         1 ASP         0.1117
     96 H5         -7.2779  -18.4023   -2.2899 H         1 ASP         0.0512
     97 H6         -6.6217  -19.9184   -2.9954 H         1 ASP         0.0512
     98 H7         -7.7179  -16.8080   -3.0315 H         1 ASP         0.1885
     99 H8         -6.9657  -15.8251   -5.7469 H         1 ASP         0.0826
    100 H9         -7.7836  -13.9372   -3.5218 H         1 ASP         0.0639
    101 H10        -9.9683  -14.1819   -4.2922 H         1 ASP         0.2101
    102 H11        -8.5898  -12.5997   -5.4363 H         1 ASP         0.0257
    103 H12        -8.1159  -13.9211   -6.5571 H         1 ASP         0.0257
    104 H13        -6.8589  -13.0430   -5.6213 H         1 ASP         0.0257
    105 H14        -4.9489  -15.4204   -5.9968 H         1 ASP         0.1883
    106 H15        -3.3629  -14.3073   -3.7351 H         1 ASP         0.0797
    107 H16        -1.3942  -15.5321   -4.5887 H         1 ASP         0.0277
    108 H17        -2.4226  -16.3161   -5.8353 H         1 ASP         0.0277
    109 H18        -2.7068  -16.6542   -4.0942 H         1 ASP         0.0277
    110 H19        -2.4705  -12.3879   -4.2293 H         1 ASP         0.1881
    111 H20        -2.7602  -10.5834   -5.9654 H         1 ASP         0.0763
    112 H21        -2.1541  -11.7995   -7.1403 H         1 ASP         0.0763
    113 H22        -0.1608  -11.2278   -7.7649 H         1 ASP         0.1884
    114 H23         1.6631  -10.2335   -5.6074 H         1 ASP         0.0808
    115 H24         3.5173  -11.3413   -6.7729 H         1 ASP         0.0422
    116 H25         2.3947  -11.9225   -8.0491 H         1 ASP         0.0422
    117 H26         2.8452  -13.8903   -6.2850 H         1 ASP         0.1019
    118 H27         2.2567   -8.2181   -5.9078 H         1 ASP         0.1883
    119 H28         2.5865   -7.2094   -8.6888 H         1 ASP         0.0803
    120 H29         0.5447   -6.2228   -8.0259 H         1 ASP         0.0345
    121 H30         2.3001   -4.6337   -8.9227 H         1 ASP         0.0267
    122 H31         2.6060   -4.1231   -7.2278 H         1 ASP         0.0267
    123 H32         0.6647   -6.8370   -5.6307 H         1 ASP         0.0235
    124 H33         0.1323   -5.1388   -5.8740 H         1 ASP         0.0235
    125 H34         1.8158   -5.4863   -5.3527 H         1 ASP         0.0235
    126 H35         1.0938   -2.5617   -8.3772 H         1 ASP         0.0230
    127 H36         0.2583   -3.3956   -7.0233 H         1 ASP         0.0230
    128 H37        -0.0476   -3.9062   -8.7181 H         1 ASP         0.0230
    129 H38         4.4874   -6.2025   -9.0961 H         1 ASP         0.1883
    130 H39         6.1555   -5.4923   -6.7207 H         1 ASP         0.0802
    131 H40         7.0911   -7.4278   -7.9904 H         1 ASP         0.0343
    132 H41         8.0765   -7.0684  -10.2293 H         1 ASP         0.0234
    133 H42         7.3480   -5.4273  -10.2813 H         1 ASP         0.0234
    134 H43         6.2903   -6.8786  -10.2410 H         1 ASP         0.0234
    135 H44         8.5438   -5.8625   -6.7336 H         1 ASP         0.0234
    136 H45         8.7493   -4.8742   -8.2193 H         1 ASP         0.0234
    137 H46         9.3748   -6.5572   -8.1665 H         1 ASP         0.0234
    138 H47         6.8133   -3.4520   -6.5840 H         1 ASP         0.1883
    139 H48         6.3851   -1.6854   -8.9484 H         1 ASP         0.0803
    140 H49         4.6618   -1.2453   -7.2707 H         1 ASP         0.0345
    141 H50         6.8444    0.8856   -7.2824 H         1 ASP         0.0267
    142 H51         5.1573    1.1467   -6.7238 H         1 ASP         0.0267
    143 H52         5.8621   -2.1842   -5.3116 H         1 ASP         0.0235
    144 H53         5.2009   -0.5478   -4.9772 H         1 ASP         0.0235
    145 H54         6.9541   -0.7579   -5.3075 H         1 ASP         0.0235
    146 H55         5.4882    1.9878   -9.0053 H         1 ASP         0.0230
    147 H56         4.3274    0.6172   -8.9823 H         1 ASP         0.0230
    148 H57         6.0146    0.3561   -9.5410 H         1 ASP         0.0230
    149 H58         8.0350   -0.3588   -9.5213 H         1 ASP         0.1884
    150 H59        10.3592   -0.3214   -7.6427 H         1 ASP         0.0827
    151 H60        10.3030   -0.0907  -10.6903 H         1 ASP         0.0662
    152 H61        10.7021   -1.5814   -9.7710 H         1 ASP         0.0662
    153 H62        10.5841    1.4958   -6.7287 H         1 ASP         0.1884
    154 H63        10.1453    3.9951   -8.2353 H         1 ASP         0.0819
    155 H64         9.3730    3.8355   -5.3350 H         1 ASP         0.0478
    156 H65         8.2277    3.3143   -6.6170 H         1 ASP         0.0478
    157 H66        11.6582    5.4841   -7.9601 H         1 ASP         0.1884
    158 H67        13.6851    4.9895   -5.8348 H         1 ASP         0.0827
    159 H68        14.7370    6.4518   -8.0979 H         1 ASP         0.0662
    160 H69        14.0786    4.8563   -8.5956 H         1 ASP         0.0662
    161 H70        14.4190    6.7087   -4.7012 H         1 ASP         0.1875
    162 H71        12.9148    9.0621   -4.4492 H         1 ASP         0.0727
    163 H72        15.7899    8.3725   -3.7513 H         1 ASP         0.0323
    164 H73        14.3575    8.4657   -2.6713 H         1 ASP         0.0323
    165 H74        15.4503   10.8971   -4.1117 H         1 ASP         0.0432
    166 H75        16.1109   10.3409   -2.5366 H         1 ASP         0.0432
@<TRIPOS>BOND
     1    1    2 1  
     2    2    3 1  
     3    2    5 1  
     4    3    4 2  
     5    3    9 am 
     6    5    6 1  
     7    6    7 ar 
     8    6    8 ar 
     9    9   10 1  
    10   10   11 1  
    11   10   13 1  
    12   11   12 2  
    13   11   16 am 
    14   13   14 1  
    15   13   15 1  
    16   16   17 1  
    17   17   18 1  
    18   17   20 1  
    19   18   19 2  
    20   18   21 am 
    21   21   22 1  
    22   22   23 1  
    23   23   24 2  
    24   23   25 am 
    25   25   26 1  
    26   26   27 1  
    27   26   29 1  
    28   27   28 2  
    29   27   31 am 
    30   29   30 1  
    31   31   32 1  
    32   32   33 1  
    33   32   35 1  
    34   33   34 2  
    35   33   39 am 
    36   35   36 1  
    37   35   37 1  
    38   36   38 1  
    39   39   40 1  
    40   40   41 1  
    41   40   43 1  
    42   41   42 2  
    43   41   46 am 
    44   43   44 1  
    45   43   45 1  
    46   46   47 1  
    47   47   48 1  
    48   47   50 1  
    49   48   49 2  
    50   48   54 am 
    51   50   51 1  
    52   50   52 1  
    53   51   53 1  
    54   54   55 1  
    55   55   56 1  
    56   55   58 1  
    57   56   57 1  
    58   57   60 1  
    59   58   59 2  
    60   58   64 am 
    61   60   61 ar 
    62   60   62 ar 
    63   60   63 ar 
    64   64   65 1  
    65   65   66 1  
    66   65   68 1  
    67   66   67 2  
    68   66   72 am 
    69   68   69 1  
    70   69   70 ar 
    71   69   71 ar 
    72   72   73 1  
    73   73   74 1  
    74   73   76 1  
    75   74   75 1  
    76   75   78 1  
    77   76   77 2  
    78   76   82 am 
    79   78   79 ar 
    80   78   80 ar 
    81   78   81 ar 
    82   82   83 1  
    83   83   84 1  
    84   83   86 1  
    85   84   85 ar 
    86   84   91 ar 
    87   86   87 1  
    88   87   88 1  
    89   88   89 ar 
    90   88   90 ar 
    91    1   92 1  
    92    1   93 1  
    93    1   94 1  
    94    2   95 1  
    95    5   96 1  
    96    5   97 1  
    97    9   98 1  
    98   10   99 1  
    99   13  100 1  
   100   14  101 1  
   101   15  102 1  
   102   15  103 1  
   103   15  104 1  
   104   16  105 1  
   105   17  106 1  
   106   20  107 1  
   107   20  108 1  
   108   20  109 1  
   109   21  110 1  
   110   22  111 1  
   111   22  112 1  
   112   25  113 1  
   113   26  114 1  
   114   29  115 1  
   115   29  116 1  
   116   30  117 1  
   117   31  118 1  
   118   32  119 1  
   119   35  120 1  
   120   36  121 1  
   121   36  122 1  
   122   37  123 1  
   123   37  124 1  
   124   37  125 1  
   125   38  126 1  
   126   38  127 1  
   127   38  128 1  
   128   39  129 1  
   129   40  130 1  
   130   43  131 1  
   131   44  132 1  
   132   44  133 1  
   133   44  134 1  
   134   45  135 1  
   135   45  136 1  
   136   45  137 1  
   137   46  138 1  
   138   47  139 1  
   139   50  140 1  
   140   51  141 1  
   141   51  142 1  
   142   52  143 1  
   143   52  144 1  
   144   52  145 1  
   145   53  146 1  
   146   53  147 1  
   147   53  148 1  
   148   54  149 1  
   149   55  150 1  
   150   56  151 1  
   151   56  152 1  
   152   64  153 1  
   153   65  154 1  
   154   68  155 1  
   155   68  156 1  
   156   72  157 1  
   157   73  158 1  
   158   74  159 1  
   159   74  160 1  
   160   82  161 1  
   161   83  162 1  
   162   86  163 1  
   163   86  164 1  
   164   87  165 1  
   165   87  166 1  
@<TRIPOS>SUBSTRUCTURE
     1 ASP         1

