6k5t_ligand
  -I-interpret- 

174173  0  0  0  0  0  0  0  0999 V2000
   -8.2830  -20.2940   -4.8850 N   0  3  0  0  0
   -8.3330  -19.1190   -4.0180 C   0  0  0  0  0
   -7.7940  -17.8970   -4.7420 C   0  0  0  0  0
   -7.5670  -17.9490   -5.9530 O   0  0  0  0  0
   -7.5410  -19.3700   -2.7420 C   0  0  0  0  0
   -8.3340  -20.1800   -1.7390 C   0  0  0  0  0
   -7.9320  -21.3260   -1.4400 O   0  0  0  0  0
   -9.3650  -19.6740   -1.2490 O   0  0  0  0  0
   -7.5540  -16.8050   -4.0180 N   0  0  0  0  0
   -7.0540  -15.6140   -4.6710 C   0  0  0  0  0
   -5.6880  -15.2000   -4.1440 C   0  0  0  0  0
   -5.5150  -14.9330   -2.9550 O   0  0  0  0  0
   -8.0250  -14.4360   -4.4720 C   0  0  0  0  0
   -9.3780  -14.9160   -4.4150 O   0  0  0  0  0
   -7.8880  -13.4310   -5.5990 C   0  0  0  0  0
   -4.7310  -15.1500   -5.0590 N   0  0  0  0  0
   -3.3810  -14.7190   -4.7550 C   0  0  0  0  0
   -2.9670  -13.6340   -5.7290 C   0  0  0  0  0
   -3.0670  -13.8220   -6.9400 O   0  0  0  0  0
   -2.4090  -15.8860   -4.8230 C   0  0  0  0  0
   -2.5170  -12.5080   -5.2210 N   0  0  0  0  0
   -2.0900  -11.4450   -6.1010 C   0  0  0  0  0
   -0.6800  -11.0070   -5.8270 C   0  0  0  0  0
   -0.3380  -10.7290   -4.6850 O   0  0  0  0  0
    0.1540  -10.9610   -6.8540 N   0  0  0  0  0
    1.5280  -10.5230   -6.6600 C   0  0  0  0  0
    1.8230   -9.3090   -7.5420 C   0  0  0  0  0
    1.6910   -9.3650   -8.7640 O   0  0  0  0  0
    2.4910  -11.6780   -6.9810 C   0  0  0  0  0
    2.1790  -13.1810   -6.0220 S   0  0  0  0  0
    2.1980   -8.2050   -6.9060 N   0  0  0  0  0
    2.5270   -6.9740   -7.6160 C   0  0  0  0  0
    3.8930   -6.4370   -7.1800 C   0  0  0  0  0
    4.1740   -6.3630   -5.9800 O   0  0  0  0  0
    1.4120   -5.9100   -7.4260 C   0  0  0  0  0
    1.8530   -4.5210   -7.9240 C   0  0  0  0  0
    0.9760   -5.8380   -5.9700 C   0  0  0  0  0
    0.7110   -3.5280   -8.0170 C   0  0  0  0  0
    4.7490   -6.0860   -8.1380 N   0  0  0  0  0
    6.0630   -5.5340   -7.8160 C   0  0  0  0  0
    6.1600   -4.1080   -8.3680 C   0  0  0  0  0
    5.8690   -3.8530   -9.5370 O   0  0  0  0  0
    7.2320   -6.4010   -8.3590 C   0  0  0  0  0
    7.2370   -6.4470   -9.8840 C   0  0  0  0  0
    8.5680   -5.8880   -7.8330 C   0  0  0  0  0
    6.5660   -3.1800   -7.5140 N   0  0  0  0  0
    6.6630   -1.7770   -7.8880 C   0  0  0  0  0
    8.0820   -1.2570   -7.7180 C   0  0  0  0  0
    8.7400   -1.5460   -6.7210 O   0  0  0  0  0
    5.6870   -0.9140   -7.0490 C   0  0  0  0  0
    5.7970    0.5760   -7.4130 C   0  0  0  0  0
    5.9440   -1.1150   -5.5570 C   0  0  0  0  0
    5.3780    0.9070   -8.8330 C   0  0  0  0  0
    8.5780   -0.5290   -8.6990 N   0  0  0  0  0
    9.9010    0.0190   -8.5830 C   0  0  0  0  0
   10.7340   -0.4820   -9.7570 C   0  0  0  0  0
   12.0830   -0.0660   -9.6680 O   0  0  0  0  0
    9.8230    1.5310   -8.5740 C   0  0  0  0  0
    9.3440    2.1630   -9.5190 O   0  0  0  0  0
   13.1620   -1.0100   -8.9750 P   0  0  0  0  0
   14.5520   -0.6640   -9.3030 O   0  0  0  0  0
   12.8680   -2.4520   -9.0710 O   0  0  0  0  0
   13.0340   -0.6840   -7.4200 O   0  0  0  0  0
   10.2500    2.0880   -7.4620 N   0  0  0  0  0
   10.2580    3.5130   -7.2530 C   0  0  0  0  0
   11.5770    3.9700   -6.6640 C   0  0  0  0  0
   12.1090    3.3400   -5.7590 O   0  0  0  0  0
    9.0980    3.9490   -6.3940 C   0  0  0  0  0
    8.7350    5.3960   -6.6580 C   0  0  0  0  0
    8.8460    5.8430   -7.8250 O   0  0  0  0  0
    8.3600    6.0970   -5.7040 O   0  0  0  0  0
   12.1230    5.0300   -7.2000 N   0  0  0  0  0
   13.3880    5.5680   -6.7220 C   0  0  0  0  0
   14.4600    5.4460   -7.7490 C   0  0  0  0  0
   15.6190    4.8030   -7.2210 O   0  0  0  0  0
   13.2770    7.0330   -6.3270 C   0  0  0  0  0
   12.5750    7.7980   -6.9900 O   0  0  0  0  0
   16.9620    5.6350   -7.0220 P   0  0  0  0  0
   16.8860    6.2110   -5.5320 O   0  0  0  0  0
   17.0620    6.8230   -7.8780 O   0  0  0  0  0
   18.1730    4.8030   -7.0310 O   0  0  0  0  0
   13.9240    7.4020   -5.2250 N   0  0  0  0  0
   13.9370    8.7900   -4.7510 C   0  0  0  0  0
   14.3940    9.7610   -5.8470 C   0  0  0  0  0
   14.8370    9.3660   -6.9310 O   0  0  0  0  0
   14.8600    8.9200   -3.5380 C   0  0  0  0  0
   15.2210   10.3540   -3.1830 C   0  0  0  0  0
   14.1110   11.0860   -2.4590 C   0  0  0  0  0
   13.8010   12.2330   -2.8400 O   0  0  0  0  0
   13.5370   10.5170   -1.5070 O   0  0  0  0  0
   14.3420   10.9870   -5.7010 O   0  0  0  0  0
   -8.8171  -20.1112   -5.7345 H   0  0  0  0  0
   -7.3130  -20.4944   -5.1284 H   0  0  0  0  0
   -8.6841  -21.0938   -4.3952 H   0  0  0  0  0
   -9.3733  -18.9306   -3.7526 H   0  0  0  0  0
   -7.3017  -18.4065   -2.2920 H   0  0  0  0  0
   -6.6423  -19.9298   -3.0009 H   0  0  0  0  0
   -7.1274  -21.5188   -1.9268 H   0  0  0  0  0
   -7.7212  -16.8081   -3.0118 H   0  0  0  0  0
   -6.9645  -15.8588   -5.7294 H   0  0  0  0  0
   -7.7760  -13.9435   -3.5320 H   0  0  0  0  0
   -9.9746  -14.1742   -4.2909 H   0  0  0  0  0
   -6.8680  -13.0474   -5.6200 H   0  0  0  0  0
   -8.1141  -13.9178   -6.5477 H   0  0  0  0  0
   -8.5838  -12.6079   -5.4367 H   0  0  0  0  0
   -4.9532  -15.4258   -6.0155 H   0  0  0  0  0
   -3.3596  -14.3237   -3.7394 H   0  0  0  0  0
   -2.7052  -16.6464   -4.1004 H   0  0  0  0  0
   -2.4235  -16.3113   -5.8265 H   0  0  0  0  0
   -1.4039  -15.5340   -4.5906 H   0  0  0  0  0
   -2.4696  -12.3855   -4.2095 H   0  0  0  0  0
   -2.7462  -10.5897   -5.9400 H   0  0  0  0  0
   -2.1350  -11.8161   -7.1249 H   0  0  0  0  0
   -0.1671  -11.2331   -7.7831 H   0  0  0  0  0
    1.6696  -10.2305   -5.6196 H   0  0  0  0  0
    3.4972  -11.3392   -6.7344 H   0  0  0  0  0
    2.3553  -11.9304   -8.0326 H   0  0  0  0  0
    3.0580  -14.1169   -6.3690 H   0  0  0  0  0
    2.2579   -8.2184   -5.8878 H   0  0  0  0  0
    2.5882   -7.2025   -8.6800 H   0  0  0  0  0
    0.5615   -6.2229   -8.0317 H   0  0  0  0  0
    2.2645   -4.6451   -8.9257 H   0  0  0  0  0
    2.5746   -4.1277   -7.2079 H   0  0  0  0  0
    0.5921   -6.8095   -5.6585 H   0  0  0  0  0
    1.8301   -5.5674   -5.3492 H   0  0  0  0  0
    0.1945   -5.0858   -5.8629 H   0  0  0  0  0
   -0.0399   -3.9039   -8.7119 H   0  0  0  0  0
    0.2633   -3.3978   -7.0318 H   0  0  0  0  0
    1.0915   -2.5710   -8.3740 H   0  0  0  0  0
    4.4822   -6.2048   -9.1153 H   0  0  0  0  0
    6.1604   -5.5279   -6.7304 H   0  0  0  0  0
    7.0824   -7.4192   -7.9998 H   0  0  0  0  0
    6.2984   -6.8748  -10.2364 H   0  0  0  0  0
    7.3470   -5.4360  -10.2764 H   0  0  0  0  0
    8.0692   -7.0629  -10.2249 H   0  0  0  0  0
    8.7122   -4.8568   -8.1555 H   0  0  0  0  0
    8.5697   -5.9330   -6.7439 H   0  0  0  0  0
    9.3738   -6.5087   -8.2249 H   0  0  0  0  0
    6.8183   -3.4574   -6.5654 H   0  0  0  0  0
    6.3895   -1.7015   -8.9404 H   0  0  0  0  0
    4.6733   -1.2409   -7.2807 H   0  0  0  0  0
    6.8471    0.8520   -7.3168 H   0  0  0  0  0
    5.1259    1.1183   -6.7469 H   0  0  0  0  0
    5.7980   -2.1648   -5.3027 H   0  0  0  0  0
    6.9676   -0.8221   -5.3232 H   0  0  0  0  0
    5.2492   -0.5010   -4.9840 H   0  0  0  0  0
    6.0095    0.3605   -9.5335 H   0  0  0  0  0
    4.3369    0.6193   -8.9797 H   0  0  0  0  0
    5.4876    1.9782   -9.0025 H   0  0  0  0  0
    8.0241   -0.3554   -9.5377 H   0  0  0  0  0
   10.3702   -0.2989   -7.6519 H   0  0  0  0  0
   10.3112   -0.0711  -10.6738 H   0  0  0  0  0
   10.7129   -1.5718   -9.7484 H   0  0  0  0  0
   11.9478   -2.6056   -8.8447 H   0  0  0  0  0
   12.1432   -0.8856   -7.1242 H   0  0  0  0  0
   10.5908    1.4839   -6.7141 H   0  0  0  0  0
   10.1435    3.9900   -8.2264 H   0  0  0  0  0
    9.3826    3.8470   -5.3468 H   0  0  0  0  0
    8.2360    3.3251   -6.6303 H   0  0  0  0  0
    9.1477    5.1421   -8.4076 H   0  0  0  0  0
   11.6489    5.4932   -7.9753 H   0  0  0  0  0
   13.6456    4.9758   -5.8439 H   0  0  0  0  0
   14.7397    6.4472   -8.0768 H   0  0  0  0  0
   14.0793    4.8468   -8.5761 H   0  0  0  0  0
   16.8184    5.4818   -4.9113 H   0  0  0  0  0
   18.0442    4.0461   -6.4547 H   0  0  0  0  0
   14.4289    6.6949   -4.6907 H   0  0  0  0  0
   12.9164    9.0511   -4.4711 H   0  0  0  0  0
   14.8365    8.4061   -6.9450 H   0  0  0  0  0
   15.7889    8.4049   -3.7830 H   0  0  0  0  0
   14.3301    8.4999   -2.6831 H   0  0  0  0  0
   15.4154   10.8861   -4.1142 H   0  0  0  0  0
   16.0845   10.3227   -2.5186 H   0  0  0  0  0
   13.9224    9.6476   -1.3759 H   0  0  0  0  0
  1  2  1  0  0  0
  2  3  1  0  0  0
  2  5  1  0  0  0
  3  4  2  0  0  0
  3  9  1  0  0  0
  5  6  1  0  0  0
  6  7  1  0  0  0
  6  8  2  0  0  0
  9 10  1  0  0  0
 10 11  1  0  0  0
 10 13  1  0  0  0
 11 12  2  0  0  0
 11 16  1  0  0  0
 13 14  1  0  0  0
 13 15  1  0  0  0
 16 17  1  0  0  0
 17 18  1  0  0  0
 17 20  1  0  0  0
 18 19  2  0  0  0
 18 21  1  0  0  0
 21 22  1  0  0  0
 22 23  1  0  0  0
 23 24  2  0  0  0
 23 25  1  0  0  0
 25 26  1  0  0  0
 26 27  1  0  0  0
 26 29  1  0  0  0
 27 28  2  0  0  0
 27 31  1  0  0  0
 29 30  1  0  0  0
 31 32  1  0  0  0
 32 33  1  0  0  0
 32 35  1  0  0  0
 33 34  2  0  0  0
 33 39  1  0  0  0
 35 36  1  0  0  0
 35 37  1  0  0  0
 36 38  1  0  0  0
 39 40  1  0  0  0
 40 41  1  0  0  0
 40 43  1  0  0  0
 41 42  2  0  0  0
 41 46  1  0  0  0
 43 44  1  0  0  0
 43 45  1  0  0  0
 46 47  1  0  0  0
 47 48  1  0  0  0
 47 50  1  0  0  0
 48 49  2  0  0  0
 48 54  1  0  0  0
 50 51  1  0  0  0
 50 52  1  0  0  0
 51 53  1  0  0  0
 54 55  1  0  0  0
 55 56  1  0  0  0
 55 58  1  0  0  0
 56 57  1  0  0  0
 57 60  1  0  0  0
 58 59  2  0  0  0
 58 64  1  0  0  0
 60 61  2  0  0  0
 60 62  1  0  0  0
 60 63  1  0  0  0
 64 65  1  0  0  0
 65 66  1  0  0  0
 65 68  1  0  0  0
 66 67  2  0  0  0
 66 72  1  0  0  0
 68 69  1  0  0  0
 69 70  1  0  0  0
 69 71  2  0  0  0
 72 73  1  0  0  0
 73 74  1  0  0  0
 73 76  1  0  0  0
 74 75  1  0  0  0
 75 78  1  0  0  0
 76 77  2  0  0  0
 76 82  1  0  0  0
 78 79  1  0  0  0
 78 80  2  0  0  0
 78 81  1  0  0  0
 82 83  1  0  0  0
 83 84  1  0  0  0
 83 86  1  0  0  0
 84 85  1  0  0  0
 84 91  2  0  0  0
 86 87  1  0  0  0
 87 88  1  0  0  0
 88 89  2  0  0  0
 88 90  1  0  0  0
  1 92  1  0  0  0
  1 93  1  0  0  0
  1 94  1  0  0  0
  2 95  1  0  0  0
  5 96  1  0  0  0
  5 97  1  0  0  0
  7 98  1  0  0  0
  9 99  1  0  0  0
 10100  1  0  0  0
 13101  1  0  0  0
 14102  1  0  0  0
 15103  1  0  0  0
 15104  1  0  0  0
 15105  1  0  0  0
 16106  1  0  0  0
 17107  1  0  0  0
 20108  1  0  0  0
 20109  1  0  0  0
 20110  1  0  0  0
 21111  1  0  0  0
 22112  1  0  0  0
 22113  1  0  0  0
 25114  1  0  0  0
 26115  1  0  0  0
 29116  1  0  0  0
 29117  1  0  0  0
 30118  1  0  0  0
 31119  1  0  0  0
 32120  1  0  0  0
 35121  1  0  0  0
 36122  1  0  0  0
 36123  1  0  0  0
 37124  1  0  0  0
 37125  1  0  0  0
 37126  1  0  0  0
 38127  1  0  0  0
 38128  1  0  0  0
 38129  1  0  0  0
 39130  1  0  0  0
 40131  1  0  0  0
 43132  1  0  0  0
 44133  1  0  0  0
 44134  1  0  0  0
 44135  1  0  0  0
 45136  1  0  0  0
 45137  1  0  0  0
 45138  1  0  0  0
 46139  1  0  0  0
 47140  1  0  0  0
 50141  1  0  0  0
 51142  1  0  0  0
 51143  1  0  0  0
 52144  1  0  0  0
 52145  1  0  0  0
 52146  1  0  0  0
 53147  1  0  0  0
 53148  1  0  0  0
 53149  1  0  0  0
 54150  1  0  0  0
 55151  1  0  0  0
 56152  1  0  0  0
 56153  1  0  0  0
 62154  1  0  0  0
 63155  1  0  0  0
 64156  1  0  0  0
 65157  1  0  0  0
 68158  1  0  0  0
 68159  1  0  0  0
 70160  1  0  0  0
 72161  1  0  0  0
 73162  1  0  0  0
 74163  1  0  0  0
 74164  1  0  0  0
 79165  1  0  0  0
 81166  1  0  0  0
 82167  1  0  0  0
 83168  1  0  0  0
 85169  1  0  0  0
 86170  1  0  0  0
 86171  1  0  0  0
 87172  1  0  0  0
 87173  1  0  0  0
 90174  1  0  0  0
M  END
$$$$
