6p3w_ligand
  -I-interpret- 

136135  0  0  0  0  0  0  0  0999 V2000
   -0.0280   49.6150   17.4380 N   0  3  0  0  0
   -0.3350   51.0330   17.5880 C   0  0  0  0  0
   -1.7290   51.2310   18.1710 C   0  0  0  0  0
   -1.8990   51.2970   19.3890 O   0  0  0  0  0
   -0.2140   51.7440   16.2530 C   0  0  0  0  0
   -2.7220   51.3290   17.2930 N   0  0  0  0  0
   -4.1040   51.4860   17.7280 C   0  0  0  0  0
   -4.6000   50.2170   18.4110 C   0  0  0  0  0
   -4.8220   49.1890   17.7680 O   0  0  0  0  0
   -5.0060   51.8450   16.5470 C   0  0  0  0  0
   -6.4940   51.7800   16.8520 C   0  0  0  0  0
   -7.2960   52.3370   15.6920 C   0  0  0  0  0
   -8.6350   51.7630   15.5960 N   0  0  0  0  0
   -9.7370   52.3460   16.0560 C   0  0  0  0  0
   -9.6670   53.5260   16.6550 N   0  0  0  0  0
  -10.9120   51.7470   15.9160 N   0  0  0  0  0
   -4.7610   50.3000   19.7270 N   0  0  0  0  0
   -5.2140   49.1680   20.5220 C   0  0  0  0  0
   -5.6940   49.6330   21.8860 C   0  0  0  0  0
   -5.4300   50.7610   22.3010 O   0  0  0  0  0
   -4.0940   48.1380   20.6880 C   0  0  0  0  0
   -2.9770   48.5850   21.6200 C   0  0  0  0  0
   -1.7840   47.6440   21.5550 C   0  0  0  0  0
   -2.0280   46.3780   22.3620 C   0  0  0  0  0
   -0.7830   45.5750   22.5210 N   0  3  0  0  0
   -6.4080   48.7530   22.5760 N   0  0  0  0  0
   -6.8120   49.0020   23.9500 C   0  0  0  0  0
   -5.9790   48.1390   24.8770 C   0  0  0  0  0
   -5.9950   46.9110   24.7770 O   0  0  0  0  0
   -8.2980   48.7130   24.1430 C   0  0  0  0  0
   -8.7070   48.4900   25.5870 C   0  0  0  0  0
  -10.2070   48.2860   25.6810 C   0  0  0  0  0
  -10.5920   47.5500   26.8790 N   0  0  0  0  0
  -11.8480   47.3890   27.2800 C   0  0  0  0  0
  -12.8430   47.9140   26.5780 N   0  0  0  0  0
  -12.1100   46.7040   28.3850 N   0  0  0  0  0
   -5.2420   48.7900   25.7690 N   0  0  0  0  0
   -4.3590   48.0850   26.6810 C   0  0  0  0  0
   -5.1390   47.1110   27.5450 C   0  0  0  0  0
   -6.0050   47.4950   28.3350 O   0  0  0  0  0
   -3.5800   49.0680   27.5480 C   0  0  0  0  0
   -2.4040   49.7330   26.8320 C   0  0  0  0  0
   -1.4230   50.2660   27.8480 C   0  0  0  0  0
   -1.7120   48.7630   25.8790 C   0  0  0  0  0
   -4.8250   45.8370   27.3640 N   0  0  0  0  0
   -5.5040   44.7580   28.0580 C   0  0  0  0  0
   -4.5190   44.1580   29.0460 C   0  0  0  0  0
   -3.5580   43.4890   28.6730 O   0  0  0  0  0
   -6.0280   43.7320   27.0530 C   0  0  0  0  0
   -6.8600   42.5960   27.6260 C   0  0  0  0  0
   -6.0130   41.4370   28.1130 C   0  0  0  0  0
   -4.8940   41.2620   27.5890 O   0  0  0  0  0
   -6.4710   40.6860   28.9990 O   0  0  0  0  0
   -4.7660   44.4220   30.3190 N   0  0  0  0  0
   -3.7420   44.2720   31.3360 C   0  0  0  0  0
   -3.9280   43.0150   32.1800 C   0  0  0  0  0
   -2.9520   42.3870   32.5970 O   0  0  0  0  0
   -3.7400   45.5240   32.2120 C   0  0  0  0  0
   -3.6810   46.8070   31.3750 C   0  0  0  0  0
   -4.1710   48.0100   32.1600 C   0  0  0  0  0
   -2.2650   47.0360   30.8660 C   0  0  0  0  0
   -5.0570   42.6060   32.4590 O   0  0  0  0  0
   -0.1138   49.1522   18.3429 H   0  0  0  0  0
   -0.6812   49.1950   16.7767 H   0  0  0  0  0
    0.9249   49.5096   17.0898 H   0  0  0  0  0
    0.3867   51.4648   18.2814 H   0  0  0  0  0
   -0.9505   51.3389   15.5590 H   0  0  0  0  0
   -0.3927   52.8101   16.3931 H   0  0  0  0  0
    0.7878   51.5919   15.8513 H   0  0  0  0  0
   -2.5127   51.2936   16.2953 H   0  0  0  0  0
   -4.1420   52.3026   18.4489 H   0  0  0  0  0
   -4.8083   51.1170   15.7602 H   0  0  0  0  0
   -4.7800   52.8755   16.2731 H   0  0  0  0  0
   -6.7000   52.3728   17.7432 H   0  0  0  0  0
   -6.7783   50.7402   17.0134 H   0  0  0  0  0
   -6.7635   52.0929   14.7728 H   0  0  0  0  0
   -7.4053   53.4101   15.8490 H   0  0  0  0  0
   -8.7311   50.8530   15.1454 H   0  0  0  0  0
   -8.7651   53.9898   16.7642 H   0  0  0  0  0
  -11.7579   52.1946   16.2688 H   0  0  0  0  0
  -10.9698   50.8387   15.4555 H   0  0  0  0  0
   -4.5610   51.1841   20.1947 H   0  0  0  0  0
   -6.0450   48.6982   19.9958 H   0  0  0  0  0
   -3.6513   47.9796   19.7046 H   0  0  0  0  0
   -4.5391   47.2427   21.1221 H   0  0  0  0  0
   -3.3597   48.5862   22.6406 H   0  0  0  0  0
   -2.6494   49.5784   21.3135 H   0  0  0  0  0
   -0.9167   48.1568   21.9709 H   0  0  0  0  0
   -1.6214   47.3640   20.5142 H   0  0  0  0  0
   -2.7624   45.7706   21.8330 H   0  0  0  0  0
   -2.3792   46.6656   23.3530 H   0  0  0  0  0
   -0.9874   44.7373   23.0658 H   0  0  0  0  0
   -0.4330   45.3068   21.6012 H   0  0  0  0  0
   -0.0793   46.1331   23.0044 H   0  0  0  0  0
   -6.6811   47.8773   22.1299 H   0  0  0  0  0
   -6.6466   50.0536   24.1843 H   0  0  0  0  0
   -8.5195   47.7937   23.6008 H   0  0  0  0  0
   -8.8441   49.5861   23.7857 H   0  0  0  0  0
   -8.4282   49.3639   26.1758 H   0  0  0  0  0
   -8.2017   47.6025   25.9680 H   0  0  0  0  0
  -10.5245   47.7083   24.8129 H   0  0  0  0  0
  -10.6796   49.2674   25.7209 H   0  0  0  0  0
   -9.8518   47.1333   27.4437 H   0  0  0  0  0
  -12.6445   48.4425   25.7285 H   0  0  0  0  0
  -13.0748   46.5821   28.6928 H   0  0  0  0  0
  -11.3467   46.2990   28.9270 H   0  0  0  0  0
   -5.2972   49.8075   25.8147 H   0  0  0  0  0
   -3.6457   47.5148   26.0859 H   0  0  0  0  0
   -3.1710   48.5051   28.3870 H   0  0  0  0  0
   -4.2705   49.8596   27.8392 H   0  0  0  0  0
   -2.7894   50.5604   26.2362 H   0  0  0  0  0
   -1.9212   50.9992   28.4823 H   0  0  0  0  0
   -1.0544   49.4438   28.4614 H   0  0  0  0  0
   -0.5876   50.7385   27.3314 H   0  0  0  0  0
   -1.3366   47.9084   26.4418 H   0  0  0  0  0
   -2.4255   48.4209   25.1294 H   0  0  0  0  0
   -0.8812   49.2692   25.3874 H   0  0  0  0  0
   -4.0765   45.6050   26.7111 H   0  0  0  0  0
   -6.3747   45.1214   28.6038 H   0  0  0  0  0
   -5.1492   43.2693   26.6039 H   0  0  0  0  0
   -6.6839   44.2777   26.3747 H   0  0  0  0  0
   -7.5101   42.2251   26.8336 H   0  0  0  0  0
   -7.4154   42.9857   28.4790 H   0  0  0  0  0
   -7.3400   40.9972   29.2629 H   0  0  0  0  0
   -5.6968   44.7379   30.5913 H   0  0  0  0  0
   -2.7784   44.1569   30.8396 H   0  0  0  0  0
   -2.1461   42.8187   32.3041 H   0  0  0  0  0
   -2.8580   45.4923   32.8516 H   0  0  0  0  0
   -4.6626   45.5366   32.7924 H   0  0  0  0  0
   -4.3474   46.6827   30.5215 H   0  0  0  0  0
   -5.2041   47.8459   32.4666 H   0  0  0  0  0
   -3.5459   48.1455   33.0426 H   0  0  0  0  0
   -4.1137   48.8995   31.5326 H   0  0  0  0  0
   -1.5863   47.1301   31.7137 H   0  0  0  0  0
   -1.9614   46.1911   30.2479 H   0  0  0  0  0
   -2.2368   47.9502   30.2731 H   0  0  0  0  0
  1  2  1  0  0  0
  2  3  1  0  0  0
  2  5  1  0  0  0
  3  4  2  0  0  0
  3  6  1  0  0  0
  6  7  1  0  0  0
  7  8  1  0  0  0
  7 10  1  0  0  0
  8  9  2  0  0  0
  8 17  1  0  0  0
 10 11  1  0  0  0
 11 12  1  0  0  0
 12 13  1  0  0  0
 13 14  1  0  0  0
 14 15  2  0  0  0
 14 16  1  0  0  0
 17 18  1  0  0  0
 18 19  1  0  0  0
 18 21  1  0  0  0
 19 20  2  0  0  0
 19 26  1  0  0  0
 21 22  1  0  0  0
 22 23  1  0  0  0
 23 24  1  0  0  0
 24 25  1  0  0  0
 26 27  1  0  0  0
 27 28  1  0  0  0
 27 30  1  0  0  0
 28 29  2  0  0  0
 28 37  1  0  0  0
 30 31  1  0  0  0
 31 32  1  0  0  0
 32 33  1  0  0  0
 33 34  1  0  0  0
 34 35  2  0  0  0
 34 36  1  0  0  0
 37 38  1  0  0  0
 38 39  1  0  0  0
 38 41  1  0  0  0
 39 40  2  0  0  0
 39 45  1  0  0  0
 41 42  1  0  0  0
 42 43  1  0  0  0
 42 44  1  0  0  0
 45 46  1  0  0  0
 46 47  1  0  0  0
 46 49  1  0  0  0
 47 48  2  0  0  0
 47 54  1  0  0  0
 49 50  1  0  0  0
 50 51  1  0  0  0
 51 52  2  0  0  0
 51 53  1  0  0  0
 54 55  1  0  0  0
 55 56  1  0  0  0
 55 58  1  0  0  0
 56 57  1  0  0  0
 56 62  2  0  0  0
 58 59  1  0  0  0
 59 60  1  0  0  0
 59 61  1  0  0  0
  1 63  1  0  0  0
  1 64  1  0  0  0
  1 65  1  0  0  0
  2 66  1  0  0  0
  5 67  1  0  0  0
  5 68  1  0  0  0
  5 69  1  0  0  0
  6 70  1  0  0  0
  7 71  1  0  0  0
 10 72  1  0  0  0
 10 73  1  0  0  0
 11 74  1  0  0  0
 11 75  1  0  0  0
 12 76  1  0  0  0
 12 77  1  0  0  0
 13 78  1  0  0  0
 15 79  1  0  0  0
 16 80  1  0  0  0
 16 81  1  0  0  0
 17 82  1  0  0  0
 18 83  1  0  0  0
 21 84  1  0  0  0
 21 85  1  0  0  0
 22 86  1  0  0  0
 22 87  1  0  0  0
 23 88  1  0  0  0
 23 89  1  0  0  0
 24 90  1  0  0  0
 24 91  1  0  0  0
 25 92  1  0  0  0
 25 93  1  0  0  0
 25 94  1  0  0  0
 26 95  1  0  0  0
 27 96  1  0  0  0
 30 97  1  0  0  0
 30 98  1  0  0  0
 31 99  1  0  0  0
 31100  1  0  0  0
 32101  1  0  0  0
 32102  1  0  0  0
 33103  1  0  0  0
 35104  1  0  0  0
 36105  1  0  0  0
 36106  1  0  0  0
 37107  1  0  0  0
 38108  1  0  0  0
 41109  1  0  0  0
 41110  1  0  0  0
 42111  1  0  0  0
 43112  1  0  0  0
 43113  1  0  0  0
 43114  1  0  0  0
 44115  1  0  0  0
 44116  1  0  0  0
 44117  1  0  0  0
 45118  1  0  0  0
 46119  1  0  0  0
 49120  1  0  0  0
 49121  1  0  0  0
 50122  1  0  0  0
 50123  1  0  0  0
 53124  1  0  0  0
 54125  1  0  0  0
 55126  1  0  0  0
 57127  1  0  0  0
 58128  1  0  0  0
 58129  1  0  0  0
 59130  1  0  0  0
 60131  1  0  0  0
 60132  1  0  0  0
 60133  1  0  0  0
 61134  1  0  0  0
 61135  1  0  0  0
 61136  1  0  0  0
M  END
$$$$
