### 
### Created by X-TOOL on Mon Aug  2 16:15:57 2021
### 

@<TRIPOS>MOLECULE
6p3w_ligand
  136   135     1     0     0
SMALL
GAST_HUCK


@<TRIPOS>ATOM
      1 N          -0.0280   49.6150   17.4380 N.4       1 ALA         0.2377
      2 CA         -0.3350   51.0330   17.5880 C.3       1 ALA         0.0621
      3 C          -1.7290   51.2310   18.1710 C.2       1 ALA         0.2264
      4 O          -1.8990   51.2970   19.3890 O.2       1 ALA        -0.3907
      5 CB         -0.2140   51.7440   16.2530 C.3       1 ALA        -0.0040
      6 N          -2.7220   51.3290   17.2930 N.am      1 ALA        -0.2610
      7 CA         -4.1040   51.4860   17.7280 C.3       1 ALA         0.1312
      8 C          -4.6000   50.2170   18.4110 C.2       1 ALA         0.2039
      9 O          -4.8220   49.1890   17.7680 O.2       1 ALA        -0.3944
     10 CB         -5.0060   51.8450   16.5470 C.3       1 ALA        -0.0092
     11 CG         -6.4940   51.7800   16.8520 C.3       1 ALA        -0.0156
     12 CD         -7.2960   52.3370   15.6920 C.3       1 ALA         0.0627
     13 NE         -8.6350   51.7630   15.5960 N.pl3     1 ALA        -0.2723
     14 CZ         -9.7370   52.3460   16.0560 C.cat     1 ALA         0.2882
     15 NH1        -9.6670   53.5260   16.6550 N.pl3     1 ALA        -0.2849
     16 NH2       -10.9120   51.7470   15.9160 N.pl3     1 ALA        -0.2849
     17 N          -4.7610   50.3000   19.7270 N.am      1 ALA        -0.2637
     18 CA         -5.2140   49.1680   20.5220 C.3       1 ALA         0.1310
     19 C          -5.6940   49.6330   21.8860 C.2       1 ALA         0.2039
     20 O          -5.4300   50.7610   22.3010 O.2       1 ALA        -0.3944
     21 CB         -4.0940   48.1380   20.6880 C.3       1 ALA        -0.0122
     22 CG         -2.9770   48.5850   21.6200 C.3       1 ALA        -0.0440
     23 CD         -1.7840   47.6440   21.5550 C.3       1 ALA        -0.0124
     24 CE         -2.0280   46.3780   22.3620 C.3       1 ALA        -0.0354
     25 NZ         -0.7830   45.5750   22.5210 N.4       1 ALA         0.2185
     26 N          -6.4080   48.7530   22.5760 N.am      1 ALA        -0.2637
     27 CA         -6.8120   49.0020   23.9500 C.3       1 ALA         0.1311
     28 C          -5.9790   48.1390   24.8770 C.2       1 ALA         0.2039
     29 O          -5.9950   46.9110   24.7770 O.2       1 ALA        -0.3944
     30 CB         -8.2980   48.7130   24.1430 C.3       1 ALA        -0.0092
     31 CG         -8.7070   48.4900   25.5870 C.3       1 ALA        -0.0156
     32 CD        -10.2070   48.2860   25.6810 C.3       1 ALA         0.0627
     33 NE        -10.5920   47.5500   26.8790 N.pl3     1 ALA        -0.2723
     34 CZ        -11.8480   47.3890   27.2800 C.cat     1 ALA         0.2882
     35 NH1       -12.8430   47.9140   26.5780 N.pl3     1 ALA        -0.2849
     36 NH2       -12.1100   46.7040   28.3850 N.pl3     1 ALA        -0.2849
     37 N          -5.2420   48.7900   25.7690 N.am      1 ALA        -0.2637
     38 CA         -4.3590   48.0850   26.6810 C.3       1 ALA         0.1312
     39 C          -5.1390   47.1110   27.5450 C.2       1 ALA         0.2039
     40 O          -6.0050   47.4950   28.3350 O.2       1 ALA        -0.3944
     41 CB         -3.5800   49.0680   27.5480 C.3       1 ALA        -0.0101
     42 CG         -2.4040   49.7330   26.8320 C.3       1 ALA        -0.0425
     43 CD1        -1.4230   50.2660   27.8480 C.3       1 ALA        -0.0625
     44 CD2        -1.7120   48.7630   25.8790 C.3       1 ALA        -0.0625
     45 N          -4.8250   45.8370   27.3640 N.am      1 ALA        -0.2636
     46 CA         -5.5040   44.7580   28.0580 C.3       1 ALA         0.1324
     47 C          -4.5190   44.1580   29.0460 C.2       1 ALA         0.2034
     48 O          -3.5580   43.4890   28.6730 O.2       1 ALA        -0.3944
     49 CB         -6.0280   43.7320   27.0530 C.3       1 ALA        -0.0008
     50 CG         -6.8600   42.5960   27.6260 C.3       1 ALA         0.0044
     51 CD         -6.0130   41.4370   28.1130 C.2       1 ALA         0.0350
     52 OE1        -4.8940   41.2620   27.5890 O.co2     1 ALA        -0.5690
     53 OE2        -6.4710   40.6860   28.9990 O.co2     1 ALA        -0.5690
     54 N          -4.7660   44.4220   30.3190 N.am      1 ALA        -0.2695
     55 CA         -3.7420   44.2720   31.3360 C.3       1 ALA         0.0946
     56 C          -3.9280   43.0150   32.1800 C.2       1 ALA         0.0601
     57 O          -2.9520   42.3870   32.5970 O.co2     1 ALA        -0.5666
     58 CB         -3.7400   45.5240   32.2120 C.3       1 ALA        -0.0156
     59 CG         -3.6810   46.8070   31.3750 C.3       1 ALA        -0.0431
     60 CD1        -4.1710   48.0100   32.1600 C.3       1 ALA        -0.0625
     61 CD2        -2.2650   47.0360   30.8660 C.3       1 ALA        -0.0625
     62 OXT        -5.0570   42.6060   32.4590 O.co2     1 ALA        -0.5666
     63 H1          0.8971   49.5106   17.0515 H         1 ALA         0.2015
     64 H2         -0.7005   49.1892   16.8196 H         1 ALA         0.2015
     65 H3         -0.0683   49.1653   18.3392 H         1 ALA         0.2015
     66 H4          0.3954   51.4727   18.2831 H         1 ALA         0.1095
     67 H5         -0.4484   52.8108   16.3832 H         1 ALA         0.0310
     68 H6         -0.9187   51.2988   15.5352 H         1 ALA         0.0310
     69 H7          0.8127   51.6379   15.8728 H         1 ALA         0.0310
     70 H8         -2.5168   51.2943   16.3149 H         1 ALA         0.1884
     71 H9         -4.1448   52.3092   18.4564 H         1 ALA         0.0800
     72 H10        -4.7922   51.1455   15.7254 H         1 ALA         0.0313
     73 H11        -4.7644   52.8697   16.2284 H         1 ALA         0.0313
     74 H12        -6.7050   52.3710   17.7554 H         1 ALA         0.0301
     75 H13        -6.7836   50.7327   17.0230 H         1 ALA         0.0301
     76 H14        -6.7556   52.1239   14.7579 H         1 ALA         0.0689
     77 H15        -7.3897   53.4253   15.8213 H         1 ALA         0.0689
     78 H16        -8.7320   50.8441   15.1410 H         1 ALA         0.2642
     79 H17       -10.5233   53.9748   17.0103 H         1 ALA         0.2615
     80 H18        -8.7563   53.9943   16.7653 H         1 ALA         0.2615
     81 H19       -10.9703   50.8298   15.4510 H         1 ALA         0.2615
     82 H20       -11.7662   52.1990   16.2723 H         1 ALA         0.2615
     83 H21        -4.5650   51.1668   20.1855 H         1 ALA         0.1883
     84 H22        -6.0548   48.6896   19.9984 H         1 ALA         0.0800
     85 H23        -3.6590   47.9370   19.6979 H         1 ALA         0.0312
     86 H24        -4.5315   47.2127   21.0910 H         1 ALA         0.0312
     87 H25        -3.3593   48.6060   22.6512 H         1 ALA         0.0269
     88 H26        -2.6516   49.5946   21.3289 H         1 ALA         0.0269
     89 H27        -0.8997   48.1596   21.9576 H         1 ALA         0.0317
     90 H28        -1.6021   47.3693   20.5055 H         1 ALA         0.0317
     91 H29        -2.7826   45.7665   21.8457 H         1 ALA         0.0813
     92 H30        -2.4013   46.6572   23.3583 H         1 ALA         0.0813
     93 H31        -0.9838   44.7468   23.0593 H         1 ALA         0.1994
     94 H32        -0.0868   46.1255   22.9987 H         1 ALA         0.1994
     95 H33        -0.4362   45.3093   21.6126 H         1 ALA         0.1994
     96 H34        -6.6757   47.8945   22.1386 H         1 ALA         0.1883
     97 H35        -6.6280   50.0602   24.1873 H         1 ALA         0.0800
     98 H36        -8.5507   47.8089   23.5696 H         1 ALA         0.0313
     99 H37        -8.8692   49.5674   23.7510 H         1 ALA         0.0313
    100 H38        -8.4215   49.3678   26.1852 H         1 ALA         0.0301
    101 H39        -8.1940   47.5983   25.9764 H         1 ALA         0.0301
    102 H40       -10.5435   47.7239   24.7974 H         1 ALA         0.0689
    103 H41       -10.6974   49.2705   25.6980 H         1 ALA         0.0689
    104 H42        -9.8445   47.1292   27.4492 H         1 ALA         0.2642
    105 H43       -13.8163   47.7881   26.8906 H         1 ALA         0.2615
    106 H44       -12.6425   48.4477   25.7202 H         1 ALA         0.2615
    107 H45       -11.3392   46.2951   28.9323 H         1 ALA         0.2615
    108 H46       -13.0842   46.5810   28.6958 H         1 ALA         0.2615
    109 H47        -5.2962   49.7875   25.8138 H         1 ALA         0.1883
    110 H48        -3.6375   47.5097   26.0822 H         1 ALA         0.0800
    111 H49        -3.1905   48.5251   28.4218 H         1 ALA         0.0315
    112 H50        -4.2706   49.8557   27.8836 H         1 ALA         0.0315
    113 H51        -2.7902   50.5775   26.2423 H         1 ALA         0.0298
    114 H52        -0.5793   50.7432   27.3278 H         1 ALA         0.0232
    115 H53        -1.0502   49.4371   28.4677 H         1 ALA         0.0232
    116 H54        -1.9245   51.0061   28.4888 H         1 ALA         0.0232
    117 H55        -2.4411   48.3854   25.1469 H         1 ALA         0.0232
    118 H56        -1.2969   47.9202   26.4512 H         1 ALA         0.0232
    119 H57        -0.8993   49.2840   25.3518 H         1 ALA         0.0232
    120 H58        -4.0911   45.6095   26.7239 H         1 ALA         0.1883
    121 H59        -6.3610   45.1655   28.6143 H         1 ALA         0.0801
    122 H60        -5.1603   43.2883   26.5429 H         1 ALA         0.0330
    123 H61        -6.6500   44.2671   26.3204 H         1 ALA         0.0330
    124 H62        -7.5410   42.2295   26.8438 H         1 ALA         0.0433
    125 H63        -7.4473   42.9822   28.4721 H         1 ALA         0.0433
    126 H64        -5.6786   44.7317   30.5860 H         1 ALA         0.1875
    127 H65        -2.7669   44.1958   30.8327 H         1 ALA         0.0726
    128 H66        -2.8637   45.4920   32.8761 H         1 ALA         0.0308
    129 H67        -4.6585   45.5361   32.8172 H         1 ALA         0.0308
    130 H68        -4.3424   46.6776   30.5056 H         1 ALA         0.0297
    131 H69        -4.1137   48.9084   31.5279 H         1 ALA         0.0232
    132 H70        -3.5409   48.1479   33.0510 H         1 ALA         0.0232
    133 H71        -5.2135   47.8457   32.4700 H         1 ALA         0.0232
    134 H72        -1.9312   46.1531   30.3011 H         1 ALA         0.0232
    135 H73        -1.5909   47.2017   31.7193 H         1 ALA         0.0232
    136 H74        -2.2495   47.9186   30.2096 H         1 ALA         0.0232
@<TRIPOS>BOND
     1    1    2 1  
     2    2    3 1  
     3    2    5 1  
     4    3    4 2  
     5    3    6 am 
     6    6    7 1  
     7    7    8 1  
     8    7   10 1  
     9    8    9 2  
    10    8   17 am 
    11   10   11 1  
    12   11   12 1  
    13   12   13 1  
    14   13   14 ar 
    15   14   15 ar 
    16   14   16 ar 
    17   17   18 1  
    18   18   19 1  
    19   18   21 1  
    20   19   20 2  
    21   19   26 am 
    22   21   22 1  
    23   22   23 1  
    24   23   24 1  
    25   24   25 1  
    26   26   27 1  
    27   27   28 1  
    28   27   30 1  
    29   28   29 2  
    30   28   37 am 
    31   30   31 1  
    32   31   32 1  
    33   32   33 1  
    34   33   34 ar 
    35   34   35 ar 
    36   34   36 ar 
    37   37   38 1  
    38   38   39 1  
    39   38   41 1  
    40   39   40 2  
    41   39   45 am 
    42   41   42 1  
    43   42   43 1  
    44   42   44 1  
    45   45   46 1  
    46   46   47 1  
    47   46   49 1  
    48   47   48 2  
    49   47   54 am 
    50   49   50 1  
    51   50   51 1  
    52   51   52 ar 
    53   51   53 ar 
    54   54   55 1  
    55   55   56 1  
    56   55   58 1  
    57   56   57 ar 
    58   56   62 ar 
    59   58   59 1  
    60   59   60 1  
    61   59   61 1  
    62    1   63 1  
    63    1   64 1  
    64    1   65 1  
    65    2   66 1  
    66    5   67 1  
    67    5   68 1  
    68    5   69 1  
    69    6   70 1  
    70    7   71 1  
    71   10   72 1  
    72   10   73 1  
    73   11   74 1  
    74   11   75 1  
    75   12   76 1  
    76   12   77 1  
    77   13   78 1  
    78   15   79 1  
    79   15   80 1  
    80   16   81 1  
    81   16   82 1  
    82   17   83 1  
    83   18   84 1  
    84   21   85 1  
    85   21   86 1  
    86   22   87 1  
    87   22   88 1  
    88   23   89 1  
    89   23   90 1  
    90   24   91 1  
    91   24   92 1  
    92   25   93 1  
    93   25   94 1  
    94   25   95 1  
    95   26   96 1  
    96   27   97 1  
    97   30   98 1  
    98   30   99 1  
    99   31  100 1  
   100   31  101 1  
   101   32  102 1  
   102   32  103 1  
   103   33  104 1  
   104   35  105 1  
   105   35  106 1  
   106   36  107 1  
   107   36  108 1  
   108   37  109 1  
   109   38  110 1  
   110   41  111 1  
   111   41  112 1  
   112   42  113 1  
   113   43  114 1  
   114   43  115 1  
   115   43  116 1  
   116   44  117 1  
   117   44  118 1  
   118   44  119 1  
   119   45  120 1  
   120   46  121 1  
   121   49  122 1  
   122   49  123 1  
   123   50  124 1  
   124   50  125 1  
   125   54  126 1  
   126   55  127 1  
   127   58  128 1  
   128   58  129 1  
   129   59  130 1  
   130   60  131 1  
   131   60  132 1  
   132   60  133 1  
   133   61  134 1  
   134   61  135 1  
   135   61  136 1  
@<TRIPOS>SUBSTRUCTURE
     1 ALA         1

