5mkj_ligand
  -I-interpret- 

 47 48  0  0  0  0  0  0  0  0999 V2000
    2.9470  -17.8940   -2.3970 C   0  0  0  0  0
    4.1910  -18.4800   -2.5930 C   0  0  0  0  0
    2.1090  -17.8120   -4.7870 C   0  0  0  0  0
    1.1050  -17.9490   -5.7340 C   0  0  0  0  0
    1.9460  -16.2870   -7.4590 C   0  0  0  0  0
   -0.4450  -18.5610   -4.0120 C   0  0  0  0  0
    0.5590  -18.4270   -3.0630 C   0  0  0  0  0
    0.2820  -18.6630   -1.7090 O   0  0  0  0  0
    1.4680  -16.5580   -1.0280 O   0  0  0  0  0
    2.7150  -17.1570   -1.2440 C   0  0  0  0  0
    3.7110  -17.0140   -0.2940 C   0  0  0  0  0
    4.9480  -17.6020   -0.4910 C   0  0  0  0  0
    5.1910  -18.3340   -1.6410 C   0  0  0  0  0
    6.5640  -18.9770   -1.8460 C   0  0  0  0  0
    7.6560  -18.2840   -1.5880 C   0  0  0  0  0
    9.0390  -18.9020   -1.7850 C   0  0  0  0  0
    9.1620  -20.0230   -2.3420 O   0  0  0  0  0
   10.0620  -18.2810   -1.3940 O   0  0  0  0  0
    1.8400  -18.0500   -3.4470 C   0  0  0  0  0
    1.4020  -17.6920   -7.2090 C   0  0  0  0  0
    3.0550  -16.1200   -8.1470 C   0  0  0  0  0
   -0.1710  -18.3250   -5.3480 C   0  0  0  0  0
   -0.2160  -19.9370   -1.4100 C   0  0  0  0  0
    0.6350  -20.5130   -0.2810 C   0  0  0  0  0
    0.8460  -19.5090    0.8490 C   0  0  0  0  0
    4.3829  -19.0568   -3.4978 H   0  0  0  0  0
    3.1116  -17.5167   -5.0963 H   0  0  0  0  0
    1.4141  -15.4203   -7.0664 H   0  0  0  0  0
   -1.4495  -18.8522   -3.7050 H   0  0  0  0  0
    1.4796  -16.0910   -0.1893 H   0  0  0  0  0
    3.5208  -16.4372    0.6111 H   0  0  0  0  0
    5.7309  -17.4890    0.2589 H   0  0  0  0  0
    6.6394  -20.0038   -2.2039 H   0  0  0  0  0
    7.5707  -17.2580   -1.2299 H   0  0  0  0  0
    9.7968  -17.4496   -0.9940 H   0  0  0  0  0
    0.4691  -17.7953   -7.7632 H   0  0  0  0  0
    2.1587  -18.4080   -7.5297 H   0  0  0  0  0
    3.5880  -16.9857   -8.5402 H   0  0  0  0  0
    3.4407  -15.1160   -8.3238 H   0  0  0  0  0
   -0.9575  -18.4348   -6.0946 H   0  0  0  0  0
   -0.1668  -20.5800   -2.2888 H   0  0  0  0  0
   -1.2605  -19.8745   -1.1045 H   0  0  0  0  0
    1.6109  -20.7741   -0.6903 H   0  0  0  0  0
    0.1160  -21.3802    0.1274 H   0  0  0  0  0
    1.3516  -18.6257    0.4588 H   0  0  0  0  0
   -0.1204  -19.2225    1.2639 H   0  0  0  0  0
    1.4569  -19.9643    1.6285 H   0  0  0  0  0
  1  2  4  0  0  0
  1 10  4  0  0  0
 19  1  1  0  0  0
  2 13  4  0  0  0
  4  3  4  0  0  0
  3 19  4  0  0  0
  4 20  1  0  0  0
 22  4  4  0  0  0
 20  5  1  0  0  0
  5 21  2  0  0  0
  6  7  4  0  0  0
  6 22  4  0  0  0
  7  8  1  0  0  0
  7 19  4  0  0  0
  8 23  1  0  0  0
 10  9  1  0  0  0
 10 11  4  0  0  0
 11 12  4  0  0  0
 12 13  4  0  0  0
 13 14  1  0  0  0
 14 15  2  0  0  0
 15 16  1  0  0  0
 16 17  2  0  0  0
 16 18  1  0  0  0
 23 24  1  0  0  0
 24 25  1  0  0  0
  2 26  1  0  0  0
  3 27  1  0  0  0
  5 28  1  0  0  0
  6 29  1  0  0  0
  9 30  1  0  0  0
 11 31  1  0  0  0
 12 32  1  0  0  0
 14 33  1  0  0  0
 15 34  1  0  0  0
 18 35  1  0  0  0
 20 36  1  0  0  0
 20 37  1  0  0  0
 21 38  1  0  0  0
 21 39  1  0  0  0
 22 40  1  0  0  0
 23 41  1  0  0  0
 23 42  1  0  0  0
 24 43  1  0  0  0
 24 44  1  0  0  0
 25 45  1  0  0  0
 25 46  1  0  0  0
 25 47  1  0  0  0
M  END
$$$$
