2pou_ligand
  -I-interpret- 

 22 22  0  0  0  0  0  0  0  0999 V2000
   -3.8520    2.1690   11.9070 S   0  0  0  0  0
   -4.5040    2.9300   10.8880 O   0  0  0  0  0
   -3.8880    0.7430   11.8550 O   0  0  0  0  0
   -2.3410    2.6200   11.9690 N   0  0  0  0  0
   -5.9440    0.7900   16.7620 S   0  0  0  0  0
   -5.2420    1.1140   17.9710 O   0  0  0  0  0
   -7.3690    0.7690   16.7720 O   0  0  0  0  0
   -5.4090   -0.5950   16.2520 N   0  0  0  0  0
   -4.5900    2.6530   13.4350 C   0  0  0  0  0
   -4.9290    1.6710   14.3820 C   0  0  0  0  0
   -5.5260    2.0580   15.5950 C   0  0  0  0  0
   -5.7820    3.4210   15.8600 C   0  0  0  0  0
   -5.4310    4.3870   14.9070 C   0  0  0  0  0
   -4.8370    4.0240   13.6910 C   0  0  0  0  0
   -6.5140    3.9040   17.3140 Cl  0  0  0  0  0
   -5.7340    6.0460   15.2320 Cl  0  0  0  0  0
   -1.9985    3.3440   11.3374 H   0  0  0  0  0
   -1.7068    2.1875   12.6407 H   0  0  0  0  0
   -4.6845   -1.0861   16.7758 H   0  0  0  0  0
   -5.7859   -1.0038   15.3969 H   0  0  0  0  0
   -4.7309    0.6188   14.1779 H   0  0  0  0  0
   -4.5699    4.7828   12.9555 H   0  0  0  0  0
  1  2  2  0  0  0
  1  3  2  0  0  0
  1  4  1  0  0  0
  9  1  1  0  0  0
  5  6  2  0  0  0
  5  7  2  0  0  0
  5  8  1  0  0  0
 11  5  1  0  0  0
 10  9  4  0  0  0
  9 14  4  0  0  0
 10 11  4  0  0  0
 11 12  4  0  0  0
 12 13  4  0  0  0
 12 15  1  0  0  0
 13 14  4  0  0  0
 13 16  1  0  0  0
  4 17  1  0  0  0
  4 18  1  0  0  0
  8 19  1  0  0  0
  8 20  1  0  0  0
 10 21  1  0  0  0
 14 22  1  0  0  0
M  END
$$$$
