1urw_ligand
  -I-interpret- 

 57 60  0  0  0  0  0  0  0  0999 V2000
    8.6020  -11.8350   11.7020 C   0  0  0  0  0
   17.4510   -5.8040   13.3890 C   0  0  0  0  0
   16.7050   -5.7110   12.2190 C   0  0  0  0  0
   13.9060   -7.9330   12.9490 C   0  0  0  0  0
   17.0620   -6.5740   14.4790 C   0  0  0  0  0
   15.3940   -6.5600   12.1540 C   0  0  0  0  0
   15.9460   -7.2920   14.4550 N   0  0  0  0  0
   13.4070   -8.9970   15.1560 C   0  0  0  0  0
   13.1360   -8.8360   13.7480 C   0  0  0  0  0
   13.5960   -7.4850   11.5970 C   0  0  0  0  0
    9.6150  -10.8910   12.0370 C   0  0  0  0  0
   11.4130  -10.4070   13.9510 C   0  0  0  0  0
   12.5900   -9.9160   15.8700 C   0  0  0  0  0
   12.1280   -9.5630   13.1890 N   0  0  0  0  0
    9.8370   -9.7660   11.1720 C   0  0  0  0  0
    9.0610   -9.5840   10.0160 C   0  0  0  0  0
    8.0550  -10.5260    9.7140 C   0  0  0  0  0
   15.1460   -7.3460   13.2810 N   0  0  0  0  0
   14.5560   -6.5990   11.0750 N   0  0  0  0  0
   11.6090  -10.6050   15.2590 N   0  0  0  0  0
   10.3630  -11.1090   13.2540 N   0  0  0  0  0
    7.8170  -11.6560   10.5390 C   0  0  0  0  0
    7.0600  -10.2820    8.3090 S   0  0  0  0  0
    8.0120   -9.4770    7.0960 N   0  0  0  0  0
    8.9500  -10.4070    6.4280 C   0  0  0  0  0
    9.2920   -9.9200    5.0140 C   0  0  0  0  0
    8.0420   -9.8120    4.0910 C   0  0  0  0  0
    8.2740   -9.6630    2.6080 N   0  3  0  0  0
    8.6270  -10.9290    1.9080 C   0  0  0  0  0
    9.2700   -8.5860    2.2800 C   0  0  0  0  0
    5.8420   -9.3400    8.6930 O   0  0  0  0  0
    6.5250  -11.6650    7.7570 O   0  0  0  0  0
    8.4311  -12.6988   12.3445 H   0  0  0  0  0
   18.3853   -5.2465   13.4544 H   0  0  0  0  0
   17.0187   -5.0779   11.3890 H   0  0  0  0  0
   17.6866   -6.5884   15.3722 H   0  0  0  0  0
   14.2024   -8.4391   15.6502 H   0  0  0  0  0
   12.7108   -7.8039   11.0467 H   0  0  0  0  0
   12.7622  -10.0656   16.9359 H   0  0  0  0  0
   10.6172   -9.0449   11.4159 H   0  0  0  0  0
    9.2330   -8.7288    9.3625 H   0  0  0  0  0
   10.0813  -11.9632   13.7351 H   0  0  0  0  0
    7.0404  -12.3757   10.2801 H   0  0  0  0  0
    7.9334   -8.4849    6.8723 H   0  0  0  0  0
    8.4791  -11.3874    6.3562 H   0  0  0  0  0
    9.8686  -10.4574    7.0126 H   0  0  0  0  0
    9.9734  -10.6446    4.5681 H   0  0  0  0  0
    9.7284   -8.9250    5.1011 H   0  0  0  0  0
    7.5310   -8.8997    4.3987 H   0  0  0  0  0
    7.5106  -10.7564    4.2090 H   0  0  0  0  0
    7.3629   -9.3790    2.2478 H   0  0  0  0  0
    9.5448  -11.3345    2.3339 H   0  0  0  0  0
    7.8182  -11.6491    2.0322 H   0  0  0  0  0
    8.7755  -10.7269    0.8472 H   0  0  0  0  0
    8.9078   -7.6303    2.6588 H   0  0  0  0  0
   10.2266   -8.8237    2.7453 H   0  0  0  0  0
    9.3953   -8.5258    1.1989 H   0  0  0  0  0
 11  1  4  0  0  0
  1 22  4  0  0  0
  3  2  4  0  0  0
  5  2  4  0  0  0
  6  3  4  0  0  0
  9  4  1  0  0  0
  4 10  4  0  0  0
  4 18  4  0  0  0
  7  5  4  0  0  0
 18  6  4  0  0  0
  6 19  4  0  0  0
 18  7  4  0  0  0
  9  8  4  0  0  0
  8 13  4  0  0  0
 14  9  4  0  0  0
 10 19  4  0  0  0
 11 15  4  0  0  0
 21 11  1  0  0  0
 12 14  4  0  0  0
 12 20  4  0  0  0
 12 21  1  0  0  0
 13 20  4  0  0  0
 15 16  4  0  0  0
 16 17  4  0  0  0
 17 22  4  0  0  0
 17 23  1  0  0  0
 23 24  1  0  0  0
 23 31  2  0  0  0
 23 32  2  0  0  0
 24 25  1  0  0  0
 25 26  1  0  0  0
 26 27  1  0  0  0
 27 28  1  0  0  0
 28 29  1  0  0  0
 28 30  1  0  0  0
  1 33  1  0  0  0
  2 34  1  0  0  0
  3 35  1  0  0  0
  5 36  1  0  0  0
  8 37  1  0  0  0
 10 38  1  0  0  0
 13 39  1  0  0  0
 15 40  1  0  0  0
 16 41  1  0  0  0
 21 42  1  0  0  0
 22 43  1  0  0  0
 24 44  1  0  0  0
 25 45  1  0  0  0
 25 46  1  0  0  0
 26 47  1  0  0  0
 26 48  1  0  0  0
 27 49  1  0  0  0
 27 50  1  0  0  0
 28 51  1  0  0  0
 29 52  1  0  0  0
 29 53  1  0  0  0
 29 54  1  0  0  0
 30 55  1  0  0  0
 30 56  1  0  0  0
 30 57  1  0  0  0
M  END
$$$$
