2jb6_ligand
  -I-interpret- 

 89 92  0  0  0  0  0  0  0  0999 V2000
   91.9430   -8.4980  100.5740 O   0  0  0  0  0
   91.7510   -9.8780  100.0440 S   0  0  0  0  0
   90.8840  -10.6510  100.9870 O   0  0  0  0  0
   91.0820   -9.8290   98.7120 O   0  0  0  0  0
   93.3780  -10.6880   99.9030 C   0  0  0  0  0
   94.2010  -10.3980   98.6360 C   0  0  0  0  0
   95.1780  -11.4980   98.5700 N   0  3  0  0  0
   96.3470  -11.4750   99.2280 C   0  0  0  0  0
   96.9290  -10.4860  100.0260 C   0  0  0  0  0
   98.1950  -10.6770  100.5740 C   0  0  0  0  0
   98.9000  -11.8480  100.3170 C   0  0  0  0  0
  100.4760  -12.0750  101.0180 S   0  0  0  0  0
  101.1560  -10.7490  101.1520 O   0  0  0  0  0
  100.3280  -12.6920  102.3740 O   0  0  0  0  0
  101.2930  -12.9890  100.1650 O   0  0  0  0  0
   98.3370  -12.8300   99.5090 C   0  0  0  0  0
   97.0680  -12.6390   98.9550 C   0  0  0  0  0
   96.2010  -13.5020   98.0480 C   0  0  0  0  0
   96.9600  -13.7510   96.7380 C   0  0  0  0  0
   95.8570  -14.8090   98.7740 C   0  0  0  0  0
   94.9720  -12.5960   97.8390 C   0  0  0  0  0
   93.8760  -12.9180   97.0260 C   0  0  0  0  0
   93.7470  -14.0950   96.2970 C   0  0  0  0  0
   92.6190  -14.3160   95.5180 C   0  0  0  0  0
   92.4660  -15.4850   94.7800 C   0  0  0  0  0
   93.5430  -16.5880   94.7910 C   0  0  0  0  0
   91.3110  -15.6330   94.0260 C   0  0  0  0  0
   91.0990  -16.7760   93.2670 C   0  0  0  0  0
   89.9320  -16.8910   92.5260 C   0  0  0  0  0
   89.5850  -17.9820   91.7220 C   0  0  0  0  0
   90.4440  -19.2500   91.5170 C   0  0  0  0  0
   90.6810  -19.9980   92.8390 C   0  0  0  0  0
   91.7690  -18.9350   90.7990 C   0  0  0  0  0
   89.5450  -20.0830   90.6130 C   0  0  0  0  0
   89.6750  -21.3620   90.0650 C   0  0  0  0  0
   88.6630  -21.8710   89.2570 C   0  0  0  0  0
   88.7830  -23.4530   88.5540 S   0  0  0  0  0
   88.8740  -23.3200   87.0670 O   0  0  0  0  0
   90.0080  -24.1490   89.0660 O   0  0  0  0  0
   87.5560  -24.2330   88.9090 O   0  0  0  0  0
   87.5300  -21.1130   89.0010 C   0  0  0  0  0
   87.3990  -19.8410   89.5430 C   0  0  0  0  0
   88.4150  -19.3100   90.3360 C   0  0  0  0  0
   88.4840  -18.1440   90.9870 N   0  0  0  0  0
   87.4240  -17.1230   90.9160 C   0  0  0  0  0
   87.8080  -16.2570   89.7030 C   0  0  0  0  0
   86.9170  -14.6790   89.4900 S   0  0  0  0  0
   86.8330  -13.9640   90.7980 O   0  0  0  0  0
   85.5440  -14.9660   88.9780 O   0  0  0  0  0
   87.6470  -13.8160   88.5100 O   0  0  0  0  0
   90.7584  -11.5405  100.6484 H   0  0  0  0  0
   93.1747  -11.7587   99.8849 H   0  0  0  0  0
   93.9710  -10.3071  100.7345 H   0  0  0  0  0
   94.6864   -9.4230   98.6788 H   0  0  0  0  0
   93.5756  -10.3534   97.7443 H   0  0  0  0  0
   96.3887   -9.5596  100.2206 H   0  0  0  0  0
   98.6349   -9.9060  101.2066 H   0  0  0  0  0
   99.8919  -13.5432  102.2912 H   0  0  0  0  0
   98.8861  -13.7498   99.3075 H   0  0  0  0  0
   97.1697  -12.7971   96.2541 H   0  0  0  0  0
   97.8971  -14.2639   96.9544 H   0  0  0  0  0
   96.3505  -14.3683   96.0781 H   0  0  0  0  0
   96.7767  -15.3413   99.0167 H   0  0  0  0  0
   95.3144  -14.5815   99.6916 H   0  0  0  0  0
   95.2363  -15.4296   98.1277 H   0  0  0  0  0
   93.0654  -12.1922   96.9606 H   0  0  0  0  0
   94.5347  -14.8474   96.3372 H   0  0  0  0  0
   91.8370  -13.5574   95.4841 H   0  0  0  0  0
   94.4834  -16.1795   94.4209 H   0  0  0  0  0
   93.6790  -16.9511   95.8097 H   0  0  0  0  0
   93.2254  -17.4105   94.1502 H   0  0  0  0  0
   90.5608  -14.8423   94.0295 H   0  0  0  0  0
   91.8413  -17.5741   93.2535 H   0  0  0  0  0
   89.2262  -16.0618   92.5742 H   0  0  0  0  0
   91.1992  -19.3419   93.5384 H   0  0  0  0  0
   89.7223  -20.2978   93.2623 H   0  0  0  0  0
   91.2889  -20.8828   92.6504 H   0  0  0  0  0
   91.5570  -18.5034   89.8208 H   0  0  0  0  0
   92.3434  -18.2250   91.3941 H   0  0  0  0  0
   92.3414  -19.8544   90.6756 H   0  0  0  0  0
   90.5646  -21.9578   90.2695 H   0  0  0  0  0
   89.9505  -24.2348   90.0204 H   0  0  0  0  0
   86.7380  -21.5179   88.3709 H   0  0  0  0  0
   86.4998  -19.2567   89.3479 H   0  0  0  0  0
   87.3574  -16.5373   91.8328 H   0  0  0  0  0
   86.4345  -17.5668   90.8057 H   0  0  0  0  0
   87.5660  -16.8546   88.8241 H   0  0  0  0  0
   88.8542  -15.9888   89.8501 H   0  0  0  0  0
   87.7046  -14.2702   87.6662 H   0  0  0  0  0
  1  2  2  0  0  0
  2  3  1  0  0  0
  2  4  2  0  0  0
  2  5  1  0  0  0
  5  6  1  0  0  0
  6  7  1  0  0  0
  7  8  1  0  0  0
  7 21  2  0  0  0
  8  9  4  0  0  0
  8 17  4  0  0  0
  9 10  4  0  0  0
 10 11  4  0  0  0
 11 12  1  0  0  0
 11 16  4  0  0  0
 12 13  2  0  0  0
 12 14  1  0  0  0
 12 15  2  0  0  0
 16 17  4  0  0  0
 17 18  1  0  0  0
 18 19  1  0  0  0
 18 20  1  0  0  0
 18 21  1  0  0  0
 21 22  1  0  0  0
 22 23  2  0  0  0
 23 24  1  0  0  0
 24 25  2  0  0  0
 25 26  1  0  0  0
 25 27  1  0  0  0
 27 28  2  0  0  0
 28 29  1  0  0  0
 29 30  2  0  0  0
 30 31  1  0  0  0
 30 44  1  0  0  0
 31 32  1  0  0  0
 31 33  1  0  0  0
 31 34  1  0  0  0
 34 35  4  0  0  0
 34 43  4  0  0  0
 35 36  4  0  0  0
 36 37  1  0  0  0
 36 41  4  0  0  0
 37 38  2  0  0  0
 37 39  1  0  0  0
 37 40  2  0  0  0
 41 42  4  0  0  0
 42 43  4  0  0  0
 43 44  1  0  0  0
 44 45  1  0  0  0
 45 46  1  0  0  0
 46 47  1  0  0  0
 47 48  2  0  0  0
 47 49  2  0  0  0
 47 50  1  0  0  0
  3 51  1  0  0  0
  5 52  1  0  0  0
  5 53  1  0  0  0
  6 54  1  0  0  0
  6 55  1  0  0  0
  9 56  1  0  0  0
 10 57  1  0  0  0
 14 58  1  0  0  0
 16 59  1  0  0  0
 19 60  1  0  0  0
 19 61  1  0  0  0
 19 62  1  0  0  0
 20 63  1  0  0  0
 20 64  1  0  0  0
 20 65  1  0  0  0
 22 66  1  0  0  0
 23 67  1  0  0  0
 24 68  1  0  0  0
 26 69  1  0  0  0
 26 70  1  0  0  0
 26 71  1  0  0  0
 27 72  1  0  0  0
 28 73  1  0  0  0
 29 74  1  0  0  0
 32 75  1  0  0  0
 32 76  1  0  0  0
 32 77  1  0  0  0
 33 78  1  0  0  0
 33 79  1  0  0  0
 33 80  1  0  0  0
 35 81  1  0  0  0
 39 82  1  0  0  0
 41 83  1  0  0  0
 42 84  1  0  0  0
 45 85  1  0  0  0
 45 86  1  0  0  0
 46 87  1  0  0  0
 46 88  1  0  0  0
 50 89  1  0  0  0
M  END
$$$$
