3nef_ligand
  -I-interpret- 

 35 37  0  0  0  0  0  0  0  0999 V2000
  -54.9610   40.2900  -22.2550 S   0  0  0  0  0
  -60.9540   39.8970  -24.3040 Br  0  0  0  0  0
  -59.1820   40.1190  -23.6700 C   0  0  0  0  0
  -54.9590   40.8390  -20.7420 N   0  0  0  0  0
  -54.1590   41.1450  -23.0720 O   0  0  0  0  0
  -58.6460   41.4640  -23.3350 C   0  0  0  0  0
  -57.3020   39.7430  -18.0860 N   0  0  0  0  0
  -54.4580   38.9460  -22.2920 O   0  0  0  0  0
  -57.2490   41.5630  -22.8760 C   0  0  0  0  0
  -56.4650   40.3140  -22.7660 C   0  0  0  0  0
  -57.0540   39.1090  -23.1020 C   0  0  0  0  0
  -58.3670   39.0070  -23.5340 C   0  0  0  0  0
  -56.7330   42.8100  -22.5750 C   0  0  0  0  0
  -57.5360   43.9480  -22.7050 C   0  0  0  0  0
  -58.8540   43.8530  -23.1300 C   0  0  0  0  0
  -59.4090   42.6160  -23.4570 C   0  0  0  0  0
  -55.3270   40.0160  -19.6050 C   0  0  0  0  0
  -56.7260   40.3910  -19.1230 C   0  0  0  0  0
  -58.5280   40.0500  -17.6340 C   0  0  0  0  0
  -59.2690   41.0630  -18.2240 C   0  0  0  0  0
  -58.7010   41.7430  -19.2800 C   0  0  0  0  0
  -57.4290   41.4150  -19.7280 C   0  0  0  0  0
  -54.6872   41.8078  -20.5751 H   0  0  0  0  0
  -56.4593   38.1989  -23.0237 H   0  0  0  0  0
  -58.7702   38.0231  -23.7738 H   0  0  0  0  0
  -55.7013   42.9062  -22.2367 H   0  0  0  0  0
  -57.1192   44.9270  -22.4683 H   0  0  0  0  0
  -59.4615   44.7545  -23.2090 H   0  0  0  0  0
  -60.4393   42.5546  -23.8074 H   0  0  0  0  0
  -54.6131   40.1786  -18.7976 H   0  0  0  0  0
  -55.3184   38.9674  -19.9025 H   0  0  0  0  0
  -58.9462   39.4965  -16.7932 H   0  0  0  0  0
  -60.2672   41.3131  -17.8647 H   0  0  0  0  0
  -59.2555   42.5450  -19.7673 H   0  0  0  0  0
  -56.9846   41.9654  -20.5573 H   0  0  0  0  0
  4  1  1  0  0  0
  1  5  2  0  0  0
  1  8  2  0  0  0
  1 10  1  0  0  0
  3  2  1  0  0  0
  6  3  4  0  0  0
 12  3  4  0  0  0
 17  4  1  0  0  0
  9  6  4  0  0  0
  6 16  4  0  0  0
 18  7  4  0  0  0
  7 19  4  0  0  0
 10  9  4  0  0  0
  9 13  4  0  0  0
 10 11  4  0  0  0
 11 12  4  0  0  0
 13 14  4  0  0  0
 14 15  4  0  0  0
 16 15  4  0  0  0
 17 18  1  0  0  0
 18 22  4  0  0  0
 19 20  4  0  0  0
 20 21  4  0  0  0
 21 22  4  0  0  0
  4 23  1  0  0  0
 11 24  1  0  0  0
 12 25  1  0  0  0
 13 26  1  0  0  0
 14 27  1  0  0  0
 15 28  1  0  0  0
 16 29  1  0  0  0
 17 30  1  0  0  0
 17 31  1  0  0  0
 19 32  1  0  0  0
 20 33  1  0  0  0
 21 34  1  0  0  0
 22 35  1  0  0  0
M  END
$$$$
