4zv2_ligand
  -I-interpret- 

 21 20  0  0  0  0  0  0  0  0999 V2000
    3.9070    5.6170   13.3180 N   0  3  0  0  0
    4.4940    6.2200   12.0660 C   0  0  0  0  0
    5.8230    6.9410   12.3970 C   0  0  0  0  0
    6.4440    7.2670   11.3920 O   0  0  0  0  0
    3.4320    7.1190   11.4020 C   0  0  0  0  0
    3.2020    8.4370   12.1510 C   0  0  0  0  0
    2.3180    9.4100   11.4520 C   0  0  0  0  0
    2.2500    9.3850   10.2290 O   0  0  0  0  0
    1.7370   10.3430   12.2020 N   0  0  0  0  0
    6.0760    7.1790   13.5790 O   0  0  0  0  0
    4.6028    5.0199   13.7649 H   0  0  0  0  0
    3.6358    6.3631   13.9584 H   0  0  0  0  0
    3.0869    5.0617   13.0742 H   0  0  0  0  0
    4.7540    5.4504   11.3392 H   0  0  0  0  0
    2.4897    6.5711   11.4008 H   0  0  0  0  0
    3.7870    7.3655   10.4013 H   0  0  0  0  0
    4.1762    8.9146   12.2553 H   0  0  0  0  0
    2.7114    8.1841   13.0909 H   0  0  0  0  0
    1.1997   11.0898   11.7616 H   0  0  0  0  0
    1.8290   10.3114   13.2174 H   0  0  0  0  0
    5.3985    6.7876   14.1352 H   0  0  0  0  0
  1  2  1  0  0  0
  2  3  1  0  0  0
  2  5  1  0  0  0
  3  4  2  0  0  0
  3 10  1  0  0  0
  5  6  1  0  0  0
  6  7  1  0  0  0
  7  8  2  0  0  0
  7  9  1  0  0  0
  1 11  1  0  0  0
  1 12  1  0  0  0
  1 13  1  0  0  0
  2 14  1  0  0  0
  5 15  1  0  0  0
  5 16  1  0  0  0
  6 17  1  0  0  0
  6 18  1  0  0  0
  9 19  1  0  0  0
  9 20  1  0  0  0
 10 21  1  0  0  0
M  END
$$$$
