6ak4_ligand
  -I-interpret- 

 37 37  0  0  0  0  0  0  0  0999 V2000
   28.9370    6.8100  -27.2290 C   0  0  0  0  0
   29.9150    7.2800  -28.1200 C   0  0  0  0  0
   27.5690    6.8310  -27.5650 C   0  0  0  0  0
   28.1690    7.8060  -29.6880 C   0  0  0  0  0
   29.5520    7.8010  -29.3600 C   0  0  0  0  0
   30.5970    8.2480  -30.2960 C   0  0  0  0  0
   30.3180    6.6380  -31.7800 C   0  0  0  0  0
   29.7930    5.8630  -31.9900 N   0  0  0  0  0
   32.0200    8.1680  -32.4400 C   0  0  0  0  0
   32.6070    9.1980  -32.0620 O   0  0  0  0  0
   31.7820    6.3500  -34.2300 C   0  0  0  0  0
   33.4410    8.1390  -34.5140 C   0  0  0  0  0
   30.3660    6.4790  -34.7820 C   0  0  0  0  0
   28.7190    5.2190  -25.4210 O   0  0  0  0  0
   29.3710    6.2740  -25.9310 N   0  0  0  0  0
   30.3510    6.8150  -25.3230 O   0  0  0  0  0
   26.6150    6.3840  -26.7400 O   0  0  0  0  0
   27.2090    7.3490  -28.8320 C   0  0  0  0  0
   25.8880    7.3780  -29.1660 O   0  0  0  0  0
   30.9230    7.6550  -31.4800 C   0  0  0  0  0
   32.3760    7.5960  -33.6480 N   0  0  0  0  0
   34.5480    7.1120  -34.7290 C   0  0  0  0  0
   30.9673    7.2369  -27.8391 H   0  0  0  0  0
   27.8630    8.1898  -30.6612 H   0  0  0  0  0
   31.1633    9.1364  -30.0163 H   0  0  0  0  0
   32.4152    6.0740  -35.0732 H   0  0  0  0  0
   31.7285    5.6272  -33.4158 H   0  0  0  0  0
   33.8687    9.0183  -34.0324 H   0  0  0  0  0
   33.0086    8.3945  -35.4814 H   0  0  0  0  0
   29.6931    6.7914  -33.9834 H   0  0  0  0  0
   30.3547    7.2217  -35.5797 H   0  0  0  0  0
   30.0418    5.5158  -35.1760 H   0  0  0  0  0
   25.7573    6.4877  -27.1585 H   0  0  0  0  0
   25.7895    7.7507  -30.0452 H   0  0  0  0  0
   34.9830    6.8418  -33.7668 H   0  0  0  0  0
   34.1306    6.2235  -35.2028 H   0  0  0  0  0
   35.3187    7.5393  -35.3705 H   0  0  0  0  0
  2  1  4  0  0  0
  1  3  4  0  0  0
  1 15  1  0  0  0
  5  2  4  0  0  0
  3 17  1  0  0  0
 18  3  4  0  0  0
  5  4  4  0  0  0
  4 18  4  0  0  0
  6  5  1  0  0  0
 20  6  2  0  0  0
  7  8  3  0  0  0
 20  7  1  0  0  0
  9 10  2  0  0  0
  9 20  1  0  0  0
 21  9  1  0  0  0
 11 13  1  0  0  0
 11 21  1  0  0  0
 21 12  1  0  0  0
 12 22  1  0  0  0
 15 14  2  0  0  0
 15 16  2  0  0  0
 18 19  1  0  0  0
  2 23  1  0  0  0
  4 24  1  0  0  0
  6 25  1  0  0  0
 11 26  1  0  0  0
 11 27  1  0  0  0
 12 28  1  0  0  0
 12 29  1  0  0  0
 13 30  1  0  0  0
 13 31  1  0  0  0
 13 32  1  0  0  0
 17 33  1  0  0  0
 19 34  1  0  0  0
 22 35  1  0  0  0
 22 36  1  0  0  0
 22 37  1  0  0  0
M  END
$$$$
