3gwx_ligand
  -I-interpret- 

 52 51  0  0  0  0  0  0  0  0999 V2000
   35.2730   12.1360   61.7350 C   0  0  0  0  0
   34.4850   13.0750   61.9770 O   0  0  0  0  0
   36.2310   11.8620   62.5240 O   0  0  0  0  0
   35.0620   11.3240   60.4380 C   0  0  0  0  0
   35.2530    9.8000   60.6270 C   0  0  0  0  0
   35.0240    9.1900   59.2230 C   0  0  0  0  0
   35.2220    7.6510   59.1200 C   0  0  0  0  0
   34.2240    6.7670   59.2710 C   0  0  0  0  0
   32.8570    7.2170   59.5780 C   0  0  0  0  0
   31.8960    6.9060   58.4600 C   0  0  0  0  0
   30.5870    7.0900   58.6680 C   0  0  0  0  0
   30.0590    7.6010   59.9920 C   0  0  0  0  0
   29.1350    8.7640   59.7240 C   0  0  0  0  0
   27.8580    8.7800   60.1850 C   0  0  0  0  0
   27.2020    7.6620   60.9890 C   0  0  0  0  0
   26.4500    8.2610   62.1380 C   0  0  0  0  0
   25.1970    8.0900   62.5490 C   0  0  0  0  0
   24.0940    7.2290   61.9490 C   0  0  0  0  0
   22.7550    7.9330   61.8760 C   0  0  0  0  0
   22.4130    9.0390   61.1600 C   0  0  0  0  0
   23.2550    9.9010   60.2500 C   0  0  0  0  0
   22.9110    9.4190   58.8640 C   0  0  0  0  0
   36.7262   11.1162   62.1774 H   0  0  0  0  0
   35.8057   11.6606   59.7157 H   0  0  0  0  0
   34.0349   11.4878   60.1120 H   0  0  0  0  0
   34.5579    9.3940   61.3619 H   0  0  0  0  0
   36.2439    9.5621   61.0139 H   0  0  0  0  0
   35.7647    9.6426   58.5638 H   0  0  0  0  0
   33.9832    9.3865   58.9657 H   0  0  0  0  0
   36.2228    7.2710   58.9146 H   0  0  0  0  0
   34.4285    5.7016   59.1649 H   0  0  0  0  0
   32.8775    8.2976   59.7191 H   0  0  0  0  0
   32.5192    6.6947   60.4731 H   0  0  0  0  0
   32.2599    6.5383   57.5006 H   0  0  0  0  0
   29.8841    6.8668   57.8653 H   0  0  0  0  0
   30.8874    7.9224   60.6233 H   0  0  0  0  0
   29.5178    6.8075   60.5073 H   0  0  0  0  0
   29.5020    9.6121   59.1460 H   0  0  0  0  0
   27.2546    9.6603   59.9633 H   0  0  0  0  0
   27.9673    6.9833   61.3655 H   0  0  0  0  0
   26.5150    7.1060   60.3511 H   0  0  0  0  0
   27.0309    8.9581   62.7420 H   0  0  0  0  0
   24.9196    8.6463   63.4444 H   0  0  0  0  0
   23.9722    6.3564   62.5907 H   0  0  0  0  0
   24.3898    6.9785   60.9302 H   0  0  0  0  0
   21.9583    7.4953   62.4775 H   0  0  0  0  0
   21.3729    9.3497   61.2586 H   0  0  0  0  0
   24.3196    9.8098   60.4653 H   0  0  0  0  0
   23.0470   10.9630   60.3801 H   0  0  0  0  0
   23.1622    8.3620   58.7755 H   0  0  0  0  0
   21.8442    9.5563   58.6873 H   0  0  0  0  0
   23.4787    9.9913   58.1303 H   0  0  0  0  0
  1  4  1  0  0  0
  1  3  1  0  0  0
  1  2  2  0  0  0
  4  5  1  0  0  0
  5  6  1  0  0  0
  6  7  1  0  0  0
  7  8  2  0  0  0
  8  9  1  0  0  0
  9 10  1  0  0  0
 10 11  2  0  0  0
 11 12  1  0  0  0
 12 13  1  0  0  0
 13 14  2  0  0  0
 14 15  1  0  0  0
 15 16  1  0  0  0
 16 17  2  0  0  0
 17 18  1  0  0  0
 18 19  1  0  0  0
 19 20  2  0  0  0
 20 21  1  0  0  0
 21 22  1  0  0  0
  3 23  1  0  0  0
  4 24  1  0  0  0
  4 25  1  0  0  0
  5 26  1  0  0  0
  5 27  1  0  0  0
  6 28  1  0  0  0
  6 29  1  0  0  0
  7 30  1  0  0  0
  8 31  1  0  0  0
  9 32  1  0  0  0
  9 33  1  0  0  0
 10 34  1  0  0  0
 11 35  1  0  0  0
 12 36  1  0  0  0
 12 37  1  0  0  0
 13 38  1  0  0  0
 14 39  1  0  0  0
 15 40  1  0  0  0
 15 41  1  0  0  0
 16 42  1  0  0  0
 17 43  1  0  0  0
 18 44  1  0  0  0
 18 45  1  0  0  0
 19 46  1  0  0  0
 20 47  1  0  0  0
 21 48  1  0  0  0
 21 49  1  0  0  0
 22 50  1  0  0  0
 22 51  1  0  0  0
 22 52  1  0  0  0
M  END
$$$$
