5nu1_ligand
  -I-interpret- 

 56 59  0  0  0  0  0  0  0  0999 V2000
   10.0720   -1.7530  112.1250 C   0  0  0  0  0
    8.8710   -2.6460  112.5240 C   0  0  0  0  0
    8.0990   -5.1900  112.4670 O   0  0  0  0  0
   10.5540   -4.6980  112.4960 O   0  0  0  0  0
    7.9640   -4.1700  109.6000 C   0  0  0  0  0
    7.9370   -4.0530  108.2020 C   0  0  0  0  0
    9.1390   -4.0050  107.4820 C   0  0  0  0  0
   10.3610   -4.0560  108.1730 C   0  0  0  0  0
   10.3800   -4.1630  109.5690 C   0  0  0  0  0
    9.1170   -3.8690  105.9580 C   0  0  0  0  0
    9.6070   -2.4710  105.6540 C   0  0  0  0  0
   11.5800   -1.1620  105.1410 C   0  0  0  0  0
   12.2910    1.1240  104.6210 C   0  0  0  0  0
   12.2510    2.5640  104.2800 C   0  0  0  0  0
   13.6410    4.4990  103.5750 C   0  0  0  0  0
   14.8170    4.7770  106.0930 C   0  0  0  0  0
   14.8170    0.5290  104.8380 C   0  0  0  0  0
   15.4490    1.3720  103.9170 C   0  0  0  0  0
   16.8370    1.5420  103.9870 C   0  0  0  0  0
   17.5960    0.8660  104.9590 C   0  0  0  0  0
   16.9620    0.0160  105.8740 C   0  0  0  0  0
   15.5750   -0.1420  105.8090 C   0  0  0  0  0
    9.2150   -4.3570  112.0570 S   0  0  0  0  0
    9.1800   -4.2180  110.2860 C   0  0  0  0  0
    8.8000   -1.5430  105.6640 O   0  0  0  0  0
   10.9280   -2.3160  105.4120 N   0  0  0  0  0
   12.8260   -1.0240  105.1500 N   0  0  0  0  0
   13.3280    0.2870  104.8450 C   0  0  0  0  0
   10.7420    0.3120  104.7740 S   0  0  0  0  0
   11.2560    2.9640  103.7020 O   0  0  0  0  0
   13.2930    3.6130  104.6080 C   0  0  0  0  0
   14.5830    5.5060  103.7910 C   0  0  0  0  0
   15.1670    5.6450  105.0510 C   0  0  0  0  0
   13.8800    3.7630  105.8750 C   0  0  0  0  0
   13.4970    2.7090  107.2180 Cl  0  0  0  0  0
   17.8650   -0.8490  107.1070 Cl  0  0  0  0  0
   10.9676   -2.0990  112.6410 H   0  0  0  0  0
   10.2258   -1.8132  111.0476 H   0  0  0  0  0
    9.8648   -0.7206  112.4066 H   0  0  0  0  0
    7.9741   -2.3013  112.0094 H   0  0  0  0  0
    8.7152   -2.5868  113.6012 H   0  0  0  0  0
    7.0278   -4.2239  110.1557 H   0  0  0  0  0
    6.9834   -3.9995  107.6768 H   0  0  0  0  0
   11.2991   -4.0121  107.6197 H   0  0  0  0  0
   11.3320   -4.2035  110.0983 H   0  0  0  0  0
    8.1138   -4.0291  105.5629 H   0  0  0  0  0
    9.7513   -4.6197  105.4866 H   0  0  0  0  0
   13.1714    4.3992  102.5964 H   0  0  0  0  0
   15.2758    4.8924  107.0750 H   0  0  0  0  0
   14.8677    1.8901  103.1543 H   0  0  0  0  0
   17.3349    2.2058  103.2802 H   0  0  0  0  0
   18.6765    1.0034  105.0002 H   0  0  0  0  0
   15.0749   -0.7962  106.5232 H   0  0  0  0  0
   11.4960   -3.1629  105.4364 H   0  0  0  0  0
   14.8609    6.1798  102.9805 H   0  0  0  0  0
   15.8994    6.4333  105.2250 H   0  0  0  0  0
  2  1  1  0  0  0
 23  2  1  0  0  0
 23  3  2  0  0  0
 23  4  2  0  0  0
  6  5  4  0  0  0
  5 24  4  0  0  0
  7  6  4  0  0  0
  7  8  4  0  0  0
 10  7  1  0  0  0
  8  9  4  0  0  0
  9 24  4  0  0  0
 11 10  1  0  0  0
 11 25  2  0  0  0
 26 11  1  0  0  0
 12 26  1  0  0  0
 12 27  4  0  0  0
 29 12  4  0  0  0
 14 13  1  0  0  0
 13 28  4  0  0  0
 13 29  4  0  0  0
 14 30  2  0  0  0
 31 14  1  0  0  0
 31 15  4  0  0  0
 15 32  4  0  0  0
 16 33  4  0  0  0
 34 16  4  0  0  0
 17 18  4  0  0  0
 17 22  4  0  0  0
 28 17  1  0  0  0
 18 19  4  0  0  0
 19 20  4  0  0  0
 21 20  4  0  0  0
 22 21  4  0  0  0
 21 36  1  0  0  0
 24 23  1  0  0  0
 28 27  4  0  0  0
 31 34  4  0  0  0
 32 33  4  0  0  0
 34 35  1  0  0  0
  1 37  1  0  0  0
  1 38  1  0  0  0
  1 39  1  0  0  0
  2 40  1  0  0  0
  2 41  1  0  0  0
  5 42  1  0  0  0
  6 43  1  0  0  0
  8 44  1  0  0  0
  9 45  1  0  0  0
 10 46  1  0  0  0
 10 47  1  0  0  0
 15 48  1  0  0  0
 16 49  1  0  0  0
 18 50  1  0  0  0
 19 51  1  0  0  0
 20 52  1  0  0  0
 22 53  1  0  0  0
 26 54  1  0  0  0
 32 55  1  0  0  0
 33 56  1  0  0  0
M  END
$$$$
