3t2t_ligand
  -I-interpret- 

 47 48  0  0  0  0  0  0  0  0999 V2000
   23.4040    0.6600   19.0450 C   0  0  0  0  0
   24.3500   -0.4120   18.9810 O   0  0  0  0  0
   23.8970    1.7930   18.1680 C   0  0  0  0  0
   24.0470    1.2990   16.8390 O   0  0  0  0  0
   22.9450    2.9830   18.1340 C   0  0  0  0  0
   23.2580    3.6890   16.9380 O   0  0  0  0  0
   21.4740    2.5740   18.1050 C   0  0  0  0  0
   21.0990    2.3900   16.7390 O   0  0  0  0  0
   21.1590    1.2810   18.8470 C   0  0  0  0  0
   22.1290    0.2840   18.5310 O   0  0  0  0  0
   19.7780    0.7520   18.4610 C   0  0  0  0  0
   19.4300   -0.3430   19.3170 O   0  0  0  0  0
   22.4750    5.5700   18.0150 O   0  0  0  0  0
   22.9670    5.1010   17.0010 C   0  0  0  0  0
   23.3040    5.9240   15.7950 C   0  0  0  0  0
   23.3610    7.3060   15.8630 C   0  0  0  0  0
   23.6840    8.0320   14.7250 C   0  0  0  0  0
   23.9540    7.3860   13.5240 C   0  0  0  0  0
   24.2990    8.1790   12.2910 C   0  0  0  0  0
   23.8990    6.0010   13.4590 C   0  0  0  0  0
   23.5710    5.2760   14.5940 C   0  0  0  0  0
   25.3440    1.7380   16.3560 C   0  0  0  0  0
   25.6950    3.0130   16.5130 O   0  0  0  0  0
   26.1750    0.8810   15.7940 C   0  0  0  0  0
   23.7810   -1.6820   19.3070 C   0  0  0  0  0
   23.3063    0.9424   20.0932 H   0  0  0  0  0
   24.8402    2.1431   18.5874 H   0  0  0  0  0
   23.0733    3.5795   19.0372 H   0  0  0  0  0
   20.9216    3.3674   18.6085 H   0  0  0  0  0
   21.2870    3.1920   16.2459 H   0  0  0  0  0
   21.1777    1.4993   19.9148 H   0  0  0  0  0
   19.7953    0.4125   17.4254 H   0  0  0  0  0
   19.0406    1.5473   18.5701 H   0  0  0  0  0
   18.5625   -0.6746   19.0739 H   0  0  0  0  0
   23.1540    7.8192   16.8021 H   0  0  0  0  0
   23.7264    9.1201   14.7735 H   0  0  0  0  0
   23.4724    8.8462   12.0466 H   0  0  0  0  0
   25.1983    8.7659   12.4778 H   0  0  0  0  0
   24.4750    7.4968   11.4593 H   0  0  0  0  0
   24.1122    5.4867   12.5219 H   0  0  0  0  0
   23.5219    4.1882   14.5446 H   0  0  0  0  0
   26.4082    1.2131   14.7823 H   0  0  0  0  0
   27.0920    0.8280   16.3808 H   0  0  0  0  0
   25.7089   -0.1036   15.7562 H   0  0  0  0  0
   23.3840   -1.6512   20.3217 H   0  0  0  0  0
   22.9764   -1.9086   18.6074 H   0  0  0  0  0
   24.5502   -2.4514   19.2396 H   0  0  0  0  0
  1  2  1  0  0  0
  1  3  1  0  0  0
  1 10  1  0  0  0
  2 25  1  0  0  0
  3  4  1  0  0  0
  3  5  1  0  0  0
  4 22  1  0  0  0
  5  6  1  0  0  0
  5  7  1  0  0  0
  6 14  1  0  0  0
  7  8  1  0  0  0
  7  9  1  0  0  0
  9 10  1  0  0  0
  9 11  1  0  0  0
 11 12  1  0  0  0
 14 13  2  0  0  0
 14 15  1  0  0  0
 15 16  4  0  0  0
 15 21  4  0  0  0
 16 17  4  0  0  0
 17 18  4  0  0  0
 18 19  1  0  0  0
 18 20  4  0  0  0
 20 21  4  0  0  0
 22 23  2  0  0  0
 22 24  1  0  0  0
  1 26  1  0  0  0
  3 27  1  0  0  0
  5 28  1  0  0  0
  7 29  1  0  0  0
  8 30  1  0  0  0
  9 31  1  0  0  0
 11 32  1  0  0  0
 11 33  1  0  0  0
 12 34  1  0  0  0
 16 35  1  0  0  0
 17 36  1  0  0  0
 19 37  1  0  0  0
 19 38  1  0  0  0
 19 39  1  0  0  0
 20 40  1  0  0  0
 21 41  1  0  0  0
 24 42  1  0  0  0
 24 43  1  0  0  0
 24 44  1  0  0  0
 25 45  1  0  0  0
 25 46  1  0  0  0
 25 47  1  0  0  0
M  END
$$$$
