1xn2_ligand
  -I-interpret- 

185189  0  0  0  0  0  0  0  0999 V2000
   54.7560   76.4020   62.9760 N   0  3  0  0  0
   54.2810   77.2200   61.8300 C   0  0  0  0  0
   53.4330   76.3290   60.9300 C   0  0  0  0  0
   52.5960   76.8090   60.1630 O   0  0  0  0  0
   55.4770   77.7310   61.0290 C   0  0  0  0  0
   55.1000   78.4880   59.7820 C   0  0  0  0  0
   55.7530   78.4610   58.5760 C   0  0  0  0  0
   54.0220   79.4280   59.6320 C   0  0  0  0  0
   55.1520   79.3260   57.6890 N   0  0  0  0  0
   54.0880   79.9330   58.3080 C   0  0  0  0  0
   53.0090   79.8940   60.4870 C   0  0  0  0  0
   53.1760   80.8860   57.8170 C   0  0  0  0  0
   52.1000   80.8420   59.9970 C   0  0  0  0  0
   52.1940   81.3250   58.6740 C   0  0  0  0  0
   53.6510   75.0240   61.0530 N   0  0  0  0  0
   52.9600   74.0590   60.2190 C   0  0  0  0  0
   51.4380   74.1090   60.1310 C   0  0  0  0  0
   50.7010   73.8180   61.0780 O   0  0  0  0  0
   53.4200   72.6410   60.5610 C   0  0  0  0  0
   52.9980   72.1040   61.8820 C   0  0  0  0  0
   51.8050   71.5050   62.1830 C   0  0  0  0  0
   53.8110   71.9920   63.0530 C   0  0  0  0  0
   51.8300   71.0130   63.4640 N   0  0  0  0  0
   53.0490   71.2980   64.0240 C   0  0  0  0  0
   55.1130   72.4070   63.3770 C   0  0  0  0  0
   53.5480   71.0040   65.3040 C   0  0  0  0  0
   55.6110   72.1160   64.6500 C   0  0  0  0  0
   54.8260   71.4190   65.5970 C   0  0  0  0  0
   50.9900   74.4940   58.9440 N   0  0  0  0  0
   49.5830   74.5820   58.6150 C   0  0  0  0  0
   49.1080   73.1620   58.3380 C   0  0  0  0  0
   49.9080   72.2440   58.2430 O   0  0  0  0  0
   49.4210   75.4480   57.3570 C   0  0  0  0  0
   48.2300   75.1420   56.6600 O   0  0  0  0  0
   47.8020   72.9960   58.2040 N   0  0  0  0  0
   47.2140   71.7100   57.9020 C   0  0  0  0  0
   45.8070   71.9710   57.3770 C   0  0  0  0  0
   45.0570   72.7250   57.9890 O   0  0  0  0  0
   47.1370   70.8740   59.1590 C   0  0  0  0  0
   46.7470   69.4430   58.9180 C   0  0  0  0  0
   46.5790   68.6730   60.2260 C   0  0  0  0  0
   47.4960   68.7700   61.0930 O   0  0  0  0  0
   45.5360   67.9800   60.3710 O   0  0  0  0  0
   45.4450   71.3840   56.2400 N   0  0  0  0  0
   44.0940   71.5930   55.7270 C   0  0  0  0  0
   43.2540   70.3670   56.0040 C   0  0  0  0  0
   43.7480   69.2470   55.9920 O   0  0  0  0  0
   44.0610   71.8790   54.2020 C   0  0  0  0  0
   44.3680   73.3350   53.9470 C   0  0  0  0  0
   45.0630   70.9880   53.4750 C   0  0  0  0  0
   41.9730   70.5870   56.2800 N   0  0  0  0  0
   41.0550   69.4940   56.5500 C   0  0  0  0  0
   39.7470   69.9730   55.9510 C   0  0  0  0  0
   38.8090   70.3030   56.6790 O   0  0  0  0  0
   40.9230   69.2760   58.0670 C   0  0  0  0  0
   42.0870   68.4590   58.6390 C   0  0  0  0  0
   42.1550   67.2520   58.4240 O   0  0  0  0  0
   43.0250   69.1250   59.3210 N   0  0  0  0  0
   39.6970   70.0170   54.6210 N   0  0  0  0  0
   38.5190   70.4880   53.9130 C   0  0  0  0  0
   38.9200   71.5880   52.9080 C   0  0  0  0  0
   39.6150   72.7830   53.5890 C   0  0  0  0  0
   40.3130   73.6500   52.5440 C   0  0  0  0  0
   38.6020   73.6180   54.3780 C   0  0  0  0  0
   37.7770   69.3510   53.2330 C   0  0  0  0  0
   38.5890   68.7550   52.2040 O   0  0  0  0  0
   37.4110   68.2910   54.2610 C   0  0  0  0  0
   36.1840   67.4730   53.8810 C   0  0  0  0  0
   36.2590   66.0920   54.5400 C   0  0  0  0  0
   34.9290   68.2140   54.3560 C   0  0  0  0  0
   34.8800   68.6880   55.4850 O   0  0  0  0  0
   33.9320   68.3330   53.4880 N   0  0  0  0  0
   32.6900   68.9910   53.8950 C   0  0  0  0  0
   31.9690   68.1440   54.9420 C   0  0  0  0  0
   32.0080   66.9090   54.8840 O   0  0  0  0  0
   31.7710   69.2010   52.6820 C   0  0  0  0  0
   31.3360   68.8070   55.9110 N   0  0  0  0  0
   30.5650   68.0970   56.9340 C   0  0  0  0  0
   29.2090   67.8250   56.2930 C   0  0  0  0  0
   28.6930   68.6720   55.5600 O   0  0  0  0  0
   30.4010   68.9580   58.1890 C   0  0  0  0  0
   31.7330   69.4320   58.7730 C   0  0  0  0  0
   31.6950   69.6710   60.2850 C   0  0  0  0  0
   30.8930   70.5130   60.7500 O   0  0  0  0  0
   32.4810   69.0100   61.0090 O   0  0  0  0  0
   28.6410   66.6460   56.5390 N   0  0  0  0  0
   27.3400   66.2910   55.9550 C   0  0  0  0  0
   26.4750   65.4220   56.8710 C   0  0  0  0  0
   25.3460   65.8600   57.1950 O   0  0  0  0  0
   27.5350   65.5490   54.6320 C   0  0  0  0  0
   26.2570   65.0020   54.0410 C   0  0  0  0  0
   25.4330   65.8040   53.2620 C   0  0  0  0  0
   25.8970   63.6710   54.2400 C   0  0  0  0  0
   24.2730   65.2890   52.6830 C   0  0  0  0  0
   24.7390   63.1450   53.6670 C   0  0  0  0  0
   23.9270   63.9570   52.8840 C   0  0  0  0  0
   26.9240   64.3030   57.2280 O   0  0  0  0  0
   53.9532   76.0639   63.5067 H   0  0  0  0  0
   55.2927   75.6082   62.6263 H   0  0  0  0  0
   55.3470   76.9744   63.5789 H   0  0  0  0  0
   53.7019   78.0686   62.1943 H   0  0  0  0  0
   56.0535   76.8601   60.7171 H   0  0  0  0  0
   56.0267   78.4189   61.6714 H   0  0  0  0  0
   56.6228   77.8435   58.3519 H   0  0  0  0  0
   52.9316   79.5260   61.5101 H   0  0  0  0  0
   53.2454   81.2619   56.7962 H   0  0  0  0  0
   51.3080   81.2121   60.6480 H   0  0  0  0  0
   51.4720   82.0626   58.3237 H   0  0  0  0  0
   54.3191   74.6935   61.7493 H   0  0  0  0  0
   53.2584   74.3687   59.2174 H   0  0  0  0  0
   54.5092   72.6755   60.5844 H   0  0  0  0  0
   52.9679   71.9895   59.8131 H   0  0  0  0  0
   50.9566   71.4295   61.5029 H   0  0  0  0  0
   55.7224   72.9448   62.6507 H   0  0  0  0  0
   52.9453   70.4675   66.0368 H   0  0  0  0  0
   56.6198   72.4311   64.9167 H   0  0  0  0  0
   55.2430   71.2058   66.5813 H   0  0  0  0  0
   51.6713   74.7407   58.2262 H   0  0  0  0  0
   49.0042   75.0302   59.4226 H   0  0  0  0  0
   50.2652   75.2533   56.6955 H   0  0  0  0  0
   49.3803   76.4933   57.6631 H   0  0  0  0  0
   48.1630   75.7010   55.8824 H   0  0  0  0  0
   47.1889   73.8032   58.3177 H   0  0  0  0  0
   47.8135   71.1736   57.1665 H   0  0  0  0  0
   46.3696   71.3157   59.7947 H   0  0  0  0  0
   48.1318   70.8675   59.6045 H   0  0  0  0  0
   47.5371   68.9655   58.3384 H   0  0  0  0  0
   45.7940   69.4320   58.3892 H   0  0  0  0  0
   48.1867   69.3494   60.7631 H   0  0  0  0  0
   46.1039   70.7942   55.7318 H   0  0  0  0  0
   43.6970   72.4703   56.2377 H   0  0  0  0  0
   43.0642   71.6574   53.8208 H   0  0  0  0  0
   43.6234   73.9549   54.4464 H   0  0  0  0  0
   45.3585   73.5698   54.3366 H   0  0  0  0  0
   44.3430   73.5279   52.8745 H   0  0  0  0  0
   46.0656   71.1869   53.8535 H   0  0  0  0  0
   44.8091   69.9421   53.6473 H   0  0  0  0  0
   45.0279   71.2005   52.4065 H   0  0  0  0  0
   41.6261   71.5459   56.3028 H   0  0  0  0  0
   41.3806   68.5409   56.1331 H   0  0  0  0  0
   40.0002   68.7259   58.2512 H   0  0  0  0  0
   40.9245   70.2526   58.5510 H   0  0  0  0  0
   43.8383   68.6295   59.6863 H   0  0  0  0  0
   42.9271   70.1284   59.4758 H   0  0  0  0  0
   40.5087   69.7114   54.0842 H   0  0  0  0  0
   37.8279   70.9155   54.6394 H   0  0  0  0  0
   38.0117   71.9546   52.4298 H   0  0  0  0  0
   39.6200   71.1533   52.1945 H   0  0  0  0  0
   40.3608   72.3987   54.2848 H   0  0  0  0  0
   41.0590   73.0537   52.0186 H   0  0  0  0  0
   39.5765   74.0223   51.8320 H   0  0  0  0  0
   40.8001   74.4907   53.0379 H   0  0  0  0  0
   37.8361   73.9940   53.6996 H   0  0  0  0  0
   38.1378   72.9959   55.1432 H   0  0  0  0  0
   39.1138   74.4563   54.8507 H   0  0  0  0  0
   36.8725   69.7541   52.7775 H   0  0  0  0  0
   38.1021   68.0400   51.7877 H   0  0  0  0  0
   37.1851   68.8052   55.1951 H   0  0  0  0  0
   38.2530   67.6028   54.3354 H   0  0  0  0  0
   36.1447   67.3428   52.7995 H   0  0  0  0  0
   37.1570   65.5766   54.1994 H   0  0  0  0  0
   36.2944   66.2091   55.6231 H   0  0  0  0  0
   35.3787   65.5112   54.2647 H   0  0  0  0  0
   34.0312   67.9672   52.5410 H   0  0  0  0  0
   32.9379   69.9623   54.3231 H   0  0  0  0  0
   32.2789   69.8250   51.9467 H   0  0  0  0  0
   31.5318   68.2350   52.2374 H   0  0  0  0  0
   30.8525   69.6915   53.0043 H   0  0  0  0  0
   31.3898   69.8252   55.9400 H   0  0  0  0  0
   31.0616   67.1796   57.2499 H   0  0  0  0  0
   29.9070   68.3483   58.9455 H   0  0  0  0  0
   29.8291   69.8430   57.9100 H   0  0  0  0  0
   31.9752   70.3835   58.2996 H   0  0  0  0  0
   32.4670   68.6481   58.5863 H   0  0  0  0  0
   33.0059   68.4246   60.4582 H   0  0  0  0  0
   29.1176   65.9771   57.1438 H   0  0  0  0  0
   26.8187   67.2360   55.8026 H   0  0  0  0  0
   28.1891   64.6999   54.8305 H   0  0  0  0  0
   27.9421   66.2639   53.9170 H   0  0  0  0  0
   25.6961   66.8494   53.1009 H   0  0  0  0  0
   26.5304   63.0302   54.8534 H   0  0  0  0  0
   23.6375   65.9308   52.0728 H   0  0  0  0  0
   24.4720   62.1013   53.8327 H   0  0  0  0  0
   23.0230   63.5517   52.4295 H   0  0  0  0  0
   27.8034   64.1811   56.8629 H   0  0  0  0  0
  1  2  1  0  0  0
  2  3  1  0  0  0
  2  5  1  0  0  0
  3  4  2  0  0  0
  3 15  1  0  0  0
  5  6  1  0  0  0
  6  7  4  0  0  0
  6  8  4  0  0  0
  7  9  4  0  0  0
  8 10  4  0  0  0
  8 11  4  0  0  0
  9 10  4  0  0  0
 10 12  4  0  0  0
 11 13  4  0  0  0
 12 14  4  0  0  0
 13 14  4  0  0  0
 15 16  1  0  0  0
 16 17  1  0  0  0
 16 19  1  0  0  0
 17 18  2  0  0  0
 17 29  1  0  0  0
 19 20  1  0  0  0
 20 21  4  0  0  0
 20 22  4  0  0  0
 21 23  4  0  0  0
 22 24  4  0  0  0
 22 25  4  0  0  0
 23 24  4  0  0  0
 24 26  4  0  0  0
 25 27  4  0  0  0
 26 28  4  0  0  0
 27 28  4  0  0  0
 29 30  1  0  0  0
 30 31  1  0  0  0
 30 33  1  0  0  0
 31 32  2  0  0  0
 31 35  1  0  0  0
 33 34  1  0  0  0
 35 36  1  0  0  0
 36 37  1  0  0  0
 36 39  1  0  0  0
 37 38  2  0  0  0
 37 44  1  0  0  0
 39 40  1  0  0  0
 40 41  1  0  0  0
 41 42  1  0  0  0
 41 43  2  0  0  0
 44 45  1  0  0  0
 45 46  1  0  0  0
 45 48  1  0  0  0
 46 47  2  0  0  0
 46 51  1  0  0  0
 48 49  1  0  0  0
 48 50  1  0  0  0
 51 52  1  0  0  0
 52 53  1  0  0  0
 52 55  1  0  0  0
 53 54  2  0  0  0
 53 59  1  0  0  0
 55 56  1  0  0  0
 56 57  2  0  0  0
 56 58  1  0  0  0
 59 60  1  0  0  0
 60 61  1  0  0  0
 60 65  1  0  0  0
 61 62  1  0  0  0
 62 63  1  0  0  0
 62 64  1  0  0  0
 65 66  1  0  0  0
 65 67  1  0  0  0
 67 68  1  0  0  0
 68 69  1  0  0  0
 68 70  1  0  0  0
 70 71  2  0  0  0
 70 72  1  0  0  0
 72 73  1  0  0  0
 73 74  1  0  0  0
 73 76  1  0  0  0
 74 75  2  0  0  0
 74 77  1  0  0  0
 77 78  1  0  0  0
 78 79  1  0  0  0
 78 81  1  0  0  0
 79 80  2  0  0  0
 79 86  1  0  0  0
 81 82  1  0  0  0
 82 83  1  0  0  0
 83 84  2  0  0  0
 83 85  1  0  0  0
 86 87  1  0  0  0
 87 88  1  0  0  0
 87 90  1  0  0  0
 88 89  2  0  0  0
 88 97  1  0  0  0
 90 91  1  0  0  0
 91 92  4  0  0  0
 91 93  4  0  0  0
 92 94  4  0  0  0
 93 95  4  0  0  0
 94 96  4  0  0  0
 95 96  4  0  0  0
  1 98  1  0  0  0
  1 99  1  0  0  0
  1100  1  0  0  0
  2101  1  0  0  0
  5102  1  0  0  0
  5103  1  0  0  0
  7104  1  0  0  0
 11105  1  0  0  0
 12106  1  0  0  0
 13107  1  0  0  0
 14108  1  0  0  0
 15109  1  0  0  0
 16110  1  0  0  0
 19111  1  0  0  0
 19112  1  0  0  0
 21113  1  0  0  0
 25114  1  0  0  0
 26115  1  0  0  0
 27116  1  0  0  0
 28117  1  0  0  0
 29118  1  0  0  0
 30119  1  0  0  0
 33120  1  0  0  0
 33121  1  0  0  0
 34122  1  0  0  0
 35123  1  0  0  0
 36124  1  0  0  0
 39125  1  0  0  0
 39126  1  0  0  0
 40127  1  0  0  0
 40128  1  0  0  0
 42129  1  0  0  0
 44130  1  0  0  0
 45131  1  0  0  0
 48132  1  0  0  0
 49133  1  0  0  0
 49134  1  0  0  0
 49135  1  0  0  0
 50136  1  0  0  0
 50137  1  0  0  0
 50138  1  0  0  0
 51139  1  0  0  0
 52140  1  0  0  0
 55141  1  0  0  0
 55142  1  0  0  0
 58143  1  0  0  0
 58144  1  0  0  0
 59145  1  0  0  0
 60146  1  0  0  0
 61147  1  0  0  0
 61148  1  0  0  0
 62149  1  0  0  0
 63150  1  0  0  0
 63151  1  0  0  0
 63152  1  0  0  0
 64153  1  0  0  0
 64154  1  0  0  0
 64155  1  0  0  0
 65156  1  0  0  0
 66157  1  0  0  0
 67158  1  0  0  0
 67159  1  0  0  0
 68160  1  0  0  0
 69161  1  0  0  0
 69162  1  0  0  0
 69163  1  0  0  0
 72164  1  0  0  0
 73165  1  0  0  0
 76166  1  0  0  0
 76167  1  0  0  0
 76168  1  0  0  0
 77169  1  0  0  0
 78170  1  0  0  0
 81171  1  0  0  0
 81172  1  0  0  0
 82173  1  0  0  0
 82174  1  0  0  0
 85175  1  0  0  0
 86176  1  0  0  0
 87177  1  0  0  0
 90178  1  0  0  0
 90179  1  0  0  0
 92180  1  0  0  0
 93181  1  0  0  0
 94182  1  0  0  0
 95183  1  0  0  0
 96184  1  0  0  0
 97185  1  0  0  0
M  END
$$$$
