### 
### Created by X-TOOL on Mon Sep 10 21:12:52 2018
### 

@<TRIPOS>MOLECULE
1xn2_ligand
  184   188     1     0     0
SMALL
GAST_HUCK


@<TRIPOS>ATOM
      1 N          54.7560   76.4020   62.9760 N.4       1 TRP         0.2388
      2 CA         54.2810   77.2200   61.8300 C.3       1 TRP         0.0691
      3 C          53.4330   76.3290   60.9300 C.2       1 TRP         0.2281
      4 O          52.5960   76.8090   60.1630 O.2       1 TRP        -0.3906
      5 CB         55.4770   77.7310   61.0290 C.3       1 TRP         0.0245
      6 CG         55.1000   78.4880   59.7820 C.2       1 TRP        -0.0386
      7 CD1        55.7530   78.4610   58.5760 C.2       1 TRP         0.0168
      8 CD2        54.0220   79.4280   59.6320 C.ar      1 TRP        -0.0213
      9 NE1        55.1520   79.3260   57.6890 N.pl3     1 TRP        -0.2890
     10 CE2        54.0880   79.9330   58.3080 C.ar      1 TRP         0.0603
     11 CE3        53.0090   79.8940   60.4870 C.ar      1 TRP        -0.0747
     12 CZ2        53.1760   80.8860   57.8170 C.ar      1 TRP        -0.0443
     13 CZ3        52.1000   80.8420   59.9970 C.ar      1 TRP        -0.0792
     14 CH2        52.1940   81.3250   58.6740 C.ar      1 TRP        -0.0768
     15 N          53.6510   75.0240   61.0530 N.am      1 TRP        -0.2598
     16 CA         52.9600   74.0590   60.2190 C.3       1 TRP         0.1353
     17 C          51.4380   74.1090   60.1310 C.2       1 TRP         0.2052
     18 O          50.7010   73.8180   61.0780 O.2       1 TRP        -0.3942
     19 CB         53.4200   72.6410   60.5610 C.3       1 TRP         0.0042
     20 CG         52.9980   72.1040   61.8820 C.2       1 TRP        -0.0418
     21 CD1        51.8050   71.5050   62.1830 C.2       1 TRP         0.0167
     22 CD2        53.8110   71.9920   63.0530 C.ar      1 TRP        -0.0214
     23 NE1        51.8300   71.0130   63.4640 N.pl3     1 TRP        -0.2890
     24 CE2        53.0490   71.2980   64.0240 C.ar      1 TRP         0.0603
     25 CE3        55.1130   72.4070   63.3770 C.ar      1 TRP        -0.0747
     26 CZ2        53.5480   71.0040   65.3040 C.ar      1 TRP        -0.0443
     27 CZ3        55.6110   72.1160   64.6500 C.ar      1 TRP        -0.0792
     28 CH2        54.8260   71.4190   65.5970 C.ar      1 TRP        -0.0768
     29 N          50.9900   74.4940   58.9440 N.am      1 SER        -0.2615
     30 CA         49.5830   74.5820   58.6150 C.3       1 SER         0.1539
     31 C          49.1080   73.1620   58.3380 C.2       1 SER         0.2062
     32 O          49.9080   72.2440   58.2430 O.2       1 SER        -0.3943
     33 CB         49.4210   75.4480   57.3570 C.3       1 SER         0.0843
     34 OG         48.2300   75.1420   56.6600 O.3       1 SER        -0.3903
     35 N          47.8020   72.9960   58.2040 N.am      1 GLU        -0.2636
     36 CA         47.2140   71.7100   57.9020 C.3       1 GLU         0.1325
     37 C          45.8070   71.9710   57.3770 C.2       1 GLU         0.2040
     38 O          45.0570   72.7250   57.9890 O.2       1 GLU        -0.3944
     39 CB         47.1370   70.8740   59.1590 C.3       1 GLU        -0.0008
     40 CG         46.7470   69.4430   58.9180 C.3       1 GLU         0.0044
     41 CD         46.5790   68.6730   60.2260 C.2       1 GLU         0.0350
     42 OE1        47.4960   68.7700   61.0930 O.co2     1 GLU        -0.5690
     43 OE2        45.5360   67.9800   60.3710 O.co2     1 GLU        -0.5690
     44 N          45.4450   71.3840   56.2400 N.am      1 VAL        -0.2635
     45 CA         44.0940   71.5930   55.7270 C.3       1 VAL         0.1333
     46 C          43.2540   70.3670   56.0040 C.2       1 VAL         0.2043
     47 O          43.7480   69.2470   55.9920 O.2       1 VAL        -0.3944
     48 CB         44.0610   71.8790   54.2020 C.3       1 VAL        -0.0063
     49 CG1        44.3680   73.3350   53.9470 C.3       1 VAL        -0.0584
     50 CG2        45.0630   70.9880   53.4750 C.3       1 VAL        -0.0584
     51 N          41.9730   70.5870   56.2800 N.am      1 ASN        -0.2616
     52 CA         41.0550   69.4940   56.5500 C.3       1 ASN         0.1474
     53 C          39.7470   69.9730   55.9510 C.2       1 ASN         0.2043
     54 O          38.8090   70.3030   56.6790 O.2       1 ASN        -0.3944
     55 CB         40.9230   69.2760   58.0670 C.3       1 ASN         0.0773
     56 CG         42.0870   68.4590   58.6390 C.2       1 ASN         0.1780
     57 OD1        42.1550   67.2520   58.4240 O.2       1 ASN        -0.3970
     58 ND2        43.0250   69.1250   59.3210 N.am      1 ASN        -0.3007
     59 N          39.6970   70.0170   54.6210 N.am      1 1OL        -0.2794
     60 CA         38.5190   70.4880   53.9130 C.3       1 1OL         0.0683
     61 CB         38.9200   71.5880   52.9080 C.3       1 1OL        -0.0251
     62 CG         39.6150   72.7830   53.5890 C.3       1 1OL        -0.0446
     63 CD1        40.3130   73.6500   52.5440 C.3       1 1OL        -0.0626
     64 CD2        38.6020   73.6180   54.3780 C.3       1 1OL        -0.0626
     65 C          37.7770   69.3510   53.2330 C.3       1 1OL         0.0804
     66 O          38.5890   68.7550   52.2040 O.3       1 1OL        -0.3894
     67 CM         37.4110   68.2910   54.2610 C.3       1 1OL        -0.0052
     68 CA         36.1840   67.4730   53.8810 C.3       1 1OL         0.0483
     69 CB         36.2590   66.0920   54.5400 C.3       1 1OL        -0.0452
     70 C          34.9290   68.2140   54.3560 C.2       1 1OL         0.1811
     71 O          34.8800   68.6880   55.4850 O.2       1 1OL        -0.3966
     72 N          33.9320   68.3330   53.4880 N.am      1 ALA        -0.2657
     73 CA         32.6900   68.9910   53.8950 C.3       1 ALA         0.1281
     74 C          31.9690   68.1440   54.9420 C.2       1 ALA         0.2036
     75 O          32.0080   66.9090   54.8840 O.2       1 ALA        -0.3944
     76 CB         31.7710   69.2010   52.6820 C.3       1 ALA        -0.0244
     77 N          31.3360   68.8070   55.9110 N.am      1 GLU        -0.2636
     78 CA         30.5650   68.0970   56.9340 C.3       1 GLU         0.1324
     79 C          29.2090   67.8250   56.2930 C.2       1 GLU         0.2036
     80 O          28.6930   68.6720   55.5600 O.2       1 GLU        -0.3944
     81 CB         30.4010   68.9580   58.1890 C.3       1 GLU        -0.0008
     82 CG         31.7330   69.4320   58.7730 C.3       1 GLU         0.0044
     83 CD         31.6950   69.6710   60.2850 C.2       1 GLU         0.0350
     84 OE1        30.8930   70.5130   60.7500 O.co2     1 GLU        -0.5690
     85 OE2        32.4810   69.0100   61.0090 O.co2     1 GLU        -0.5690
     86 N          28.6410   66.6460   56.5390 N.am      1 PHE        -0.2677
     87 CA         27.3400   66.2910   55.9550 C.3       1 PHE         0.1039
     88 C          26.4750   65.4220   56.8710 C.2       1 PHE         0.0621
     89 O          25.3460   65.8600   57.1950 O.co2     1 PHE        -0.5664
     90 CB         27.5350   65.5490   54.6320 C.3       1 PHE         0.0159
     91 CG         26.2570   65.0020   54.0410 C.ar      1 PHE        -0.0392
     92 CD1        25.4330   65.8040   53.2620 C.ar      1 PHE        -0.0602
     93 CD2        25.8970   63.6710   54.2400 C.ar      1 PHE        -0.0602
     94 CE1        24.2730   65.2890   52.6830 C.ar      1 PHE        -0.0686
     95 CE2        24.7390   63.1450   53.6670 C.ar      1 PHE        -0.0686
     96 CZ         23.9270   63.9570   52.8840 C.ar      1 PHE        -0.0687
     97 OXT        26.9240   64.3030   57.2280 O.co2     1 PHE        -0.5664
     98 H1         55.3203   76.9732   63.5854 H         1 TRP         0.2016
     99 H2         55.3070   75.6308   62.6329 H         1 TRP         0.2016
    100 H3         53.9630   76.0472   63.4871 H         1 TRP         0.2016
    101 H4         53.6847   78.0692   62.1951 H         1 TRP         0.1114
    102 H5         56.0923   76.8673   60.7367 H         1 TRP         0.0430
    103 H6         56.0659   78.3991   61.6746 H         1 TRP         0.0430
    104 H7         56.6220   77.8440   58.3521 H         1 TRP         0.0795
    105 H8         55.4525   79.4909   56.7177 H         1 TRP         0.2216
    106 H9         52.9320   79.5280   61.5044 H         1 TRP         0.0540
    107 H10        53.2450   81.2598   56.8018 H         1 TRP         0.0541
    108 H11        51.3123   81.2100   60.6444 H         1 TRP         0.0510
    109 H12        51.4759   82.0585   58.3256 H         1 TRP         0.0530
    110 H13        54.3060   74.6999   61.7357 H         1 TRP         0.1886
    111 H14        53.3097   74.2667   59.1970 H         1 TRP         0.0815
    112 H15        54.5196   72.6310   60.5327 H         1 TRP         0.0397
    113 H16        53.0271   71.9667   59.7858 H         1 TRP         0.0397
    114 H17        50.9573   71.4295   61.5035 H         1 TRP         0.0795
    115 H18        51.0594   70.5118   63.9287 H         1 TRP         0.2216
    116 H19        55.7191   72.9419   62.6547 H         1 TRP         0.0540
    117 H20        52.9486   70.4705   66.0328 H         1 TRP         0.0541
    118 H21        56.6142   72.4294   64.9153 H         1 TRP         0.0510
    119 H22        55.2407   71.2070   66.5758 H         1 TRP         0.0530
    120 H23        51.6580   74.7359   58.2402 H         1 SER         0.1884
    121 H24        49.0157   75.0206   59.4491 H         1 SER         0.0823
    122 H25        50.2786   75.2726   56.6909 H         1 SER         0.0606
    123 H26        49.3979   76.5069   57.6540 H         1 SER         0.0606
    124 H27        48.2448   74.2298   56.3953 H         1 SER         0.2097
    125 H28        47.2009   73.7874   58.3155 H         1 GLU         0.1883
    126 H29        47.8135   71.1862   57.1430 H         1 GLU         0.0801
    127 H30        46.3929   71.3269   59.8307 H         1 GLU         0.0330
    128 H31        48.1243   70.8865   59.6438 H         1 GLU         0.0330
    129 H32        47.5296   68.9571   58.3168 H         1 GLU         0.0433
    130 H33        45.7950   69.4213   58.3673 H         1 GLU         0.0433
    131 H34        46.0910   70.8057   55.7417 H         1 VAL         0.1883
    132 H35        43.6566   72.4553   56.2515 H         1 VAL         0.0802
    133 H36        43.0527   71.6581   53.8218 H         1 VAL         0.0343
    134 H37        44.3430   73.5309   52.8649 H         1 VAL         0.0234
    135 H38        45.3675   73.5733   54.3397 H         1 VAL         0.0234
    136 H39        43.6172   73.9617   54.4505 H         1 VAL         0.0234
    137 H40        44.8248   69.9322   53.6715 H         1 VAL         0.0234
    138 H41        46.0786   71.2080   53.8358 H         1 VAL         0.0234
    139 H42        45.0082   71.1811   52.3935 H         1 VAL         0.0234
    140 H43        41.6329   71.5271   56.3024 H         1 ASN         0.1885
    141 H44        41.3915   68.5635   56.0695 H         1 ASN         0.0826
    142 H45        39.9829   68.7411   58.2674 H         1 ASN         0.0551
    143 H46        40.9003   70.2565   58.5650 H         1 ASN         0.0551
    144 H47        43.8028   68.6330   59.7122 H         1 ASN         0.1814
    145 H48        42.9486   70.1150   59.4398 H         1 ASN         0.1814
    146 H49        40.4928   69.7174   54.0947 H         1 1OL         0.1856
    147 H50        37.8366   70.9350   54.6509 H         1 1OL         0.0582
    148 H51        38.0137   71.9494   52.4000 H         1 1OL         0.0291
    149 H52        39.6079   71.1552   52.1668 H         1 1OL         0.0291
    150 H53        40.3712   72.3969   54.2884 H         1 1OL         0.0296
    151 H54        40.8050   74.4989   53.0413 H         1 1OL         0.0232
    152 H55        39.5707   74.0265   51.8248 H         1 1OL         0.0232
    153 H56        41.0662   73.0494   52.0131 H         1 1OL         0.0232
    154 H57        38.1067   72.9822   55.1267 H         1 1OL         0.0232
    155 H58        37.8488   74.0278   53.6890 H         1 1OL         0.0232
    156 H59        39.1229   74.4435   54.8850 H         1 1OL         0.0232
    157 H60        36.8570   69.7471   52.7785 H         1 1OL         0.0618
    158 H61        38.8066   69.4122   51.5535 H         1 1OL         0.2099
    159 H62        37.2125   68.7907   55.2206 H         1 1OL         0.0318
    160 H63        38.2644   67.6062   54.3738 H         1 1OL         0.0318
    161 H64        36.1466   67.3524   52.7883 H         1 1OL         0.0536
    162 H65        35.3711   65.5048   54.2629 H         1 1OL         0.0257
    163 H66        36.2948   66.2088   55.6332 H         1 1OL         0.0257
    164 H67        37.1649   65.5708   54.1971 H         1 1OL         0.0257
    165 H68        34.0292   67.9744   52.5596 H         1 ALA         0.1883
    166 H69        32.9336   69.9706   54.3320 H         1 ALA         0.0797
    167 H70        30.8436   69.6960   53.0060 H         1 ALA         0.0277
    168 H71        31.5288   68.2267   52.2324 H         1 ALA         0.0277
    169 H72        32.2824   69.8307   51.9391 H         1 ALA         0.0277
    170 H73        31.3887   69.8052   55.9394 H         1 GLU         0.1883
    171 H74        31.0610   67.1525   57.2019 H         1 GLU         0.0801
    172 H75        29.8753   68.3661   58.9528 H         1 GLU         0.0330
    173 H76        29.7985   69.8413   57.9307 H         1 GLU         0.0330
    174 H77        32.0120   70.3748   58.2798 H         1 GLU         0.0433
    175 H78        32.4957   68.6680   58.5618 H         1 GLU         0.0433
    176 H79        29.1083   65.9902   57.1320 H         1 PHE         0.1877
    177 H80        26.7957   67.2264   55.7582 H         1 PHE         0.0749
    178 H81        28.2237   64.7088   54.8047 H         1 PHE         0.0467
    179 H82        27.9810   66.2457   53.9070 H         1 PHE         0.0467
    180 H83        25.6947   66.8437   53.1018 H         1 PHE         0.0557
    181 H84        26.5270   63.0337   54.8500 H         1 PHE         0.0557
    182 H85        23.6410   65.9273   52.0762 H         1 PHE         0.0599
    183 H86        24.4735   62.1070   53.8318 H         1 PHE         0.0599
    184 H87        23.0280   63.5539   52.4320 H         1 PHE         0.0559
@<TRIPOS>BOND
     1    1    2 1  
     2    2    3 1  
     3    2    5 1  
     4    3    4 2  
     5    3   15 am 
     6    5    6 1  
     7    6    7 2  
     8    6    8 1  
     9    7    9 1  
    10    8   10 ar 
    11    8   11 ar 
    12    9   10 1  
    13   10   12 ar 
    14   11   13 ar 
    15   12   14 ar 
    16   13   14 ar 
    17   15   16 1  
    18   16   17 1  
    19   16   19 1  
    20   17   18 2  
    21   17   29 am 
    22   19   20 1  
    23   20   21 2  
    24   20   22 1  
    25   21   23 1  
    26   22   24 ar 
    27   22   25 ar 
    28   23   24 1  
    29   24   26 ar 
    30   25   27 ar 
    31   26   28 ar 
    32   27   28 ar 
    33   29   30 1  
    34   30   31 1  
    35   30   33 1  
    36   31   32 2  
    37   31   35 am 
    38   33   34 1  
    39   35   36 1  
    40   36   37 1  
    41   36   39 1  
    42   37   38 2  
    43   37   44 am 
    44   39   40 1  
    45   40   41 1  
    46   41   42 ar 
    47   41   43 ar 
    48   44   45 1  
    49   45   46 1  
    50   45   48 1  
    51   46   47 2  
    52   46   51 am 
    53   48   49 1  
    54   48   50 1  
    55   51   52 1  
    56   52   53 1  
    57   52   55 1  
    58   53   54 2  
    59   53   59 am 
    60   55   56 1  
    61   56   57 2  
    62   56   58 am 
    63   59   60 1  
    64   60   61 1  
    65   60   65 1  
    66   61   62 1  
    67   62   63 1  
    68   62   64 1  
    69   65   66 1  
    70   65   67 1  
    71   67   68 1  
    72   68   69 1  
    73   68   70 1  
    74   70   71 2  
    75   70   72 am 
    76   72   73 1  
    77   73   74 1  
    78   73   76 1  
    79   74   75 2  
    80   74   77 am 
    81   77   78 1  
    82   78   79 1  
    83   78   81 1  
    84   79   80 2  
    85   79   86 am 
    86   81   82 1  
    87   82   83 1  
    88   83   84 ar 
    89   83   85 ar 
    90   86   87 1  
    91   87   88 1  
    92   87   90 1  
    93   88   89 ar 
    94   88   97 ar 
    95   90   91 1  
    96   91   92 ar 
    97   91   93 ar 
    98   92   94 ar 
    99   93   95 ar 
   100   94   96 ar 
   101   95   96 ar 
   102    1   98 1  
   103    1   99 1  
   104    1  100 1  
   105    2  101 1  
   106    5  102 1  
   107    5  103 1  
   108    7  104 1  
   109    9  105 1  
   110   11  106 1  
   111   12  107 1  
   112   13  108 1  
   113   14  109 1  
   114   15  110 1  
   115   16  111 1  
   116   19  112 1  
   117   19  113 1  
   118   21  114 1  
   119   23  115 1  
   120   25  116 1  
   121   26  117 1  
   122   27  118 1  
   123   28  119 1  
   124   29  120 1  
   125   30  121 1  
   126   33  122 1  
   127   33  123 1  
   128   34  124 1  
   129   35  125 1  
   130   36  126 1  
   131   39  127 1  
   132   39  128 1  
   133   40  129 1  
   134   40  130 1  
   135   44  131 1  
   136   45  132 1  
   137   48  133 1  
   138   49  134 1  
   139   49  135 1  
   140   49  136 1  
   141   50  137 1  
   142   50  138 1  
   143   50  139 1  
   144   51  140 1  
   145   52  141 1  
   146   55  142 1  
   147   55  143 1  
   148   58  144 1  
   149   58  145 1  
   150   59  146 1  
   151   60  147 1  
   152   61  148 1  
   153   61  149 1  
   154   62  150 1  
   155   63  151 1  
   156   63  152 1  
   157   63  153 1  
   158   64  154 1  
   159   64  155 1  
   160   64  156 1  
   161   65  157 1  
   162   66  158 1  
   163   67  159 1  
   164   67  160 1  
   165   68  161 1  
   166   69  162 1  
   167   69  163 1  
   168   69  164 1  
   169   72  165 1  
   170   73  166 1  
   171   76  167 1  
   172   76  168 1  
   173   76  169 1  
   174   77  170 1  
   175   78  171 1  
   176   81  172 1  
   177   81  173 1  
   178   82  174 1  
   179   82  175 1  
   180   86  176 1  
   181   87  177 1  
   182   90  178 1  
   183   90  179 1  
   184   92  180 1  
   185   93  181 1  
   186   94  182 1  
   187   95  183 1  
   188   96  184 1  
@<TRIPOS>SUBSTRUCTURE
     1 TRP         1

