6sal_ligand
  -I-interpret- 

 46 49  0  0  0  0  0  0  0  0999 V2000
   -0.3120  -43.3110  -15.3410 N   0  0  0  0  0
    2.2850  -42.7640  -18.5410 C   0  0  0  0  0
    1.1330  -47.3500  -11.4420 N   0  0  0  0  0
    0.9930  -44.2820  -17.1800 C   0  0  0  0  0
    0.5450  -43.1890  -16.4150 C   0  0  0  0  0
   -1.1450  -44.4530  -15.1090 C   0  0  0  0  0
   -4.1430  -43.1300  -14.2410 C   0  0  0  0  0
   -4.7600  -40.8500  -14.8080 C   0  0  0  0  0
    3.2290  -42.4550  -19.6720 C   0  0  0  0  0
   -3.9160  -41.7580  -14.1910 C   0  0  0  0  0
   -5.8710  -41.3170  -15.4760 C   0  0  0  0  0
   -6.1360  -42.6730  -15.5210 C   0  0  0  0  0
   -5.2880  -43.5960  -14.9150 C   0  0  0  0  0
   -5.6210  -45.0440  -14.9930 C   0  0  0  0  0
   -1.5400  -45.2870  -12.7700 C   0  0  0  0  0
   -0.3270  -46.0180  -12.4510 C   0  0  0  0  0
    0.9420  -45.8840  -13.0850 C   0  0  0  0  0
    1.8070  -46.7310  -12.4480 C   0  0  0  0  0
   -0.1610  -46.9190  -11.4260 C   0  0  0  0  0
    0.9710  -41.9080  -16.7270 C   0  0  0  0  0
    1.8310  -41.7030  -17.7790 C   0  0  0  0  0
    1.8640  -44.0600  -18.2400 C   0  0  0  0  0
   -1.9410  -44.5180  -13.8400 C   0  0  0  0  0
   -3.2280  -44.0500  -13.5400 C   0  0  0  0  0
   -6.5530  -45.2860  -15.8960 F   0  0  0  0  0
   -6.0760  -45.5250  -13.8370 F   0  0  0  0  0
   -4.5800  -45.8050  -15.3430 F   0  0  0  0  0
   -3.5760  -44.4640  -12.3400 N   0  0  0  0  0
    3.6380  -41.2760  -19.7510 O   0  0  0  0  0
    3.5310  -43.3560  -20.4640 O   0  0  0  0  0
   -2.5180  -45.2560  -11.8400 O   0  0  0  0  0
   -2.5280  -41.1340  -13.3750 Cl  0  0  0  0  0
   -0.3551  -42.5421  -14.6721 H   0  0  0  0  0
    0.6602  -45.2926  -16.9435 H   0  0  0  0  0
   -0.4587  -45.2982  -15.0564 H   0  0  0  0  0
   -1.8865  -44.4296  -15.9076 H   0  0  0  0  0
   -4.5486  -39.7815  -14.7659 H   0  0  0  0  0
   -6.5428  -40.6153  -15.9703 H   0  0  0  0  0
   -7.0263  -43.0265  -16.0411 H   0  0  0  0  0
    1.1796  -45.2281  -13.9225 H   0  0  0  0  0
    2.8558  -46.8835  -12.7029 H   0  0  0  0  0
   -0.9308  -47.2346  -10.7218 H   0  0  0  0  0
    0.6230  -41.0605  -16.1364 H   0  0  0  0  0
    2.1596  -40.6911  -18.0159 H   0  0  0  0  0
    2.2190  -44.8998  -18.8374 H   0  0  0  0  0
    3.2705  -40.7619  -19.0284 H   0  0  0  0  0
  1  5  1  0  0  0
  6  1  1  0  0  0
  2  9  1  0  0  0
 21  2  4  0  0  0
 22  2  4  0  0  0
  3 18  4  0  0  0
 19  3  4  0  0  0
  5  4  4  0  0  0
  4 22  4  0  0  0
  5 20  4  0  0  0
 23  6  1  0  0  0
  7 10  4  0  0  0
  7 13  4  0  0  0
 24  7  1  0  0  0
 10  8  4  0  0  0
  8 11  4  0  0  0
  9 29  1  0  0  0
  9 30  2  0  0  0
 10 32  1  0  0  0
 12 11  4  0  0  0
 13 12  4  0  0  0
 13 14  1  0  0  0
 14 25  1  0  0  0
 14 26  1  0  0  0
 14 27  1  0  0  0
 15 16  1  0  0  0
 23 15  4  0  0  0
 15 31  4  0  0  0
 16 17  4  0  0  0
 16 19  4  0  0  0
 17 18  4  0  0  0
 20 21  4  0  0  0
 23 24  4  0  0  0
 24 28  4  0  0  0
 28 31  4  0  0  0
  1 33  1  0  0  0
  4 34  1  0  0  0
  6 35  1  0  0  0
  6 36  1  0  0  0
  8 37  1  0  0  0
 11 38  1  0  0  0
 12 39  1  0  0  0
 17 40  1  0  0  0
 18 41  1  0  0  0
 19 42  1  0  0  0
 20 43  1  0  0  0
 21 44  1  0  0  0
 22 45  1  0  0  0
 29 46  1  0  0  0
M  END
$$$$
