3rxe_ligand
  -I-interpret- 

 17 17  0  0  0  0  0  0  0  0999 V2000
   -1.7940  -14.3500   16.8480 C   0  0  0  0  0
   -1.9920  -15.7300   16.7760 C   0  0  0  0  0
   -1.6850  -16.4260   15.6090 C   0  0  0  0  0
   -1.1710  -15.7630   14.5030 C   0  0  0  0  0
   -0.9650  -14.3960   14.5680 C   0  0  0  0  0
   -1.2730  -13.6960   15.7300 C   0  0  0  0  0
   -2.1260  -13.5810   18.1020 C   0  0  0  0  0
   -2.8610  -14.0760   19.0050 N   0  0  0  0  0
   -1.6570  -12.3450   18.3060 N   0  0  0  0  0
   -2.3891  -16.2661   17.6380 H   0  0  0  0  0
   -1.8501  -17.5025   15.5638 H   0  0  0  0  0
   -0.9322  -16.3133   13.5929 H   0  0  0  0  0
   -0.5601  -13.8661   13.7058 H   0  0  0  0  0
   -1.1049  -12.6197   15.7682 H   0  0  0  0  0
   -3.0724  -13.5355   19.8438 H   0  0  0  0  0
   -1.8961  -11.8435   19.1614 H   0  0  0  0  0
   -1.0603  -11.9040   17.6061 H   0  0  0  0  0
  1  2  4  0  0  0
  1  6  4  0  0  0
  1  7  1  0  0  0
  2  3  4  0  0  0
  3  4  4  0  0  0
  4  5  4  0  0  0
  5  6  4  0  0  0
  7  8  2  0  0  0
  7  9  1  0  0  0
  2 10  1  0  0  0
  3 11  1  0  0  0
  4 12  1  0  0  0
  5 13  1  0  0  0
  6 14  1  0  0  0
  8 15  1  0  0  0
  9 16  1  0  0  0
  9 17  1  0  0  0
M  END
$$$$
