6qaf_ligand

Created by X-TOOL on Mon Aug  2 16:17:19 2021
 49 49  0  0  0  0  0  0  0  0999 V2000
    5.7520  -21.8490    7.4220  O 0  0  0  1  0  1
    5.8190  -23.0690    7.2800  C 0  0  0  1  0  3
    6.7150  -23.9290    8.1390  C 0  0  0  2  0  4
    8.0900  -23.4010    8.0420  N 0  3  0  4  0  4
    6.2300  -23.9200    9.5890  C 0  0  0  4  0  4
    5.0800  -23.6710    6.3580  N 0  0  0  1  0  3
    5.5460  -24.8110    5.5640  C 0  0  0  3  0  4
    4.3180  -25.2250    4.7660  C 0  0  0  1  0  4
    4.6930  -25.2030    3.3320  N 0  3  0  4  0  4
    3.8820  -26.6280    5.1550  C 0  5  0  1  0  3
    3.7130  -26.8850    6.3830  O 0  0  0  1  0  1
    3.7340  -27.5030    4.2270  O 0  0  0  1  0  1
    3.2620  -24.1440    5.0050  C 0  0  0  2  0  4
    3.6160  -23.5130    6.3370  C 0  0  0  3  0  4
    1.8420  -24.7080    4.9840  C 0  0  0  3  0  4
    0.7760  -23.6130    5.1460  C 0  0  0  3  0  4
   -0.6800  -24.0510    5.0680  C 0  0  0  4  0  5
   -1.7490  -22.9060    4.8190  B 0  0  0  1  0  4
   -1.5820  -22.2700    3.5040  O 0  0  0  3  0  3
   -1.6270  -21.8790    5.8800  O 0  0  0  3  0  3
   -3.1290  -23.4220    4.7630  O 0  0  0  3  0  3
    6.6960  -24.9632    7.7647  H 0  0  0  1  0  1
    8.7061  -23.9619    8.6093  H 0  0  0  1  0  1
    8.1076  -22.4475    8.3686  H 0  0  0  1  0  1
    8.3953  -23.4330    7.0819  H 0  0  0  1  0  1
    5.2052  -24.3171    9.6353  H 0  0  0  1  0  1
    6.2415  -22.8893    9.9731  H 0  0  0  1  0  1
    6.8942  -24.5471   10.2017  H 0  0  0  1  0  1
    5.8841  -25.6302    6.2156  H 0  0  0  1  0  1
    6.3661  -24.5128    4.8943  H 0  0  0  1  0  1
    3.8990  -25.4734    2.7729  H 0  0  0  1  0  1
    5.4511  -25.8480    3.1730  H 0  0  0  1  0  1
    4.9838  -24.2727    3.0749  H 0  0  0  1  0  1
    3.3357  -23.3836    4.2136  H 0  0  0  1  0  1
    3.3260  -22.4524    6.3687  H 0  0  0  1  0  1
    3.1422  -24.0479    7.1733  H 0  0  0  1  0  1
    1.7358  -25.4293    5.8077  H 0  0  0  1  0  1
    1.6793  -25.2206    4.0244  H 0  0  0  1  0  1
    0.9417  -22.8683    4.3536  H 0  0  0  1  0  1
    0.9292  -23.1431    6.1287  H 0  0  0  1  0  1
   -1.0502  -23.9118    4.0416  H 0  0  0  1  0  1
   -1.2827  -23.4451    5.7605  H 0  0  0  1  0  1
   -0.7589  -25.1125    5.3455  H 0  0  0  1  0  1
   -1.7024  -22.9199    2.8216  H 0  0  0  1  0  1
   -1.7024  -22.9199    2.8216  H 0  0  0  1  0  1
   -0.7695  -21.4733    5.8294  H 0  0  0  1  0  1
   -0.7695  -21.4733    5.8294  H 0  0  0  1  0  1
   -3.7307  -22.6996    4.6267  H 0  0  0  1  0  1
   -3.7307  -22.6996    4.6267  H 0  0  0  1  0  1
  1  2  2  0  0  2
  2  3  1  0  0  2
  2  6  1  0  0  2
  3  4  1  0  0  2
  3  5  1  0  0  2
  6  7  1  0  0  1
  6 14  1  0  0  1
  7  8  1  0  0  1
  8  9  1  0  0  2
  8 10  1  0  0  2
  8 13  1  0  0  1
 10 11  2  0  0  2
 10 12  2  0  0  2
 13 14  1  0  0  1
 13 15  1  0  0  2
 15 16  1  0  0  2
 16 17  1  0  0  2
 17 18  1  0  0  2
 18 19  1  0  0  2
 18 21  1  0  0  2
 18 20  1  0  0  2
  3 22  1  0  0  2
  4 23  1  0  0  2
  4 24  1  0  0  2
  4 25  1  0  0  2
  5 26  1  0  0  2
  5 27  1  0  0  2
  5 28  1  0  0  2
  7 29  1  0  0  2
  7 30  1  0  0  2
  9 31  1  0  0  2
  9 32  1  0  0  2
  9 33  1  0  0  2
 13 34  1  0  0  2
 14 35  1  0  0  2
 14 36  1  0  0  2
 15 37  1  0  0  2
 15 38  1  0  0  2
 16 39  1  0  0  2
 16 40  1  0  0  2
 17 41  1  0  0  2
 17 42  1  0  0  2
 17 43  1  0  0  2
 19 44  1  0  0  2
 19 45  1  0  0  2
 20 46  1  0  0  2
 20 47  1  0  0  2
 21 48  1  0  0  2
 21 49  1  0  0  2
M  END
> <MOLECULAR_FORMULA>
C11H28N3O6B

> <MOLECULAR_WEIGHT>
308.9

> <NUM_HB_ATOMS>
8  

> <NUM_ROTOR>
5  

> <XLOGP2>
-5.12

$$$$
