#	Name:			6qaf_ligand
#	Creating user name:	wangrx
#	Creation time:		Thu Aug  5 18:06:50 2021

#	Modifying user name:	wangrx
#	Modification time:	Thu Aug  5 18:07:07 2021

@<TRIPOS>MOLECULE
6qaf_ligand
   48    48     1     0     0
SMALL
GAST_HUCK


@<TRIPOS>ATOM
      1 O21         5.7520  -21.8490    7.4220 O.2       1 XC3        -0.3907 
      2 C17         5.8190  -23.0690    7.2800 C.2       1 XC3         0.2268 
      3 C18         6.7150  -23.9290    8.1390 C.3       1 XC3         0.0622 
      4 N20         8.0900  -23.4010    8.0420 N.4       1 XC3         0.2377 
      5 C19         6.2300  -23.9200    9.5890 C.3       1 XC3        -0.0040 
      6 N2          5.0800  -23.6710    6.3580 N.am      1 XC3        -0.2631 
      7 C3          5.5460  -24.8110    5.5640 C.3       1 XC3         0.0852 
      8 C4          4.3180  -25.2250    4.7660 C.3       1 XC3         0.0576 
      9 N13         4.6930  -25.2030    3.3320 N.4       1 XC3         0.2246 
     10 C14         3.8820  -26.6280    5.1550 C.2       1 XC3         0.0983 
     11 O16         3.7130  -26.8850    6.3830 O.co2     1 XC3        -0.5421 
     12 O15         3.7340  -27.5030    4.2270 O.co2     1 XC3        -0.5421 
     13 C5          3.2620  -24.1440    5.0050 C.3       1 XC3         0.0300 
     14 C1          3.6160  -23.5130    6.3370 C.3       1 XC3         0.0420 
     15 C6          1.8420  -24.7080    4.9840 C.3       1 XC3        -0.0705 
     16 C7          0.7760  -23.6130    5.1460 C.3       1 XC3        -0.1823 
     17 C8         -0.6800  -24.0510    5.0680 C.3       1 XC3        -0.3457 
     18 B9         -1.7490  -22.9060    4.8190 B         1 XC3         4.0000 
     19 O12        -1.5820  -22.2700    3.5040 O.3       1 XC3        -0.4105 
     20 O11        -1.6270  -21.8790    5.8800 O.3       1 XC3        -0.4105 
     21 O10        -3.1290  -23.4220    4.7630 O.3       1 XC3        -0.4105 
     22 H1          6.6960  -24.9632    7.7647 H         1 XC3         0.1095 
     23 H2          8.7061  -23.9619    8.6093 H         1 XC3         0.2015 
     24 H3          8.1076  -22.4475    8.3686 H         1 XC3         0.2015 
     25 H4          8.3953  -23.4330    7.0819 H         1 XC3         0.2015 
     26 H5          5.2052  -24.3171    9.6353 H         1 XC3         0.0310 
     27 H6          6.2415  -22.8893    9.9731 H         1 XC3         0.0310 
     28 H7          6.8942  -24.5471   10.2017 H         1 XC3         0.0310 
     29 H8          5.8841  -25.6302    6.2156 H         1 XC3         0.0574 
     30 H9          6.3661  -24.5128    4.8943 H         1 XC3         0.0574 
     31 H10         3.8990  -25.4734    2.7729 H         1 XC3         0.2000 
     32 H11         5.4511  -25.8480    3.1730 H         1 XC3         0.2000 
     33 H12         4.9838  -24.2727    3.0749 H         1 XC3         0.2000 
     34 H13         3.3357  -23.3836    4.2136 H         1 XC3         0.0371 
     35 H14         3.3260  -22.4524    6.3687 H         1 XC3         0.0526 
     36 H15         3.1422  -24.0479    7.1733 H         1 XC3         0.0526 
     37 H16         1.7358  -25.4293    5.8077 H         1 XC3         0.0245 
     38 H17         1.6793  -25.2206    4.0244 H         1 XC3         0.0245 
     39 H18         0.9417  -22.8683    4.3536 H         1 XC3        -0.0084 
     40 H19         0.9292  -23.1431    6.1287 H         1 XC3        -0.0084 
     41 H20        -1.0502  -23.9118    4.0416 H         1 XC3        -0.2101 
     42 H22        -0.7589  -25.1125    5.3455 H         1 XC3        -0.2101 
     43 H23        -1.7024  -22.9199    2.8216 H         1 XC3         0.2052 
     44 H24        -1.7024  -22.9199    2.8216 H         1 XC3         0.2052 
     45 H25        -0.7695  -21.4733    5.8294 H         1 XC3         0.2052 
     46 H26        -0.7695  -21.4733    5.8294 H         1 XC3         0.2052 
     47 H27        -3.7307  -22.6996    4.6267 H         1 XC3         0.2052 
     48 H28        -3.7307  -22.6996    4.6267 H         1 XC3         0.2052 
@<TRIPOS>BOND
     1    1    2 2    
     2    2    3 1    
     3    2    6 am   
     4    3    4 1    
     5    3    5 1    
     6    6    7 1    
     7    6   14 1    
     8    7    8 1    
     9    8    9 1    
    10    8   10 1    
    11    8   13 1    
    12   10   11 ar   
    13   10   12 ar   
    14   13   14 1    
    15   13   15 1    
    16   15   16 1    
    17   16   17 1    
    18   17   18 1    
    19   18   19 1    
    20   18   21 1    
    21   18   20 1    
    22    3   22 1    
    23    4   23 1    
    24    4   24 1    
    25    4   25 1    
    26    5   26 1    
    27    5   27 1    
    28    5   28 1    
    29    7   29 1    
    30    7   30 1    
    31    9   31 1    
    32    9   32 1    
    33    9   33 1    
    34   13   34 1    
    35   14   35 1    
    36   14   36 1    
    37   15   37 1    
    38   15   38 1    
    39   16   39 1    
    40   16   40 1    
    41   17   41 1    
    42   17   42 1    
    43   19   43 1    
    44   19   44 1    
    45   20   45 1    
    46   20   46 1    
    47   21   47 1    
    48   21   48 1    
@<TRIPOS>SUBSTRUCTURE
     1 XC3         1 PERM              0 ****  ****    0 ROOT 
