2y2k_ligand
  -I-interpret- 

 23 23  0  0  0  0  0  0  0  0999 V2000
   -9.6450    6.0470    6.6970 F   0  0  0  0  0
   -9.9210    7.2090    6.0690 C   0  0  0  0  0
  -10.5390    7.2850    4.8120 C   0  0  0  0  0
  -10.8190    8.5220    4.1920 C   0  0  0  0  0
  -10.4960    9.6960    4.8550 C   0  0  0  0  0
   -9.8810    9.6330    6.1180 C   0  0  0  0  0
   -9.5690   10.7790    6.7640 F   0  0  0  0  0
   -9.6480    8.3910    6.7440 C   0  0  0  0  0
   -8.8910    8.2610    8.0670 C   0  0  0  0  0
   -7.9280    7.5240    8.0490 O   0  0  0  0  0
   -9.3760    8.9450    9.1740 N   0  0  0  0  0
   -8.7430    8.9910   10.3970 C   0  0  0  0  0
   -9.0150   10.3710   11.1050 B   0  0  0  0  0
   -8.8580   11.5820   10.1650 O   0  0  0  0  0
   -8.1640   10.5200   12.3760 O   0  0  0  0  0
  -10.8109    6.3624    4.2992 H   0  0  0  0  0
  -11.2826    8.5537    3.2060 H   0  0  0  0  0
  -10.7173   10.6615    4.4002 H   0  0  0  0  0
  -10.2588    9.4463    9.0752 H   0  0  0  0  0
   -7.6698    8.8753   10.2456 H   0  0  0  0  0
   -9.1272    8.1878   11.0258 H   0  0  0  0  0
   -9.0358   12.3895   10.6528 H   0  0  0  0  0
   -8.3494   11.3679   12.7863 H   0  0  0  0  0
  1  2  1  0  0  0
  2  3  4  0  0  0
  2  8  4  0  0  0
  3  4  4  0  0  0
  4  5  4  0  0  0
  5  6  4  0  0  0
  6  7  1  0  0  0
  6  8  4  0  0  0
  8  9  1  0  0  0
  9 10  2  0  0  0
  9 11  1  0  0  0
 11 12  1  0  0  0
 12 13  1  0  0  0
 13 14  1  0  0  0
 13 15  1  0  0  0
  3 16  1  0  0  0
  4 17  1  0  0  0
  5 18  1  0  0  0
 11 19  1  0  0  0
 12 20  1  0  0  0
 12 21  1  0  0  0
 14 22  1  0  0  0
 15 23  1  0  0  0
M  END
$$$$
