6c2t_ligand
  -I-interpret- 

 63 67  0  0  0  0  0  0  0  0999 V2000
  112.1470  -21.5490    2.7760 C   0  0  0  0  0
  112.0000  -21.4250    5.1920 C   0  0  0  0  0
  104.9390  -13.3560    8.3690 C   0  0  0  0  0
  107.2090  -14.1450    8.6130 C   0  0  0  0  0
  104.9580  -13.6750    7.0220 C   0  0  0  0  0
  111.9780  -22.1780    4.0080 C   0  0  0  0  0
  106.0220  -13.6700    9.1800 C   0  0  0  0  0
  106.1410  -14.4720    5.0430 C   0  0  0  0  0
  109.4830  -16.4540    0.5950 C   0  0  0  0  0
  110.4790  -16.7230    1.5050 C   0  0  0  0  0
  106.1460  -14.1210    6.4050 C   0  0  0  0  0
  107.2810  -14.4010    7.2210 C   0  0  0  0  0
  112.2410  -20.0460    5.1350 C   0  0  0  0  0
  112.4210  -19.4170    3.8990 C   0  0  0  0  0
  112.3790  -20.1660    2.7260 C   0  0  0  0  0
  108.3850  -15.0130    6.6080 C   0  0  0  0  0
  107.3200  -14.9970    4.5460 C   0  0  0  0  0
  108.4690  -15.8010    2.4030 C   0  0  0  0  0
  108.5820  -17.2050    8.6090 C   0  0  0  0  0
  109.6100  -17.8240    6.4620 C   0  0  0  0  0
  111.0920  -17.1810    8.3890 C   0  0  0  0  0
  109.9360  -19.2690    6.8100 C   0  0  0  0  0
  111.3780  -18.6830    8.6550 C   0  0  0  0  0
  109.7450  -16.9090    7.6910 C   0  0  0  0  0
  112.7340  -18.8350    9.3580 C   0  0  0  0  0
  112.3520  -19.2450    6.4050 C   0  0  0  0  0
  109.6570  -15.4260    7.3060 C   0  0  0  0  0
  108.2870  -16.0550    1.1300 N   0  0  0  0  0
  108.4030  -15.2890    5.2960 N   0  0  0  0  0
  111.2820  -19.4660    7.3880 N   0  3  0  0  0
  107.3980  -15.3810    3.1880 N   0  0  0  0  0
  107.5320  -17.6940    8.2380 O   0  0  0  0  0
  108.8280  -16.8370    9.8820 O   0  0  0  0  0
  112.6580  -18.0960    3.8070 F   0  0  0  0  0
  109.9940  -16.2530    3.0780 S   0  0  0  0  0
  112.7250  -19.3640    1.2460 Cl  0  0  0  0  0
  112.0991  -22.1292    1.8545 H   0  0  0  0  0
  111.8302  -21.9113    6.1526 H   0  0  0  0  0
  104.0695  -12.8557    8.7954 H   0  0  0  0  0
  108.0810  -14.3188    9.2434 H   0  0  0  0  0
  104.0462  -13.5807    6.4322 H   0  0  0  0  0
  111.8285  -23.2568    4.0521 H   0  0  0  0  0
  105.9467  -13.5460   10.2603 H   0  0  0  0  0
  105.2595  -14.3381    4.4159 H   0  0  0  0  0
  109.6355  -16.5519   -0.4798 H   0  0  0  0  0
  111.4413  -17.1721    1.2591 H   0  0  0  0  0
  108.5810  -17.7766    6.1055 H   0  0  0  0  0
  110.3098  -17.4847    5.6983 H   0  0  0  0  0
  111.8771  -16.8163    7.7267 H   0  0  0  0  0
  111.0586  -16.6832    9.3581 H   0  0  0  0  0
  109.8988  -19.8389    5.8816 H   0  0  0  0  0
  109.2141  -19.5889    7.5614 H   0  0  0  0  0
  110.6220  -19.0929    9.3247 H   0  0  0  0  0
  113.5190  -18.4240    8.7232 H   0  0  0  0  0
  112.7127  -18.2973   10.3059 H   0  0  0  0  0
  112.9298  -19.8913    9.5424 H   0  0  0  0  0
  112.2960  -18.1955    6.1159 H   0  0  0  0  0
  113.2819  -19.5507    6.8845 H   0  0  0  0  0
  109.6993  -14.8599    8.2365 H   0  0  0  0  0
  110.4713  -15.2372    6.6064 H   0  0  0  0  0
  111.4250  -20.4432    7.6431 H   0  0  0  0  0
  106.5073  -15.3437    2.6924 H   0  0  0  0  0
  109.7159  -16.4773    9.9440 H   0  0  0  0  0
  6  1  4  0  0  0
 15  1  4  0  0  0
  2  6  4  0  0  0
 13  2  4  0  0  0
  5  3  4  0  0  0
  7  3  4  0  0  0
  4  7  4  0  0  0
 12  4  4  0  0  0
 11  5  4  0  0  0
 11  8  4  0  0  0
 17  8  4  0  0  0
 10  9  4  0  0  0
 28  9  4  0  0  0
 35 10  4  0  0  0
 12 11  4  0  0  0
 16 12  4  0  0  0
 13 14  4  0  0  0
 26 13  1  0  0  0
 14 15  4  0  0  0
 14 34  1  0  0  0
 15 36  1  0  0  0
 27 16  1  0  0  0
 16 29  4  0  0  0
 29 17  4  0  0  0
 17 31  1  0  0  0
 18 28  4  0  0  0
 31 18  1  0  0  0
 18 35  4  0  0  0
 24 19  1  0  0  0
 19 32  2  0  0  0
 19 33  1  0  0  0
 22 20  1  0  0  0
 20 24  1  0  0  0
 23 21  1  0  0  0
 21 24  1  0  0  0
 30 22  1  0  0  0
 23 25  1  0  0  0
 30 23  1  0  0  0
 24 27  1  0  0  0
 26 30  1  0  0  0
  1 37  1  0  0  0
  2 38  1  0  0  0
  3 39  1  0  0  0
  4 40  1  0  0  0
  5 41  1  0  0  0
  6 42  1  0  0  0
  7 43  1  0  0  0
  8 44  1  0  0  0
  9 45  1  0  0  0
 10 46  1  0  0  0
 20 47  1  0  0  0
 20 48  1  0  0  0
 21 49  1  0  0  0
 21 50  1  0  0  0
 22 51  1  0  0  0
 22 52  1  0  0  0
 23 53  1  0  0  0
 25 54  1  0  0  0
 25 55  1  0  0  0
 25 56  1  0  0  0
 26 57  1  0  0  0
 26 58  1  0  0  0
 27 59  1  0  0  0
 27 60  1  0  0  0
 30 61  1  0  0  0
 31 62  1  0  0  0
 33 63  1  0  0  0
M  END
$$$$
