### 
### Created by X-TOOL on Mon Sep 10 21:12:58 2018
### 

@<TRIPOS>MOLECULE
3ds1_ligand
  182   184     1     0     0
SMALL
GAST_HUCK


@<TRIPOS>ATOM
      1 N           5.3740   22.9580   43.9430 N.4       1 ILE         0.2381
      2 CA          3.9100   22.6490   43.9020 C.3       1 ILE         0.0676
      3 C           3.6910   21.1920   44.2610 C.2       1 ILE         0.2270
      4 O           4.6380   20.3930   44.2550 O.2       1 ILE        -0.3907
      5 CB          3.2220   22.9640   42.5380 C.3       1 ILE         0.0164
      6 CG1         3.7370   22.0620   41.4220 C.3       1 ILE        -0.0460
      7 CG2         3.3590   24.4480   42.1860 C.3       1 ILE        -0.0551
      8 CD1         2.7070   21.7800   40.3140 C.3       1 ILE        -0.0647
      9 N           2.4370   20.8680   44.5640 N.am      1 THR        -0.2586
     10 CA          2.0670   19.5310   45.0050 C.3       1 THR         0.1566
     11 C           1.1360   18.8750   43.9770 C.2       1 THR         0.2066
     12 O           0.6660   19.5230   43.0320 O.2       1 THR        -0.3943
     13 CB          1.3100   19.5950   46.3370 C.3       1 THR         0.0924
     14 OG1         0.1620   20.4550   46.1960 O.3       1 THR        -0.3874
     15 CG2         2.2060   20.1290   47.4570 C.3       1 THR        -0.0346
     16 N           0.8710   17.5840   44.1630 N.am      1 PHE        -0.2619
     17 CA         -0.0300   16.8610   43.2710 C.3       1 PHE         0.1404
     18 C          -1.4330   17.4750   43.3820 C.2       1 PHE         0.2060
     19 O          -2.1550   17.5710   42.4040 O.2       1 PHE        -0.3942
     20 CB         -0.0560   15.3780   43.6360 C.3       1 PHE         0.0214
     21 CG         -0.9420   14.5550   42.7610 C.ar      1 PHE        -0.0386
     22 CD1        -0.8000   14.5830   41.3800 C.ar      1 PHE        -0.0601
     23 CD2        -1.9240   13.7460   43.3150 C.ar      1 PHE        -0.0601
     24 CE1        -1.6320   13.8170   40.5610 C.ar      1 PHE        -0.0686
     25 CE2        -2.7460   12.9710   42.4900 C.ar      1 PHE        -0.0686
     26 CZ         -2.6040   13.0140   41.1270 C.ar      1 PHE        -0.0687
     27 N          -1.7930   17.8870   44.5900 N.am      1 GLU        -0.2635
     28 CA         -3.0650   18.5690   44.8240 C.3       1 GLU         0.1325
     29 C          -3.2500   19.8140   43.9560 C.2       1 GLU         0.2041
     30 O          -4.3520   20.0920   43.5160 O.2       1 GLU        -0.3944
     31 CB         -3.1900   18.9170   46.3080 C.3       1 GLU        -0.0008
     32 CG         -3.2990   17.6580   47.1560 C.3       1 GLU         0.0044
     33 CD         -3.3230   17.9600   48.6520 C.2       1 GLU         0.0350
     34 OE1        -4.2630   18.6600   49.1030 O.co2     1 GLU        -0.5690
     35 OE2        -2.4060   17.5010   49.3680 O.co2     1 GLU        -0.5690
     36 N          -2.1730   20.5600   43.7250 N.am      1 ASP        -0.2622
     37 CA         -2.1900   21.7340   42.8260 C.3       1 ASP         0.1423
     38 C          -2.4820   21.2750   41.3980 C.2       1 ASP         0.2056
     39 O          -3.2170   21.9390   40.6640 O.2       1 ASP        -0.3943
     40 CB         -0.8610   22.4820   42.8530 C.3       1 ASP         0.0406
     41 CG         -0.5410   23.0670   44.2240 C.2       1 ASP         0.0393
     42 OD1        -1.4740   23.4530   44.9360 O.co2     1 ASP        -0.5688
     43 OD2         0.6490   23.1420   44.5640 O.co2     1 ASP        -0.5688
     44 N          -1.9040   20.1410   41.0040 N.am      1 LEU        -0.2636
     45 CA         -2.1690   19.6030   39.6600 C.3       1 LEU         0.1312
     46 C          -3.6290   19.2080   39.5510 C.2       1 LEU         0.2039
     47 O          -4.2970   19.5560   38.5640 O.2       1 LEU        -0.3944
     48 CB         -1.2610   18.4180   39.3340 C.3       1 LEU        -0.0101
     49 CG          0.2370   18.7630   39.2210 C.3       1 LEU        -0.0425
     50 CD1         1.0590   17.5060   39.0510 C.3       1 LEU        -0.0625
     51 CD2         0.4960   19.7000   38.0360 C.3       1 LEU        -0.0625
     52 N          -4.1350   18.5180   40.5680 N.am      1 LEU        -0.2637
     53 CA         -5.5570   18.1100   40.5650 C.3       1 LEU         0.1312
     54 C          -6.4990   19.3030   40.4500 C.2       1 LEU         0.2040
     55 O          -7.5220   19.2430   39.7200 O.2       1 LEU        -0.3944
     56 CB         -5.8890   17.2790   41.8170 C.3       1 LEU        -0.0101
     57 CG         -5.2690   15.8800   41.8680 C.3       1 LEU        -0.0425
     58 CD1        -5.3880   15.3020   43.2770 C.3       1 LEU        -0.0625
     59 CD2        -5.8880   14.9470   40.8350 C.3       1 LEU        -0.0625
     60 N          -6.1660   20.3710   41.1670 N.am      1 ASP        -0.2622
     61 CA         -6.9540   21.6020   41.1490 C.3       1 ASP         0.1423
     62 C          -6.8780   22.2630   39.7810 C.2       1 ASP         0.2057
     63 O          -7.8670   22.8160   39.2970 O.2       1 ASP        -0.3943
     64 CB         -6.4690   22.5850   42.2150 C.3       1 ASP         0.0406
     65 CG         -6.8890   22.1950   43.6380 C.2       1 ASP         0.0393
     66 OD1        -7.7200   21.2780   43.8360 O.co2     1 ASP        -0.5688
     67 OD2        -6.3590   22.8350   44.5720 O.co2     1 ASP        -0.5688
     68 N          -5.6980   22.2190   39.1580 N.am      1 TYR        -0.2620
     69 CA         -5.4600   22.9580   37.9120 C.3       1 TYR         0.1390
     70 C          -6.2290   22.3010   36.7790 C.2       1 TYR         0.2058
     71 O          -6.9160   22.9730   36.0000 O.2       1 TYR        -0.3942
     72 CB         -3.9670   22.9220   37.5750 C.3       1 TYR         0.0163
     73 CG         -3.5430   23.7710   36.3850 C.ar      1 TYR        -0.0493
     74 CD1        -3.4380   25.1590   36.4900 C.ar      1 TYR        -0.0685
     75 CD2        -3.1950   23.1790   35.1710 C.ar      1 TYR        -0.0685
     76 CE1        -3.0330   25.9350   35.4120 C.ar      1 TYR        -0.0398
     77 CE2        -2.7690   23.9500   34.0850 C.ar      1 TYR        -0.0398
     78 CZ         -2.6920   25.3250   34.2110 C.ar      1 TYR         0.0805
     79 OH         -2.2890   26.1170   33.1460 O.3       1 TYR        -0.3376
     80 N          -6.0890   20.9880   36.6810 N.am      1 TYR        -0.2620
     81 CA         -6.6640   20.2290   35.5740 C.3       1 TYR         0.1390
     82 C          -8.0870   19.7460   35.8350 C.2       1 TYR         0.2056
     83 O          -8.8180   19.4480   34.8860 O.2       1 TYR        -0.3942
     84 CB         -5.7480   19.0590   35.1990 C.3       1 TYR         0.0163
     85 CG         -4.4480   19.5140   34.5660 C.ar      1 TYR        -0.0493
     86 CD1        -3.2270   19.3350   35.2220 C.ar      1 TYR        -0.0685
     87 CD2        -4.4370   20.1430   33.3180 C.ar      1 TYR        -0.0685
     88 CE1        -2.0430   19.7750   34.6620 C.ar      1 TYR        -0.0398
     89 CE2        -3.2510   20.5840   32.7390 C.ar      1 TYR        -0.0398
     90 CZ         -2.0420   20.3700   33.4150 C.ar      1 TYR         0.0805
     91 OH         -0.8400   20.7920   32.8770 O.3       1 TYR        -0.3376
     92 N          -8.4690   19.6730   37.1110 N.am      1 GLY        -0.2675
     93 CA         -9.8210   19.2750   37.5280 C.3       1 GLY         0.1018
     94 C         -10.8300   20.4100   37.4660 C.2       1 GLY         0.1214
     95 O         -10.6520   21.3430   36.6730 O.2       1 GLY        -0.3728
     96 H1          5.7407   22.7274   44.8532 H         1 ILE         0.2015
     97 H2          5.5154   23.9396   43.7626 H         1 ILE         0.2015
     98 H3          5.8518   22.4151   43.2409 H         1 ILE         0.2015
     99 H4          3.4214   23.2708   44.6666 H         1 ILE         0.1101
    100 H5          2.1488   22.7534   42.6556 H         1 ILE         0.0378
    101 H6          4.0382   21.1016   41.8657 H         1 ILE         0.0269
    102 H7          4.6128   22.5451   40.9642 H         1 ILE         0.0269
    103 H8          2.9764   25.0588   43.0170 H         1 ILE         0.0236
    104 H9          2.7805   24.6639   41.2757 H         1 ILE         0.0236
    105 H10         4.4185   24.6874   42.0125 H         1 ILE         0.0236
    106 H11         3.1571   21.1256   39.5530 H         1 ILE         0.0230
    107 H12         2.4012   22.7282   39.8477 H         1 ILE         0.0230
    108 H13         1.8266   21.2846   40.7492 H         1 ILE         0.0230
    109 H14         1.7250   21.5659   44.4863 H         1 THR         0.1885
    110 H15         2.9770   18.9246   45.1240 H         1 THR         0.0826
    111 H16         0.9732   18.5822   46.6031 H         1 THR         0.0639
    112 H17         0.4491   21.3270   45.9520 H         1 THR         0.2101
    113 H18         1.6364   20.1632   48.3974 H         1 THR         0.0257
    114 H19         2.5503   21.1416   47.1999 H         1 THR         0.0257
    115 H20         3.0753   19.4660   47.5788 H         1 THR         0.0257
    116 H21         1.2970   17.1006   44.9278 H         1 PHE         0.1885
    117 H22         0.3265   16.9645   42.2356 H         1 PHE         0.0823
    118 H23        -0.4089   15.2828   44.6735 H         1 PHE         0.0474
    119 H24         0.9683   14.9845   43.5595 H         1 PHE         0.0474
    120 H25        -0.0345   15.2066   40.9326 H         1 PHE         0.0557
    121 H26        -2.0546   13.7145   44.3907 H         1 PHE         0.0557
    122 H27        -1.5158   13.8521   39.4838 H         1 PHE         0.0599
    123 H28        -3.5013   12.3313   42.9319 H         1 PHE         0.0599
    124 H29        -3.2530   12.4192   40.4944 H         1 PHE         0.0559
    125 H30        -1.1778   17.7269   45.3619 H         1 GLU         0.1883
    126 H31        -3.8721   17.8669   44.5679 H         1 GLU         0.0801
    127 H32        -4.0899   19.5313   46.4589 H         1 GLU         0.0330
    128 H33        -2.3015   19.4852   46.6204 H         1 GLU         0.0330
    129 H34        -2.4352   17.0119   46.9406 H         1 GLU         0.0433
    130 H35        -4.2267   17.1314   46.8877 H         1 GLU         0.0433
    131 H36        -1.3156   20.3165   44.1785 H         1 ASP         0.1884
    132 H37        -2.9862   22.4180   43.1549 H         1 ASP         0.0819
    133 H38        -0.9046   23.3028   42.1220 H         1 ASP         0.0478
    134 H39        -0.0587   21.7836   42.5728 H         1 ASP         0.0478
    135 H40        -1.2882   19.6540   41.6234 H         1 LEU         0.1883
    136 H41        -1.9678   20.3969   38.9257 H         1 LEU         0.0800
    137 H42        -1.5871   17.9910   38.3741 H         1 LEU         0.0315
    138 H43        -1.3801   17.6669   40.1288 H         1 LEU         0.0315
    139 H44         0.5492   19.2690   40.1465 H         1 LEU         0.0298
    140 H45         2.1235   17.7719   38.9723 H         1 LEU         0.0232
    141 H46         0.7433   16.9823   38.1367 H         1 LEU         0.0232
    142 H47         0.9085   16.8491   39.9204 H         1 LEU         0.0232
    143 H48        -0.1006   20.6163   38.1560 H         1 LEU         0.0232
    144 H49         0.2102   19.1962   37.1009 H         1 LEU         0.0232
    145 H50         1.5642   19.9600   38.0008 H         1 LEU         0.0232
    146 H51        -3.5500   18.2728   41.3411 H         1 LEU         0.1883
    147 H52        -5.7178   17.4723   39.6832 H         1 LEU         0.0800
    148 H53        -6.9820   17.1664   41.8681 H         1 LEU         0.0315
    149 H54        -5.5364   17.8373   42.6967 H         1 LEU         0.0315
    150 H55        -4.1993   15.9768   41.6305 H         1 LEU         0.0298
    151 H56        -4.9394   14.2979   43.3005 H         1 LEU         0.0232
    152 H57        -6.4495   15.2360   43.5578 H         1 LEU         0.0232
    153 H58        -4.8607   15.9558   43.9873 H         1 LEU         0.0232
    154 H59        -5.7866   15.3901   39.8333 H         1 LEU         0.0232
    155 H60        -6.9537   14.8006   41.0650 H         1 LEU         0.0232
    156 H61        -5.3707   13.9766   40.8607 H         1 LEU         0.0232
    157 H62        -5.3470   20.3312   41.7394 H         1 ASP         0.1884
    158 H63        -8.0027   21.3455   41.3597 H         1 ASP         0.0819
    159 H64        -6.8842   23.5781   41.9886 H         1 ASP         0.0478
    160 H65        -5.3706   22.6290   42.1752 H         1 ASP         0.0478
    161 H66        -4.9593   21.6700   39.5491 H         1 TYR         0.1885
    162 H67        -5.7902   24.0004   38.0314 H         1 TYR         0.0821
    163 H68        -3.6929   21.8783   37.3614 H         1 TYR         0.0453
    164 H69        -3.4119   23.2738   38.4571 H         1 TYR         0.0453
    165 H70        -3.6773   25.6404   37.4313 H         1 TYR         0.0530
    166 H71        -3.2559   22.1017   35.0675 H         1 TYR         0.0530
    167 H72        -2.9830   27.0137   35.5071 H         1 TYR         0.0525
    168 H73        -2.5006   23.4725   33.1496 H         1 TYR         0.0525
    169 H74        -2.2951   27.0292   33.4111 H         1 TYR         0.2458
    170 H75        -5.5738   20.5014   37.3865 H         1 TYR         0.1885
    171 H76        -6.7096   20.9061   34.7083 H         1 TYR         0.0821
    172 H77        -6.2787   18.4109   34.4860 H         1 TYR         0.0453
    173 H78        -5.5150   18.4883   36.1101 H         1 TYR         0.0453
    174 H79        -3.2085   18.8422   36.1873 H         1 TYR         0.0530
    175 H80        -5.3721   20.2904   32.7899 H         1 TYR         0.0530
    176 H81        -1.1116   19.6530   35.2029 H         1 TYR         0.0525
    177 H82        -3.2620   21.0861   31.7784 H         1 TYR         0.0525
    178 H83        -0.8619   21.7340   32.7558 H         1 TYR         0.2458
    179 H84        -7.8015   19.9007   37.8199 H         1 GLY         0.1882
    180 H85        -9.7726   18.9077   38.5637 H         1 GLY         0.0754
    181 H86       -10.1656   18.4656   36.8676 H         1 GLY         0.0754
    182 H87       -11.7041   20.4021   38.1154 H         1 GLY         0.1370
@<TRIPOS>BOND
     1    1    2 1  
     2    2    3 1  
     3    2    5 1  
     4    3    4 2  
     5    3    9 am 
     6    5    6 1  
     7    5    7 1  
     8    6    8 1  
     9    9   10 1  
    10   10   11 1  
    11   10   13 1  
    12   11   12 2  
    13   11   16 am 
    14   13   14 1  
    15   13   15 1  
    16   16   17 1  
    17   17   18 1  
    18   17   20 1  
    19   18   19 2  
    20   18   27 am 
    21   20   21 1  
    22   21   22 ar 
    23   21   23 ar 
    24   22   24 ar 
    25   23   25 ar 
    26   24   26 ar 
    27   25   26 ar 
    28   27   28 1  
    29   28   29 1  
    30   28   31 1  
    31   29   30 2  
    32   29   36 am 
    33   31   32 1  
    34   32   33 1  
    35   33   34 ar 
    36   33   35 ar 
    37   36   37 1  
    38   37   38 1  
    39   37   40 1  
    40   38   39 2  
    41   38   44 am 
    42   40   41 1  
    43   41   42 ar 
    44   41   43 ar 
    45   44   45 1  
    46   45   46 1  
    47   45   48 1  
    48   46   47 2  
    49   46   52 am 
    50   48   49 1  
    51   49   50 1  
    52   49   51 1  
    53   52   53 1  
    54   53   54 1  
    55   53   56 1  
    56   54   55 2  
    57   54   60 am 
    58   56   57 1  
    59   57   58 1  
    60   57   59 1  
    61   60   61 1  
    62   61   62 1  
    63   61   64 1  
    64   62   63 2  
    65   62   68 am 
    66   64   65 1  
    67   65   66 ar 
    68   65   67 ar 
    69   68   69 1  
    70   69   70 1  
    71   69   72 1  
    72   70   71 2  
    73   70   80 am 
    74   72   73 1  
    75   73   74 ar 
    76   73   75 ar 
    77   74   76 ar 
    78   75   77 ar 
    79   76   78 ar 
    80   77   78 ar 
    81   78   79 1  
    82   80   81 1  
    83   81   82 1  
    84   81   84 1  
    85   82   83 2  
    86   82   92 am 
    87   84   85 1  
    88   85   86 ar 
    89   85   87 ar 
    90   86   88 ar 
    91   87   89 ar 
    92   88   90 ar 
    93   89   90 ar 
    94   90   91 1  
    95   92   93 1  
    96   93   94 1  
    97   94   95 2  
    98    1   96 1  
    99    1   97 1  
   100    1   98 1  
   101    2   99 1  
   102    5  100 1  
   103    6  101 1  
   104    6  102 1  
   105    7  103 1  
   106    7  104 1  
   107    7  105 1  
   108    8  106 1  
   109    8  107 1  
   110    8  108 1  
   111    9  109 1  
   112   10  110 1  
   113   13  111 1  
   114   14  112 1  
   115   15  113 1  
   116   15  114 1  
   117   15  115 1  
   118   16  116 1  
   119   17  117 1  
   120   20  118 1  
   121   20  119 1  
   122   22  120 1  
   123   23  121 1  
   124   24  122 1  
   125   25  123 1  
   126   26  124 1  
   127   27  125 1  
   128   28  126 1  
   129   31  127 1  
   130   31  128 1  
   131   32  129 1  
   132   32  130 1  
   133   36  131 1  
   134   37  132 1  
   135   40  133 1  
   136   40  134 1  
   137   44  135 1  
   138   45  136 1  
   139   48  137 1  
   140   48  138 1  
   141   49  139 1  
   142   50  140 1  
   143   50  141 1  
   144   50  142 1  
   145   51  143 1  
   146   51  144 1  
   147   51  145 1  
   148   52  146 1  
   149   53  147 1  
   150   56  148 1  
   151   56  149 1  
   152   57  150 1  
   153   58  151 1  
   154   58  152 1  
   155   58  153 1  
   156   59  154 1  
   157   59  155 1  
   158   59  156 1  
   159   60  157 1  
   160   61  158 1  
   161   64  159 1  
   162   64  160 1  
   163   68  161 1  
   164   69  162 1  
   165   72  163 1  
   166   72  164 1  
   167   74  165 1  
   168   75  166 1  
   169   76  167 1  
   170   77  168 1  
   171   79  169 1  
   172   80  170 1  
   173   81  171 1  
   174   84  172 1  
   175   84  173 1  
   176   86  174 1  
   177   87  175 1  
   178   88  176 1  
   179   89  177 1  
   180   91  178 1  
   181   92  179 1  
   182   93  180 1  
   183   93  181 1  
   184   94  182 1  
@<TRIPOS>SUBSTRUCTURE
     1 ILE         1

