3dnd_ligand
  -I-interpret- 

 23 24  0  0  0  0  0  0  0  0999 V2000
    8.9100    9.9830    3.0430 C   0  0  0  0  0
    9.6680    8.9910    2.3900 C   0  0  0  0  0
   10.1440    7.8730    3.0960 C   0  0  0  0  0
    9.8370    7.8050    4.4640 C   0  0  0  0  0
    9.0870    8.7970    5.1390 C   0  0  0  0  0
    8.6130    9.9080    4.4230 C   0  0  0  0  0
    7.7840   11.0150    5.1230 C   0  0  0  0  0
    6.2950   10.8290    4.7470 C   0  0  0  0  0
    5.8850   10.8230    3.1450 S   0  0  0  0  0
    5.1430   10.6460    5.4710 C   0  0  0  0  0
    3.9720   10.4870    4.7480 N   0  0  0  0  0
    4.1890   10.5520    3.3970 C   0  0  0  0  0
    3.2970   10.4440    2.4100 N   0  0  0  0  0
    8.5421   10.8325    2.4677 H   0  0  0  0  0
    9.8873    9.0917    1.3270 H   0  0  0  0  0
   10.7255    7.0937    2.6034 H   0  0  0  0  0
   10.1935    6.9468    5.0337 H   0  0  0  0  0
    8.8792    8.6997    6.2046 H   0  0  0  0  0
    8.1285   11.9972    4.7994 H   0  0  0  0  0
    7.9057   10.9423    6.2037 H   0  0  0  0  0
    5.1494   10.6268    6.5608 H   0  0  0  0  0
    3.5992   10.5209    1.4388 H   0  0  0  0  0
    2.3132   10.2846    2.6269 H   0  0  0  0  0
  1  2  4  0  0  0
  1  6  4  0  0  0
  2  3  4  0  0  0
  3  4  4  0  0  0
  4  5  4  0  0  0
  5  6  4  0  0  0
  6  7  1  0  0  0
  7  8  1  0  0  0
  8  9  4  0  0  0
  8 10  4  0  0  0
  9 12  4  0  0  0
 10 11  4  0  0  0
 11 12  4  0  0  0
 12 13  1  0  0  0
  1 14  1  0  0  0
  2 15  1  0  0  0
  3 16  1  0  0  0
  4 17  1  0  0  0
  5 18  1  0  0  0
  7 19  1  0  0  0
  7 20  1  0  0  0
 10 21  1  0  0  0
 13 22  1  0  0  0
 13 23  1  0  0  0
M  END
$$$$
