4gui_ligand
  -I-interpret- 

 25 25  0  0  0  0  0  0  0  0999 V2000
  -17.1370    1.0480   17.9800 C   0  0  0  0  0
  -17.9490    2.2020   17.6980 O   0  0  0  0  0
  -16.4760    1.2190   19.3510 C   0  0  0  0  0
  -18.2630    2.3370   20.5600 O   0  0  0  0  0
  -17.4480    1.1650   20.5140 C   0  0  0  0  0
  -19.3710    0.0710   21.4530 O   0  0  0  0  0
  -18.3670   -0.0520   20.4480 C   0  0  0  0  0
  -19.8030   -1.4050   19.1030 O   0  0  0  0  0
  -19.0320   -0.1970   19.0770 C   0  0  0  0  0
  -15.7590    2.0320   16.2960 O   0  0  0  0  0
  -17.9940   -0.2240   17.9580 C   0  0  0  0  0
  -15.3280   -0.0180   16.8600 O   0  0  0  0  0
  -16.0140    1.0110   16.9820 C   0  0  0  0  0
  -17.4005    2.9897   17.7150 H   0  0  0  0  0
  -16.0090    2.2038   19.3648 H   0  0  0  0  0
  -15.7740    0.3947   19.4771 H   0  0  0  0  0
  -17.7014    3.1145   20.6019 H   0  0  0  0  0
  -16.8340    1.0970   21.4121 H   0  0  0  0  0
  -18.9526    0.1619   22.3123 H   0  0  0  0  0
  -17.7612   -0.9427   20.6147 H   0  0  0  0  0
  -20.2349   -1.5260   18.2542 H   0  0  0  0  0
  -19.6762    0.6587   18.8750 H   0  0  0  0  0
  -16.3825    2.7280   16.5161 H   0  0  0  0  0
  -17.3449   -1.0879   18.1012 H   0  0  0  0  0
  -18.5109   -0.2833   17.0002 H   0  0  0  0  0
  1  2  1  0  0  0
  1  3  1  0  0  0
  1 11  1  0  0  0
  1 13  1  0  0  0
  3  5  1  0  0  0
  5  4  1  0  0  0
  5  7  1  0  0  0
  7  6  1  0  0  0
  7  9  1  0  0  0
  9  8  1  0  0  0
  9 11  1  0  0  0
 13 10  1  0  0  0
 13 12  2  0  0  0
  2 14  1  0  0  0
  3 15  1  0  0  0
  3 16  1  0  0  0
  4 17  1  0  0  0
  5 18  1  0  0  0
  6 19  1  0  0  0
  7 20  1  0  0  0
  8 21  1  0  0  0
  9 22  1  0  0  0
 10 23  1  0  0  0
 11 24  1  0  0  0
 11 25  1  0  0  0
M  END
$$$$
