### 
### Created by X-TOOL on Fri Nov  2 11:09:03 2018
### 

@<TRIPOS>MOLECULE
6bw4_ligand
  165   164     1     0     0
SMALL
GAST_HUCK


@<TRIPOS>ATOM
      1 N          -7.3020   33.0810   -7.5260 N.4       1 MET         0.2379
      2 CA         -8.3600   33.2660   -8.5720 C.3       1 MET         0.0658
      3 C          -7.6810   33.6630   -9.8650 C.2       1 MET         0.2267
      4 O          -7.1390   34.7570   -9.9690 O.2       1 MET        -0.3907
      5 CB         -9.3930   34.3220   -8.1670 C.3       1 MET         0.0166
      6 CG        -10.5570   34.4690   -9.1420 C.3       1 MET        -0.0020
      7 SD        -11.8360   35.6120   -8.5480 S.3       1 MET        -0.1779
      8 N          -7.6940   32.7580  -10.8360 N.am      1 MET        -0.2610
      9 CA         -7.0100   33.0030  -12.1110 C.3       1 MET         0.1312
     10 C          -7.6830   34.0740  -12.9780 C.2       1 MET         0.2039
     11 O          -8.8770   34.3600  -12.8310 O.2       1 MET        -0.3944
     12 CB         -6.8620   31.7130  -12.8970 C.3       1 MET        -0.0092
     13 CG         -8.1610   31.1130  -13.4180 C.3       1 MET        -0.0156
     14 CD         -7.9300   29.6470  -13.7220 C.3       1 MET         0.0627
     15 NE         -8.2690   28.7920  -12.5760 N.pl3     1 MET        -0.2723
     16 CZ         -7.7600   27.5770  -12.3350 C.cat     1 MET         0.2882
     17 NH1        -6.8390   27.0390  -13.1340 N.pl3     1 MET        -0.2849
     18 NH2        -8.1630   26.8920  -11.2590 N.pl3     1 MET        -0.2849
     19 N          -6.8730   34.6860  -13.8360 N.am      1 MET        -0.2640
     20 CA         -7.3380   35.6720  -14.7950 C.3       1 MET         0.1282
     21 C          -7.1090   35.0620  -16.1570 C.2       1 MET         0.2036
     22 O          -5.9660   34.8680  -16.5620 O.2       1 MET        -0.3944
     23 CB         -6.5630   36.9930  -14.6790 C.3       1 MET        -0.0244
     24 N          -8.1880   34.7510  -16.8630 N.am      1 MET        -0.2637
     25 CA         -8.0600   34.2620  -18.2420 C.3       1 MET         0.1310
     26 C          -7.5250   35.3920  -19.1140 C.2       1 MET         0.2039
     27 O          -7.8850   36.5620  -18.9080 O.2       1 MET        -0.3944
     28 CB         -9.4070   33.7270  -18.7620 C.3       1 MET        -0.0122
     29 CG         -9.7630   32.3960  -18.1200 C.3       1 MET        -0.0440
     30 CD        -11.1350   31.8680  -18.5170 C.3       1 MET        -0.0124
     31 CE        -12.2530   32.4680  -17.7040 C.3       1 MET        -0.0354
     32 NZ        -13.4760   31.6190  -17.6750 N.4       1 MET         0.2185
     33 N          -6.6240   35.0500  -20.0390 N.am      1 MET        -0.2640
     34 CA         -6.1340   36.0090  -21.0320 C.3       1 MET         0.1282
     35 C          -7.2470   36.2640  -22.0660 C.2       1 MET         0.2036
     36 O          -8.2580   35.5540  -22.0930 O.2       1 MET        -0.3944
     37 CB         -4.8760   35.4900  -21.7120 C.3       1 MET        -0.0244
     38 N          -7.0900   37.2880  -22.8990 N.am      1 MET        -0.2637
     39 CA         -7.9880   37.4220  -24.0490 C.3       1 MET         0.1311
     40 C          -7.4550   36.5220  -25.1790 C.2       1 MET         0.2039
     41 O          -6.2840   36.5750  -25.5540 O.2       1 MET        -0.3944
     42 CB         -8.2150   38.8860  -24.4530 C.3       1 MET        -0.0092
     43 CG         -9.2190   39.5810  -23.5120 C.3       1 MET        -0.0156
     44 CD         -9.5950   41.0070  -23.9150 C.3       1 MET         0.0627
     45 NE        -10.7960   41.0950  -24.7580 N.pl3     1 MET        -0.2723
     46 CZ        -10.8250   40.9990  -26.0920 C.cat     1 MET         0.2882
     47 NH1       -11.9920   41.0820  -26.7280 N.pl3     1 MET        -0.2849
     48 NH2        -9.7120   40.8110  -26.8050 N.pl3     1 MET        -0.2849
     49 N          -8.3230   35.6470  -25.6630 N.am      1 MET        -0.2640
     50 CA         -7.9400   34.6320  -26.6280 C.3       1 MET         0.1282
     51 C          -7.8220   35.2870  -27.9790 C.2       1 MET         0.2036
     52 O          -8.6390   36.1270  -28.3150 O.2       1 MET        -0.3944
     53 CB         -8.9800   33.5240  -26.6690 C.3       1 MET        -0.0244
     54 N          -6.7820   34.9180  -28.7140 N.am      1 MET        -0.2637
     55 CA         -6.5910   35.2820  -30.1090 C.3       1 MET         0.1307
     56 C          -6.9140   34.0700  -31.0160 C.2       1 MET         0.2039
     57 O          -6.6780   32.9110  -30.6370 O.2       1 MET        -0.3944
     58 CB         -5.1410   35.7460  -30.3290 C.3       1 MET        -0.0152
     59 CG         -4.7670   37.0330  -29.5970 C.3       1 MET        -0.0610
     60 N          -7.4440   34.3470  -32.2100 N.am      1 MET        -0.2637
     61 CA         -7.7300   33.3160  -33.2340 C.3       1 MET         0.1309
     62 C          -6.4930   33.0910  -34.1100 C.2       1 MET         0.2033
     63 O          -5.6830   34.0070  -34.2680 O.2       1 MET        -0.3944
     64 CB         -8.8970   33.7740  -34.1020 C.3       1 MET        -0.0122
     65 CG         -9.5720   32.6820  -34.9130 C.3       1 MET        -0.0440
     66 CD        -10.1210   33.2310  -36.2230 C.3       1 MET        -0.0124
     67 CE        -10.5740   32.1040  -37.1340 C.3       1 MET        -0.0354
     68 NZ        -11.8410   31.4970  -36.6600 N.4       1 MET         0.2185
     69 N          -6.3280   31.8810  -34.6570 N.am      1 MET        -0.2695
     70 CA         -5.1890   31.5790  -35.5490 C.3       1 MET         0.0941
     71 C          -5.5360   31.9120  -36.9990 C.2       1 MET         0.0601
     72 O          -6.5580   31.4530  -37.5180 O.co2     1 MET        -0.5666
     73 CB         -4.7590   30.1090  -35.4260 C.3       1 MET        -0.0208
     74 CG         -3.3340   29.7900  -35.8950 C.3       1 MET        -0.0616
     75 OXT        -4.7980   32.6430  -37.6660 O.co2     1 MET        -0.5666
     76 H1         -7.7338   32.8157   -6.6547 H         1 MET         0.2015
     77 H2         -6.7977   33.9449   -7.4017 H         1 MET         0.2015
     78 H3         -6.6633   32.3581   -7.8183 H         1 MET         0.2015
     79 H4         -8.8829   32.3095   -8.7189 H         1 MET         0.1098
     80 H5         -8.8817   35.2931   -8.0923 H         1 MET         0.0353
     81 H6         -9.8006   34.0456   -7.1834 H         1 MET         0.0353
     82 H7        -11.0137   33.4801   -9.2950 H         1 MET         0.0377
     83 H8        -10.1675   34.8451  -10.0995 H         1 MET         0.0377
     84 H9        -12.5764   35.6694   -9.2295 H         1 MET         0.1016
     85 H10        -8.1783   31.8943  -10.6962 H         1 MET         0.1884
     86 H11        -6.0004   33.3674  -11.8705 H         1 MET         0.0800
     87 H12        -6.3834   30.9697  -12.2424 H         1 MET         0.0313
     88 H13        -6.2110   31.9144  -13.7604 H         1 MET         0.0313
     89 H14        -8.4696   31.6371  -14.3345 H         1 MET         0.0301
     90 H15        -8.9475   31.2136  -12.6555 H         1 MET         0.0301
     91 H16        -6.8700   29.4987  -13.9756 H         1 MET         0.0689
     92 H17        -8.5560   29.3582  -14.5791 H         1 MET         0.0689
     93 H18        -8.9559   29.1580  -11.9013 H         1 MET         0.2642
     94 H19        -6.4622   26.1027  -12.9282 H         1 MET         0.2615
     95 H20        -6.5040   27.5595  -13.9573 H         1 MET         0.2615
     96 H21        -8.8740   27.2922  -10.6303 H         1 MET         0.2615
     97 H22        -7.7623   25.9644  -11.0592 H         1 MET         0.2615
     98 H23        -5.8997   34.4571  -13.8203 H         1 MET         0.1883
     99 H24        -8.4091   35.8684  -14.6400 H         1 MET         0.0797
    100 H25        -6.9460   37.7091  -15.4209 H         1 MET         0.0277
    101 H26        -5.4946   36.8088  -14.8648 H         1 MET         0.0277
    102 H27        -6.6934   37.4071  -13.6683 H         1 MET         0.0277
    103 H28        -9.0949   34.8502  -16.4535 H         1 MET         0.1883
    104 H29        -7.3348   33.4350  -18.2575 H         1 MET         0.0800
    105 H30        -9.3413   33.5920  -19.8517 H         1 MET         0.0312
    106 H31       -10.1955   34.4580  -18.5299 H         1 MET         0.0312
    107 H32        -9.7430   32.5219  -17.0274 H         1 MET         0.0269
    108 H33        -9.0070   31.6545  -18.4176 H         1 MET         0.0269
    109 H34       -11.1453   30.7771  -18.3762 H         1 MET         0.0317
    110 H35       -11.3077   32.1025  -19.5777 H         1 MET         0.0317
    111 H36       -12.5153   33.4447  -18.1368 H         1 MET         0.0813
    112 H37       -11.8993   32.6074  -16.6718 H         1 MET         0.0813
    113 H38       -14.1852   32.0704  -17.1188 H         1 MET         0.1994
    114 H39       -13.2531   30.7224  -17.2720 H         1 MET         0.1994
    115 H40       -13.8176   31.4896  -18.6145 H         1 MET         0.1994
    116 H41        -6.2743   34.1133  -20.0540 H         1 MET         0.1883
    117 H42        -5.8929   36.9553  -20.5257 H         1 MET         0.0797
    118 H43        -4.5285   36.2265  -22.4515 H         1 MET         0.0277
    119 H44        -5.0985   34.5391  -22.2182 H         1 MET         0.0277
    120 H45        -4.0913   35.3293  -20.9581 H         1 MET         0.0277
    121 H46        -6.3663   37.9601  -22.7423 H         1 MET         0.1883
    122 H47        -8.9706   37.0261  -23.7527 H         1 MET         0.0800
    123 H48        -8.6072   38.9169  -25.4802 H         1 MET         0.0313
    124 H49        -7.2552   39.4217  -24.4106 H         1 MET         0.0313
    125 H50        -8.7770   39.6154  -22.5053 H         1 MET         0.0301
    126 H51       -10.1390   38.9785  -23.4882 H         1 MET         0.0301
    127 H52        -8.7510   41.4433  -24.4694 H         1 MET         0.0689
    128 H53        -9.7724   41.5896  -22.9990 H         1 MET         0.0689
    129 H54       -11.6955   41.2439  -24.2788 H         1 MET         0.2642
    130 H55       -12.0252   41.0093  -27.7549 H         1 MET         0.2615
    131 H56       -12.8615   41.2189  -26.1930 H         1 MET         0.2615
    132 H57        -8.8008   40.7445  -26.3294 H         1 MET         0.2615
    133 H58        -9.7645   40.7325  -27.8307 H         1 MET         0.2615
    134 H59        -9.2732   35.6865  -25.3539 H         1 MET         0.1883
    135 H60        -6.9684   34.2025  -26.3424 H         1 MET         0.0797
    136 H61        -8.6766   32.7634  -27.4035 H         1 MET         0.0277
    137 H62        -9.9538   33.9456  -26.9587 H         1 MET         0.0277
    138 H63        -9.0621   33.0611  -25.6745 H         1 MET         0.0277
    139 H64        -6.0818   34.3512  -28.2799 H         1 MET         0.1883
    140 H65        -7.2723   36.1079  -30.3614 H         1 MET         0.0800
    141 H66        -4.9927   35.9089  -31.4067 H         1 MET         0.0310
    142 H67        -4.4689   34.9469  -29.9830 H         1 MET         0.0310
    143 H68        -3.7183   37.2857  -29.8122 H         1 MET         0.0232
    144 H69        -4.8947   36.8892  -28.5140 H         1 MET         0.0232
    145 H70        -5.4185   37.8512  -29.9376 H         1 MET         0.0232
    146 H71        -7.6589   35.3000  -32.4238 H         1 MET         0.1883
    147 H72        -7.9962   32.3727  -32.7346 H         1 MET         0.0800
    148 H73        -8.5212   34.5342  -34.8026 H         1 MET         0.0312
    149 H74        -9.6539   34.2247  -33.4432 H         1 MET         0.0312
    150 H75       -10.4003   32.2586  -34.3259 H         1 MET         0.0269
    151 H76        -8.8381   31.8929  -35.1338 H         1 MET         0.0269
    152 H77        -9.3341   33.8094  -36.7293 H         1 MET         0.0317
    153 H78       -10.9775   33.8869  -36.0081 H         1 MET         0.0317
    154 H79        -9.7938   31.3289  -37.1586 H         1 MET         0.0813
    155 H80       -10.7264   32.5032  -38.1476 H         1 MET         0.0813
    156 H81       -12.1125   30.7546  -37.2855 H         1 MET         0.1994
    157 H82       -12.5632   32.1999  -36.6393 H         1 MET         0.1994
    158 H83       -11.7087   31.1238  -35.7330 H         1 MET         0.1994
    159 H84        -6.9933   31.1617  -34.4568 H         1 MET         0.1875
    160 H85        -4.3410   32.2099  -35.2445 H         1 MET         0.0726
    161 H86        -5.4550   29.5024  -36.0239 H         1 MET         0.0303
    162 H87        -4.8383   29.8214  -34.3673 H         1 MET         0.0303
    163 H88        -3.1360   28.7162  -35.7619 H         1 MET         0.0232
    164 H89        -2.6137   30.3720  -35.3014 H         1 MET         0.0232
    165 H90        -3.2303   30.0530  -36.9581 H         1 MET         0.0232
@<TRIPOS>BOND
     1    1    2 1  
     2    2    3 1  
     3    2    5 1  
     4    3    4 2  
     5    3    8 am 
     6    5    6 1  
     7    6    7 1  
     8    8    9 1  
     9    9   10 1  
    10    9   12 1  
    11   10   11 2  
    12   10   19 am 
    13   12   13 1  
    14   13   14 1  
    15   14   15 1  
    16   15   16 ar 
    17   16   17 ar 
    18   16   18 ar 
    19   19   20 1  
    20   20   21 1  
    21   20   23 1  
    22   21   22 2  
    23   21   24 am 
    24   24   25 1  
    25   25   26 1  
    26   25   28 1  
    27   26   27 2  
    28   26   33 am 
    29   28   29 1  
    30   29   30 1  
    31   30   31 1  
    32   31   32 1  
    33   33   34 1  
    34   34   35 1  
    35   34   37 1  
    36   35   36 2  
    37   35   38 am 
    38   38   39 1  
    39   39   40 1  
    40   39   42 1  
    41   40   41 2  
    42   40   49 am 
    43   42   43 1  
    44   43   44 1  
    45   44   45 1  
    46   45   46 ar 
    47   46   47 ar 
    48   46   48 ar 
    49   49   50 1  
    50   50   51 1  
    51   50   53 1  
    52   51   52 2  
    53   51   54 am 
    54   54   55 1  
    55   55   56 1  
    56   55   58 1  
    57   56   57 2  
    58   56   60 am 
    59   58   59 1  
    60   60   61 1  
    61   61   62 1  
    62   61   64 1  
    63   62   63 2  
    64   62   69 am 
    65   64   65 1  
    66   65   66 1  
    67   66   67 1  
    68   67   68 1  
    69   69   70 1  
    70   70   71 1  
    71   70   73 1  
    72   71   72 ar 
    73   71   75 ar 
    74   73   74 1  
    75    1   76 1  
    76    1   77 1  
    77    1   78 1  
    78    2   79 1  
    79    5   80 1  
    80    5   81 1  
    81    6   82 1  
    82    6   83 1  
    83    7   84 1  
    84    8   85 1  
    85    9   86 1  
    86   12   87 1  
    87   12   88 1  
    88   13   89 1  
    89   13   90 1  
    90   14   91 1  
    91   14   92 1  
    92   15   93 1  
    93   17   94 1  
    94   17   95 1  
    95   18   96 1  
    96   18   97 1  
    97   19   98 1  
    98   20   99 1  
    99   23  100 1  
   100   23  101 1  
   101   23  102 1  
   102   24  103 1  
   103   25  104 1  
   104   28  105 1  
   105   28  106 1  
   106   29  107 1  
   107   29  108 1  
   108   30  109 1  
   109   30  110 1  
   110   31  111 1  
   111   31  112 1  
   112   32  113 1  
   113   32  114 1  
   114   32  115 1  
   115   33  116 1  
   116   34  117 1  
   117   37  118 1  
   118   37  119 1  
   119   37  120 1  
   120   38  121 1  
   121   39  122 1  
   122   42  123 1  
   123   42  124 1  
   124   43  125 1  
   125   43  126 1  
   126   44  127 1  
   127   44  128 1  
   128   45  129 1  
   129   47  130 1  
   130   47  131 1  
   131   48  132 1  
   132   48  133 1  
   133   49  134 1  
   134   50  135 1  
   135   53  136 1  
   136   53  137 1  
   137   53  138 1  
   138   54  139 1  
   139   55  140 1  
   140   58  141 1  
   141   58  142 1  
   142   59  143 1  
   143   59  144 1  
   144   59  145 1  
   145   60  146 1  
   146   61  147 1  
   147   64  148 1  
   148   64  149 1  
   149   65  150 1  
   150   65  151 1  
   151   66  152 1  
   152   66  153 1  
   153   67  154 1  
   154   67  155 1  
   155   68  156 1  
   156   68  157 1  
   157   68  158 1  
   158   69  159 1  
   159   70  160 1  
   160   73  161 1  
   161   73  162 1  
   162   74  163 1  
   163   74  164 1  
   164   74  165 1  
@<TRIPOS>SUBSTRUCTURE
     1 MET         1

