6bw4_ligand
  -I-interpret- 

164163  0  0  0  0  0  0  0  0999 V2000
   -7.3020   33.0810   -7.5260 N   0  3  0  0  0
   -8.3600   33.2660   -8.5720 C   0  0  0  0  0
   -7.6810   33.6630   -9.8650 C   0  0  0  0  0
   -7.1390   34.7570   -9.9690 O   0  0  0  0  0
   -9.3930   34.3220   -8.1670 C   0  0  0  0  0
  -10.5570   34.4690   -9.1420 C   0  0  0  0  0
  -11.8360   35.6120   -8.5480 S   0  0  0  0  0
   -7.6940   32.7580  -10.8360 N   0  0  0  0  0
   -7.0100   33.0030  -12.1110 C   0  0  0  0  0
   -7.6830   34.0740  -12.9780 C   0  0  0  0  0
   -8.8770   34.3600  -12.8310 O   0  0  0  0  0
   -6.8620   31.7130  -12.8970 C   0  0  0  0  0
   -8.1610   31.1130  -13.4180 C   0  0  0  0  0
   -7.9300   29.6470  -13.7220 C   0  0  0  0  0
   -8.2690   28.7920  -12.5760 N   0  0  0  0  0
   -7.7600   27.5770  -12.3350 C   0  0  0  0  0
   -6.8390   27.0390  -13.1340 N   0  0  0  0  0
   -8.1630   26.8920  -11.2590 N   0  0  0  0  0
   -6.8730   34.6860  -13.8360 N   0  0  0  0  0
   -7.3380   35.6720  -14.7950 C   0  0  0  0  0
   -7.1090   35.0620  -16.1570 C   0  0  0  0  0
   -5.9660   34.8680  -16.5620 O   0  0  0  0  0
   -6.5630   36.9930  -14.6790 C   0  0  0  0  0
   -8.1880   34.7510  -16.8630 N   0  0  0  0  0
   -8.0600   34.2620  -18.2420 C   0  0  0  0  0
   -7.5250   35.3920  -19.1140 C   0  0  0  0  0
   -7.8850   36.5620  -18.9080 O   0  0  0  0  0
   -9.4070   33.7270  -18.7620 C   0  0  0  0  0
   -9.7630   32.3960  -18.1200 C   0  0  0  0  0
  -11.1350   31.8680  -18.5170 C   0  0  0  0  0
  -12.2530   32.4680  -17.7040 C   0  0  0  0  0
  -13.4760   31.6190  -17.6750 N   0  3  0  0  0
   -6.6240   35.0500  -20.0390 N   0  0  0  0  0
   -6.1340   36.0090  -21.0320 C   0  0  0  0  0
   -7.2470   36.2640  -22.0660 C   0  0  0  0  0
   -8.2580   35.5540  -22.0930 O   0  0  0  0  0
   -4.8760   35.4900  -21.7120 C   0  0  0  0  0
   -7.0900   37.2880  -22.8990 N   0  0  0  0  0
   -7.9880   37.4220  -24.0490 C   0  0  0  0  0
   -7.4550   36.5220  -25.1790 C   0  0  0  0  0
   -6.2840   36.5750  -25.5540 O   0  0  0  0  0
   -8.2150   38.8860  -24.4530 C   0  0  0  0  0
   -9.2190   39.5810  -23.5120 C   0  0  0  0  0
   -9.5950   41.0070  -23.9150 C   0  0  0  0  0
  -10.7960   41.0950  -24.7580 N   0  0  0  0  0
  -10.8250   40.9990  -26.0920 C   0  0  0  0  0
  -11.9920   41.0820  -26.7280 N   0  0  0  0  0
   -9.7120   40.8110  -26.8050 N   0  0  0  0  0
   -8.3230   35.6470  -25.6630 N   0  0  0  0  0
   -7.9400   34.6320  -26.6280 C   0  0  0  0  0
   -7.8220   35.2870  -27.9790 C   0  0  0  0  0
   -8.6390   36.1270  -28.3150 O   0  0  0  0  0
   -8.9800   33.5240  -26.6690 C   0  0  0  0  0
   -6.7820   34.9180  -28.7140 N   0  0  0  0  0
   -6.5910   35.2820  -30.1090 C   0  0  0  0  0
   -6.9140   34.0700  -31.0160 C   0  0  0  0  0
   -6.6780   32.9110  -30.6370 O   0  0  0  0  0
   -5.1410   35.7460  -30.3290 C   0  0  0  0  0
   -4.7670   37.0330  -29.5970 C   0  0  0  0  0
   -7.4440   34.3470  -32.2100 N   0  0  0  0  0
   -7.7300   33.3160  -33.2340 C   0  0  0  0  0
   -6.4930   33.0910  -34.1100 C   0  0  0  0  0
   -5.6830   34.0070  -34.2680 O   0  0  0  0  0
   -8.8970   33.7740  -34.1020 C   0  0  0  0  0
   -9.5720   32.6820  -34.9130 C   0  0  0  0  0
  -10.1210   33.2310  -36.2230 C   0  0  0  0  0
  -10.5740   32.1040  -37.1340 C   0  0  0  0  0
  -11.8410   31.4970  -36.6600 N   0  3  0  0  0
   -6.3280   31.8810  -34.6570 N   0  0  0  0  0
   -5.1890   31.5790  -35.5490 C   0  0  0  0  0
   -5.5360   31.9120  -36.9990 C   0  0  0  0  0
   -6.5580   31.4530  -37.5180 O   0  0  0  0  0
   -4.7590   30.1090  -35.4260 C   0  0  0  0  0
   -3.3340   29.7900  -35.8950 C   0  0  0  0  0
   -4.7980   32.6430  -37.6660 O   0  0  0  0  0
   -6.6385   32.3715   -7.8370 H   0  0  0  0  0
   -6.8132   33.9640   -7.3786 H   0  0  0  0  0
   -7.7371   32.7821   -6.6532 H   0  0  0  0  0
   -8.9030   32.3288   -8.6939 H   0  0  0  0  0
   -8.8762   35.2812   -8.1380 H   0  0  0  0  0
   -9.8132   34.0092   -7.2111 H   0  0  0  0  0
  -11.0168   33.4880   -9.2618 H   0  0  0  0  0
  -10.1609   34.8687  -10.0755 H   0  0  0  0  0
  -12.8130   35.6877   -9.4473 H   0  0  0  0  0
   -8.1880   31.8770  -10.6934 H   0  0  0  0  0
   -6.0256   33.3912  -11.8496 H   0  0  0  0  0
   -6.4324   30.9800  -12.2142 H   0  0  0  0  0
   -6.2555   31.9491  -13.7714 H   0  0  0  0  0
   -8.4735   31.6344  -14.3228 H   0  0  0  0  0
   -8.9446   31.2169  -12.6674 H   0  0  0  0  0
   -6.8740   29.5073  -13.9531 H   0  0  0  0  0
   -8.5683   29.3661  -14.5597 H   0  0  0  0  0
   -8.9492   29.1544  -11.9079 H   0  0  0  0  0
   -6.5073   27.5544  -13.9493 H   0  0  0  0  0
   -7.7662   25.9734  -11.0612 H   0  0  0  0  0
   -8.8671   27.2883  -10.6364 H   0  0  0  0  0
   -5.8802   34.4525  -13.8200 H   0  0  0  0  0
   -8.3863   35.9115  -14.6167 H   0  0  0  0  0
   -6.6930   37.4023  -13.6772 H   0  0  0  0  0
   -5.5045   36.8092  -14.8632 H   0  0  0  0  0
   -6.9434   37.7017  -15.4146 H   0  0  0  0  0
   -9.1130   34.8521  -16.4453 H   0  0  0  0  0
   -7.3590   33.4280  -18.2754 H   0  0  0  0  0
   -9.3277   33.5805  -19.8392 H   0  0  0  0  0
  -10.1846   34.4492  -18.5133 H   0  0  0  0  0
   -9.7739   32.5488  -17.0408 H   0  0  0  0  0
   -9.0253   31.6667  -18.4546 H   0  0  0  0  0
  -11.1396   30.7916  -18.3454 H   0  0  0  0  0
  -11.3039   32.1325  -19.5609 H   0  0  0  0  0
  -12.5216   33.4197  -18.1624 H   0  0  0  0  0
  -11.8978   32.5717  -16.6787 H   0  0  0  0  0
  -14.1929   32.0767  -17.1120 H   0  0  0  0  0
  -13.8207   31.4888  -18.6261 H   0  0  0  0  0
  -13.2492   30.7120  -17.2671 H   0  0  0  0  0
   -6.2673   34.0945  -20.0543 H   0  0  0  0  0
   -5.8748   36.9443  -20.5359 H   0  0  0  0  0
   -4.0993   35.3311  -20.9639 H   0  0  0  0  0
   -5.0978   34.5478  -22.2131 H   0  0  0  0  0
   -4.5327   36.2206  -22.4445 H   0  0  0  0  0
   -6.3518   37.9735  -22.7392 H   0  0  0  0  0
   -8.9892   37.0796  -23.7872 H   0  0  0  0  0
   -8.6185   38.9068  -25.4654 H   0  0  0  0  0
   -7.2628   39.4130  -24.3928 H   0  0  0  0  0
   -8.7436   39.6440  -22.5332 H   0  0  0  0  0
  -10.1363   38.9927  -23.5381 H   0  0  0  0  0
   -8.7637   41.4083  -24.4947 H   0  0  0  0  0
   -9.8038   41.5572  -22.9975 H   0  0  0  0  0
  -11.6868   41.2424  -24.2835 H   0  0  0  0  0
  -12.8530   41.2176  -26.1982 H   0  0  0  0  0
   -9.7640   40.7333  -27.8207 H   0  0  0  0  0
   -8.8096   40.7451  -26.3340 H   0  0  0  0  0
   -9.2922   35.6873  -25.3477 H   0  0  0  0  0
   -6.9862   34.1876  -26.3435 H   0  0  0  0  0
   -9.0604   33.0662  -25.6831 H   0  0  0  0  0
   -9.9444   33.9431  -26.9562 H   0  0  0  0  0
   -8.6783   32.7710  -27.3971 H   0  0  0  0  0
   -6.0678   34.3399  -28.2712 H   0  0  0  0  0
   -7.2644   36.0996  -30.3663 H   0  0  0  0  0
   -5.0283   35.9423  -31.3952 H   0  0  0  0  0
   -4.4932   34.9598  -29.9411 H   0  0  0  0  0
   -5.4133   37.8429  -29.9354 H   0  0  0  0  0
   -4.8940   36.8892  -28.5240 H   0  0  0  0  0
   -3.7277   37.2823  -29.8110 H   0  0  0  0  0
   -7.6632   35.3190  -32.4280 H   0  0  0  0  0
   -7.9889   32.3801  -32.7389 H   0  0  0  0  0
   -8.4911   34.4883  -34.8183 H   0  0  0  0  0
   -9.6526   34.1709  -33.4241 H   0  0  0  0  0
  -10.3996   32.2766  -34.3309 H   0  0  0  0  0
   -8.8360   31.9106  -35.1396 H   0  0  0  0  0
   -9.3338   33.7933  -36.7252 H   0  0  0  0  0
  -10.9760   33.8708  -36.0045 H   0  0  0  0  0
   -9.8030   31.3335  -37.1391 H   0  0  0  0  0
  -10.7387   32.5117  -38.1314 H   0  0  0  0  0
  -12.1147   30.7460  -37.2936 H   0  0  0  0  0
  -11.7058   31.1198  -35.7220 H   0  0  0  0  0
  -12.5710   32.2091  -36.6395 H   0  0  0  0  0
   -7.0066   31.1473  -34.4528 H   0  0  0  0  0
   -4.3507   32.2029  -35.2390 H   0  0  0  0  0
   -7.0232   30.9083  -36.8788 H   0  0  0  0  0
   -5.4298   29.5370  -36.0671 H   0  0  0  0  0
   -4.7959   29.8649  -34.3643 H   0  0  0  0  0
   -3.2326   30.0510  -36.9484 H   0  0  0  0  0
   -2.6213   30.3673  -35.3061 H   0  0  0  0  0
   -3.1390   28.7258  -35.7627 H   0  0  0  0  0
  1  2  1  0  0  0
  2  3  1  0  0  0
  2  5  1  0  0  0
  3  4  2  0  0  0
  3  8  1  0  0  0
  5  6  1  0  0  0
  6  7  1  0  0  0
  8  9  1  0  0  0
  9 10  1  0  0  0
  9 12  1  0  0  0
 10 11  2  0  0  0
 10 19  1  0  0  0
 12 13  1  0  0  0
 13 14  1  0  0  0
 14 15  1  0  0  0
 15 16  1  0  0  0
 16 17  2  0  0  0
 16 18  1  0  0  0
 19 20  1  0  0  0
 20 21  1  0  0  0
 20 23  1  0  0  0
 21 22  2  0  0  0
 21 24  1  0  0  0
 24 25  1  0  0  0
 25 26  1  0  0  0
 25 28  1  0  0  0
 26 27  2  0  0  0
 26 33  1  0  0  0
 28 29  1  0  0  0
 29 30  1  0  0  0
 30 31  1  0  0  0
 31 32  1  0  0  0
 33 34  1  0  0  0
 34 35  1  0  0  0
 34 37  1  0  0  0
 35 36  2  0  0  0
 35 38  1  0  0  0
 38 39  1  0  0  0
 39 40  1  0  0  0
 39 42  1  0  0  0
 40 41  2  0  0  0
 40 49  1  0  0  0
 42 43  1  0  0  0
 43 44  1  0  0  0
 44 45  1  0  0  0
 45 46  1  0  0  0
 46 47  2  0  0  0
 46 48  1  0  0  0
 49 50  1  0  0  0
 50 51  1  0  0  0
 50 53  1  0  0  0
 51 52  2  0  0  0
 51 54  1  0  0  0
 54 55  1  0  0  0
 55 56  1  0  0  0
 55 58  1  0  0  0
 56 57  2  0  0  0
 56 60  1  0  0  0
 58 59  1  0  0  0
 60 61  1  0  0  0
 61 62  1  0  0  0
 61 64  1  0  0  0
 62 63  2  0  0  0
 62 69  1  0  0  0
 64 65  1  0  0  0
 65 66  1  0  0  0
 66 67  1  0  0  0
 67 68  1  0  0  0
 69 70  1  0  0  0
 70 71  1  0  0  0
 70 73  1  0  0  0
 71 72  1  0  0  0
 71 75  2  0  0  0
 73 74  1  0  0  0
  1 76  1  0  0  0
  1 77  1  0  0  0
  1 78  1  0  0  0
  2 79  1  0  0  0
  5 80  1  0  0  0
  5 81  1  0  0  0
  6 82  1  0  0  0
  6 83  1  0  0  0
  7 84  1  0  0  0
  8 85  1  0  0  0
  9 86  1  0  0  0
 12 87  1  0  0  0
 12 88  1  0  0  0
 13 89  1  0  0  0
 13 90  1  0  0  0
 14 91  1  0  0  0
 14 92  1  0  0  0
 15 93  1  0  0  0
 17 94  1  0  0  0
 18 95  1  0  0  0
 18 96  1  0  0  0
 19 97  1  0  0  0
 20 98  1  0  0  0
 23 99  1  0  0  0
 23100  1  0  0  0
 23101  1  0  0  0
 24102  1  0  0  0
 25103  1  0  0  0
 28104  1  0  0  0
 28105  1  0  0  0
 29106  1  0  0  0
 29107  1  0  0  0
 30108  1  0  0  0
 30109  1  0  0  0
 31110  1  0  0  0
 31111  1  0  0  0
 32112  1  0  0  0
 32113  1  0  0  0
 32114  1  0  0  0
 33115  1  0  0  0
 34116  1  0  0  0
 37117  1  0  0  0
 37118  1  0  0  0
 37119  1  0  0  0
 38120  1  0  0  0
 39121  1  0  0  0
 42122  1  0  0  0
 42123  1  0  0  0
 43124  1  0  0  0
 43125  1  0  0  0
 44126  1  0  0  0
 44127  1  0  0  0
 45128  1  0  0  0
 47129  1  0  0  0
 48130  1  0  0  0
 48131  1  0  0  0
 49132  1  0  0  0
 50133  1  0  0  0
 53134  1  0  0  0
 53135  1  0  0  0
 53136  1  0  0  0
 54137  1  0  0  0
 55138  1  0  0  0
 58139  1  0  0  0
 58140  1  0  0  0
 59141  1  0  0  0
 59142  1  0  0  0
 59143  1  0  0  0
 60144  1  0  0  0
 61145  1  0  0  0
 64146  1  0  0  0
 64147  1  0  0  0
 65148  1  0  0  0
 65149  1  0  0  0
 66150  1  0  0  0
 66151  1  0  0  0
 67152  1  0  0  0
 67153  1  0  0  0
 68154  1  0  0  0
 68155  1  0  0  0
 68156  1  0  0  0
 69157  1  0  0  0
 70158  1  0  0  0
 72159  1  0  0  0
 73160  1  0  0  0
 73161  1  0  0  0
 74162  1  0  0  0
 74163  1  0  0  0
 74164  1  0  0  0
M  END
$$$$
