3e73_ligand
  -I-interpret- 

 44 43  0  0  0  0  0  0  0  0999 V2000
  131.6490  259.8990  136.2730 N   0  3  0  0  0
  130.9910  258.6880  136.7230 C   0  0  0  0  0
  129.7420  259.0470  137.4720 C   0  0  0  0  0
  129.8450  259.7500  138.5000 O   0  0  0  0  0
  128.6460  258.6290  137.0390 O   0  0  0  0  0
  131.9280  257.9110  137.6400 C   0  0  0  0  0
  132.7910  256.9400  136.8430 C   0  0  0  0  0
  133.0850  255.6810  137.6510 C   0  0  0  0  0
  131.8960  254.8900  137.7510 O   0  0  0  0  0
  134.1270  254.9080  137.0030 N   0  3  0  0  0
  133.9010  254.3470  135.6850 C   0  0  0  0  0
  134.2660  252.8680  135.6790 C   0  0  0  0  0
  135.4910  252.6820  134.9600 O   0  0  0  0  0
  134.7100  255.1140  134.6460 C   0  0  0  0  0
  134.1400  254.8040  132.9570 S   0  0  0  0  0
  134.4260  252.3910  137.0380 N   0  3  0  0  0
  135.7530  252.1570  137.5730 C   0  0  0  0  0
  135.6970  251.5500  138.9550 C   0  0  0  0  0
  136.7680  251.2030  139.4980 O   0  0  0  0  0
  134.5810  251.4170  139.5030 O   0  0  0  0  0
  131.0208  260.4180  135.6594 H   0  0  0  0  0
  131.8894  260.4740  137.0804 H   0  0  0  0  0
  132.4981  259.6540  135.7637 H   0  0  0  0  0
  130.7337  258.0723  135.8611 H   0  0  0  0  0
  128.7936  258.1116  136.2439 H   0  0  0  0  0
  131.3291  257.3432  138.3520 H   0  0  0  0  0
  132.5799  258.6175  138.1538 H   0  0  0  0  0
  133.7348  257.4286  136.6008 H   0  0  0  0  0
  132.2542  256.6571  135.9375 H   0  0  0  0  0
  133.4202  255.9666  138.6481 H   0  0  0  0  0
  131.2071  255.4027  138.1801 H   0  0  0  0  0
  134.2550  254.0961  137.6070 H   0  0  0  0  0
  134.8908  255.5708  136.8703 H   0  0  0  0  0
  132.8451  254.4390  135.4306 H   0  0  0  0  0
  133.4677  252.3051  135.1953 H   0  0  0  0  0
  135.7204  251.7498  134.9566 H   0  0  0  0  0
  135.7466  254.7847  134.7168 H   0  0  0  0  0
  134.5954  256.1787  134.8495 H   0  0  0  0  0
  134.8856  255.5009  132.1042 H   0  0  0  0  0
  133.9850  251.4713  137.0389 H   0  0  0  0  0
  134.0460  253.1396  137.6173 H   0  0  0  0  0
  136.2714  253.1136  137.6380 H   0  0  0  0  0
  136.2726  251.4625  136.9129 H   0  0  0  0  0
  133.8962  251.7454  138.9158 H   0  0  0  0  0
  1  2  1  0  0  0
  2  3  1  0  0  0
  2  6  1  0  0  0
  3  4  2  0  0  0
  3  5  1  0  0  0
  6  7  1  0  0  0
  7  8  1  0  0  0
  8  9  1  0  0  0
  8 10  1  0  0  0
 10 11  1  0  0  0
 11 12  1  0  0  0
 11 14  1  0  0  0
 12 13  1  0  0  0
 12 16  1  0  0  0
 14 15  1  0  0  0
 16 17  1  0  0  0
 17 18  1  0  0  0
 18 19  2  0  0  0
 18 20  1  0  0  0
  1 21  1  0  0  0
  1 22  1  0  0  0
  1 23  1  0  0  0
  2 24  1  0  0  0
  5 25  1  0  0  0
  6 26  1  0  0  0
  6 27  1  0  0  0
  7 28  1  0  0  0
  7 29  1  0  0  0
  8 30  1  0  0  0
  9 31  1  0  0  0
 10 32  1  0  0  0
 10 33  1  0  0  0
 11 34  1  0  0  0
 12 35  1  0  0  0
 13 36  1  0  0  0
 14 37  1  0  0  0
 14 38  1  0  0  0
 15 39  1  0  0  0
 16 40  1  0  0  0
 16 41  1  0  0  0
 17 42  1  0  0  0
 17 43  1  0  0  0
 20 44  1  0  0  0
M  END
$$$$
