1bmn_ligand
  -I-interpret- 

 71 74  0  0  0  0  0  0  0  0999 V2000
   55.5370   19.1170   24.6810 C   0  0  0  0  0
   55.4540   20.3230   25.1070 C   0  0  0  0  0
   54.2620   22.5190   25.2530 C   0  0  0  0  0
   53.1930   23.2790   24.8610 C   0  0  0  0  0
   52.3570   22.7830   23.9360 C   0  0  0  0  0
   52.5390   21.5670   23.4700 C   0  0  0  0  0
   53.5880   19.3990   23.3410 C   0  0  0  0  0
   54.5820   18.6260   23.7830 C   0  0  0  0  0
   54.4240   21.1480   24.7320 C   0  0  0  0  0
   53.5240   20.7250   23.8120 C   0  0  0  0  0
   56.7000   18.2600   25.0930 S   0  0  0  0  0
   56.6300   16.8560   25.0360 O   0  0  0  0  0
   57.1850   18.4850   26.5060 O   0  0  0  0  0
   57.8950   18.7220   23.7340 N   0  0  0  0  0
   58.7780   19.5890   23.5690 C   0  0  0  0  0
   59.9170   19.2350   22.7260 C   0  0  0  0  0
   60.7850   18.1220   23.4170 O   0  0  0  0  0
   58.0230   20.7270   22.6610 C   0  0  0  0  0
   57.4400   20.2500   21.4730 O   0  0  0  0  0
   57.9520   21.8170   22.8970 N   0  0  0  0  0
   58.2300   22.3280   24.1530 C   0  0  0  0  0
   57.9250   23.8430   24.1400 C   0  0  0  0  0
   57.0790   24.0950   23.2510 C   0  0  0  0  0
   57.5030   22.9480   22.2540 C   0  0  0  0  0
   58.5680   23.5450   21.2600 C   0  0  0  0  0
   58.5860   22.4530   20.0900 N   0  0  0  0  0
   59.3950   21.6300   19.8090 C   0  0  0  0  0
   60.2050   21.7390   20.5730 O   0  0  0  0  0
   59.4870   20.3580   18.9910 C   0  0  0  0  0
   60.6780   19.5970   19.3770 C   0  0  0  0  0
   60.6140   18.4390   18.6560 N   0  0  0  0  0
   60.3960   18.5600   17.4550 C   0  0  0  0  0
   59.4920   19.1930   16.9900 C   0  0  0  0  0
   59.4690   20.4790   17.5640 C   0  0  0  0  0
   60.5970   17.1690   19.2200 C   0  0  0  0  0
   60.6400   16.9040   20.5280 N   0  0  0  0  0
   60.6120   16.0540   18.3630 N   0  0  0  0  0
   56.2201   20.7022   25.7834 H   0  0  0  0  0
   54.9938   22.9268   25.9503 H   0  0  0  0  0
   53.0245   24.2662   25.2912 H   0  0  0  0  0
   51.5271   23.3881   23.5709 H   0  0  0  0  0
   51.8189   21.2091   22.7342 H   0  0  0  0  0
   52.8487   19.0162   22.6374 H   0  0  0  0  0
   54.6515   17.5941   23.4387 H   0  0  0  0  0
   57.8030   18.1121   22.9217 H   0  0  0  0  0
   59.1628   19.8300   24.5599 H   0  0  0  0  0
   60.5331   20.1208   22.5714 H   0  0  0  0  0
   59.5489   18.8570   21.7722 H   0  0  0  0  0
   61.5285   17.9005   22.8515 H   0  0  0  0  0
   59.2780   22.1601   24.4010 H   0  0  0  0  0
   57.6160   21.8298   24.9032 H   0  0  0  0  0
   58.8420   24.3948   23.9334 H   0  0  0  0  0
   57.5289   24.1405   25.1109 H   0  0  0  0  0
   57.0930   25.1083   22.8496 H   0  0  0  0  0
   56.0360   24.0934   23.5677 H   0  0  0  0  0
   56.6293   22.6094   21.6972 H   0  0  0  0  0
   59.5446   23.7007   21.7183 H   0  0  0  0  0
   58.3165   24.5463   20.9103 H   0  0  0  0  0
   57.7654   22.4660   19.4843 H   0  0  0  0  0
   58.5549   19.8481   19.2342 H   0  0  0  0  0
   60.6997   19.4018   20.4492 H   0  0  0  0  0
   61.5934   20.1504   19.1675 H   0  0  0  0  0
   60.1495   17.5413   17.1558 H   0  0  0  0  0
   61.2715   19.1101   17.1102 H   0  0  0  0  0
   58.5501   18.6863   17.2004 H   0  0  0  0  0
   59.6289   19.2806   15.9122 H   0  0  0  0  0
   60.3414   21.0428   17.2336 H   0  0  0  0  0
   58.5651   21.0025   17.2526 H   0  0  0  0  0
   60.6898   17.6681   21.2018 H   0  0  0  0  0
   60.6537   15.1121   18.7522 H   0  0  0  0  0
   60.5812   16.1872   17.3522 H   0  0  0  0  0
  2  1  4  0  0  0
  1  8  4  0  0  0
  1 11  1  0  0  0
  9  2  4  0  0  0
  3  4  4  0  0  0
  3  9  4  0  0  0
  4  5  4  0  0  0
  5  6  4  0  0  0
  6 10  4  0  0  0
  8  7  4  0  0  0
  7 10  4  0  0  0
  9 10  4  0  0  0
 11 12  2  0  0  0
 11 13  2  0  0  0
 11 14  1  0  0  0
 14 15  1  0  0  0
 15 16  1  0  0  0
 15 18  1  0  0  0
 16 17  1  0  0  0
 18 19  2  0  0  0
 18 20  1  0  0  0
 20 21  1  0  0  0
 20 24  1  0  0  0
 21 22  1  0  0  0
 22 23  1  0  0  0
 23 24  1  0  0  0
 24 25  1  0  0  0
 25 26  1  0  0  0
 26 27  1  0  0  0
 27 28  2  0  0  0
 27 29  1  0  0  0
 29 30  1  0  0  0
 29 34  1  0  0  0
 30 31  1  0  0  0
 31 32  1  0  0  0
 31 35  1  0  0  0
 32 33  1  0  0  0
 33 34  1  0  0  0
 35 36  2  0  0  0
 35 37  1  0  0  0
  2 38  1  0  0  0
  3 39  1  0  0  0
  4 40  1  0  0  0
  5 41  1  0  0  0
  6 42  1  0  0  0
  7 43  1  0  0  0
  8 44  1  0  0  0
 14 45  1  0  0  0
 15 46  1  0  0  0
 16 47  1  0  0  0
 16 48  1  0  0  0
 17 49  1  0  0  0
 21 50  1  0  0  0
 21 51  1  0  0  0
 22 52  1  0  0  0
 22 53  1  0  0  0
 23 54  1  0  0  0
 23 55  1  0  0  0
 24 56  1  0  0  0
 25 57  1  0  0  0
 25 58  1  0  0  0
 26 59  1  0  0  0
 29 60  1  0  0  0
 30 61  1  0  0  0
 30 62  1  0  0  0
 32 63  1  0  0  0
 32 64  1  0  0  0
 33 65  1  0  0  0
 33 66  1  0  0  0
 34 67  1  0  0  0
 34 68  1  0  0  0
 36 69  1  0  0  0
 37 70  1  0  0  0
 37 71  1  0  0  0
M  END
$$$$
