5fqs_ligand
  -I-interpret- 

 55 57  0  0  0  0  0  0  0  0999 V2000
   11.2460   21.6220   65.8500 C   0  0  0  0  0
   11.1120   21.8060   64.3260 C   0  0  0  0  0
   10.5020   20.5440   63.7220 C   0  0  0  0  0
   12.5180   21.9330   63.6450 C   0  0  0  0  0
   13.2490   23.0800   64.1580 N   0  3  0  0  0
   12.8520   24.3070   63.3530 C   0  0  0  0  0
   13.4340   25.5610   64.0310 C   0  0  0  0  0
   14.9540   25.3890   64.2950 C   0  0  0  0  0
   15.6810   26.5630   64.4640 C   0  0  0  0  0
   17.0290   26.4080   64.7360 C   0  0  0  0  0
   17.6300   25.1880   64.8180 C   0  0  0  0  0
   16.9290   24.0100   64.6290 C   0  0  0  0  0
   15.5400   24.1540   64.3550 C   0  0  0  0  0
   14.7570   22.8710   64.1820 C   0  0  0  0  0
   15.1730   22.2790   62.8110 C   0  0  0  0  0
   15.0080   21.9870   65.3770 C   0  0  0  0  0
   15.5070   20.7000   65.1960 C   0  0  0  0  0
   15.6840   19.8930   66.3160 C   0  0  0  0  0
   15.4080   20.3700   67.5960 C   0  0  0  0  0
   14.9270   21.6340   67.7630 C   0  0  0  0  0
   14.6950   22.4780   66.6500 C   0  0  0  0  0
   15.6450   19.4750   68.7900 C   0  0  0  0  0
   15.9680   20.0820   69.9590 C   0  0  0  0  0
   16.1240   18.9800   71.0520 C   0  0  0  0  0
   16.4610   19.3630   72.2040 O   0  0  0  0  0
   15.8180   17.8070   70.6820 O   0  0  0  0  0
   17.7650   27.5490   64.9670 O   0  0  0  0  0
   11.8163   20.7164   66.0566 H   0  0  0  0  0
   11.7624   22.4829   66.2746 H   0  0  0  0  0
   10.2537   21.5370   66.2931 H   0  0  0  0  0
   10.5089   22.6990   64.1621 H   0  0  0  0  0
   10.4200   20.6629   62.6416 H   0  0  0  0  0
   11.1403   19.6897   63.9474 H   0  0  0  0  0
    9.5116   20.3814   64.1472 H   0  0  0  0  0
   12.3745   22.0633   62.5724 H   0  0  0  0  0
   13.0911   21.0310   63.8594 H   0  0  0  0  0
   12.9934   23.2146   65.1363 H   0  0  0  0  0
   11.7655   24.3829   63.3103 H   0  0  0  0  0
   13.2419   24.2231   62.3386 H   0  0  0  0  0
   12.9266   25.7132   64.9836 H   0  0  0  0  0
   13.2861   26.4173   63.3729 H   0  0  0  0  0
   15.2166   27.5461   64.3868 H   0  0  0  0  0
   18.6961   25.1384   65.0394 H   0  0  0  0  0
   17.4102   23.0337   64.6864 H   0  0  0  0  0
   14.9327   22.9909   62.0213 H   0  0  0  0  0
   16.2453   22.0833   62.8115 H   0  0  0  0  0
   14.6325   21.3481   62.6396 H   0  0  0  0  0
   15.7535   20.3327   64.1998 H   0  0  0  0  0
   16.0441   18.8719   66.1900 H   0  0  0  0  0
   14.7178   22.0007   68.7679 H   0  0  0  0  0
   14.2852   23.4796   66.7805 H   0  0  0  0  0
   15.5602   18.3909   68.7153 H   0  0  0  0  0
   16.0963   21.1540   70.1088 H   0  0  0  0  0
   15.6041   17.8134   69.7462 H   0  0  0  0  0
   18.6780   27.3095   65.1422 H   0  0  0  0  0
  1  2  1  0  0  0
  2  3  1  0  0  0
  2  4  1  0  0  0
  4  5  1  0  0  0
  5  6  1  0  0  0
  5 14  1  0  0  0
  6  7  1  0  0  0
  7  8  1  0  0  0
  8  9  4  0  0  0
  8 13  4  0  0  0
  9 10  4  0  0  0
 10 11  4  0  0  0
 10 27  1  0  0  0
 11 12  4  0  0  0
 12 13  4  0  0  0
 13 14  1  0  0  0
 14 15  1  0  0  0
 14 16  1  0  0  0
 16 17  4  0  0  0
 16 21  4  0  0  0
 17 18  4  0  0  0
 18 19  4  0  0  0
 19 20  4  0  0  0
 19 22  1  0  0  0
 20 21  4  0  0  0
 22 23  2  0  0  0
 23 24  1  0  0  0
 24 25  2  0  0  0
 24 26  1  0  0  0
  1 28  1  0  0  0
  1 29  1  0  0  0
  1 30  1  0  0  0
  2 31  1  0  0  0
  3 32  1  0  0  0
  3 33  1  0  0  0
  3 34  1  0  0  0
  4 35  1  0  0  0
  4 36  1  0  0  0
  5 37  1  0  0  0
  6 38  1  0  0  0
  6 39  1  0  0  0
  7 40  1  0  0  0
  7 41  1  0  0  0
  9 42  1  0  0  0
 11 43  1  0  0  0
 12 44  1  0  0  0
 15 45  1  0  0  0
 15 46  1  0  0  0
 15 47  1  0  0  0
 17 48  1  0  0  0
 18 49  1  0  0  0
 20 50  1  0  0  0
 21 51  1  0  0  0
 22 52  1  0  0  0
 23 53  1  0  0  0
 26 54  1  0  0  0
 27 55  1  0  0  0
M  END
$$$$
