1ogg_ligand
  -I-interpret- 

 87 90  0  0  0  0  0  0  0  0999 V2000
   12.9630   37.1140  104.7490 C   0  0  0  0  0
   11.5400   36.5410  104.5400 C   0  0  0  0  0
   11.1830   35.5080  105.6220 C   0  0  0  0  0
   12.3130   34.4830  105.8290 C   0  0  0  0  0
   13.6480   35.2040  106.0570 C   0  0  0  0  0
   14.7660   34.1710  106.2210 C   0  0  0  0  0
   10.1590   38.3260  103.5710 C   0  0  0  0  0
    9.1330   39.4220  103.8860 C   0  0  0  0  0
   10.5610   37.6330  104.6240 N   0  0  0  0  0
   10.8960   36.1760  106.8500 O   0  0  0  0  0
   12.0130   33.6660  106.9720 O   0  0  0  0  0
   13.9310   36.0380  104.9060 O   0  0  0  0  0
   16.0040   34.8450  106.4560 O   0  0  0  0  0
   10.5620   38.1320  102.4240 O   0  0  0  0  0
   16.7650   40.4570  103.3920 C   0  0  0  0  0
   16.8830   39.2580  104.3450 C   0  0  0  0  0
   15.7950   38.2250  104.0160 C   0  0  0  0  0
   14.3840   38.8900  103.9920 C   0  0  0  0  0
   14.4110   40.0720  103.0110 C   0  0  0  0  0
   13.0660   40.8070  102.9920 C   0  0  0  0  0
   19.1370   38.6190  105.0800 C   0  0  0  0  0
   20.5360   38.0860  104.7480 C   0  0  0  0  0
   18.2210   38.6740  104.1160 N   0  0  0  0  0
   16.0820   37.6620  102.7330 O   0  0  0  0  0
   13.3390   37.9400  103.6140 O   0  0  0  0  0
   15.4330   41.0320  103.4000 O   0  0  0  0  0
   13.1460   41.8690  102.0280 O   0  0  0  0  0
   18.8890   39.0400  106.2150 O   0  0  0  0  0
   19.3240   44.4340  102.3590 C   0  0  0  0  0
   17.8210   44.6760  101.9940 C   0  0  0  0  0
   17.0460   43.5900  102.7400 C   0  0  0  0  0
   17.9880   42.3860  102.8000 C   0  0  0  0  0
   19.2770   43.1030  103.1380 C   0  0  0  0  0
   20.5230   42.2160  102.9550 C   0  0  0  0  0
   18.6070   46.3770  103.3090 C   0  0  0  0  0
   19.8310   47.9440  104.7160 C   0  0  0  0  0
   17.4440   48.4260  104.0000 C   0  0  0  0  0
   17.5590   45.9740  102.5980 N   0  0  0  0  0
   18.6240   47.5330  103.9970 N   0  0  0  0  0
   15.8700   43.2600  102.0090 O   0  0  0  0  0
   17.7060   41.4210  103.8300 O   0  0  0  0  0
   20.5490   41.6970  101.6170 O   0  0  0  0  0
   19.6680   45.5100  103.3080 O   0  0  0  0  0
   12.9579   37.7202  105.6549 H   0  0  0  0  0
   11.5176   36.0589  103.5626 H   0  0  0  0  0
   10.3015   34.9618  105.2862 H   0  0  0  0  0
   12.3929   33.8595  104.9385 H   0  0  0  0  0
   13.5884   35.8167  106.9565 H   0  0  0  0  0
   14.8441   33.5720  105.3137 H   0  0  0  0  0
   14.5396   33.5205  107.0658 H   0  0  0  0  0
    9.5388   40.3916  103.5975 H   0  0  0  0  0
    8.2159   39.2303  103.3290 H   0  0  0  0  0
    8.9178   39.4202  104.9545 H   0  0  0  0  0
   10.1727   37.8682  105.5374 H   0  0  0  0  0
   10.1908   36.8121  106.7097 H   0  0  0  0  0
   11.1778   33.2142  106.8307 H   0  0  0  0  0
   16.7051   34.1974  106.5589 H   0  0  0  0  0
   16.9585   40.1330  102.3694 H   0  0  0  0  0
   16.7567   39.5598  105.3847 H   0  0  0  0  0
   15.7900   37.4505  104.7829 H   0  0  0  0  0
   14.1478   39.2396  104.9970 H   0  0  0  0  0
   14.6240   39.6631  102.0233 H   0  0  0  0  0
   12.8483   41.2140  103.9795 H   0  0  0  0  0
   12.2665   40.1168  102.7225 H   0  0  0  0  0
   21.2706   38.8762  104.9027 H   0  0  0  0  0
   20.7657   37.2421  105.3985 H   0  0  0  0  0
   20.5626   37.7621  103.7076 H   0  0  0  0  0
   18.4488   38.3028  103.1937 H   0  0  0  0  0
   15.4100   37.0131  102.5120 H   0  0  0  0  0
   12.3102   42.3407  102.0031 H   0  0  0  0  0
   20.0189   44.4145  101.5195 H   0  0  0  0  0
   17.5664   44.6510  100.9345 H   0  0  0  0  0
   16.7390   43.9091  103.7360 H   0  0  0  0  0
   17.9473   41.7885  101.8893 H   0  0  0  0  0
   19.2927   43.3380  104.2023 H   0  0  0  0  0
   20.4877   41.3893  103.6646 H   0  0  0  0  0
   21.4202   42.8091  103.1320 H   0  0  0  0  0
   18.6284   47.4158  103.6383 H   0  0  0  0  0
   20.0818   47.1906  105.4628 H   0  0  0  0  0
   20.6555   48.0466  104.0104 H   0  0  0  0  0
   19.6514   48.8998  105.2083 H   0  0  0  0  0
   17.2226   48.7368  102.9790 H   0  0  0  0  0
   16.5875   47.8929  104.4127 H   0  0  0  0  0
   17.6558   49.3038  104.6105 H   0  0  0  0  0
   16.7506   45.8951  103.2150 H   0  0  0  0  0
   15.3838   42.5779  102.4781 H   0  0  0  0  0
   21.3259   41.1445  101.5043 H   0  0  0  0  0
  1  2  1  0  0  0
  1 12  1  0  0  0
 25  1  1  0  0  0
  2  3  1  0  0  0
  2  9  1  0  0  0
  3  4  1  0  0  0
  3 10  1  0  0  0
  5  4  1  0  0  0
  4 11  1  0  0  0
  5  6  1  0  0  0
 12  5  1  0  0  0
  6 13  1  0  0  0
  7  8  1  0  0  0
  9  7  1  0  0  0
  7 14  2  0  0  0
 15 16  1  0  0  0
 15 26  1  0  0  0
 41 15  1  0  0  0
 16 17  1  0  0  0
 16 23  1  0  0  0
 17 18  1  0  0  0
 17 24  1  0  0  0
 19 18  1  0  0  0
 18 25  1  0  0  0
 19 20  1  0  0  0
 26 19  1  0  0  0
 20 27  1  0  0  0
 21 22  1  0  0  0
 23 21  1  0  0  0
 21 28  2  0  0  0
 29 30  1  0  0  0
 33 29  1  0  0  0
 29 43  1  0  0  0
 31 30  1  0  0  0
 30 38  1  0  0  0
 32 31  1  0  0  0
 31 40  1  0  0  0
 32 33  1  0  0  0
 32 41  1  0  0  0
 33 34  1  0  0  0
 34 42  1  0  0  0
 38 35  1  0  0  0
 35 39  1  0  0  0
 35 43  1  0  0  0
 39 36  1  0  0  0
 39 37  1  0  0  0
  1 44  1  0  0  0
  2 45  1  0  0  0
  3 46  1  0  0  0
  4 47  1  0  0  0
  5 48  1  0  0  0
  6 49  1  0  0  0
  6 50  1  0  0  0
  8 51  1  0  0  0
  8 52  1  0  0  0
  8 53  1  0  0  0
  9 54  1  0  0  0
 10 55  1  0  0  0
 11 56  1  0  0  0
 13 57  1  0  0  0
 15 58  1  0  0  0
 16 59  1  0  0  0
 17 60  1  0  0  0
 18 61  1  0  0  0
 19 62  1  0  0  0
 20 63  1  0  0  0
 20 64  1  0  0  0
 22 65  1  0  0  0
 22 66  1  0  0  0
 22 67  1  0  0  0
 23 68  1  0  0  0
 24 69  1  0  0  0
 27 70  1  0  0  0
 29 71  1  0  0  0
 30 72  1  0  0  0
 31 73  1  0  0  0
 32 74  1  0  0  0
 33 75  1  0  0  0
 34 76  1  0  0  0
 34 77  1  0  0  0
 35 78  1  0  0  0
 36 79  1  0  0  0
 36 80  1  0  0  0
 36 81  1  0  0  0
 37 82  1  0  0  0
 37 83  1  0  0  0
 37 84  1  0  0  0
 38 85  1  0  0  0
 40 86  1  0  0  0
 42 87  1  0  0  0
M  END
$$$$
