4ieh_ligand
  -I-interpret- 

105111  0  0  0  0  0  0  0  0999 V2000
   18.5280   28.9190   14.8660 C   0  0  0  0  0
   18.1140   28.2640   13.5310 C   0  0  0  0  0
   19.8550   28.4210   15.4680 C   0  0  0  0  0
   16.9500   29.0550   12.8750 C   0  0  0  0  0
   15.3120   29.0010   13.6980 S   0  0  0  0  0
   14.5890   27.4470   13.3110 C   0  0  0  0  0
   20.0670   29.0160   16.7910 N   0  3  0  0  0
   21.3510   28.5690   17.3210 C   0  0  0  0  0
   20.0370   30.4790   16.7390 C   0  0  0  0  0
   14.5270   26.4370   14.2880 C   0  0  0  0  0
   13.9430   25.1980   13.9580 C   0  0  0  0  0
   13.4170   24.9840   12.6670 C   0  0  0  0  0
   13.4830   26.0010   11.6930 C   0  0  0  0  0
   14.0670   27.2410   12.0170 C   0  0  0  0  0
   17.7730   26.8500   13.6910 N   0  0  0  0  0
   17.7960   25.4680   10.2840 C   0  0  0  0  0
   17.4400   24.1380   10.5480 C   0  0  0  0  0
   17.1880   23.6930   11.8530 C   0  0  0  0  0
   17.2840   24.5860   12.9420 C   0  0  0  0  0
   17.6610   25.9390   12.6970 C   0  0  0  0  0
   17.9070   26.3550   11.3620 C   0  0  0  0  0
   17.2720   22.9680    9.2190 S   0  0  0  0  0
   17.5200   21.6180    9.7480 O   0  0  0  0  0
   17.9560   23.4940    8.0190 O   0  0  0  0  0
    2.9550   21.1080    8.6090 C   0  0  0  0  0
    3.0610   21.8890    9.7830 C   0  0  0  0  0
    3.7240   23.1410    9.7690 C   0  0  0  0  0
    4.2630   23.6220    8.5360 C   0  0  0  0  0
    4.1670   22.8320    7.3620 C   0  0  0  0  0
    3.5150   21.5820    7.4000 C   0  0  0  0  0
    3.7490   23.8430   11.0710 C   0  0  0  0  0
    3.1430   25.1140   11.2380 C   0  0  0  0  0
    3.1390   25.7560   12.4980 C   0  0  0  0  0
    3.7350   25.1250   13.6070 C   0  0  0  0  0
    4.3470   23.8610   13.4600 C   0  0  0  0  0
    4.3460   23.2190   12.1970 C   0  0  0  0  0
    5.0080   24.9530    8.4540 C   0  0  0  0  0
    6.4340   24.7110    8.1910 N   0  3  0  0  0
    7.0020   23.7500    9.1470 C   0  0  0  0  0
    8.4300   23.3730    8.6670 C   0  0  0  0  0
    9.3110   24.5470    8.4850 N   0  0  0  0  0
    8.6380   25.6170    7.7360 C   0  0  0  0  0
    7.2300   25.9460    8.2850 C   0  0  0  0  0
   10.6590   24.4120    8.4790 C   0  0  0  0  0
   11.5150   25.4910    8.1320 C   0  0  0  0  0
   12.6180   22.9400    8.8570 C   0  0  0  0  0
   11.2200   23.1470    8.8220 C   0  0  0  0  0
   13.4360   24.0290    8.5230 C   0  0  0  0  0
   12.8970   25.2590    8.1780 C   0  0  0  0  0
   14.2300   26.3450    7.8280 S   0  0  0  0  0
   15.4070   25.2220    8.1490 N   0  0  0  0  0
   14.9070   24.0790    8.4920 C   0  0  0  0  0
   15.6240   22.9350    8.8120 N   0  0  0  0  0
   14.2530   26.6290    6.3790 O   0  0  0  0  0
   14.2600   27.4690    8.7750 O   0  0  0  0  0
    3.7250   25.9000   15.1510 Cl  0  0  0  0  0
   17.0200   24.0410   14.2900 N   0  0  0  0  0
   17.1470   24.7930   15.2510 O   0  0  0  0  0
   16.6410   22.8830   14.3960 O   0  0  0  0  0
   17.7488   28.6716   15.5870 H   0  0  0  0  0
   18.6602   29.9815   14.6616 H   0  0  0  0  0
   18.9762   28.3033   12.8652 H   0  0  0  0  0
   20.6752   28.7109   14.8113 H   0  0  0  0  0
   19.8164   27.3362   15.5672 H   0  0  0  0  0
   16.8004   28.5966   11.8975 H   0  0  0  0  0
   17.2560   30.1008   12.9029 H   0  0  0  0  0
   19.3083   28.7114   17.4010 H   0  0  0  0  0
   22.1532   28.9248   16.6744 H   0  0  0  0  0
   21.4874   28.9698   18.3254 H   0  0  0  0  0
   21.3681   27.4798   17.3576 H   0  0  0  0  0
   20.1733   30.8799   17.7434 H   0  0  0  0  0
   20.8391   30.8348   16.0924 H   0  0  0  0  0
   19.0763   30.8076   16.3426 H   0  0  0  0  0
   14.9256   26.6106   15.2875 H   0  0  0  0  0
   13.8976   24.4029   14.7022 H   0  0  0  0  0
   12.9569   24.0270   12.4210 H   0  0  0  0  0
   13.0838   25.8284   10.6935 H   0  0  0  0  0
   14.1152   28.0360   11.2729 H   0  0  0  0  0
   17.6038   26.5202   14.6413 H   0  0  0  0  0
   17.9820   25.8038    9.2638 H   0  0  0  0  0
   16.9165   22.6519   12.0279 H   0  0  0  0  0
   18.1893   27.3904   11.1714 H   0  0  0  0  0
    2.4442   20.1455    8.6357 H   0  0  0  0  0
    2.6261   21.5223   10.7128 H   0  0  0  0  0
    4.5983   23.1919    6.4279 H   0  0  0  0  0
    3.4425   20.9793    6.4947 H   0  0  0  0  0
    2.6741   25.6026   10.3839 H   0  0  0  0  0
    2.6760   26.7363   12.6105 H   0  0  0  0  0
    4.8193   23.3801   14.3166 H   0  0  0  0  0
    4.8077   22.2375   12.0893 H   0  0  0  0  0
    4.9013   25.4842    9.3998 H   0  0  0  0  0
    4.5890   25.5510    7.6447 H   0  0  0  0  0
    6.4796   24.3396    7.2421 H   0  0  0  0  0
    6.3767   22.8587    9.1981 H   0  0  0  0  0
    7.0463   24.1932   10.1418 H   0  0  0  0  0
    8.3342   22.8783    7.7005 H   0  0  0  0  0
    8.8788   22.7379    9.4308 H   0  0  0  0  0
    8.5221   25.2791    6.7062 H   0  0  0  0  0
    9.2469   26.5169    7.8232 H   0  0  0  0  0
    7.2886   26.2902    9.3176 H   0  0  0  0  0
    6.7684   26.7480    7.7089 H   0  0  0  0  0
   11.1132   26.4616    7.8413 H   0  0  0  0  0
   13.0423   21.9744    9.1321 H   0  0  0  0  0
   10.5541   22.3185    9.0634 H   0  0  0  0  0
   15.1409   22.0367    8.8023 H   0  0  0  0  0
  2  1  1  0  0  0
  1  3  1  0  0  0
  2  4  1  0  0  0
 15  2  1  0  0  0
  3  7  1  0  0  0
  4  5  1  0  0  0
  5  6  1  0  0  0
  6 10  4  0  0  0
  6 14  4  0  0  0
  7  8  1  0  0  0
  7  9  1  0  0  0
 10 11  4  0  0  0
 11 12  4  0  0  0
 13 12  4  0  0  0
 14 13  4  0  0  0
 20 15  1  0  0  0
 17 16  4  0  0  0
 16 21  4  0  0  0
 17 18  4  0  0  0
 22 17  1  0  0  0
 18 19  4  0  0  0
 19 20  4  0  0  0
 19 57  1  0  0  0
 21 20  4  0  0  0
 22 23  2  0  0  0
 22 24  2  0  0  0
 53 22  1  0  0  0
 26 25  4  0  0  0
 30 25  4  0  0  0
 27 26  4  0  0  0
 28 27  4  0  0  0
 27 31  1  0  0  0
 28 29  4  0  0  0
 37 28  1  0  0  0
 29 30  4  0  0  0
 31 32  4  0  0  0
 31 36  4  0  0  0
 32 33  4  0  0  0
 33 34  4  0  0  0
 35 34  4  0  0  0
 34 56  1  0  0  0
 36 35  4  0  0  0
 38 37  1  0  0  0
 39 38  1  0  0  0
 43 38  1  0  0  0
 40 39  1  0  0  0
 41 40  1  0  0  0
 41 42  1  0  0  0
 44 41  1  0  0  0
 42 43  1  0  0  0
 45 44  4  0  0  0
 47 44  4  0  0  0
 49 45  4  0  0  0
 46 47  4  0  0  0
 48 46  4  0  0  0
 48 49  4  0  0  0
 52 48  1  0  0  0
 50 49  1  0  0  0
 51 50  1  0  0  0
 50 54  2  0  0  0
 50 55  2  0  0  0
 52 51  2  0  0  0
 52 53  1  0  0  0
 57 58  2  0  0  0
 57 59  2  0  0  0
  1 60  1  0  0  0
  1 61  1  0  0  0
  2 62  1  0  0  0
  3 63  1  0  0  0
  3 64  1  0  0  0
  4 65  1  0  0  0
  4 66  1  0  0  0
  7 67  1  0  0  0
  8 68  1  0  0  0
  8 69  1  0  0  0
  8 70  1  0  0  0
  9 71  1  0  0  0
  9 72  1  0  0  0
  9 73  1  0  0  0
 10 74  1  0  0  0
 11 75  1  0  0  0
 12 76  1  0  0  0
 13 77  1  0  0  0
 14 78  1  0  0  0
 15 79  1  0  0  0
 16 80  1  0  0  0
 18 81  1  0  0  0
 21 82  1  0  0  0
 25 83  1  0  0  0
 26 84  1  0  0  0
 29 85  1  0  0  0
 30 86  1  0  0  0
 32 87  1  0  0  0
 33 88  1  0  0  0
 35 89  1  0  0  0
 36 90  1  0  0  0
 37 91  1  0  0  0
 37 92  1  0  0  0
 38 93  1  0  0  0
 39 94  1  0  0  0
 39 95  1  0  0  0
 40 96  1  0  0  0
 40 97  1  0  0  0
 42 98  1  0  0  0
 42 99  1  0  0  0
 43100  1  0  0  0
 43101  1  0  0  0
 45102  1  0  0  0
 46103  1  0  0  0
 47104  1  0  0  0
 53105  1  0  0  0
M  END
$$$$
