5lm6_ligand
  -I-interpret- 

 31 33  0  0  0  0  0  0  0  0999 V2000
  -25.2120    1.2090   60.5920 C   0  0  0  0  0
  -25.8900    0.0020   60.7330 C   0  0  0  0  0
  -25.3180   -1.0390   61.4430 C   0  0  0  0  0
  -24.0470   -0.9010   62.0330 C   0  0  0  0  0
  -23.3670    0.3150   61.8810 C   0  0  0  0  0
  -23.9470    1.3650   61.1730 C   0  0  0  0  0
  -21.9970    0.5400   62.5190 C   0  0  0  0  0
  -20.9190    0.2450   61.9390 O   0  0  0  0  0
  -21.9640    1.0630   63.6610 O   0  0  0  0  0
  -23.7800   -2.1950   62.6850 C   0  0  0  0  0
  -22.7660   -2.3830   63.2810 O   0  0  0  0  0
  -24.7510   -3.1610   62.5880 N   0  0  0  0  0
  -25.8100   -2.5510   61.7910 C   0  0  0  0  0
  -24.8060   -4.5330   63.0740 C   0  0  0  0  0
  -25.7250   -5.3920   62.4890 C   0  0  0  0  0
  -25.8190   -6.7160   62.8750 C   0  0  0  0  0
  -24.9860   -7.1990   63.8760 C   0  0  0  0  0
  -24.0550   -6.3410   64.4550 C   0  0  0  0  0
  -23.9610   -5.0150   64.0590 C   0  0  0  0  0
  -23.2240   -6.7890   65.4340 F   0  0  0  0  0
  -25.0780   -8.5530   64.2720 O   0  0  0  0  0
  -25.6628    2.0286   60.0325 H   0  0  0  0  0
  -26.8747   -0.1239   60.2828 H   0  0  0  0  0
  -23.4150    2.3108   61.0708 H   0  0  0  0  0
  -21.1134   -0.1427   61.0825 H   0  0  0  0  0
  -25.9891   -3.1215   60.8797 H   0  0  0  0  0
  -26.7516   -2.5373   62.3400 H   0  0  0  0  0
  -26.3865   -5.0151   61.7090 H   0  0  0  0  0
  -26.5422   -7.3767   62.3969 H   0  0  0  0  0
  -23.2258   -4.3560   64.5209 H   0  0  0  0  0
  -24.4397   -8.7258   64.9680 H   0  0  0  0  0
  1  2  4  0  0  0
  1  6  4  0  0  0
  2  3  4  0  0  0
  3  4  4  0  0  0
  3 13  1  0  0  0
  4  5  4  0  0  0
  4 10  1  0  0  0
  5  6  4  0  0  0
  5  7  1  0  0  0
  7  8  1  0  0  0
  7  9  2  0  0  0
 10 11  2  0  0  0
 10 12  1  0  0  0
 12 13  1  0  0  0
 12 14  1  0  0  0
 14 15  4  0  0  0
 14 19  4  0  0  0
 15 16  4  0  0  0
 16 17  4  0  0  0
 17 18  4  0  0  0
 17 21  1  0  0  0
 18 19  4  0  0  0
 18 20  1  0  0  0
  1 22  1  0  0  0
  2 23  1  0  0  0
  6 24  1  0  0  0
  8 25  1  0  0  0
 13 26  1  0  0  0
 13 27  1  0  0  0
 15 28  1  0  0  0
 16 29  1  0  0  0
 19 30  1  0  0  0
 21 31  1  0  0  0
M  END
$$$$
