### 
### Created by X-TOOL on Mon Aug  2 16:16:51 2021
### 

@<TRIPOS>MOLECULE
6seo_ligand
  271   276     1     0     0
SMALL
GAST_HUCK


@<TRIPOS>ATOM
      1 C         -11.5240   18.1470   11.5430 C.2       1 ACE         0.1751
      2 O         -12.1560   19.1860   11.3280 O.2       1 ACE        -0.3972
      3 CH3       -10.8690   17.3800   10.4020 C.3       1 ACE         0.0258
      4 N         -11.3610   17.6120   12.7500 N.am      1 ACE        -0.2656
      5 CA        -11.9230   18.1720   13.9870 C.3       1 ACE         0.1334
      6 C         -11.2960   19.5680   14.2900 C.2       1 ACE         0.2066
      7 O         -10.0790   19.7110   14.0940 O.2       1 ACE        -0.3942
      8 CB        -11.8210   17.1240   15.1550 C.3       1 ACE        -0.0062
      9 CG1       -10.4630   16.4170   15.1910 C.3       1 ACE        -0.0584
     10 CG2       -12.1980   17.6990   16.5220 C.3       1 ACE        -0.0584
     11 N         -12.0960   20.6270   14.6620 N.am      1 ACE        -0.2498
     12 CA        -11.4960   21.9550   14.9250 C.3       1 ACE         0.1338
     13 C         -10.3950   21.8720   15.9720 C.2       1 ACE         0.2041
     14 O         -10.5620   21.1240   16.9390 O.2       1 ACE        -0.3944
     15 CB        -12.6820   22.7860   15.4460 C.3       1 ACE        -0.0104
     16 CG        -13.8630   22.1240   14.9360 C.3       1 ACE        -0.0281
     17 CD        -13.5480   20.6620   14.9180 C.3       1 ACE         0.0369
     18 N          -9.2820   22.6210   15.7940 N.am      1 ACE        -0.2637
     19 CA         -8.1730   22.5540   16.7440 C.3       1 ACE         0.1312
     20 C          -8.5990   22.8020   18.1870 C.2       1 ACE         0.2039
     21 O          -8.1750   22.0420   19.0560 O.2       1 ACE        -0.3944
     22 CB         -7.0000   23.4360   16.3470 C.3       1 ACE        -0.0101
     23 CG         -5.7940   22.6850   15.7900 C.3       1 ACE        -0.0425
     24 CD1        -4.9030   23.6080   15.0070 C.3       1 ACE        -0.0625
     25 CD2        -4.9980   22.0000   16.8930 C.3       1 ACE        -0.0625
     26 N          -9.5170   23.7660   18.4290 N.am      1 ACE        -0.2637
     27 CA        -10.0430   24.0440   19.7730 C.3       1 ACE         0.1311
     28 C         -10.9080   22.8920   20.3620 C.2       1 ACE         0.2039
     29 O         -11.0350   22.7960   21.5820 O.2       1 ACE        -0.3944
     30 CB        -10.7940   25.3840   19.8110 C.3       1 ACE        -0.0092
     31 CG        -10.8040   26.0230   21.2000 C.3       1 ACE        -0.0156
     32 CD        -10.9220   27.5300   21.1470 C.3       1 ACE         0.0627
     33 NE         -9.6180   28.1870   21.2390 N.pl3     1 ACE        -0.2723
     34 CZ         -8.9020   28.6060   20.1950 C.cat     1 ACE         0.2882
     35 NH1        -9.3560   28.4380   18.9570 N.pl3     1 ACE        -0.2849
     36 NH2        -7.7270   29.1990   20.3830 N.pl3     1 ACE        -0.2849
     37 N         -11.4610   22.0130   19.5000 N.am      1 ACE        -0.2640
     38 CA        -12.3220   20.8810   19.8830 C.3       1 ACE         0.1282
     39 C         -11.5760   19.5300   20.0810 C.2       1 ACE         0.2036
     40 O         -12.1940   18.5350   20.4720 O.2       1 ACE        -0.3944
     41 CB        -13.4400   20.7270   18.8660 C.3       1 ACE        -0.0244
     42 N         -10.2570   19.5040   19.8280 N.am      1 ACE        -0.2637
     43 CA         -9.4190   18.3070   19.9670 C.3       1 ACE         0.1311
     44 C          -8.9500   18.1100   21.4240 C.2       1 ACE         0.2040
     45 O          -8.8820   19.0750   22.1920 O.2       1 ACE        -0.3944
     46 CB         -8.2020   18.3670   19.0120 C.3       1 ACE        -0.0092
     47 CG         -8.5530   18.6190   17.5490 C.3       1 ACE        -0.0156
     48 CD         -7.4590   18.2180   16.5800 C.3       1 ACE         0.0627
     49 NE         -7.8210   18.5700   15.2050 N.pl3     1 ACE        -0.2723
     50 CZ         -7.2930   18.0240   14.1110 C.cat     1 ACE         0.2882
     51 NH1        -6.3600   17.0840   14.2100 N.pl3     1 ACE        -0.2849
     52 NH2        -7.6930   18.4170   12.9080 N.pl3     1 ACE        -0.2849
     53 N          -8.6050   16.8600   21.7840 N.am      1 ACE        -0.2616
     54 CA         -8.1430   16.4420   23.1160 C.3       1 ACE         0.1476
     55 C          -6.7060   16.9390   23.3700 C.2       1 ACE         0.2063
     56 O          -5.7280   16.1920   23.2390 O.2       1 ACE        -0.3942
     57 CB         -8.3370   14.8930   23.2820 C.3       1 ACE         0.0773
     58 CG         -7.8280   14.2170   24.5520 C.2       1 ACE         0.1780
     59 OD1        -7.4040   13.0460   24.5200 O.2       1 ACE        -0.3970
     60 ND2        -7.8690   14.9100   25.6960 N.am      1 ACE        -0.3007
     61 N          -6.5870   18.2400   23.6930 N.am      1 ACE        -0.2636
     62 CA         -5.2990   18.9020   23.9420 C.3       1 ACE         0.1314
     63 C          -5.3760   19.7050   25.2460 C.2       1 ACE         0.2064
     64 O          -6.4600   20.2400   25.5190 O.2       1 ACE        -0.3942
     65 CB         -4.9470   19.8650   22.7800 C.3       1 ACE        -0.0101
     66 CG         -4.9260   19.3120   21.3660 C.3       1 ACE        -0.0425
     67 CD1        -5.0260   20.4140   20.3620 C.3       1 ACE        -0.0625
     68 CD2        -3.7090   18.4830   21.1250 C.3       1 ACE        -0.0625
     69 N          -4.2510   19.8650   26.0260 N.am      1 ACE        -0.2498
     70 CA         -4.3100   20.6550   27.2750 C.3       1 ACE         0.1340
     71 C          -4.8280   22.0840   27.0800 C.2       1 ACE         0.2066
     72 O          -4.6210   22.6430   25.9990 O.2       1 ACE        -0.3942
     73 CB         -2.8660   20.6170   27.7850 C.3       1 ACE        -0.0104
     74 CG         -2.3310   19.3490   27.2540 C.3       1 ACE        -0.0281
     75 CD         -2.9050   19.2780   25.8610 C.3       1 ACE         0.0369
     76 N          -5.5510   22.6600   28.0840 N.am      1 ACE        -0.2498
     77 CA         -6.1340   24.0120   27.9190 C.3       1 ACE         0.1338
     78 C          -5.1610   25.1280   27.5550 C.2       1 ACE         0.2042
     79 O          -5.5760   26.1340   26.9680 O.2       1 ACE        -0.3944
     80 CB         -6.7750   24.2810   29.2790 C.3       1 ACE        -0.0104
     81 CG         -7.0580   22.9260   29.8280 C.3       1 ACE        -0.0281
     82 CD         -5.8970   22.0950   29.4060 C.3       1 ACE         0.0369
     83 N          -3.8690   24.9400   27.9120 N.am      1 ACE        -0.2616
     84 CA         -2.7570   25.8530   27.6850 C.3       1 ACE         0.1539
     85 C          -2.4190   25.9890   26.2120 C.2       1 ACE         0.2063
     86 O          -1.8170   26.9890   25.8140 O.2       1 ACE        -0.3943
     87 CB         -1.5310   25.3580   28.4350 C.3       1 ACE         0.0843
     88 OG         -1.2370   24.0270   28.0510 O.3       1 ACE        -0.3903
     89 N          -2.7830   24.9810   25.3990 N.am      1 ACE        -0.2619
     90 CA         -2.5360   24.9930   23.9600 C.3       1 ACE         0.1404
     91 C          -3.1340   26.2390   23.3230 C.2       1 ACE         0.2061
     92 O          -2.4970   26.8390   22.4500 O.2       1 ACE        -0.3942
     93 CB         -3.1130   23.7490   23.3080 C.3       1 ACE         0.0214
     94 CG         -2.5350   23.4400   21.9540 C.ar      1 ACE        -0.0386
     95 CD1        -2.9870   24.1010   20.8190 C.ar      1 ACE        -0.0601
     96 CD2        -1.5740   22.4500   21.8030 C.ar      1 ACE        -0.0601
     97 CE1        -2.4750   23.7900   19.5660 C.ar      1 ACE        -0.0686
     98 CE2        -1.0550   22.1500   20.5520 C.ar      1 ACE        -0.0686
     99 CZ         -1.5220   22.8080   19.4410 C.ar      1 ACE        -0.0687
    100 N          -4.3260   26.6530   23.8140 N.am      1 ACE        -0.2618
    101 CA         -5.0620   27.8200   23.3330 C.3       1 ACE         0.1404
    102 C          -4.8540   29.0550   24.2090 C.2       1 ACE         0.2060
    103 O          -5.2780   30.1390   23.8140 O.2       1 ACE        -0.3942
    104 CB         -6.5560   27.4830   23.1360 C.3       1 ACE         0.0214
    105 CG         -6.7820   26.0750   22.6250 C.ar      1 ACE        -0.0386
    106 CD1        -6.4590   25.7320   21.3140 C.ar      1 ACE        -0.0601
    107 CD2        -7.2210   25.0700   23.4810 C.ar      1 ACE        -0.0601
    108 CE1        -6.5730   24.4090   20.8700 C.ar      1 ACE        -0.0686
    109 CE2        -7.3530   23.7520   23.0300 C.ar      1 ACE        -0.0686
    110 CZ         -7.0180   23.4290   21.7320 C.ar      1 ACE        -0.0687
    111 N          -4.1390   28.9110   25.3540 N.am      1 ACE        -0.2612
    112 CA         -3.8300   30.0200   26.2780 C.3       1 ACE         0.1565
    113 C          -2.3440   30.4420   26.2060 C.2       1 ACE         0.2065
    114 O          -1.4820   29.8690   26.9000 O.2       1 ACE        -0.3943
    115 CB         -4.2900   29.7130   27.7270 C.3       1 ACE         0.0924
    116 OG1        -5.6390   29.2290   27.7300 O.3       1 ACE        -0.3874
    117 CG2        -4.1630   30.9180   28.6500 C.3       1 ACE        -0.0346
    118 N          -2.0760   31.4860   25.3950 N.am      1 ACE        -0.2635
    119 CA         -0.7570   32.0750   25.2040 C.3       1 ACE         0.1327
    120 C          -0.1530   32.5200   26.5500 C.2       1 ACE         0.2065
    121 O          -0.8730   33.1460   27.3350 O.2       1 ACE        -0.3942
    122 CB         -0.8390   33.2580   24.2150 C.3       1 ACE        -0.0008
    123 CG          0.5200   33.8780   23.9030 C.3       1 ACE         0.0044
    124 CD          0.6140   35.0640   22.9600 C.2       1 ACE         0.0350
    125 OE1         1.7580   35.4870   22.6750 O.co2     1 ACE        -0.5690
    126 OE2        -0.4400   35.5710   22.5100 O.co2     1 ACE        -0.5690
    127 N           1.1410   32.2070   26.8430 N.am      1 ACE        -0.2498
    128 CA          1.7400   32.6640   28.1130 C.3       1 ACE         0.1334
    129 C           1.9070   34.1860   28.1670 C.2       1 ACE         0.1994
    130 O           1.8950   34.8490   27.1310 O.2       1 ACE        -0.3947
    131 CB          3.1000   31.9490   28.1550 C.3       1 ACE        -0.0104
    132 CG          3.0790   30.9480   27.0630 C.3       1 ACE        -0.0281
    133 CD          2.1160   31.4370   26.0430 C.3       1 ACE         0.0369
    134 N           2.0000   34.7500   29.3760 N.am      1 ACE        -0.2990
    135 H1        -10.3597   16.4911   10.8026 H         1 ACE         0.0467
    136 H2        -10.1356   18.0271    9.8986 H         1 ACE         0.0467
    137 H3        -11.6386   17.0677    9.6807 H         1 ACE         0.0467
    138 H4        -10.8205   16.7736   12.8202 H         1 ACE         0.1883
    139 H5        -12.9957   18.3432   13.8137 H         1 ACE         0.0803
    140 H6        -12.5682   16.3479   14.9327 H         1 ACE         0.0343
    141 H7        -10.4460   15.6979   16.0233 H         1 ACE         0.0234
    142 H8         -9.6657   17.1614   15.3332 H         1 ACE         0.0234
    143 H9        -10.3019   15.8838   14.2425 H         1 ACE         0.0234
    144 H10       -13.1766   18.1967   16.4532 H         1 ACE         0.0234
    145 H11       -11.4369   18.4286   16.8355 H         1 ACE         0.0234
    146 H12       -12.2517   16.8851   17.2600 H         1 ACE         0.0234
    147 H13       -11.0877   22.3891   14.0004 H         1 ACE         0.0802
    148 H14       -12.6252   23.8178   15.0689 H         1 ACE         0.0313
    149 H15       -12.6911   22.7976   16.5459 H         1 ACE         0.0313
    150 H16       -14.0891   22.4777   13.9193 H         1 ACE         0.0287
    151 H17       -14.7235   22.3204   15.5924 H         1 ACE         0.0287
    152 H18       -13.7883   20.1959   15.8849 H         1 ACE         0.0524
    153 H19       -14.1012   20.1503   14.1167 H         1 ACE         0.0524
    154 H20        -9.2174   23.2283   15.0022 H         1 ACE         0.1883
    155 H21        -7.8056   21.5178   16.7066 H         1 ACE         0.0800
    156 H22        -6.6744   23.9936   17.2375 H         1 ACE         0.0315
    157 H23        -7.3477   24.1425   15.5789 H         1 ACE         0.0315
    158 H24        -6.1670   21.9075   15.1072 H         1 ACE         0.0298
    159 H25        -4.0430   23.0439   14.6170 H         1 ACE         0.0232
    160 H26        -4.5450   24.4156   15.6625 H         1 ACE         0.0232
    161 H27        -5.4689   24.0400   14.1685 H         1 ACE         0.0232
    162 H28        -5.6595   21.3276   17.4590 H         1 ACE         0.0232
    163 H29        -4.5811   22.7598   17.5704 H         1 ACE         0.0232
    164 H30        -4.1786   21.4177   16.4464 H         1 ACE         0.0232
    165 H31        -9.8517   24.3123   17.6612 H         1 ACE         0.1883
    166 H32        -9.1699   24.1469   20.4342 H         1 ACE         0.0800
    167 H33       -11.8340   25.2122   19.4966 H         1 ACE         0.0313
    168 H34       -10.3086   26.0781   19.1092 H         1 ACE         0.0313
    169 H35        -9.8680   25.7610   21.7149 H         1 ACE         0.0301
    170 H36       -11.6582   25.6226   21.7657 H         1 ACE         0.0301
    171 H37       -11.5488   27.8666   21.9859 H         1 ACE         0.0689
    172 H38       -11.3969   27.8156   20.1968 H         1 ACE         0.0689
    173 H39        -9.2242   28.3368   22.1789 H         1 ACE         0.2642
    174 H40        -8.7978   28.7640   18.1551 H         1 ACE         0.2615
    175 H41       -10.2660   27.9818   18.7996 H         1 ACE         0.2615
    176 H42        -7.3654   29.3344   21.3379 H         1 ACE         0.2615
    177 H43        -7.1783   29.5230   19.5738 H         1 ACE         0.2615
    178 H44       -11.2716   22.1400   18.5263 H         1 ACE         0.1883
    179 H45       -12.7786   21.1371   20.8504 H         1 ACE         0.0797
    180 H46       -14.0825   19.8815   19.1527 H         1 ACE         0.0277
    181 H47       -13.0081   20.5387   17.8720 H         1 ACE         0.0277
    182 H48       -14.0389   21.6492   18.8370 H         1 ACE         0.0277
    183 H49        -9.8196   20.3513   19.5268 H         1 ACE         0.1883
    184 H50       -10.0287   17.4353   19.6869 H         1 ACE         0.0800
    185 H51        -7.6682   17.4073   19.0761 H         1 ACE         0.0313
    186 H52        -7.5403   19.1779   19.3504 H         1 ACE         0.0313
    187 H53        -8.7537   19.6929   17.4204 H         1 ACE         0.0301
    188 H54        -9.4592   18.0449   17.3058 H         1 ACE         0.0301
    189 H55        -7.3026   17.1311   16.6437 H         1 ACE         0.0689
    190 H56        -6.5290   18.7389   16.8517 H         1 ACE         0.0689
    191 H57        -8.5397   19.2961   15.0740 H         1 ACE         0.2642
    192 H58        -5.9568   16.6669   13.3589 H         1 ACE         0.2615
    193 H59        -6.0396   16.7721   15.1379 H         1 ACE         0.2615
    194 H60        -8.4159   19.1452   12.8180 H         1 ACE         0.2615
    195 H61        -7.2805   17.9938   12.0644 H         1 ACE         0.2615
    196 H62        -8.6686   16.1509   21.0818 H         1 ACE         0.1885
    197 H63        -8.7861   16.9290   23.8638 H         1 ACE         0.0826
    198 H64        -7.8281   14.4114   22.4340 H         1 ACE         0.0551
    199 H65        -9.4173   14.6948   23.2219 H         1 ACE         0.0551
    200 H66        -7.5425   14.4938   26.5447 H         1 ACE         0.1814
    201 H67        -8.2261   15.8440   25.7023 H         1 ACE         0.1814
    202 H68        -7.4212   18.7864   23.7677 H         1 ACE         0.1883
    203 H69        -4.5129   18.1375   24.0293 H         1 ACE         0.0800
    204 H70        -3.9454   20.2706   22.9856 H         1 ACE         0.0315
    205 H71        -5.6842   20.6812   22.7992 H         1 ACE         0.0315
    206 H72        -5.8055   18.6626   21.2450 H         1 ACE         0.0298
    207 H73        -5.0087   19.9886   19.3477 H         1 ACE         0.0232
    208 H74        -4.1760   21.1012   20.4859 H         1 ACE         0.0232
    209 H75        -5.9668   20.9635   20.5131 H         1 ACE         0.0232
    210 H76        -3.6578   17.6802   21.8753 H         1 ACE         0.0232
    211 H77        -2.8128   19.1159   21.2035 H         1 ACE         0.0232
    212 H78        -3.7593   18.0417   20.1187 H         1 ACE         0.0232
    213 H79        -4.9727   20.1540   27.9959 H         1 ACE         0.0802
    214 H80        -2.8398   20.6219   28.8847 H         1 ACE         0.0313
    215 H81        -2.2933   21.4739   27.4007 H         1 ACE         0.0313
    216 H82        -2.6673   18.4958   27.8613 H         1 ACE         0.0287
    217 H83        -1.2315   19.3679   27.2253 H         1 ACE         0.0287
    218 H84        -2.3011   19.8660   25.1542 H         1 ACE         0.0524
    219 H85        -2.9678   18.2368   25.5119 H         1 ACE         0.0524
    220 H86        -6.9058   23.9759   27.1360 H         1 ACE         0.0802
    221 H87        -7.7052   24.8567   29.1641 H         1 ACE         0.0313
    222 H88        -6.0826   24.8298   29.9342 H         1 ACE         0.0313
    223 H89        -7.9934   22.5259   29.4097 H         1 ACE         0.0287
    224 H90        -7.1319   22.9599   30.9250 H         1 ACE         0.0287
    225 H91        -5.0595   22.1973   30.1118 H         1 ACE         0.0524
    226 H92        -6.1785   21.0350   29.3222 H         1 ACE         0.0524
    227 H93        -3.6552   24.0833   28.3815 H         1 ACE         0.1884
    228 H94        -3.0371   26.8441   28.0713 H         1 ACE         0.0823
    229 H95        -1.7271   25.3907   29.5169 H         1 ACE         0.0606
    230 H96        -0.6728   26.0041   28.1982 H         1 ACE         0.0606
    231 H97        -0.4703   23.7244   28.5233 H         1 ACE         0.2097
    232 H98        -3.2433   24.1880   25.7980 H         1 ACE         0.1885
    233 H99        -1.4486   25.0027   23.7941 H         1 ACE         0.0823
    234 H100       -4.1982   23.8894   23.1962 H         1 ACE         0.0474
    235 H101       -2.9204   22.8915   23.9695 H         1 ACE         0.0474
    236 H102       -3.7475   24.8678   20.9122 H         1 ACE         0.0557
    237 H103       -1.2250   21.9050   22.6726 H         1 ACE         0.0557
    238 H104       -2.8264   24.3208   18.6886 H         1 ACE         0.0599
    239 H105       -0.2817   21.3970   20.4517 H         1 ACE         0.0599
    240 H106       -1.1370   22.5516   18.4606 H         1 ACE         0.0559
    241 H107       -4.7313   26.1225   24.5585 H         1 ACE         0.1885
    242 H108       -4.6555   28.0672   22.3412 H         1 ACE         0.0823
    243 H109       -6.9828   28.1918   22.4111 H         1 ACE         0.0474
    244 H110       -7.0705   27.5922   24.1021 H         1 ACE         0.0474
    245 H111       -6.1152   26.4988   20.6292 H         1 ACE         0.0557
    246 H112       -7.4637   25.3109   24.5097 H         1 ACE         0.0557
    247 H113       -6.3115   24.1552   19.8491 H         1 ACE         0.0599
    248 H114       -7.7190   22.9840   23.7018 H         1 ACE         0.0599
    249 H115       -7.1045   22.4043   21.3891 H         1 ACE         0.0559
    250 H116       -3.8013   27.9986   25.5854 H         1 ACE         0.1884
    251 H117       -4.4180   30.8856   25.9390 H         1 ACE         0.0826
    252 H118       -3.6399   28.9187   28.1224 H         1 ACE         0.0639
    253 H119       -5.6900   28.4335   27.2132 H         1 ACE         0.2101
    254 H120       -4.5017   30.6436   29.6599 H         1 ACE         0.0257
    255 H121       -4.7837   31.7410   28.2661 H         1 ACE         0.0257
    256 H122       -3.1119   31.2396   28.6906 H         1 ACE         0.0257
    257 H123       -2.8392   31.8854   24.8871 H         1 ACE         0.1883
    258 H124       -0.0973   31.3091   24.7702 H         1 ACE         0.0801
    259 H125       -1.4850   34.0340   24.6514 H         1 ACE         0.0330
    260 H126       -1.2825   32.8975   23.2751 H         1 ACE         0.0330
    261 H127        1.1421   33.0796   23.4722 H         1 ACE         0.0433
    262 H128        0.9500   34.2004   24.8627 H         1 ACE         0.0433
    263 H129        1.1153   32.3483   28.9616 H         1 ACE         0.0802
    264 H130        3.2381   31.4504   29.1257 H         1 ACE         0.0313
    265 H131        3.9145   32.6706   27.9942 H         1 ACE         0.0313
    266 H132        2.7539   29.9717   27.4518 H         1 ACE         0.0287
    267 H133        4.0813   30.8511   26.6202 H         1 ACE         0.0287
    268 H134        2.6163   32.0805   25.3044 H         1 ACE         0.0524
    269 H135        1.6276   30.5974   25.5268 H         1 ACE         0.0524
    270 H136        2.1099   35.7405   29.4585 H         1 ACE         0.1815
    271 H137        1.9596   34.1812   30.1975 H         1 ACE         0.1815
@<TRIPOS>BOND
     1    1    2 2  
     2    1    3 1  
     3    1    4 am 
     4    4    5 1  
     5    5    6 1  
     6    5    8 1  
     7    6    7 2  
     8    6   11 am 
     9    8    9 1  
    10    8   10 1  
    11   11   12 1  
    12   11   17 1  
    13   12   13 1  
    14   12   15 1  
    15   13   14 2  
    16   13   18 am 
    17   15   16 1  
    18   16   17 1  
    19   18   19 1  
    20   19   20 1  
    21   19   22 1  
    22   20   21 2  
    23   20   26 am 
    24   22   23 1  
    25   23   24 1  
    26   23   25 1  
    27   26   27 1  
    28   27   28 1  
    29   27   30 1  
    30   28   29 2  
    31   28   37 am 
    32   30   31 1  
    33   31   32 1  
    34   32   33 1  
    35   33   34 ar 
    36   34   35 ar 
    37   34   36 ar 
    38   37   38 1  
    39   38   39 1  
    40   38   41 1  
    41   39   40 2  
    42   39   42 am 
    43   42   43 1  
    44   43   44 1  
    45   43   46 1  
    46   44   45 2  
    47   44   53 am 
    48   46   47 1  
    49   47   48 1  
    50   48   49 1  
    51   49   50 ar 
    52   50   51 ar 
    53   50   52 ar 
    54   53   54 1  
    55   54   55 1  
    56   54   57 1  
    57   55   56 2  
    58   55   61 am 
    59   57   58 1  
    60   58   59 2  
    61   58   60 am 
    62   61   62 1  
    63   62   63 1  
    64   62   65 1  
    65   63   64 2  
    66   63   69 am 
    67   65   66 1  
    68   66   67 1  
    69   66   68 1  
    70   69   70 1  
    71   69   75 1  
    72   70   71 1  
    73   70   73 1  
    74   71   72 2  
    75   71   76 am 
    76   73   74 1  
    77   74   75 1  
    78   76   77 1  
    79   76   82 1  
    80   77   78 1  
    81   77   80 1  
    82   78   79 2  
    83   78   83 am 
    84   80   81 1  
    85   81   82 1  
    86   83   84 1  
    87   84   85 1  
    88   84   87 1  
    89   85   86 2  
    90   85   89 am 
    91   87   88 1  
    92   89   90 1  
    93   90   91 1  
    94   90   93 1  
    95   91   92 2  
    96   91  100 am 
    97   93   94 1  
    98   94   95 ar 
    99   94   96 ar 
   100   95   97 ar 
   101   96   98 ar 
   102   97   99 ar 
   103   98   99 ar 
   104  100  101 1  
   105  101  102 1  
   106  101  104 1  
   107  102  103 2  
   108  102  111 am 
   109  104  105 1  
   110  105  106 ar 
   111  105  107 ar 
   112  106  108 ar 
   113  107  109 ar 
   114  108  110 ar 
   115  109  110 ar 
   116  111  112 1  
   117  112  113 1  
   118  112  115 1  
   119  113  114 2  
   120  113  118 am 
   121  115  116 1  
   122  115  117 1  
   123  118  119 1  
   124  119  120 1  
   125  119  122 1  
   126  120  121 2  
   127  120  127 am 
   128  122  123 1  
   129  123  124 1  
   130  124  125 ar 
   131  124  126 ar 
   132  127  128 1  
   133  127  133 1  
   134  128  129 1  
   135  128  131 1  
   136  129  130 2  
   137  129  134 am 
   138  131  132 1  
   139  132  133 1  
   140    3  135 1  
   141    3  136 1  
   142    3  137 1  
   143    4  138 1  
   144    5  139 1  
   145    8  140 1  
   146    9  141 1  
   147    9  142 1  
   148    9  143 1  
   149   10  144 1  
   150   10  145 1  
   151   10  146 1  
   152   12  147 1  
   153   15  148 1  
   154   15  149 1  
   155   16  150 1  
   156   16  151 1  
   157   17  152 1  
   158   17  153 1  
   159   18  154 1  
   160   19  155 1  
   161   22  156 1  
   162   22  157 1  
   163   23  158 1  
   164   24  159 1  
   165   24  160 1  
   166   24  161 1  
   167   25  162 1  
   168   25  163 1  
   169   25  164 1  
   170   26  165 1  
   171   27  166 1  
   172   30  167 1  
   173   30  168 1  
   174   31  169 1  
   175   31  170 1  
   176   32  171 1  
   177   32  172 1  
   178   33  173 1  
   179   35  174 1  
   180   35  175 1  
   181   36  176 1  
   182   36  177 1  
   183   37  178 1  
   184   38  179 1  
   185   41  180 1  
   186   41  181 1  
   187   41  182 1  
   188   42  183 1  
   189   43  184 1  
   190   46  185 1  
   191   46  186 1  
   192   47  187 1  
   193   47  188 1  
   194   48  189 1  
   195   48  190 1  
   196   49  191 1  
   197   51  192 1  
   198   51  193 1  
   199   52  194 1  
   200   52  195 1  
   201   53  196 1  
   202   54  197 1  
   203   57  198 1  
   204   57  199 1  
   205   60  200 1  
   206   60  201 1  
   207   61  202 1  
   208   62  203 1  
   209   65  204 1  
   210   65  205 1  
   211   66  206 1  
   212   67  207 1  
   213   67  208 1  
   214   67  209 1  
   215   68  210 1  
   216   68  211 1  
   217   68  212 1  
   218   70  213 1  
   219   73  214 1  
   220   73  215 1  
   221   74  216 1  
   222   74  217 1  
   223   75  218 1  
   224   75  219 1  
   225   77  220 1  
   226   80  221 1  
   227   80  222 1  
   228   81  223 1  
   229   81  224 1  
   230   82  225 1  
   231   82  226 1  
   232   83  227 1  
   233   84  228 1  
   234   87  229 1  
   235   87  230 1  
   236   88  231 1  
   237   89  232 1  
   238   90  233 1  
   239   93  234 1  
   240   93  235 1  
   241   95  236 1  
   242   96  237 1  
   243   97  238 1  
   244   98  239 1  
   245   99  240 1  
   246  100  241 1  
   247  101  242 1  
   248  104  243 1  
   249  104  244 1  
   250  106  245 1  
   251  107  246 1  
   252  108  247 1  
   253  109  248 1  
   254  110  249 1  
   255  111  250 1  
   256  112  251 1  
   257  115  252 1  
   258  116  253 1  
   259  117  254 1  
   260  117  255 1  
   261  117  256 1  
   262  118  257 1  
   263  119  258 1  
   264  122  259 1  
   265  122  260 1  
   266  123  261 1  
   267  123  262 1  
   268  128  263 1  
   269  131  264 1  
   270  131  265 1  
   271  132  266 1  
   272  132  267 1  
   273  133  268 1  
   274  133  269 1  
   275  134  270 1  
   276  134  271 1  
@<TRIPOS>SUBSTRUCTURE
     1 ACE         1

