6seo_ligand
  -I-interpret- 

270275  0  0  0  0  0  0  0  0999 V2000
  -11.5240   18.1470   11.5430 C   0  0  0  0  0
  -12.1560   19.1860   11.3280 O   0  0  0  0  0
  -10.8690   17.3800   10.4020 C   0  0  0  0  0
  -11.3610   17.6120   12.7500 N   0  0  0  0  0
  -11.9230   18.1720   13.9870 C   0  0  0  0  0
  -11.2960   19.5680   14.2900 C   0  0  0  0  0
  -10.0790   19.7110   14.0940 O   0  0  0  0  0
  -11.8210   17.1240   15.1550 C   0  0  0  0  0
  -10.4630   16.4170   15.1910 C   0  0  0  0  0
  -12.1980   17.6990   16.5220 C   0  0  0  0  0
  -12.0960   20.6270   14.6620 N   0  0  0  0  0
  -11.4960   21.9550   14.9250 C   0  0  0  0  0
  -10.3950   21.8720   15.9720 C   0  0  0  0  0
  -10.5620   21.1240   16.9390 O   0  0  0  0  0
  -12.6820   22.7860   15.4460 C   0  0  0  0  0
  -13.8630   22.1240   14.9360 C   0  0  0  0  0
  -13.5480   20.6620   14.9180 C   0  0  0  0  0
   -9.2820   22.6210   15.7940 N   0  0  0  0  0
   -8.1730   22.5540   16.7440 C   0  0  0  0  0
   -8.5990   22.8020   18.1870 C   0  0  0  0  0
   -8.1750   22.0420   19.0560 O   0  0  0  0  0
   -7.0000   23.4360   16.3470 C   0  0  0  0  0
   -5.7940   22.6850   15.7900 C   0  0  0  0  0
   -4.9030   23.6080   15.0070 C   0  0  0  0  0
   -4.9980   22.0000   16.8930 C   0  0  0  0  0
   -9.5170   23.7660   18.4290 N   0  0  0  0  0
  -10.0430   24.0440   19.7730 C   0  0  0  0  0
  -10.9080   22.8920   20.3620 C   0  0  0  0  0
  -11.0350   22.7960   21.5820 O   0  0  0  0  0
  -10.7940   25.3840   19.8110 C   0  0  0  0  0
  -10.8040   26.0230   21.2000 C   0  0  0  0  0
  -10.9220   27.5300   21.1470 C   0  0  0  0  0
   -9.6180   28.1870   21.2390 N   0  0  0  0  0
   -8.9020   28.6060   20.1950 C   0  0  0  0  0
   -9.3560   28.4380   18.9570 N   0  0  0  0  0
   -7.7270   29.1990   20.3830 N   0  0  0  0  0
  -11.4610   22.0130   19.5000 N   0  0  0  0  0
  -12.3220   20.8810   19.8830 C   0  0  0  0  0
  -11.5760   19.5300   20.0810 C   0  0  0  0  0
  -12.1940   18.5350   20.4720 O   0  0  0  0  0
  -13.4400   20.7270   18.8660 C   0  0  0  0  0
  -10.2570   19.5040   19.8280 N   0  0  0  0  0
   -9.4190   18.3070   19.9670 C   0  0  0  0  0
   -8.9500   18.1100   21.4240 C   0  0  0  0  0
   -8.8820   19.0750   22.1920 O   0  0  0  0  0
   -8.2020   18.3670   19.0120 C   0  0  0  0  0
   -8.5530   18.6190   17.5490 C   0  0  0  0  0
   -7.4590   18.2180   16.5800 C   0  0  0  0  0
   -7.8210   18.5700   15.2050 N   0  0  0  0  0
   -7.2930   18.0240   14.1110 C   0  0  0  0  0
   -6.3600   17.0840   14.2100 N   0  0  0  0  0
   -7.6930   18.4170   12.9080 N   0  0  0  0  0
   -8.6050   16.8600   21.7840 N   0  0  0  0  0
   -8.1430   16.4420   23.1160 C   0  0  0  0  0
   -6.7060   16.9390   23.3700 C   0  0  0  0  0
   -5.7280   16.1920   23.2390 O   0  0  0  0  0
   -8.3370   14.8930   23.2820 C   0  0  0  0  0
   -7.8280   14.2170   24.5520 C   0  0  0  0  0
   -7.4040   13.0460   24.5200 O   0  0  0  0  0
   -7.8690   14.9100   25.6960 N   0  0  0  0  0
   -6.5870   18.2400   23.6930 N   0  0  0  0  0
   -5.2990   18.9020   23.9420 C   0  0  0  0  0
   -5.3760   19.7050   25.2460 C   0  0  0  0  0
   -6.4600   20.2400   25.5190 O   0  0  0  0  0
   -4.9470   19.8650   22.7800 C   0  0  0  0  0
   -4.9260   19.3120   21.3660 C   0  0  0  0  0
   -5.0260   20.4140   20.3620 C   0  0  0  0  0
   -3.7090   18.4830   21.1250 C   0  0  0  0  0
   -4.2510   19.8650   26.0260 N   0  0  0  0  0
   -4.3100   20.6550   27.2750 C   0  0  0  0  0
   -4.8280   22.0840   27.0800 C   0  0  0  0  0
   -4.6210   22.6430   25.9990 O   0  0  0  0  0
   -2.8660   20.6170   27.7850 C   0  0  0  0  0
   -2.3310   19.3490   27.2540 C   0  0  0  0  0
   -2.9050   19.2780   25.8610 C   0  0  0  0  0
   -5.5510   22.6600   28.0840 N   0  0  0  0  0
   -6.1340   24.0120   27.9190 C   0  0  0  0  0
   -5.1610   25.1280   27.5550 C   0  0  0  0  0
   -5.5760   26.1340   26.9680 O   0  0  0  0  0
   -6.7750   24.2810   29.2790 C   0  0  0  0  0
   -7.0580   22.9260   29.8280 C   0  0  0  0  0
   -5.8970   22.0950   29.4060 C   0  0  0  0  0
   -3.8690   24.9400   27.9120 N   0  0  0  0  0
   -2.7570   25.8530   27.6850 C   0  0  0  0  0
   -2.4190   25.9890   26.2120 C   0  0  0  0  0
   -1.8170   26.9890   25.8140 O   0  0  0  0  0
   -1.5310   25.3580   28.4350 C   0  0  0  0  0
   -1.2370   24.0270   28.0510 O   0  0  0  0  0
   -2.7830   24.9810   25.3990 N   0  0  0  0  0
   -2.5360   24.9930   23.9600 C   0  0  0  0  0
   -3.1340   26.2390   23.3230 C   0  0  0  0  0
   -2.4970   26.8390   22.4500 O   0  0  0  0  0
   -3.1130   23.7490   23.3080 C   0  0  0  0  0
   -2.5350   23.4400   21.9540 C   0  0  0  0  0
   -2.9870   24.1010   20.8190 C   0  0  0  0  0
   -1.5740   22.4500   21.8030 C   0  0  0  0  0
   -2.4750   23.7900   19.5660 C   0  0  0  0  0
   -1.0550   22.1500   20.5520 C   0  0  0  0  0
   -1.5220   22.8080   19.4410 C   0  0  0  0  0
   -4.3260   26.6530   23.8140 N   0  0  0  0  0
   -5.0620   27.8200   23.3330 C   0  0  0  0  0
   -4.8540   29.0550   24.2090 C   0  0  0  0  0
   -5.2780   30.1390   23.8140 O   0  0  0  0  0
   -6.5560   27.4830   23.1360 C   0  0  0  0  0
   -6.7820   26.0750   22.6250 C   0  0  0  0  0
   -6.4590   25.7320   21.3140 C   0  0  0  0  0
   -7.2210   25.0700   23.4810 C   0  0  0  0  0
   -6.5730   24.4090   20.8700 C   0  0  0  0  0
   -7.3530   23.7520   23.0300 C   0  0  0  0  0
   -7.0180   23.4290   21.7320 C   0  0  0  0  0
   -4.1390   28.9110   25.3540 N   0  0  0  0  0
   -3.8300   30.0200   26.2780 C   0  0  0  0  0
   -2.3440   30.4420   26.2060 C   0  0  0  0  0
   -1.4820   29.8690   26.9000 O   0  0  0  0  0
   -4.2900   29.7130   27.7270 C   0  0  0  0  0
   -5.6390   29.2290   27.7300 O   0  0  0  0  0
   -4.1630   30.9180   28.6500 C   0  0  0  0  0
   -2.0760   31.4860   25.3950 N   0  0  0  0  0
   -0.7570   32.0750   25.2040 C   0  0  0  0  0
   -0.1530   32.5200   26.5500 C   0  0  0  0  0
   -0.8730   33.1460   27.3350 O   0  0  0  0  0
   -0.8390   33.2580   24.2150 C   0  0  0  0  0
    0.5200   33.8780   23.9030 C   0  0  0  0  0
    0.6140   35.0640   22.9600 C   0  0  0  0  0
    1.7580   35.4870   22.6750 O   0  0  0  0  0
   -0.4400   35.5710   22.5100 O   0  0  0  0  0
    1.1410   32.2070   26.8430 N   0  0  0  0  0
    1.7400   32.6640   28.1130 C   0  0  0  0  0
    1.9070   34.1860   28.1670 C   0  0  0  0  0
    1.8950   34.8490   27.1310 O   0  0  0  0  0
    3.1000   31.9490   28.1550 C   0  0  0  0  0
    3.0790   30.9480   27.0630 C   0  0  0  0  0
    2.1160   31.4370   26.0430 C   0  0  0  0  0
    2.0000   34.7500   29.3760 N   0  0  0  0  0
  -11.6325   17.0712    9.6880 H   0  0  0  0  0
  -10.1426   18.0222    9.9041 H   0  0  0  0  0
  -10.3647   16.4995   10.8001 H   0  0  0  0  0
  -10.8097   16.7568   12.8216 H   0  0  0  0  0
  -12.9893   18.3637   13.8674 H   0  0  0  0  0
  -12.5715   16.3669   14.9279 H   0  0  0  0  0
   -9.6924   17.1281   15.4884 H   0  0  0  0  0
  -10.5001   15.5980   15.9093 H   0  0  0  0  0
  -10.2334   16.0234   14.2008 H   0  0  0  0  0
  -12.2508   16.8916   17.2523 H   0  0  0  0  0
  -11.4430   18.4217   16.8315 H   0  0  0  0  0
  -13.1677   18.1918   16.4525 H   0  0  0  0  0
  -11.0248   22.3836   14.0405 H   0  0  0  0  0
  -12.6253   23.8215   15.1105 H   0  0  0  0  0
  -12.6889   22.8378   16.5347 H   0  0  0  0  0
  -14.1148   22.4837   13.9383 H   0  0  0  0  0
  -14.7306   22.3310   15.5625 H   0  0  0  0  0
  -13.8207   20.1639   15.8484 H   0  0  0  0  0
  -14.1188   20.1205   14.1637 H   0  0  0  0  0
   -9.2161   23.2404   14.9863 H   0  0  0  0  0
   -7.8244   21.5223   16.6978 H   0  0  0  0  0
   -6.6660   23.9443   17.2516 H   0  0  0  0  0
   -7.3545   24.0965   15.5557 H   0  0  0  0  0
   -6.1763   21.9132   15.1219 H   0  0  0  0  0
   -5.4649   24.0354   14.1765 H   0  0  0  0  0
   -4.5490   24.4077   15.6576 H   0  0  0  0  0
   -4.0512   23.0479   14.6211 H   0  0  0  0  0
   -4.6401   22.7488   17.5996 H   0  0  0  0  0
   -5.6380   21.2860   17.4113 H   0  0  0  0  0
   -4.1482   21.4767   16.4547 H   0  0  0  0  0
   -9.8584   24.3232   17.6458 H   0  0  0  0  0
   -9.1707   24.1167   20.4225 H   0  0  0  0  0
  -11.8285   25.1935   19.5253 H   0  0  0  0  0
  -10.2851   26.0696   19.1334 H   0  0  0  0  0
   -9.8610   25.7777   21.6886 H   0  0  0  0  0
  -11.6691   25.6379   21.7398 H   0  0  0  0  0
  -11.5267   27.8539   21.9940 H   0  0  0  0  0
  -11.3738   27.8026   20.1932 H   0  0  0  0  0
   -9.2281   28.3354   22.1698 H   0  0  0  0  0
  -10.2571   27.9862   18.8012 H   0  0  0  0  0
   -7.1836   29.5198   19.5816 H   0  0  0  0  0
   -7.3689   29.3331   21.3286 H   0  0  0  0  0
  -11.2678   22.1426   18.5069 H   0  0  0  0  0
  -12.7239   21.1274   20.8658 H   0  0  0  0  0
  -14.0326   21.6414   18.8382 H   0  0  0  0  0
  -13.0108   20.5406   17.8816 H   0  0  0  0  0
  -14.0759   19.8889   19.1512 H   0  0  0  0  0
   -9.8109   20.3683   19.5207 H   0  0  0  0  0
  -10.0322   17.4487   19.6923 H   0  0  0  0  0
   -7.7135   17.3937   19.0584 H   0  0  0  0  0
   -7.5828   19.2025   19.3386 H   0  0  0  0  0
   -8.7132   19.6909   17.4330 H   0  0  0  0  0
   -9.4305   18.0156   17.3166 H   0  0  0  0  0
   -7.3177   17.1388   16.6391 H   0  0  0  0  0
   -6.5441   18.7468   16.8471 H   0  0  0  0  0
   -8.5327   19.2891   15.0753 H   0  0  0  0  0
   -5.9592   16.6725   13.3671 H   0  0  0  0  0
   -6.0443   16.7736   15.1289 H   0  0  0  0  0
   -8.4073   19.1397   12.8189 H   0  0  0  0  0
   -8.6699   16.1367   21.0677 H   0  0  0  0  0
   -8.7484   16.9073   23.8939 H   0  0  0  0  0
   -7.7555   14.4485   22.4743 H   0  0  0  0  0
   -9.4168   14.7448   23.2979 H   0  0  0  0  0
   -7.5493   14.4805   26.5642 H   0  0  0  0  0
   -8.2199   15.8677   25.6998 H   0  0  0  0  0
   -7.4379   18.7973   23.7692 H   0  0  0  0  0
   -4.5274   18.1359   24.0179 H   0  0  0  0  0
   -3.9246   20.1882   22.9760 H   0  0  0  0  0
   -5.7369   20.6161   22.7817 H   0  0  0  0  0
   -5.7959   18.6655   21.2503 H   0  0  0  0  0
   -5.9586   20.9577   20.5128 H   0  0  0  0  0
   -4.1833   21.0942   20.4858 H   0  0  0  0  0
   -5.0088   19.9912   19.3575 H   0  0  0  0  0
   -2.8191   19.0952   21.2714 H   0  0  0  0  0
   -3.6958   17.6473   21.8247 H   0  0  0  0  0
   -3.7262   18.1031   20.1035 H   0  0  0  0  0
   -5.0259   20.2401   27.9845 H   0  0  0  0  0
   -2.8114   20.6643   28.8726 H   0  0  0  0  0
   -2.2884   21.4796   27.4526 H   0  0  0  0  0
   -2.6105   18.4903   27.8644 H   0  0  0  0  0
   -1.2413   19.3220   27.2579 H   0  0  0  0  0
   -2.2994   19.8095   25.1269 H   0  0  0  0  0
   -2.9325   18.2622   25.4667 H   0  0  0  0  0
   -6.8160   24.0170   27.0687 H   0  0  0  0  0
   -7.6779   24.8858   29.1943 H   0  0  0  0  0
   -6.1224   24.8600   29.9325 H   0  0  0  0  0
   -8.0007   22.5256   29.4550 H   0  0  0  0  0
   -7.1725   22.9429   30.9118 H   0  0  0  0  0
   -5.0686   22.1340   30.1134 H   0  0  0  0  0
   -6.1304   21.0311   29.3641 H   0  0  0  0  0
   -3.6509   24.0662   28.3908 H   0  0  0  0  0
   -3.0594   26.8343   28.0507 H   0  0  0  0  0
   -1.7282   25.3882   29.5066 H   0  0  0  0  0
   -0.6810   25.9974   28.1968 H   0  0  0  0  0
   -0.4622   23.7212   28.5282 H   0  0  0  0  0
   -3.2526   24.1721   25.8060 H   0  0  0  0  0
   -1.4575   25.0030   23.8025 H   0  0  0  0  0
   -4.1803   23.9227   23.1707 H   0  0  0  0  0
   -2.8787   22.9062   23.9583 H   0  0  0  0  0
   -3.7517   24.8720   20.9127 H   0  0  0  0  0
   -1.2231   21.9020   22.6774 H   0  0  0  0  0
   -2.8283   24.3237   18.6837 H   0  0  0  0  0
   -0.2774   21.3928   20.4511 H   0  0  0  0  0
   -1.1349   22.5501   18.4552 H   0  0  0  0  0
   -4.7394   26.1119   24.5734 H   0  0  0  0  0
   -4.6499   28.0827   22.3587 H   0  0  0  0  0
   -6.9576   28.1740   22.3948 H   0  0  0  0  0
   -7.0464   27.5673   24.1058 H   0  0  0  0  0
   -6.1133   26.5030   20.6254 H   0  0  0  0  0
   -7.4650   25.3122   24.5154 H   0  0  0  0  0
   -6.3101   24.1538   19.8434 H   0  0  0  0  0
   -7.7211   22.9798   23.7055 H   0  0  0  0  0
   -7.1050   22.3986   21.3872 H   0  0  0  0  0
   -3.7945   27.9804   25.5901 H   0  0  0  0  0
   -4.4093   30.8811   25.9447 H   0  0  0  0  0
   -3.6247   28.9410   28.1136 H   0  0  0  0  0
   -5.9093   29.0436   28.6323 H   0  0  0  0  0
   -3.1211   31.2357   28.6894 H   0  0  0  0  0
   -4.7784   31.7327   28.2685 H   0  0  0  0  0
   -4.4989   30.6448   29.6503 H   0  0  0  0  0
   -2.8545   31.8934   24.8770 H   0  0  0  0  0
   -0.0977   31.3175   24.7802 H   0  0  0  0  0
   -1.4559   34.0301   24.6748 H   0  0  0  0  0
   -1.2507   32.8782   23.2799 H   0  0  0  0  0
    1.0726   33.0847   23.3995 H   0  0  0  0  0
    0.8707   34.2626   24.8607 H   0  0  0  0  0
   -1.1970   35.0928   22.8562 H   0  0  0  0  0
    1.1082   32.4290   28.9696 H   0  0  0  0  0
    3.2614   31.4710   29.1212 H   0  0  0  0  0
    3.9185   32.6564   28.0220 H   0  0  0  0  0
    2.7770   29.9714   27.4412 H   0  0  0  0  0
    4.0721   30.8294   26.6298 H   0  0  0  0  0
    2.5923   32.0375   25.2680 H   0  0  0  0  0
    1.6523   30.6274   25.4795 H   0  0  0  0  0
    2.0641   35.7643   29.4620 H   0  0  0  0  0
    2.0068   34.1658   30.2121 H   0  0  0  0  0
  1  2  2  0  0  0
  1  3  1  0  0  0
  1  4  1  0  0  0
  4  5  1  0  0  0
  5  6  1  0  0  0
  5  8  1  0  0  0
  6  7  2  0  0  0
  6 11  1  0  0  0
  8  9  1  0  0  0
  8 10  1  0  0  0
 11 12  1  0  0  0
 11 17  1  0  0  0
 12 13  1  0  0  0
 12 15  1  0  0  0
 13 14  2  0  0  0
 13 18  1  0  0  0
 15 16  1  0  0  0
 16 17  1  0  0  0
 18 19  1  0  0  0
 19 20  1  0  0  0
 19 22  1  0  0  0
 20 21  2  0  0  0
 20 26  1  0  0  0
 22 23  1  0  0  0
 23 24  1  0  0  0
 23 25  1  0  0  0
 26 27  1  0  0  0
 27 28  1  0  0  0
 27 30  1  0  0  0
 28 29  2  0  0  0
 28 37  1  0  0  0
 30 31  1  0  0  0
 31 32  1  0  0  0
 32 33  1  0  0  0
 33 34  1  0  0  0
 34 35  2  0  0  0
 34 36  1  0  0  0
 37 38  1  0  0  0
 38 39  1  0  0  0
 38 41  1  0  0  0
 39 40  2  0  0  0
 39 42  1  0  0  0
 42 43  1  0  0  0
 43 44  1  0  0  0
 43 46  1  0  0  0
 44 45  2  0  0  0
 44 53  1  0  0  0
 46 47  1  0  0  0
 47 48  1  0  0  0
 48 49  1  0  0  0
 49 50  1  0  0  0
 50 51  1  0  0  0
 50 52  2  0  0  0
 53 54  1  0  0  0
 54 55  1  0  0  0
 54 57  1  0  0  0
 55 56  2  0  0  0
 55 61  1  0  0  0
 57 58  1  0  0  0
 58 59  2  0  0  0
 58 60  1  0  0  0
 61 62  1  0  0  0
 62 63  1  0  0  0
 62 65  1  0  0  0
 63 64  2  0  0  0
 63 69  1  0  0  0
 65 66  1  0  0  0
 66 67  1  0  0  0
 66 68  1  0  0  0
 69 70  1  0  0  0
 69 75  1  0  0  0
 70 71  1  0  0  0
 70 73  1  0  0  0
 71 72  2  0  0  0
 71 76  1  0  0  0
 73 74  1  0  0  0
 74 75  1  0  0  0
 76 77  1  0  0  0
 76 82  1  0  0  0
 77 78  1  0  0  0
 77 80  1  0  0  0
 78 79  2  0  0  0
 78 83  1  0  0  0
 80 81  1  0  0  0
 81 82  1  0  0  0
 83 84  1  0  0  0
 84 85  1  0  0  0
 84 87  1  0  0  0
 85 86  2  0  0  0
 85 89  1  0  0  0
 87 88  1  0  0  0
 89 90  1  0  0  0
 90 91  1  0  0  0
 90 93  1  0  0  0
 91 92  2  0  0  0
 91100  1  0  0  0
 93 94  1  0  0  0
 94 95  4  0  0  0
 94 96  4  0  0  0
 95 97  4  0  0  0
 96 98  4  0  0  0
 97 99  4  0  0  0
 98 99  4  0  0  0
100101  1  0  0  0
101102  1  0  0  0
101104  1  0  0  0
102103  2  0  0  0
102111  1  0  0  0
104105  1  0  0  0
105106  4  0  0  0
105107  4  0  0  0
106108  4  0  0  0
107109  4  0  0  0
108110  4  0  0  0
109110  4  0  0  0
111112  1  0  0  0
112113  1  0  0  0
112115  1  0  0  0
113114  2  0  0  0
113118  1  0  0  0
115116  1  0  0  0
115117  1  0  0  0
118119  1  0  0  0
119120  1  0  0  0
119122  1  0  0  0
120121  2  0  0  0
120127  1  0  0  0
122123  1  0  0  0
123124  1  0  0  0
124125  2  0  0  0
124126  1  0  0  0
127128  1  0  0  0
127133  1  0  0  0
128129  1  0  0  0
128131  1  0  0  0
129130  2  0  0  0
129134  1  0  0  0
131132  1  0  0  0
132133  1  0  0  0
  3135  1  0  0  0
  3136  1  0  0  0
  3137  1  0  0  0
  4138  1  0  0  0
  5139  1  0  0  0
  8140  1  0  0  0
  9141  1  0  0  0
  9142  1  0  0  0
  9143  1  0  0  0
 10144  1  0  0  0
 10145  1  0  0  0
 10146  1  0  0  0
 12147  1  0  0  0
 15148  1  0  0  0
 15149  1  0  0  0
 16150  1  0  0  0
 16151  1  0  0  0
 17152  1  0  0  0
 17153  1  0  0  0
 18154  1  0  0  0
 19155  1  0  0  0
 22156  1  0  0  0
 22157  1  0  0  0
 23158  1  0  0  0
 24159  1  0  0  0
 24160  1  0  0  0
 24161  1  0  0  0
 25162  1  0  0  0
 25163  1  0  0  0
 25164  1  0  0  0
 26165  1  0  0  0
 27166  1  0  0  0
 30167  1  0  0  0
 30168  1  0  0  0
 31169  1  0  0  0
 31170  1  0  0  0
 32171  1  0  0  0
 32172  1  0  0  0
 33173  1  0  0  0
 35174  1  0  0  0
 36175  1  0  0  0
 36176  1  0  0  0
 37177  1  0  0  0
 38178  1  0  0  0
 41179  1  0  0  0
 41180  1  0  0  0
 41181  1  0  0  0
 42182  1  0  0  0
 43183  1  0  0  0
 46184  1  0  0  0
 46185  1  0  0  0
 47186  1  0  0  0
 47187  1  0  0  0
 48188  1  0  0  0
 48189  1  0  0  0
 49190  1  0  0  0
 51191  1  0  0  0
 51192  1  0  0  0
 52193  1  0  0  0
 53194  1  0  0  0
 54195  1  0  0  0
 57196  1  0  0  0
 57197  1  0  0  0
 60198  1  0  0  0
 60199  1  0  0  0
 61200  1  0  0  0
 62201  1  0  0  0
 65202  1  0  0  0
 65203  1  0  0  0
 66204  1  0  0  0
 67205  1  0  0  0
 67206  1  0  0  0
 67207  1  0  0  0
 68208  1  0  0  0
 68209  1  0  0  0
 68210  1  0  0  0
 70211  1  0  0  0
 73212  1  0  0  0
 73213  1  0  0  0
 74214  1  0  0  0
 74215  1  0  0  0
 75216  1  0  0  0
 75217  1  0  0  0
 77218  1  0  0  0
 80219  1  0  0  0
 80220  1  0  0  0
 81221  1  0  0  0
 81222  1  0  0  0
 82223  1  0  0  0
 82224  1  0  0  0
 83225  1  0  0  0
 84226  1  0  0  0
 87227  1  0  0  0
 87228  1  0  0  0
 88229  1  0  0  0
 89230  1  0  0  0
 90231  1  0  0  0
 93232  1  0  0  0
 93233  1  0  0  0
 95234  1  0  0  0
 96235  1  0  0  0
 97236  1  0  0  0
 98237  1  0  0  0
 99238  1  0  0  0
100239  1  0  0  0
101240  1  0  0  0
104241  1  0  0  0
104242  1  0  0  0
106243  1  0  0  0
107244  1  0  0  0
108245  1  0  0  0
109246  1  0  0  0
110247  1  0  0  0
111248  1  0  0  0
112249  1  0  0  0
115250  1  0  0  0
116251  1  0  0  0
117252  1  0  0  0
117253  1  0  0  0
117254  1  0  0  0
118255  1  0  0  0
119256  1  0  0  0
122257  1  0  0  0
122258  1  0  0  0
123259  1  0  0  0
123260  1  0  0  0
126261  1  0  0  0
128262  1  0  0  0
131263  1  0  0  0
131264  1  0  0  0
132265  1  0  0  0
132266  1  0  0  0
133267  1  0  0  0
133268  1  0  0  0
134269  1  0  0  0
134270  1  0  0  0
M  END
$$$$
