6hmp_ligand
  -I-interpret- 

 71 75  0  0  0  0  0  0  0  0999 V2000
   -0.0620    6.4770   12.8320 C   0  0  0  0  0
    1.4870    3.3770   16.2180 C   0  0  0  0  0
    2.7740    3.5910   18.2420 C   0  0  0  0  0
    3.2880    4.3690   19.4840 C   0  0  0  0  0
    4.5260    4.2400   20.0610 C   0  0  0  0  0
    3.3980    5.6500   21.2330 C   0  0  0  0  0
    3.1670    8.1220   24.5380 C   0  0  0  0  0
   -2.2910    4.3130    8.6350 C   0  0  0  0  0
   -2.4500    6.4600    9.8440 C   0  0  0  0  0
   -3.1420    7.6620   10.0450 C   0  0  0  0  0
   -2.8410    8.4860   11.1320 C   0  0  0  0  0
   -1.8430    8.0990   12.0250 C   0  0  0  0  0
   -1.6000   10.2640   13.0280 C   0  0  0  0  0
   -1.1610    6.9060   11.8170 C   0  0  0  0  0
   -0.7650    5.8300   14.0470 C   0  0  0  0  0
    0.2420    5.3790   15.1570 C   0  0  0  0  0
    1.9200    4.1570   17.2860 C   0  0  0  0  0
    3.1070    2.2520   18.0800 C   0  0  0  0  0
    2.6290    1.5300   16.9820 C   0  0  0  0  0
    2.0620    8.1130   23.6950 C   0  0  0  0  0
    3.1720    8.9140   25.6830 C   0  0  0  0  0
    2.0600    9.6790   25.9920 C   0  0  0  0  0
    0.9480    9.6580   25.1660 C   0  0  0  0  0
    0.9450    8.8630   24.0160 C   0  0  0  0  0
    1.2280    5.6830   20.0170 C   0  0  0  0  0
    5.7010    3.3570   19.6210 C   0  0  0  0  0
    6.2550    2.4630   20.5420 C   0  0  0  0  0
    7.3220    1.6530   20.1600 C   0  0  0  0  0
    7.8290    1.7420   18.8630 C   0  0  0  0  0
    7.2730    2.6390   17.9540 C   0  0  0  0  0
    6.2040    3.4500   18.3330 C   0  0  0  0  0
   -1.4550    6.0850   10.7450 C   0  0  0  0  0
    2.0590   10.4580   27.1140 F   0  0  0  0  0
    8.8750    0.9540   18.4650 F   0  0  0  0  0
    0.5720    3.9540   15.2100 N   0  0  0  0  0
    1.8270    2.1100   16.0910 N   0  0  0  0  0
    4.5770    5.0290   21.1130 N   0  0  0  0  0
    3.1360    6.6080   22.3270 N   0  0  0  0  0
    2.0810    7.2360   22.5090 N   0  0  0  0  0
    2.6020    5.2320   20.2200 N   0  0  0  0  0
   -2.7730    5.6520    8.7220 O   0  0  0  0  0
   -1.4930    8.8670   13.1560 O   0  0  0  0  0
    0.6940    6.1730   15.9100 O   0  0  0  0  0
    0.5186    7.3434   13.1488 H   0  0  0  0  0
    0.6229    5.7664   12.3693 H   0  0  0  0  0
    4.0343    7.5057   24.3014 H   0  0  0  0  0
   -1.2011    4.3191    8.6463 H   0  0  0  0  0
   -2.6613    3.7390    9.4844 H   0  0  0  0  0
   -2.6435    3.8608    7.7080 H   0  0  0  0  0
   -3.9239    7.9572    9.3453 H   0  0  0  0  0
   -3.3806    9.4214   11.2803 H   0  0  0  0  0
   -0.9477   10.6049   12.2240 H   0  0  0  0  0
   -2.6319   10.5284   12.7972 H   0  0  0  0  0
   -1.3030   10.7371   13.9640 H   0  0  0  0  0
   -1.2944    4.9445   13.6952 H   0  0  0  0  0
   -1.4327    6.5733   14.4826 H   0  0  0  0  0
    1.5991    5.1946   17.3777 H   0  0  0  0  0
    3.7455    1.7606   18.8141 H   0  0  0  0  0
    2.9146    0.4858   16.8546 H   0  0  0  0  0
    4.0469    8.9318   26.3329 H   0  0  0  0  0
    0.0747   10.2618   25.4129 H   0  0  0  0  0
    0.0646    8.8343   23.3740 H   0  0  0  0  0
    1.1448    6.1630   19.0419 H   0  0  0  0  0
    0.5556    4.8262   20.0602 H   0  0  0  0  0
    0.9616    6.3953   20.7979 H   0  0  0  0  0
    5.8542    2.4001   21.5537 H   0  0  0  0  0
    7.7592    0.9524   20.8715 H   0  0  0  0  0
    7.6749    2.7072   16.9431 H   0  0  0  0  0
    5.7675    4.1515   17.6220 H   0  0  0  0  0
   -0.9122    5.1502   10.6050 H   0  0  0  0  0
    0.1518    3.3309   14.5204 H   0  0  0  0  0
  1 14  1  0  0  0
 15  1  1  0  0  0
 17  2  4  0  0  0
  2 35  1  0  0  0
  2 36  4  0  0  0
  4  3  1  0  0  0
  3 17  4  0  0  0
  3 18  4  0  0  0
  4  5  4  0  0  0
 40  4  4  0  0  0
  5 26  1  0  0  0
 37  5  4  0  0  0
  6 37  4  0  0  0
 38  6  1  0  0  0
  6 40  4  0  0  0
 20  7  4  0  0  0
  7 21  4  0  0  0
 41  8  1  0  0  0
  9 10  4  0  0  0
 32  9  4  0  0  0
  9 41  1  0  0  0
 11 10  4  0  0  0
 12 11  4  0  0  0
 14 12  4  0  0  0
 12 42  1  0  0  0
 42 13  1  0  0  0
 14 32  4  0  0  0
 16 15  1  0  0  0
 35 16  1  0  0  0
 16 43  2  0  0  0
 18 19  4  0  0  0
 19 36  4  0  0  0
 20 24  4  0  0  0
 39 20  1  0  0  0
 21 22  4  0  0  0
 23 22  4  0  0  0
 22 33  1  0  0  0
 24 23  4  0  0  0
 40 25  1  0  0  0
 26 27  4  0  0  0
 26 31  4  0  0  0
 27 28  4  0  0  0
 28 29  4  0  0  0
 30 29  4  0  0  0
 29 34  1  0  0  0
 31 30  4  0  0  0
 38 39  2  0  0  0
  1 44  1  0  0  0
  1 45  1  0  0  0
  7 46  1  0  0  0
  8 47  1  0  0  0
  8 48  1  0  0  0
  8 49  1  0  0  0
 10 50  1  0  0  0
 11 51  1  0  0  0
 13 52  1  0  0  0
 13 53  1  0  0  0
 13 54  1  0  0  0
 15 55  1  0  0  0
 15 56  1  0  0  0
 17 57  1  0  0  0
 18 58  1  0  0  0
 19 59  1  0  0  0
 21 60  1  0  0  0
 23 61  1  0  0  0
 24 62  1  0  0  0
 25 63  1  0  0  0
 25 64  1  0  0  0
 25 65  1  0  0  0
 27 66  1  0  0  0
 28 67  1  0  0  0
 30 68  1  0  0  0
 31 69  1  0  0  0
 32 70  1  0  0  0
 35 71  1  0  0  0
M  END
$$$$
