3n5j_ligand
  -I-interpret- 

 24 25  0  0  0  0  0  0  0  0999 V2000
    1.3970   75.3980   29.7180 Cl  0  0  0  0  0
    2.9780   75.9050   29.3200 C   0  0  0  0  0
    4.0170   75.0090   29.1350 C   0  0  0  0  0
    3.9590   73.6700   29.2160 N   0  0  0  0  0
    5.1590   73.1460   28.9910 C   0  0  0  0  0
    6.0450   74.1600   28.7380 C   0  0  0  0  0
    5.2820   75.4490   28.8360 C   0  0  0  0  0
    5.5890   76.8250   28.6860 C   0  0  0  0  0
    4.4980   77.7250   28.8600 C   0  0  0  0  0
    3.2260   77.2640   29.1900 C   0  0  0  0  0
    4.6090   79.4610   28.6970 Cl  0  0  0  0  0
    7.5190   74.0440   28.4070 C   0  0  0  0  0
    7.7770   74.6580   27.0580 C   0  0  0  0  0
    6.9050   74.7210   26.2000 O   0  0  0  0  0
    9.0200   75.1210   26.8630 O   0  0  0  0  0
    5.4100   71.8150   29.0140 C   0  0  0  0  0
    6.5520   71.3870   28.9300 O   0  0  0  0  0
    4.3930   70.9480   29.1210 O   0  0  0  0  0
    6.5954   77.1723   28.4525 H   0  0  0  0  0
    2.4174   77.9777   29.3477 H   0  0  0  0  0
    7.8070   72.9929   28.3900 H   0  0  0  0  0
    8.1045   74.5668   29.1633 H   0  0  0  0  0
    9.5426   74.9750   27.6550 H   0  0  0  0  0
    3.5659   71.4321   29.1773 H   0  0  0  0  0
  1  2  1  0  0  0
  2  3  4  0  0  0
  2 10  4  0  0  0
  3  4  4  0  0  0
  3  7  4  0  0  0
  4  5  4  0  0  0
  5  6  4  0  0  0
  5 16  1  0  0  0
  6  7  4  0  0  0
  6 12  1  0  0  0
  7  8  4  0  0  0
  8  9  4  0  0  0
  9 10  4  0  0  0
  9 11  1  0  0  0
 12 13  1  0  0  0
 13 14  2  0  0  0
 13 15  1  0  0  0
 16 17  2  0  0  0
 16 18  1  0  0  0
  8 19  1  0  0  0
 10 20  1  0  0  0
 12 21  1  0  0  0
 12 22  1  0  0  0
 15 23  1  0  0  0
 18 24  1  0  0  0
M  END
$$$$
