### 
### Created by X-TOOL on Mon Sep 10 21:12:51 2018
### 

@<TRIPOS>MOLECULE
1vjd_ligand
   43    45     1     0     0
SMALL
GAST_HUCK


@<TRIPOS>ATOM
      1 PG          7.2830    4.1830    7.4010 P.3       1 ATP         0.1879
      2 O1G         8.3390    4.6840    6.4980 O.co2     1 ATP        -0.6091
      3 O2G         7.3640    2.7460    7.7120 O.co2     1 ATP        -0.6091
      4 O3G         7.0210    5.0980    8.5660 O.co2     1 ATP        -0.6091
      5 PB          5.6130    4.9560    5.0640 P.3       1 ATP         0.3553
      6 O1B         6.8010    5.7980    4.7040 O.co2     1 ATP        -0.5652
      7 O2B         4.2950    5.6100    5.1440 O.co2     1 ATP        -0.5652
      8 O3B         5.9420    4.2060    6.4960 O.3       1 ATP        -0.1546
      9 PA          5.2320    3.4470    2.5720 P.3       1 ATP         0.3266
     10 O1A         5.4370    2.0140    2.3280 O.co2     1 ATP        -0.5692
     11 O2A         3.9180    4.0500    2.2160 O.co2     1 ATP        -0.5692
     12 O3A         5.6430    3.7440    4.0820 O.3       1 ATP        -0.1171
     13 O5          6.3690    4.2240    1.8300 O.3       1 ATP        -0.2441
     14 C5          7.7580    4.1050    2.1670 C.3       1 ATP         0.1131
     15 C4          8.5460    3.9370    0.9050 C.3       1 ATP         0.1189
     16 O4          8.3460    5.1360    0.1280 O.3       1 ATP        -0.3364
     17 C3         10.0370    3.8370    1.0960 C.3       1 ATP         0.1149
     18 O3         10.4680    2.4940    0.8260 O.3       1 ATP        -0.3864
     19 C2         10.6100    4.8490    0.1200 C.3       1 ATP         0.1385
     20 O2         11.6160    4.3220   -0.7240 O.3       1 ATP        -0.3836
     21 C1          9.4170    5.2240   -0.7900 C.3       1 ATP         0.2010
     22 N9          9.4830    6.6130   -1.3410 N.pl3     1 ATP        -0.1919
     23 C8          9.6880    7.8040   -0.6820 C.2       1 ATP         0.1123
     24 N7          9.6970    8.8620   -1.4420 N.2       1 ATP        -0.2958
     25 C5          9.4830    8.3270   -2.7060 C.ar      1 ATP         0.1045
     26 C6          9.3770    8.9150   -3.9990 C.ar      1 ATP         0.1298
     27 N6          9.4930   10.2250   -4.1670 N.pl3     1 ATP        -0.3152
     28 N1          9.1550    8.1100   -5.0750 N.ar      1 ATP        -0.2698
     29 C2          9.0400    6.7870   -4.8980 C.ar      1 ATP         0.0533
     30 N3          9.1200    6.1010   -3.7330 N.ar      1 ATP        -0.2714
     31 C4          9.3440    6.9530   -2.6580 C.ar      1 ATP         0.1613
     32 H1          7.9077    3.2296    2.8160 H         1 ATP         0.0648
     33 H2          8.0903    5.0123    2.6927 H         1 ATP         0.0648
     34 H3          8.1836    3.0486    0.3671 H         1 ATP         0.0651
     35 H4         10.3174    4.1043    2.1255 H         1 ATP         0.0648
     36 H5         11.4083    2.4340    0.9472 H         1 ATP         0.2100
     37 H6         10.9989    5.7234    0.6625 H         1 ATP         0.0676
     38 H7         12.3363    4.0012   -0.1942 H         1 ATP         0.2101
     39 H8          9.3114    4.5074   -1.6178 H         1 ATP         0.0996
     40 H9          9.8321    7.8579    0.3961 H         1 ATP         0.1349
     41 H10         9.4135   10.6324   -5.1097 H         1 ATP         0.1820
     42 H11         9.6626   10.8354   -3.3548 H         1 ATP         0.1820
     43 H12         8.8624    6.1976   -5.7902 H         1 ATP         0.0996
@<TRIPOS>BOND
     1    1    2 ar 
     2    1    3 ar 
     3    1    4 ar 
     4    8    1 1  
     5    5    6 ar 
     6    5    7 ar 
     7    5    8 1  
     8   12    5 1  
     9    9   10 ar 
    10    9   11 ar 
    11    9   12 1  
    12    9   13 1  
    13   13   14 1  
    14   14   15 1  
    15   15   16 1  
    16   15   17 1  
    17   16   21 1  
    18   17   18 1  
    19   17   19 1  
    20   19   20 1  
    21   19   21 1  
    22   21   22 1  
    23   22   23 1  
    24   22   31 1  
    25   23   24 2  
    26   24   25 1  
    27   25   26 ar 
    28   25   31 ar 
    29   26   27 1  
    30   26   28 ar 
    31   28   29 ar 
    32   29   30 ar 
    33   30   31 ar 
    34   14   32 1  
    35   14   33 1  
    36   15   34 1  
    37   17   35 1  
    38   18   36 1  
    39   19   37 1  
    40   20   38 1  
    41   21   39 1  
    42   23   40 1  
    43   27   41 1  
    44   27   42 1  
    45   29   43 1  
@<TRIPOS>SUBSTRUCTURE
     1 ATP         1

