1vjd_ligand
  -I-interpret- 

 47 49  0  0  0  0  0  0  0  0999 V2000
    7.2830    4.1830    7.4010 P   0  0  0  0  0
    8.3390    4.6840    6.4980 O   0  0  0  0  0
    7.3640    2.7460    7.7120 O   0  0  0  0  0
    7.0210    5.0980    8.5660 O   0  0  0  0  0
    5.6130    4.9560    5.0640 P   0  0  0  0  0
    6.8010    5.7980    4.7040 O   0  0  0  0  0
    4.2950    5.6100    5.1440 O   0  0  0  0  0
    5.9420    4.2060    6.4960 O   0  0  0  0  0
    5.2320    3.4470    2.5720 P   0  0  0  0  0
    5.4370    2.0140    2.3280 O   0  0  0  0  0
    3.9180    4.0500    2.2160 O   0  0  0  0  0
    5.6430    3.7440    4.0820 O   0  0  0  0  0
    6.3690    4.2240    1.8300 O   0  0  0  0  0
    7.7580    4.1050    2.1670 C   0  0  0  0  0
    8.5460    3.9370    0.9050 C   0  0  0  0  0
    8.3460    5.1360    0.1280 O   0  0  0  0  0
   10.0370    3.8370    1.0960 C   0  0  0  0  0
   10.4680    2.4940    0.8260 O   0  0  0  0  0
   10.6100    4.8490    0.1200 C   0  0  0  0  0
   11.6160    4.3220   -0.7240 O   0  0  0  0  0
    9.4170    5.2240   -0.7900 C   0  0  0  0  0
    9.4830    6.6130   -1.3410 N   0  0  0  0  0
    9.6880    7.8040   -0.6820 C   0  0  0  0  0
    9.6970    8.8620   -1.4420 N   0  0  0  0  0
    9.4830    8.3270   -2.7060 C   0  0  0  0  0
    9.3770    8.9150   -3.9990 C   0  0  0  0  0
    9.4930   10.2250   -4.1670 N   0  0  0  0  0
    9.1550    8.1100   -5.0750 N   0  0  0  0  0
    9.0400    6.7870   -4.8980 C   0  0  0  0  0
    9.1200    6.1010   -3.7330 N   0  0  0  0  0
    9.3440    6.9530   -2.6580 C   0  0  0  0  0
    8.2118    5.6238    6.3490 H   0  0  0  0  0
    6.9872    6.0062    8.2568 H   0  0  0  0  0
    7.5881    5.2487    4.6881 H   0  0  0  0  0
    3.9284    4.9860    2.4293 H   0  0  0  0  0
    7.9089    3.2418    2.8152 H   0  0  0  0  0
    8.0890    5.0001    2.6936 H   0  0  0  0  0
    8.2022    3.0087    0.4487 H   0  0  0  0  0
   10.3682    4.0516    2.1120 H   0  0  0  0  0
   11.4182    2.4333    0.9485 H   0  0  0  0  0
   11.0609    5.6694    0.6783 H   0  0  0  0  0
   11.9323    5.0116   -1.3122 H   0  0  0  0  0
    9.3583    4.5895   -1.6743 H   0  0  0  0  0
    9.8323    7.8579    0.3971 H   0  0  0  0  0
    9.6610   10.8294   -3.3627 H   0  0  0  0  0
    9.4142   10.6284   -5.1005 H   0  0  0  0  0
    8.8614    6.1943   -5.7952 H   0  0  0  0  0
  1  2  1  0  0  0
  1  3  2  0  0  0
  1  4  1  0  0  0
  8  1  1  0  0  0
  5  6  1  0  0  0
  5  7  2  0  0  0
  5  8  1  0  0  0
 12  5  1  0  0  0
  9 10  2  0  0  0
  9 11  1  0  0  0
  9 12  1  0  0  0
  9 13  1  0  0  0
 13 14  1  0  0  0
 14 15  1  0  0  0
 15 16  1  0  0  0
 15 17  1  0  0  0
 16 21  1  0  0  0
 17 18  1  0  0  0
 17 19  1  0  0  0
 19 20  1  0  0  0
 19 21  1  0  0  0
 21 22  1  0  0  0
 22 23  4  0  0  0
 22 31  4  0  0  0
 23 24  4  0  0  0
 24 25  4  0  0  0
 25 26  4  0  0  0
 25 31  4  0  0  0
 26 27  1  0  0  0
 26 28  4  0  0  0
 28 29  4  0  0  0
 29 30  4  0  0  0
 30 31  4  0  0  0
  2 32  1  0  0  0
  4 33  1  0  0  0
  6 34  1  0  0  0
 11 35  1  0  0  0
 14 36  1  0  0  0
 14 37  1  0  0  0
 15 38  1  0  0  0
 17 39  1  0  0  0
 18 40  1  0  0  0
 19 41  1  0  0  0
 20 42  1  0  0  0
 21 43  1  0  0  0
 23 44  1  0  0  0
 27 45  1  0  0  0
 27 46  1  0  0  0
 29 47  1  0  0  0
M  END
$$$$
