1ld8_ligand
  -I-interpret- 

 55 60  0  0  0  0  0  0  0  0999 V2000
   15.2930  134.4200   -3.0620 C   0  0  0  0  0
   15.5770  135.8030   -2.8820 C   0  0  0  0  0
   14.1870  134.0060   -3.8990 C   0  0  0  0  0
   16.0620  133.4170   -2.4560 C   0  0  0  0  0
   16.6910  136.1060   -2.0350 N   0  0  0  0  0
   14.7570  136.7860   -3.5420 C   0  0  0  0  0
   13.9130  132.6170   -4.0660 C   0  0  0  0  0
   13.3880  134.9980   -4.5460 C   0  0  0  0  0
   15.8180  132.0450   -2.6250 C   0  0  0  0  0
   17.9770  136.5960   -2.5700 C   0  0  0  0  0
   16.6730  136.1110   -0.6310 C   0  0  0  0  0
   13.6750  136.3790   -4.3680 C   0  0  0  0  0
   14.7230  131.6340   -3.4280 C   0  0  0  0  0
   16.7140  131.0540   -2.1320 O   0  0  0  0  0
   18.6690  137.2660   -1.3740 C   0  0  0  0  0
   18.0900  136.3700   -0.2800 C   0  0  0  0  0
   18.0930  131.4400   -2.1740 C   0  0  0  0  0
   18.8310  131.6820   -3.3830 C   0  0  0  0  0
   18.7330  131.5860   -0.9240 C   0  0  0  0  0
   19.6380  135.0250    0.7280 C   0  0  0  0  0
   20.1920  132.0750   -3.3000 C   0  0  0  0  0
   18.1740  131.5160   -4.6580 C   0  0  0  0  0
   20.1070  131.9730   -0.8300 C   0  0  0  0  0
   19.4460  133.9210    1.7070 C   0  0  0  0  0
   20.8310  132.2230   -2.0320 C   0  0  0  0  0
   17.5810  131.3730   -5.6270 N   0  0  0  0  0
   20.8290  132.1280    0.5050 C   0  0  0  0  0
   19.9820  132.6550    1.5820 N   0  0  0  0  0
   18.7520  133.8810    2.8980 C   0  0  0  0  0
   19.5970  131.9410    2.6740 C   0  0  0  0  0
   18.8490  132.6640    3.4890 N   0  0  0  0  0
   15.7570  135.9660    0.1240 O   0  0  0  0  0
   18.6780  136.0770    0.9670 N   0  3  0  0  0
   16.8939  133.7185   -1.8195 H   0  0  0  0  0
   14.9674  137.8470   -3.4072 H   0  0  0  0  0
   13.0748  132.3038   -4.6885 H   0  0  0  0  0
   12.5543  134.6946   -5.1792 H   0  0  0  0  0
   17.8341  137.2906   -3.3977 H   0  0  0  0  0
   18.5781  135.7875   -2.9861 H   0  0  0  0  0
   13.0620  137.1292   -4.8676 H   0  0  0  0  0
   14.5031  130.5741   -3.5558 H   0  0  0  0  0
   18.4852  138.3341   -1.2579 H   0  0  0  0  0
   19.7570  137.3126   -1.4215 H   0  0  0  0  0
   18.7401  135.5400   -0.0032 H   0  0  0  0  0
   18.1679  131.3998   -0.0107 H   0  0  0  0  0
   19.4969  134.6359   -0.2804 H   0  0  0  0  0
   20.6444  135.4288    0.8388 H   0  0  0  0  0
   20.7552  132.2658   -4.2135 H   0  0  0  0  0
   21.8762  132.5283   -1.9829 H   0  0  0  0  0
   21.6409  132.8394    0.3537 H   0  0  0  0  0
   21.1619  131.1360    0.8105 H   0  0  0  0  0
   18.1955  134.7217    3.3123 H   0  0  0  0  0
   19.8714  130.9016    2.8544 H   0  0  0  0  0
   17.9737  135.7830    1.6437 H   0  0  0  0  0
   19.1297  136.9020    1.3615 H   0  0  0  0  0
  2  1  4  0  0  0
  1  3  4  0  0  0
  1  4  4  0  0  0
  5  2  1  0  0  0
  2  6  4  0  0  0
  3  7  4  0  0  0
  3  8  4  0  0  0
  4  9  4  0  0  0
 10  5  1  0  0  0
 11  5  1  0  0  0
  6 12  4  0  0  0
  7 13  4  0  0  0
 12  8  4  0  0  0
  9 13  4  0  0  0
  9 14  1  0  0  0
 15 10  1  0  0  0
 16 11  1  0  0  0
 11 32  2  0  0  0
 14 17  1  0  0  0
 16 15  1  0  0  0
 33 16  1  0  0  0
 17 18  4  0  0  0
 17 19  4  0  0  0
 18 21  4  0  0  0
 18 22  1  0  0  0
 19 23  4  0  0  0
 20 24  1  0  0  0
 20 33  1  0  0  0
 21 25  4  0  0  0
 22 26  3  0  0  0
 23 25  4  0  0  0
 23 27  1  0  0  0
 24 28  4  0  0  0
 24 29  4  0  0  0
 27 28  1  0  0  0
 28 30  4  0  0  0
 29 31  4  0  0  0
 30 31  4  0  0  0
  4 34  1  0  0  0
  6 35  1  0  0  0
  7 36  1  0  0  0
  8 37  1  0  0  0
 10 38  1  0  0  0
 10 39  1  0  0  0
 12 40  1  0  0  0
 13 41  1  0  0  0
 15 42  1  0  0  0
 15 43  1  0  0  0
 16 44  1  0  0  0
 19 45  1  0  0  0
 20 46  1  0  0  0
 20 47  1  0  0  0
 21 48  1  0  0  0
 25 49  1  0  0  0
 27 50  1  0  0  0
 27 51  1  0  0  0
 29 52  1  0  0  0
 30 53  1  0  0  0
 33 54  1  0  0  0
 33 55  1  0  0  0
M  END
$$$$
