3rxg_ligand
  -I-interpret- 

 22 22  0  0  0  0  0  0  0  0999 V2000
   -1.8230  -13.0100   18.1140 N   0  3  0  0  0
   -1.3590  -16.6540   13.7340 O   0  0  0  0  0
   -1.3590  -13.9410   17.0970 C   0  0  0  0  0
   -1.5750  -13.3400   15.7160 C   0  0  0  0  0
   -1.1370  -14.2560   14.5810 C   0  0  0  0  0
   -1.5160  -15.7220   14.8250 C   0  0  0  0  0
   -1.6280  -16.2920   16.2460 C   0  0  0  0  0
   -2.1260  -15.2510   17.2380 C   0  0  0  0  0
   -1.3139  -12.1305   18.0258 H   0  0  0  0  0
   -2.8210  -12.8407   17.9883 H   0  0  0  0  0
   -1.6583  -13.4083   19.0384 H   0  0  0  0  0
   -1.3017  -16.1700   12.9069 H   0  0  0  0  0
   -0.2941  -14.1351   17.2252 H   0  0  0  0  0
   -0.9743  -12.4325   15.6556 H   0  0  0  0  0
   -2.6439  -13.1614   15.5995 H   0  0  0  0  0
   -0.0512  -14.1990   14.5045 H   0  0  0  0  0
   -1.6400  -13.9268   13.6717 H   0  0  0  0  0
   -2.5807  -15.4919   14.7846 H   0  0  0  0  0
   -0.6373  -16.6186   16.5621 H   0  0  0  0  0
   -2.3415  -17.1158   16.2283 H   0  0  0  0  0
   -3.1805  -15.0590   17.0398 H   0  0  0  0  0
   -1.9766  -15.6339   18.2475 H   0  0  0  0  0
  3  1  1  0  0  0
  6  2  1  0  0  0
  4  3  1  0  0  0
  3  8  1  0  0  0
  5  4  1  0  0  0
  5  6  1  0  0  0
  6  7  1  0  0  0
  7  8  1  0  0  0
  1  9  1  0  0  0
  1 10  1  0  0  0
  1 11  1  0  0  0
  2 12  1  0  0  0
  3 13  1  0  0  0
  4 14  1  0  0  0
  4 15  1  0  0  0
  5 16  1  0  0  0
  5 17  1  0  0  0
  6 18  1  0  0  0
  7 19  1  0  0  0
  7 20  1  0  0  0
  8 21  1  0  0  0
  8 22  1  0  0  0
M  END
$$$$
