3hpt_ligand
  -I-interpret- 

 62 65  0  0  0  0  0  0  0  0999 V2000
    4.0830   13.1300   28.3470 O   0  0  0  0  0
    4.6360   12.8850   29.4030 C   0  0  0  0  0
    5.6120   13.6490   29.8930 N   0  0  0  0  0
    6.2800   13.3690   31.1610 C   0  0  0  0  0
    7.3100   14.4820   31.3020 C   0  0  0  0  0
    6.0970   14.8420   29.2040 C   0  0  0  0  0
    7.3380   15.2480   29.9920 C   0  0  0  0  0
    4.2180   11.6790   30.2210 C   0  0  0  0  0
    3.1820   10.9110   29.5410 N   0  0  0  0  0
    3.5190    9.8300   28.8250 C   0  0  0  0  0
    4.6790    9.4630   28.7100 O   0  0  0  0  0
    1.8160   11.4330   29.7220 C   0  0  0  0  0
    1.0340   10.4120   30.5530 C   0  0  0  0  0
    0.4480    9.3300   29.6430 C   0  0  0  0  0
    1.5260    8.3640   29.1300 C   0  0  0  0  0
    2.4460    9.0470   28.1160 C   0  0  0  0  0
    3.0790    8.0360   27.2680 N   0  0  0  0  0
    2.5220    7.4820   26.1850 C   0  0  0  0  0
    1.2760    7.8430   25.8330 N   0  0  0  0  0
    0.6940    7.3810   24.8730 C   0  0  0  0  0
    0.1270    6.9000   23.9810 N   0  0  0  0  0
    3.2160    6.5740   25.4700 N   0  0  0  0  0
    4.5290    6.1910   25.8150 C   0  0  0  0  0
    4.8310    5.8870   27.1510 C   0  0  0  0  0
    5.5300    6.1240   24.8350 C   0  0  0  0  0
    6.8190    5.7480   25.2200 C   0  0  0  0  0
    7.0730    5.4610   26.5400 C   0  0  0  0  0
    6.1150    5.5160   27.5320 C   0  0  0  0  0
    8.4240    5.1050   26.6950 O   0  0  0  0  0
    8.9490    5.2030   25.4390 C   0  0  0  0  0
   10.3940    4.8980   25.1880 C   0  0  0  0  0
    8.0380    5.5900   24.4440 C   0  0  0  0  0
    6.7411   12.3814   31.1710 H   0  0  0  0  0
    5.5803   13.3510   31.9966 H   0  0  0  0  0
    8.2932   14.0654   31.5205 H   0  0  0  0  0
    7.0438   15.1451   32.1252 H   0  0  0  0  0
    5.3491   15.6344   29.1761 H   0  0  0  0  0
    6.3199   14.6497   28.1545 H   0  0  0  0  0
    8.2423   15.0139   29.4303 H   0  0  0  0  0
    7.3407   16.3223   30.1761 H   0  0  0  0  0
    3.8220   12.0271   31.1750 H   0  0  0  0  0
    5.0880   11.0380   30.3635 H   0  0  0  0  0
    1.3358   11.5827   28.7550 H   0  0  0  0  0
    1.8424   12.3963   30.2314 H   0  0  0  0  0
    0.2218   10.9207   31.0722 H   0  0  0  0  0
    1.7069    9.9471   31.2735 H   0  0  0  0  0
   -0.0089    9.8189   28.7826 H   0  0  0  0  0
   -0.2776    8.7561   30.2194 H   0  0  0  0  0
    1.0344    7.5227   28.6415 H   0  0  0  0  0
    2.1273    8.0331   29.9768 H   0  0  0  0  0
    1.8483    9.7252   27.5070 H   0  0  0  0  0
    3.1587    7.2407   27.9016 H   0  0  0  0  0
    2.2951    6.9837   25.2425 H   0  0  0  0  0
    0.7952    8.5404   26.4012 H   0  0  0  0  0
    2.7772    6.1500   24.6526 H   0  0  0  0  0
    4.0445    5.9428   27.9036 H   0  0  0  0  0
    5.3068    6.3604   23.7946 H   0  0  0  0  0
    6.3549    5.2789   28.5685 H   0  0  0  0  0
   11.0142    5.5717   25.7792 H   0  0  0  0  0
   10.6013    3.8667   25.4736 H   0  0  0  0  0
   10.6142    5.0345   24.1292 H   0  0  0  0  0
    8.2008    5.7336   23.3758 H   0  0  0  0  0
  1  2  2  0  0  0
  2  3  1  0  0  0
  2  8  1  0  0  0
  3  4  1  0  0  0
  3  6  1  0  0  0
  4  5  1  0  0  0
  5  7  1  0  0  0
  6  7  1  0  0  0
  8  9  1  0  0  0
  9 10  1  0  0  0
  9 12  1  0  0  0
 10 11  2  0  0  0
 10 16  1  0  0  0
 12 13  1  0  0  0
 13 14  1  0  0  0
 14 15  1  0  0  0
 15 16  1  0  0  0
 16 17  1  0  0  0
 17 18  1  0  0  0
 18 19  1  0  0  0
 18 22  1  0  0  0
 19 20  1  0  0  0
 20 21  3  0  0  0
 22 23  1  0  0  0
 23 24  4  0  0  0
 23 25  4  0  0  0
 24 28  4  0  0  0
 25 26  4  0  0  0
 26 27  4  0  0  0
 26 32  4  0  0  0
 27 28  4  0  0  0
 27 29  4  0  0  0
 29 30  4  0  0  0
 30 31  1  0  0  0
 30 32  4  0  0  0
  4 33  1  0  0  0
  4 34  1  0  0  0
  5 35  1  0  0  0
  5 36  1  0  0  0
  6 37  1  0  0  0
  6 38  1  0  0  0
  7 39  1  0  0  0
  7 40  1  0  0  0
  8 41  1  0  0  0
  8 42  1  0  0  0
 12 43  1  0  0  0
 12 44  1  0  0  0
 13 45  1  0  0  0
 13 46  1  0  0  0
 14 47  1  0  0  0
 14 48  1  0  0  0
 15 49  1  0  0  0
 15 50  1  0  0  0
 16 51  1  0  0  0
 17 52  1  0  0  0
 18 53  1  0  0  0
 19 54  1  0  0  0
 22 55  1  0  0  0
 24 56  1  0  0  0
 25 57  1  0  0  0
 28 58  1  0  0  0
 31 59  1  0  0  0
 31 60  1  0  0  0
 31 61  1  0  0  0
 32 62  1  0  0  0
M  END
$$$$
