6dpt_ligand
  -I-interpret- 

 38 40  0  0  0  0  0  0  0  0999 V2000
   19.3330    7.2720  -29.3150 C   0  0  0  0  0
   19.9600    6.4630  -26.7650 C   0  0  0  0  0
   17.7780    9.5910  -23.0500 C   0  0  0  0  0
   16.8220    8.6630  -22.5830 C   0  0  0  0  0
   17.0810    7.2990  -22.6150 C   0  0  0  0  0
   18.2780    6.8380  -23.1090 C   0  0  0  0  0
   24.6870    7.8620  -28.0460 C   0  0  0  0  0
   24.9700    6.6920  -30.2070 C   0  0  0  0  0
   23.5530    5.8280  -28.8570 C   0  0  0  0  0
   20.8880    6.3140  -27.7830 C   0  0  0  0  0
   20.5960    6.7150  -29.0600 C   0  0  0  0  0
   18.4090    7.4230  -28.3020 C   0  0  0  0  0
   18.6990    7.0180  -27.0240 C   0  0  0  0  0
   19.2320    7.7870  -23.5620 C   0  0  0  0  0
   18.9820    9.1460  -23.5440 C   0  0  0  0  0
   24.4120    6.8190  -29.0140 N   0  0  0  0  0
   24.4620    5.6240  -30.7940 N   0  0  0  0  0
   23.5600    5.0770  -29.9370 N   0  0  0  0  0
   20.3380    5.9910  -25.4300 N   0  0  0  0  0
   21.6380    6.3820  -23.2930 O   0  0  0  0  0
   21.6090    8.1740  -24.8320 O   0  0  0  0  0
   18.6390    5.4190  -23.2030 O   0  0  0  0  0
   22.5040    5.5500  -27.3740 S   0  0  0  0  0
   20.7850    7.1100  -24.2420 S   0  0  0  0  0
   15.8170    6.2010  -21.9940 Cl  0  0  0  0  0
   19.0792    7.5893  -30.3264 H   0  0  0  0  0
   17.5621   10.6590  -23.0191 H   0  0  0  0  0
   15.8694    9.0213  -22.1927 H   0  0  0  0  0
   25.7416    7.8327  -27.7720 H   0  0  0  0  0
   24.4504    8.8324  -28.4823 H   0  0  0  0  0
   24.0751    7.7025  -27.1582 H   0  0  0  0  0
   25.7217    7.3565  -30.6330 H   0  0  0  0  0
   21.3279    6.6040  -29.8600 H   0  0  0  0  0
   17.4384    7.8688  -28.5194 H   0  0  0  0  0
   17.9641    7.1255  -26.2262 H   0  0  0  0  0
   19.7252    9.8521  -23.9144 H   0  0  0  0  0
   20.3317    4.9933  -25.2181 H   0  0  0  0  0
   19.5193    5.3380  -23.5774 H   0  0  0  0  0
 11  1  4  0  0  0
 12  1  4  0  0  0
  2 10  4  0  0  0
  2 13  4  0  0  0
 19  2  1  0  0  0
  3  4  4  0  0  0
 15  3  4  0  0  0
  5  4  4  0  0  0
  6  5  4  0  0  0
  5 25  1  0  0  0
 14  6  4  0  0  0
  6 22  1  0  0  0
 16  7  1  0  0  0
 16  8  4  0  0  0
 17  8  4  0  0  0
  9 16  4  0  0  0
  9 18  4  0  0  0
 23  9  1  0  0  0
 10 11  4  0  0  0
 10 23  1  0  0  0
 13 12  4  0  0  0
 14 15  4  0  0  0
 24 14  1  0  0  0
 18 17  4  0  0  0
 19 24  1  0  0  0
 24 20  2  0  0  0
 24 21  2  0  0  0
  1 26  1  0  0  0
  3 27  1  0  0  0
  4 28  1  0  0  0
  7 29  1  0  0  0
  7 30  1  0  0  0
  7 31  1  0  0  0
  8 32  1  0  0  0
 11 33  1  0  0  0
 12 34  1  0  0  0
 13 35  1  0  0  0
 15 36  1  0  0  0
 19 37  1  0  0  0
 22 38  1  0  0  0
M  END
$$$$
