5tt8_ligand
  -I-interpret- 

 27 28  0  0  0  0  0  0  0  0999 V2000
    5.9050  -42.7590  -78.7750 C   0  0  0  0  0
    4.5660  -43.1060  -78.6300 C   0  0  0  0  0
    4.2110  -44.4320  -78.4370 C   0  0  0  0  0
    5.1920  -45.4150  -78.3880 C   0  0  0  0  0
    6.5360  -45.0670  -78.5330 C   0  0  0  0  0
    6.8910  -43.7450  -78.7250 C   0  0  0  0  0
    8.6100  -43.2990  -78.9110 S   0  0  0  0  0
    9.3210  -43.4880  -77.5990 O   0  0  0  0  0
    9.2560  -44.1890  -79.9730 O   0  0  0  0  0
    8.7230  -41.7290  -79.3720 N   0  0  0  0  0
    9.1680  -40.7340  -78.4290 C   0  0  0  0  0
    9.2720  -40.8660  -76.7190 S   0  0  0  0  0
    9.6020  -39.4780  -78.6860 N   0  0  0  0  0
    9.9770  -38.7040  -77.6250 N   0  0  0  0  0
    9.8760  -39.2780  -76.4100 C   0  0  0  0  0
   10.2810  -38.5510  -74.8180 S   0  0  0  0  0
    9.5790  -37.2170  -74.6780 O   0  0  0  0  0
    9.8330  -39.4700  -73.7210 O   0  0  0  0  0
   11.9060  -38.3270  -74.7150 N   0  0  0  0  0
    6.1842  -41.7165  -78.9277 H   0  0  0  0  0
    3.7960  -42.3355  -78.6681 H   0  0  0  0  0
    3.1615  -44.7038  -78.3236 H   0  0  0  0  0
    4.9121  -46.4575  -78.2364 H   0  0  0  0  0
    7.3057  -45.8379  -78.4948 H   0  0  0  0  0
    8.4788  -41.4573  -80.3243 H   0  0  0  0  0
   12.2839  -37.3897  -74.5769 H   0  0  0  0  0
   12.5366  -39.1253  -74.7892 H   0  0  0  0  0
  1  2  4  0  0  0
  1  6  4  0  0  0
  2  3  4  0  0  0
  3  4  4  0  0  0
  4  5  4  0  0  0
  5  6  4  0  0  0
  6  7  1  0  0  0
  7  8  2  0  0  0
  7  9  2  0  0  0
  7 10  1  0  0  0
 10 11  1  0  0  0
 11 12  4  0  0  0
 11 13  4  0  0  0
 12 15  4  0  0  0
 13 14  4  0  0  0
 14 15  4  0  0  0
 15 16  1  0  0  0
 16 17  2  0  0  0
 16 18  2  0  0  0
 16 19  1  0  0  0
  1 20  1  0  0  0
  2 21  1  0  0  0
  3 22  1  0  0  0
  4 23  1  0  0  0
  5 24  1  0  0  0
 10 25  1  0  0  0
 19 26  1  0  0  0
 19 27  1  0  0  0
M  END
$$$$
