3mv0_ligand
  -I-interpret- 

 22 22  0  0  0  0  0  0  0  0999 V2000
  -10.8460  -27.5770  -26.2650 C   0  0  0  0  0
   -9.8730  -28.6300  -25.7000 C   0  0  0  0  0
   -8.9990  -29.2240  -26.8200 C   0  0  0  0  0
   -9.8750  -29.6480  -28.0020 C   0  0  0  0  0
  -10.4740  -28.3680  -28.6400 C   0  0  0  0  0
  -11.5660  -28.7440  -29.6480 C   0  0  0  0  0
  -11.4030  -26.8140  -25.5150 O   0  0  0  0  0
   -9.0230  -28.0130  -24.7230 O   0  0  0  0  0
   -8.2970  -30.3570  -26.3100 O   0  0  0  0  0
  -10.9390  -30.5040  -27.5440 O   0  0  0  0  0
  -11.0860  -27.4840  -27.6220 O   0  0  0  0  0
  -10.9720  -29.3830  -30.7770 O   0  0  0  0  0
  -10.4553  -29.4314  -25.2453 H   0  0  0  0  0
   -8.2882  -28.4723  -27.1631 H   0  0  0  0  0
   -9.2795  -30.1953  -28.7328 H   0  0  0  0  0
   -9.6540  -27.8426  -29.1296 H   0  0  0  0  0
  -12.0863  -27.8429  -29.9727 H   0  0  0  0  0
  -12.2759  -29.4243  -29.1775 H   0  0  0  0  0
   -9.5619  -27.6403  -24.0213 H   0  0  0  0  0
   -7.7495  -30.0861  -25.5695 H   0  0  0  0  0
  -10.5645  -31.2951  -27.1498 H   0  0  0  0  0
  -11.6569  -29.6179  -31.4074 H   0  0  0  0  0
  1  2  1  0  0  0
  1  7  2  0  0  0
  1 11  1  0  0  0
  2  3  1  0  0  0
  2  8  1  0  0  0
  3  4  1  0  0  0
  3  9  1  0  0  0
  4  5  1  0  0  0
  4 10  1  0  0  0
  5  6  1  0  0  0
  5 11  1  0  0  0
  6 12  1  0  0  0
  2 13  1  0  0  0
  3 14  1  0  0  0
  4 15  1  0  0  0
  5 16  1  0  0  0
  6 17  1  0  0  0
  6 18  1  0  0  0
  8 19  1  0  0  0
  9 20  1  0  0  0
 10 21  1  0  0  0
 12 22  1  0  0  0
M  END
$$$$
