4b7p_ligand
  -I-interpret- 

 56 59  0  0  0  0  0  0  0  0999 V2000
    8.0570    3.8370   11.0510 C   0  0  0  0  0
    6.8140    4.3370   11.4230 C   0  0  0  0  0
    5.6930    3.5700   11.2410 C   0  0  0  0  0
    5.7740    2.2760   10.7820 C   0  0  0  0  0
    7.0190    1.7210   10.4560 C   0  0  0  0  0
    8.1460    2.5290   10.5980 C   0  0  0  0  0
    9.3400    2.0010   10.2550 O   0  0  0  0  0
    6.7200    5.6280   11.8660 O   0  0  0  0  0
    4.6440    1.5500   10.7180 O   0  0  0  0  0
    4.4160    0.7230    9.6720 C   0  0  0  0  0
    3.9370   -0.5330   10.0520 C   0  0  0  0  0
    3.6350   -1.4330    9.0450 C   0  0  0  0  0
    3.8850   -1.0890    7.7390 C   0  0  0  0  0
    4.3590    0.1720    7.3520 C   0  0  0  0  0
    4.6480    1.1090    8.3460 C   0  0  0  0  0
    3.5420   -2.0660    6.8050 N   0  0  0  0  0
    3.0180   -1.6620    5.7770 O   0  0  0  0  0
    3.7250   -3.2570    7.0450 O   0  0  0  0  0
    4.3910    4.1410   11.5940 C   0  0  0  0  0
    4.1630    4.8950   12.6700 O   0  0  0  0  0
    2.7360    5.3060   12.6810 N   0  0  0  0  0
    2.2120    4.7350   11.6030 C   0  0  0  0  0
    3.1910    4.0400   10.8930 C   0  0  0  0  0
    0.7810    4.8470   11.2110 C   0  0  0  0  0
    0.4900    4.7250   10.0210 O   0  0  0  0  0
   -0.0900    5.0500   12.2090 N   0  0  0  0  0
   -1.5290    5.1510   11.9850 C   0  0  0  0  0
   -2.1550    5.7230   13.2900 C   0  0  0  0  0
   -3.6920    5.5720   13.1660 C   0  0  0  0  0
   -4.0490    4.1420   13.0090 N   0  3  0  0  0
   -3.5290    3.6440   11.7360 C   0  0  0  0  0
   -1.9970    3.7100   11.7650 C   0  0  0  0  0
   -5.5420    3.9600   13.0010 C   0  0  0  0  0
    8.9472    4.4629   11.1143 H   0  0  0  0  0
    7.1031    0.6930   10.1036 H   0  0  0  0  0
    9.2164    1.0938    9.9664 H   0  0  0  0  0
    5.8058    5.8249   12.0830 H   0  0  0  0  0
    3.8060   -0.7943   11.1021 H   0  0  0  0  0
    3.2033   -2.4045    9.2857 H   0  0  0  0  0
    4.4988    0.4157    6.2988 H   0  0  0  0  0
    5.0370    2.0972    8.1007 H   0  0  0  0  0
    3.0429    3.5096    9.9524 H   0  0  0  0  0
    0.2659    5.1372   13.1609 H   0  0  0  0  0
   -1.8043    5.7880   11.1445 H   0  0  0  0  0
   -1.8816    6.7702   13.4197 H   0  0  0  0  0
   -1.7855    5.1827   14.1616 H   0  0  0  0  0
   -4.0379    6.1262   12.2934 H   0  0  0  0  0
   -4.1649    5.9632   14.0668 H   0  0  0  0  0
   -3.6454    3.6294   13.7931 H   0  0  0  0  0
   -3.9087    4.2564   10.9181 H   0  0  0  0  0
   -3.8505    2.6136   11.5845 H   0  0  0  0  0
   -1.6303    3.0889   12.5823 H   0  0  0  0  0
   -1.6081    3.3520   10.8117 H   0  0  0  0  0
   -5.9562    4.3243   13.9411 H   0  0  0  0  0
   -5.9708    4.5222   12.1715 H   0  0  0  0  0
   -5.7772    2.9021   12.8846 H   0  0  0  0  0
  1  2  4  0  0  0
  1  6  4  0  0  0
  2  3  4  0  0  0
  2  8  1  0  0  0
  3  4  4  0  0  0
  3 19  1  0  0  0
  4  5  4  0  0  0
  4  9  1  0  0  0
  5  6  4  0  0  0
  6  7  1  0  0  0
  9 10  1  0  0  0
 10 11  4  0  0  0
 10 15  4  0  0  0
 11 12  4  0  0  0
 12 13  4  0  0  0
 13 14  4  0  0  0
 13 16  1  0  0  0
 14 15  4  0  0  0
 16 17  2  0  0  0
 16 18  2  0  0  0
 19 20  4  0  0  0
 19 23  4  0  0  0
 20 21  4  0  0  0
 21 22  4  0  0  0
 22 23  4  0  0  0
 22 24  1  0  0  0
 24 25  2  0  0  0
 24 26  1  0  0  0
 26 27  1  0  0  0
 27 28  1  0  0  0
 27 32  1  0  0  0
 28 29  1  0  0  0
 29 30  1  0  0  0
 30 31  1  0  0  0
 30 33  1  0  0  0
 31 32  1  0  0  0
  1 34  1  0  0  0
  5 35  1  0  0  0
  7 36  1  0  0  0
  8 37  1  0  0  0
 11 38  1  0  0  0
 12 39  1  0  0  0
 14 40  1  0  0  0
 15 41  1  0  0  0
 23 42  1  0  0  0
 26 43  1  0  0  0
 27 44  1  0  0  0
 28 45  1  0  0  0
 28 46  1  0  0  0
 29 47  1  0  0  0
 29 48  1  0  0  0
 30 49  1  0  0  0
 31 50  1  0  0  0
 31 51  1  0  0  0
 32 52  1  0  0  0
 32 53  1  0  0  0
 33 54  1  0  0  0
 33 55  1  0  0  0
 33 56  1  0  0  0
M  END
$$$$
