#	Name:			4wku_ligand
#	Creating user name:	wangrx
#	Creation time:		Thu Aug  5 16:53:30 2021

#	Modifying user name:	wangrx
#	Modification time:	Thu Aug  5 16:53:44 2021

@<TRIPOS>MOLECULE
4wku_ligand
   26    25     1     0     0
SMALL
GAST_HUCK


@<TRIPOS>ATOM
      1 B1         24.7300   26.6790    2.9200 B         1 3QJ         3.0000 
      2 O3         25.1270   26.6200    1.3270 O.3       1 3QJ        -0.4105 
      3 O2         23.0970   26.5720    3.0740 O.3       1 3QJ        -0.4105 
      4 C13        25.2970   28.0690    3.6270 C.3       1 3QJ        -0.3457 
      5 C12        25.1420   27.9360    5.1870 C.3       1 3QJ        -0.1827 
      6 C11        25.8450   29.0390    5.9350 C.3       1 3QJ        -0.0803 
      7 C10        25.4820   29.0930    7.3990 C.3       1 3QJ        -0.0556 
      8 C9         25.8290   30.4470    8.0220 C.3       1 3QJ        -0.0560 
      9 C8         25.7920   30.4300    9.5380 C.3       1 3QJ        -0.0653 
     10 H1         26.0704   26.6816    1.2344 H         1 3QJ         0.2052 
     11 H2         26.0705   26.6816    1.2344 H         1 3QJ         0.2052 
     12 H3         22.6886   27.2972    2.6159 H         1 3QJ         0.2052 
     13 H4         22.6887   27.2972    2.6159 H         1 3QJ         0.2052 
     14 H6         26.3582   28.2113    3.3748 H         1 3QJ        -0.2101 
     15 H7         24.7168   28.9340    3.2733 H         1 3QJ        -0.2101 
     16 H8         25.5656   26.9710    5.5022 H         1 3QJ        -0.0084 
     17 H9         24.0716   27.9663    5.4386 H         1 3QJ        -0.0084 
     18 H10        25.5764   30.0005    5.4730 H         1 3QJ         0.0241 
     19 H11        26.9304   28.8818    5.8500 H         1 3QJ         0.0241 
     20 H12        26.0335   28.3044    7.9318 H         1 3QJ         0.0264 
     21 H13        24.4009   28.9195    7.5042 H         1 3QJ         0.0264 
     22 H14        25.1058   31.1938    7.6623 H         1 3QJ         0.0263 
     23 H15        26.8413   30.7319    7.6995 H         1 3QJ         0.0263 
     24 H16        26.0494   31.4281    9.9222 H         1 3QJ         0.0230 
     25 H17        26.5177   29.6939    9.9143 H         1 3QJ         0.0230 
     26 H18        24.7822   30.1558    9.8771 H         1 3QJ         0.0230 
@<TRIPOS>BOND
     1    1    2 1    
     2    1    3 1    
     3    1    4 1    
     4    4    5 1    
     5    5    6 1    
     6    6    7 1    
     7    7    8 1    
     8    8    9 1    
     9    2   10 1    
    10    2   11 1    
    11    3   12 1    
    12    3   13 1    
    13    4   14 1    
    14    4   15 1    
    15    5   16 1    
    16    5   17 1    
    17    6   18 1    
    18    6   19 1    
    19    7   20 1    
    20    7   21 1    
    21    8   22 1    
    22    8   23 1    
    23    9   24 1    
    24    9   25 1    
    25    9   26 1    
@<TRIPOS>SUBSTRUCTURE
     1 3QJ         1 PERM              0 ****  ****    0 ROOT 
