4wku_ligand

Created by X-TOOL on Fri Nov 18 17:49:29 2016
 27 26  0  0  0  0  0  0  0  0999 V2000
   24.7300   26.6790    2.9200  B 0  0  0  1  0  3
   25.1270   26.6200    1.3270  O 0  0  0  3  0  3
   23.0970   26.5720    3.0740  O 0  0  0  3  0  3
   25.2970   28.0690    3.6270  C 0  0  0  4  0  5
   25.1420   27.9360    5.1870  C 0  0  0  3  0  4
   25.8450   29.0390    5.9350  C 0  0  0  3  0  4
   25.4820   29.0930    7.3990  C 0  0  0  3  0  4
   25.8290   30.4470    8.0220  C 0  0  0  3  0  4
   25.7920   30.4300    9.5380  C 0  0  0  4  0  4
   26.0704   26.6816    1.2344  H 0  0  0  1  0  1
   26.0705   26.6816    1.2344  H 0  0  0  1  0  1
   22.6886   27.2972    2.6159  H 0  0  0  1  0  1
   22.6887   27.2972    2.6159  H 0  0  0  1  0  1
   24.9244   27.1546    3.1423  H 0  0  0  1  0  1
   26.3582   28.2113    3.3748  H 0  0  0  1  0  1
   24.7168   28.9340    3.2733  H 0  0  0  1  0  1
   25.5656   26.9710    5.5022  H 0  0  0  1  0  1
   24.0716   27.9663    5.4386  H 0  0  0  1  0  1
   25.5764   30.0005    5.4730  H 0  0  0  1  0  1
   26.9304   28.8818    5.8500  H 0  0  0  1  0  1
   26.0335   28.3044    7.9318  H 0  0  0  1  0  1
   24.4009   28.9195    7.5042  H 0  0  0  1  0  1
   25.1058   31.1938    7.6623  H 0  0  0  1  0  1
   26.8413   30.7319    7.6995  H 0  0  0  1  0  1
   26.0494   31.4281    9.9222  H 0  0  0  1  0  1
   26.5177   29.6939    9.9143  H 0  0  0  1  0  1
   24.7822   30.1558    9.8771  H 0  0  0  1  0  1
  1  2  1  0  0  2
  1  3  1  0  0  2
  1  4  1  0  0  2
  4  5  1  0  0  2
  5  6  1  0  0  2
  6  7  1  0  0  2
  7  8  1  0  0  2
  8  9  1  0  0  2
  2 10  1  0  0  2
  2 11  1  0  0  2
  3 12  1  0  0  2
  3 13  1  0  0  2
  4 14  1  0  0  2
  4 15  1  0  0  2
  4 16  1  0  0  2
  5 17  1  0  0  2
  5 18  1  0  0  2
  6 19  1  0  0  2
  6 20  1  0  0  2
  7 21  1  0  0  2
  7 22  1  0  0  2
  8 23  1  0  0  2
  8 24  1  0  0  2
  9 25  1  0  0  2
  9 26  1  0  0  2
  9 27  1  0  0  2
M  END
> <MOLECULAR_FORMULA>
C6H18O2B

> <MOLECULAR_WEIGHT>
132.9

> <NUM_HB_ATOMS>
2  

> <NUM_ROTOR>
5  

> <XLOGP2>
2.01 

$$$$
