6esj_ligand
  -I-interpret- 

 66 69  0  0  0  0  0  0  0  0999 V2000
    2.9440  -13.9530  -15.2120 C   0  0  0  0  0
    2.8410  -12.4890  -15.1120 C   0  0  0  0  0
    3.5550  -11.8110  -14.0890 C   0  0  0  0  0
    4.3680  -12.6080  -13.1740 C   0  0  0  0  0
    4.4500  -14.0410  -13.2940 C   0  0  0  0  0
    3.7360  -14.7020  -14.3140 C   0  0  0  0  0
    3.3360  -10.3370  -14.1370 C   0  0  0  0  0
    2.5770   -9.6300  -14.9980 N   0  0  0  0  0
    1.8680  -10.3330  -16.0170 C   0  0  0  0  0
    1.9930  -11.7390  -16.0800 C   0  0  0  0  0
    1.0440   -9.6340  -16.9640 C   0  0  0  0  0
    0.3520  -10.3330  -17.9620 C   0  0  0  0  0
    0.4650  -11.7270  -18.0380 C   0  0  0  0  0
    1.2750  -12.4280  -17.1110 C   0  0  0  0  0
    4.1540   -9.8450  -13.0050 C   0  0  0  0  0
    5.4850   -9.4470  -13.1930 C   0  0  0  0  0
    6.2440   -8.9700  -12.0930 C   0  0  0  0  0
    5.6640   -8.8860  -10.8340 C   0  0  0  0  0
    4.3270   -9.2740  -10.6460 C   0  0  0  0  0
    3.5750   -9.7450  -11.7320 C   0  0  0  0  0
    5.2530  -14.7910  -12.3830 N   0  0  0  0  0
   -0.4590   -9.6270  -18.8910 N   0  0  0  0  0
    2.5130   -8.1190  -14.8400 C   0  0  0  0  0
    1.3850   -7.5530  -13.9670 C   0  0  0  0  0
    1.3150   -6.0430  -13.8280 C   0  0  0  0  0
    1.4230   -5.3820  -12.4690 N   0  3  0  0  0
    2.8210   -5.6460  -12.0110 C   0  0  0  0  0
    4.0850   -5.3130  -12.9200 C   0  0  0  0  0
    0.4900   -6.0080  -11.5650 C   0  0  0  0  0
    1.2220   -3.9060  -12.6410 C   0  0  0  0  0
   -0.1190   -3.2940  -12.7070 C   0  0  0  0  0
    2.3958  -14.4723  -15.9981 H   0  0  0  0  0
    4.9253  -12.1070  -12.3825 H   0  0  0  0  0
    3.7949  -15.7862  -14.4092 H   0  0  0  0  0
    2.7342   -9.7545  -14.8346 H   0  0  0  0  0
    0.9563   -8.5491  -16.9055 H   0  0  0  0  0
   -0.0720  -12.2742  -18.8128 H   0  0  0  0  0
    1.3536  -13.5127  -17.1834 H   0  0  0  0  0
    5.9365   -9.5039  -14.1834 H   0  0  0  0  0
    7.2820   -8.6696  -12.2362 H   0  0  0  0  0
    6.2474   -8.5182   -9.9899 H   0  0  0  0  0
    3.8743   -9.2090   -9.6566 H   0  0  0  0  0
    2.5345  -10.0350  -11.5856 H   0  0  0  0  0
    5.7700  -14.3122  -11.6455 H   0  0  0  0  0
    5.3099  -15.8057  -12.4695 H   0  0  0  0  0
   -0.5373   -8.6118  -18.8312 H   0  0  0  0  0
   -0.9629  -10.1355  -19.6176 H   0  0  0  0  0
    2.3397   -7.7236  -15.8409 H   0  0  0  0  0
    3.4416   -7.8333  -14.3460 H   0  0  0  0  0
    1.5640   -7.9369  -12.9627 H   0  0  0  0  0
    0.4550   -7.8513  -14.4510 H   0  0  0  0  0
    0.3099   -5.7915  -14.1664 H   0  0  0  0  0
    2.1922   -5.6858  -14.3675 H   0  0  0  0  0
    2.8567   -6.7308  -11.9107 H   0  0  0  0  0
    2.9394   -4.9817  -11.1550 H   0  0  0  0  0
    4.0221   -5.8794  -13.8492 H   0  0  0  0  0
    4.0993   -4.2463  -13.1435 H   0  0  0  0  0
    4.9960   -5.5862  -12.3875 H   0  0  0  0  0
   -0.5225   -5.8908  -11.9513 H   0  0  0  0  0
    0.7265   -7.0685  -11.4777 H   0  0  0  0  0
    0.5633   -5.5362  -10.5851 H   0  0  0  0  0
    1.6402   -3.7067  -13.6276 H   0  0  0  0  0
    1.6483   -3.4845  -11.7306 H   0  0  0  0  0
   -0.6662   -3.7113  -13.5523 H   0  0  0  0  0
   -0.6587   -3.5042  -11.7836 H   0  0  0  0  0
   -0.0192   -2.2160  -12.8337 H   0  0  0  0  0
  1  2  4  0  0  0
  1  6  4  0  0  0
  2  3  4  0  0  0
  2 10  1  0  0  0
  3  4  4  0  0  0
  3  7  1  0  0  0
  4  5  4  0  0  0
  5  6  4  0  0  0
  5 21  1  0  0  0
  7  8  1  0  0  0
  7 15  1  0  0  0
  8  9  1  0  0  0
  8 23  1  0  0  0
  9 10  4  0  0  0
  9 11  4  0  0  0
 10 14  4  0  0  0
 11 12  4  0  0  0
 12 13  4  0  0  0
 12 22  1  0  0  0
 13 14  4  0  0  0
 15 16  4  0  0  0
 15 20  4  0  0  0
 16 17  4  0  0  0
 17 18  4  0  0  0
 18 19  4  0  0  0
 19 20  4  0  0  0
 23 24  1  0  0  0
 24 25  1  0  0  0
 25 26  1  0  0  0
 26 27  1  0  0  0
 26 29  1  0  0  0
 26 30  1  0  0  0
 27 28  1  0  0  0
 30 31  1  0  0  0
  1 32  1  0  0  0
  4 33  1  0  0  0
  6 34  1  0  0  0
  7 35  1  0  0  0
 11 36  1  0  0  0
 13 37  1  0  0  0
 14 38  1  0  0  0
 16 39  1  0  0  0
 17 40  1  0  0  0
 18 41  1  0  0  0
 19 42  1  0  0  0
 20 43  1  0  0  0
 21 44  1  0  0  0
 21 45  1  0  0  0
 22 46  1  0  0  0
 22 47  1  0  0  0
 23 48  1  0  0  0
 23 49  1  0  0  0
 24 50  1  0  0  0
 24 51  1  0  0  0
 25 52  1  0  0  0
 25 53  1  0  0  0
 27 54  1  0  0  0
 27 55  1  0  0  0
 28 56  1  0  0  0
 28 57  1  0  0  0
 28 58  1  0  0  0
 29 59  1  0  0  0
 29 60  1  0  0  0
 29 61  1  0  0  0
 30 62  1  0  0  0
 30 63  1  0  0  0
 31 64  1  0  0  0
 31 65  1  0  0  0
 31 66  1  0  0  0
M  END
$$$$
