3r4n_ligand
  -I-interpret- 

 38 39  0  0  0  0  0  0  0  0999 V2000
   13.7460   -1.4520   51.4640 C   0  0  0  0  0
   15.0960   -1.6100   50.8180 C   0  0  0  0  0
   13.5980   -1.6410   52.8940 C   0  0  0  0  0
   12.5960   -1.1100   50.6610 C   0  0  0  0  0
   15.6570   -2.8800   50.7710 C   0  0  0  0  0
   15.7580   -0.5110   50.2950 N   0  0  0  0  0
   12.2920   -1.4970   53.4970 C   0  0  0  0  0
   14.7500   -1.9540   53.5960 O   0  0  0  0  0
   11.3180   -0.9760   51.2910 C   0  0  0  0  0
   12.6990   -0.8470   48.9400 Cl  0  0  0  0  0
   16.8820   -2.9930   50.1890 C   0  0  0  0  0
   16.9730   -0.6950   49.7300 C   0  0  0  0  0
   11.1640   -1.1710   52.6970 C   0  0  0  0  0
   14.8600   -2.1670   54.9020 C   0  0  0  0  0
   17.5460   -1.9150   49.6680 N   0  0  0  0  0
   17.5440   -4.3600   50.1180 C   0  0  0  0  0
   17.6570    0.4020   49.2000 N   0  0  0  0  0
   16.3060   -2.4830   55.2890 C   0  0  0  0  0
   16.8450   -3.6090   54.3850 C   0  0  0  0  0
   18.2970   -3.9940   54.6640 C   0  0  0  0  0
   18.4790   -4.3110   55.9930 F   0  0  0  0  0
   18.6480   -5.0890   53.8980 F   0  0  0  0  0
   19.1400   -2.9560   54.3430 F   0  0  0  0  0
   15.1394   -3.7469   51.1817 H   0  0  0  0  0
   12.1721   -1.6393   54.5710 H   0  0  0  0  0
   10.4472   -0.7207   50.6871 H   0  0  0  0  0
   10.1809   -1.0697   53.1567 H   0  0  0  0  0
   14.2334   -3.0175   55.1706 H   0  0  0  0  0
   14.5467   -1.2662   55.4298 H   0  0  0  0  0
   17.6845   -4.7471   51.1272 H   0  0  0  0  0
   16.9088   -5.0409   49.5515 H   0  0  0  0  0
   18.5116   -4.2685   49.6246 H   0  0  0  0  0
   17.2395    1.3317   49.2412 H   0  0  0  0  0
   18.5738    0.2731   48.7719 H   0  0  0  0  0
   16.3418   -2.8041   56.3300 H   0  0  0  0  0
   16.9193   -1.5907   55.1630 H   0  0  0  0  0
   16.7997   -3.2468   53.3579 H   0  0  0  0  0
   16.2356   -4.4928   54.5737 H   0  0  0  0  0
  1  2  1  0  0  0
  1  3  4  0  0  0
  1  4  4  0  0  0
  2  5  4  0  0  0
  2  6  4  0  0  0
  3  7  4  0  0  0
  3  8  1  0  0  0
  4  9  4  0  0  0
  4 10  1  0  0  0
  5 11  4  0  0  0
  6 12  4  0  0  0
  7 13  4  0  0  0
  8 14  1  0  0  0
  9 13  4  0  0  0
 11 15  4  0  0  0
 11 16  1  0  0  0
 12 15  4  0  0  0
 12 17  1  0  0  0
 14 18  1  0  0  0
 18 19  1  0  0  0
 19 20  1  0  0  0
 20 21  1  0  0  0
 20 22  1  0  0  0
 20 23  1  0  0  0
  5 24  1  0  0  0
  7 25  1  0  0  0
  9 26  1  0  0  0
 13 27  1  0  0  0
 14 28  1  0  0  0
 14 29  1  0  0  0
 16 30  1  0  0  0
 16 31  1  0  0  0
 16 32  1  0  0  0
 17 33  1  0  0  0
 17 34  1  0  0  0
 18 35  1  0  0  0
 18 36  1  0  0  0
 19 37  1  0  0  0
 19 38  1  0  0  0
M  END
$$$$
