3avk_ligand
  -I-interpret- 

127127  0  0  0  0  0  0  0  0999 V2000
  -41.2960   34.4020  -13.9680 N   0  0  0  0  0
  -41.2570   34.8940  -15.3250 C   0  0  0  0  0
  -40.8230   33.7920  -16.3150 C   0  0  0  0  0
  -40.4320   34.0990  -17.4550 O   0  0  0  0  0
  -40.4430   36.1860  -15.4160 C   0  0  0  0  0
  -39.1610   36.0280  -14.8390 O   0  0  0  0  0
  -40.9730   32.5300  -15.8850 N   0  0  0  0  0
  -40.6630   31.3110  -16.6780 C   0  0  0  0  0
  -39.1720   31.2270  -17.1050 C   0  0  0  0  0
  -38.8510   30.6490  -18.1460 O   0  0  0  0  0
  -41.6270   31.0900  -17.8960 C   0  0  0  0  0
  -43.1420   30.8970  -17.5790 C   0  0  0  0  0
  -44.0970   31.2380  -18.7950 C   0  0  0  0  0
  -43.4730   29.5210  -16.8540 C   0  0  0  0  0
  -38.2790   31.7570  -16.2610 N   0  0  0  0  0
  -36.8290   31.6460  -16.4770 C   0  0  0  0  0
  -36.2930   30.7710  -15.3300 C   0  0  0  0  0
  -36.9250   30.6890  -14.2570 O   0  0  0  0  0
  -36.2020   33.0240  -16.4020 C   0  0  0  0  0
  -36.9150   33.9960  -17.4400 C   0  0  0  0  0
  -36.6110   33.5380  -18.8770 C   0  0  0  0  0
  -36.9950   34.7190  -19.8490 C   0  0  0  0  0
  -37.0460   34.1980  -21.2300 N   0  3  0  0  0
  -35.1780   30.0940  -15.5660 N   0  0  0  0  0
  -34.5690   29.2280  -14.5370 C   0  0  0  0  0
  -34.2560   29.9130  -13.2290 C   0  0  0  0  0
  -34.3300   29.2760  -12.1120 O   0  0  0  0  0
  -33.3300   28.5190  -15.1570 C   0  0  0  0  0
  -33.8620   27.6850  -16.3350 C   0  0  0  0  0
  -32.5650   27.6490  -14.1320 C   0  0  0  0  0
  -34.6250   26.3010  -15.9640 C   0  0  0  0  0
  -33.8940   31.1960  -13.3770 N   0  0  0  0  0
  -33.5110   32.0810  -12.2640 C   0  0  0  0  0
  -34.7130   32.8880  -11.7420 C   0  0  0  0  0
  -34.5860   33.6590  -10.7480 O   0  0  0  0  0
  -32.3120   33.0520  -12.6490 C   0  0  0  0  0
  -32.5640   33.9360  -13.9630 C   0  0  0  0  0
  -31.7270   34.8740  -14.2790 O   0  0  0  0  0
  -33.5240   33.7090  -14.7210 O   0  0  0  0  0
  -35.8940   32.6680  -12.3200 N   0  0  0  0  0
  -37.0820   33.4070  -11.8690 C   0  0  0  0  0
  -38.3180   32.7950  -12.4780 C   0  0  0  0  0
  -38.7960   33.2420  -13.5690 O   0  0  0  0  0
  -37.0020   34.8630  -12.2760 C   0  0  0  0  0
  -38.2040   35.6530  -11.8220 C   0  0  0  0  0
  -39.0990   35.1260  -11.1570 O   0  0  0  0  0
  -38.2340   36.9250  -12.1900 N   0  0  0  0  0
  -38.8120   31.7480  -11.8250 N   0  0  0  0  0
  -39.8520   30.9710  -12.4970 C   0  0  0  0  0
  -41.1960   31.7370  -12.5570 C   0  0  0  0  0
  -42.0470   31.3280  -13.3630 O   0  0  0  0  0
  -40.0180   29.5480  -11.9360 C   0  0  0  0  0
  -38.9970   28.5750  -12.4830 C   0  0  0  0  0
  -39.0200   28.3430  -14.0050 C   0  0  0  0  0
  -40.0570   28.5550  -14.6190 O   0  0  0  0  0
  -37.9940   27.8680  -14.5880 O   0  0  0  0  0
  -41.3670   32.8220  -11.7530 N   0  0  0  0  0
  -42.4980   33.7510  -11.9290 C   0  0  0  0  0
  -42.4790   34.3160  -13.3490 C   0  0  0  0  0
  -43.5290   34.7140  -13.8640 O   0  0  0  0  0
  -42.3980   34.9650  -10.9990 C   0  0  0  0  0
  -42.6630   34.6120   -9.5690 C   0  0  0  0  0
  -43.0800   33.4600   -9.3350 O   0  0  0  0  0
  -42.4500   35.4660   -8.6870 O   0  0  0  0  0
  -40.4382   34.1253  -13.4905 H   0  0  0  0  0
  -42.2674   35.1639  -15.6321 H   0  0  0  0  0
  -40.9733   36.9689  -14.8738 H   0  0  0  0  0
  -40.3205   36.4454  -16.4676 H   0  0  0  0  0
  -38.6751   36.8528  -14.9109 H   0  0  0  0  0
  -41.3281   32.3960  -14.9383 H   0  0  0  0  0
  -40.8445   30.4835  -15.9922 H   0  0  0  0  0
  -41.3022   30.1619  -18.3663 H   0  0  0  0  0
  -41.5629   31.9995  -18.4934 H   0  0  0  0  0
  -43.3734   31.6580  -16.8338 H   0  0  0  0  0
  -43.9562   32.2792  -19.0850 H   0  0  0  0  0
  -43.8565   30.5892  -19.6372 H   0  0  0  0  0
  -45.1334   31.0794  -18.4969 H   0  0  0  0  0
  -43.1662   28.6925  -17.4924 H   0  0  0  0  0
  -42.9339   29.4714  -15.9079 H   0  0  0  0  0
  -44.5450   29.4593  -16.6665 H   0  0  0  0  0
  -38.6165   32.2561  -15.4380 H   0  0  0  0  0
  -36.5969   31.2156  -17.4512 H   0  0  0  0  0
  -35.1418   32.9518  -16.6447 H   0  0  0  0  0
  -36.3228   33.4211  -15.3941 H   0  0  0  0  0
  -36.5418   35.0103  -17.2986 H   0  0  0  0  0
  -37.9921   33.9722  -17.2746 H   0  0  0  0  0
  -37.1867   32.6449  -19.1199 H   0  0  0  0  0
  -35.5545   33.2904  -18.9803 H   0  0  0  0  0
  -36.2508   35.5124  -19.7798 H   0  0  0  0  0
  -37.9670   35.1264  -19.5708 H   0  0  0  0  0
  -37.2938   34.9540  -21.8684 H   0  0  0  0  0
  -36.1325   33.8223  -21.4843 H   0  0  0  0  0
  -37.7469   33.4592  -21.2877 H   0  0  0  0  0
  -34.7306   30.1732  -16.4792 H   0  0  0  0  0
  -35.3160   28.4887  -14.2479 H   0  0  0  0  0
  -32.5973   29.2536  -15.4911 H   0  0  0  0  0
  -32.9872   27.3980  -16.9185 H   0  0  0  0  0
  -34.6015   28.3103  -16.8353 H   0  0  0  0  0
  -32.2156   28.2775  -13.3129 H   0  0  0  0  0
  -33.2308   26.8790  -13.7423 H   0  0  0  0  0
  -31.7114   27.1796  -14.6211 H   0  0  0  0  0
  -33.9434   25.6461  -15.4212 H   0  0  0  0  0
  -35.4922   26.5213  -15.3414 H   0  0  0  0  0
  -34.9499   25.8096  -16.8811 H   0  0  0  0  0
  -33.8833   31.5834  -14.3205 H   0  0  0  0  0
  -33.1615   31.4308  -11.4620 H   0  0  0  0  0
  -31.4452   32.4226  -12.8506 H   0  0  0  0  0
  -32.1856   33.7461  -11.8182 H   0  0  0  0  0
  -31.0452   34.9331  -13.6058 H   0  0  0  0  0
  -35.9733   31.9869  -13.0751 H   0  0  0  0  0
  -37.1278   33.3481  -10.7816 H   0  0  0  0  0
  -36.9603   34.9074  -13.3643 H   0  0  0  0  0
  -36.1175   35.2959  -11.8088 H   0  0  0  0  0
  -39.0224   37.5147  -11.9232 H   0  0  0  0  0
  -37.4687   37.3149  -12.7402 H   0  0  0  0  0
  -38.4793   31.4972  -10.8940 H   0  0  0  0  0
  -39.5066   30.8386  -13.5223 H   0  0  0  0  0
  -41.0062   29.1901  -12.2248 H   0  0  0  0  0
  -39.8831   29.5989  -10.8556 H   0  0  0  0  0
  -39.2220   27.6112  -12.0263 H   0  0  0  0  0
  -38.0200   29.0019  -12.2564 H   0  0  0  0  0
  -37.2821   27.7704  -13.9514 H   0  0  0  0  0
  -40.6933   32.9972  -11.0074 H   0  0  0  0  0
  -43.4021   33.1821  -11.7119 H   0  0  0  0  0
  -43.1480   35.6917  -11.3114 H   0  0  0  0  0
  -41.3839   35.3589  -11.0667 H   0  0  0  0  0
  -43.1698   32.9794  -10.1612 H   0  0  0  0  0
  1  2  1  0  0  0
  1 59  1  0  0  0
  2  3  1  0  0  0
  2  5  1  0  0  0
  3  4  2  0  0  0
  3  7  1  0  0  0
  5  6  1  0  0  0
  7  8  1  0  0  0
  8  9  1  0  0  0
  8 11  1  0  0  0
  9 10  2  0  0  0
  9 15  1  0  0  0
 11 12  1  0  0  0
 12 13  1  0  0  0
 12 14  1  0  0  0
 15 16  1  0  0  0
 16 17  1  0  0  0
 16 19  1  0  0  0
 17 18  2  0  0  0
 17 24  1  0  0  0
 19 20  1  0  0  0
 20 21  1  0  0  0
 21 22  1  0  0  0
 22 23  1  0  0  0
 24 25  1  0  0  0
 25 26  1  0  0  0
 25 28  1  0  0  0
 26 27  2  0  0  0
 26 32  1  0  0  0
 28 29  1  0  0  0
 28 30  1  0  0  0
 29 31  1  0  0  0
 32 33  1  0  0  0
 33 34  1  0  0  0
 33 36  1  0  0  0
 34 35  2  0  0  0
 34 40  1  0  0  0
 36 37  1  0  0  0
 37 38  1  0  0  0
 37 39  2  0  0  0
 40 41  1  0  0  0
 41 42  1  0  0  0
 41 44  1  0  0  0
 42 43  2  0  0  0
 42 48  1  0  0  0
 44 45  1  0  0  0
 45 46  2  0  0  0
 45 47  1  0  0  0
 48 49  1  0  0  0
 49 50  1  0  0  0
 49 52  1  0  0  0
 50 51  2  0  0  0
 50 57  1  0  0  0
 52 53  1  0  0  0
 53 54  1  0  0  0
 54 55  2  0  0  0
 54 56  1  0  0  0
 57 58  1  0  0  0
 58 59  1  0  0  0
 58 61  1  0  0  0
 59 60  2  0  0  0
 61 62  1  0  0  0
 62 63  1  0  0  0
 62 64  2  0  0  0
  1 65  1  0  0  0
  2 66  1  0  0  0
  5 67  1  0  0  0
  5 68  1  0  0  0
  6 69  1  0  0  0
  7 70  1  0  0  0
  8 71  1  0  0  0
 11 72  1  0  0  0
 11 73  1  0  0  0
 12 74  1  0  0  0
 13 75  1  0  0  0
 13 76  1  0  0  0
 13 77  1  0  0  0
 14 78  1  0  0  0
 14 79  1  0  0  0
 14 80  1  0  0  0
 15 81  1  0  0  0
 16 82  1  0  0  0
 19 83  1  0  0  0
 19 84  1  0  0  0
 20 85  1  0  0  0
 20 86  1  0  0  0
 21 87  1  0  0  0
 21 88  1  0  0  0
 22 89  1  0  0  0
 22 90  1  0  0  0
 23 91  1  0  0  0
 23 92  1  0  0  0
 23 93  1  0  0  0
 24 94  1  0  0  0
 25 95  1  0  0  0
 28 96  1  0  0  0
 29 97  1  0  0  0
 29 98  1  0  0  0
 30 99  1  0  0  0
 30100  1  0  0  0
 30101  1  0  0  0
 31102  1  0  0  0
 31103  1  0  0  0
 31104  1  0  0  0
 32105  1  0  0  0
 33106  1  0  0  0
 36107  1  0  0  0
 36108  1  0  0  0
 38109  1  0  0  0
 40110  1  0  0  0
 41111  1  0  0  0
 44112  1  0  0  0
 44113  1  0  0  0
 47114  1  0  0  0
 47115  1  0  0  0
 48116  1  0  0  0
 49117  1  0  0  0
 52118  1  0  0  0
 52119  1  0  0  0
 53120  1  0  0  0
 53121  1  0  0  0
 56122  1  0  0  0
 57123  1  0  0  0
 58124  1  0  0  0
 61125  1  0  0  0
 61126  1  0  0  0
 63127  1  0  0  0
M  END
$$$$
