4jr5_ligand
  -I-interpret- 

 48 50  0  0  0  0  0  0  0  0999 V2000
   13.8910   11.2630    6.1310 C   0  0  0  0  0
   14.9700   10.2990    7.9430 C   0  0  0  0  0
   14.8020   11.2430    3.7750 C   0  0  0  0  0
   14.6590    8.3860   -0.9950 C   0  0  0  0  0
   14.0420    6.1540   -1.6610 C   0  0  0  0  0
   14.9830    6.5490    0.5000 C   0  0  0  0  0
   14.8360    5.5510   -5.0670 C   0  0  0  0  0
   16.8770    4.2330   -5.5700 C   0  0  0  0  0
   15.7220    3.7890   -3.3820 C   0  0  0  0  0
   16.0140    9.8760    7.1360 C   0  0  0  0  0
   15.9770   10.1690    5.7720 C   0  0  0  0  0
   14.8940   10.8840    5.2570 C   0  0  0  0  0
   13.9510   10.9700    7.4210 N   0  0  0  0  0
   15.5170   10.2440    2.9760 N   0  0  0  0  0
   14.9130    9.6280    1.9340 C   0  0  0  0  0
   13.3160   10.0560    1.4720 S   0  0  0  0  0
   15.6080    8.6870    1.2690 N   0  0  0  0  0
   15.0810    7.9110    0.2330 C   0  0  0  0  0
   14.1420    7.5030   -1.9370 C   0  0  0  0  0
   14.4700    5.6770   -0.4380 C   0  0  0  0  0
   13.3910    5.0250   -2.8600 S   0  0  0  0  0
   13.1260    3.8060   -2.1760 O   0  0  0  0  0
   12.3920    5.7340   -3.5640 O   0  0  0  0  0
   14.7030    4.7650   -3.8290 N   0  0  0  0  0
   15.5780    4.7780   -6.1550 C   0  0  0  0  0
   16.5170    3.1600   -4.5430 C   0  0  0  0  0
   13.0322   11.8151    5.7494 H   0  0  0  0  0
   14.9858   10.0798    9.0106 H   0  0  0  0  0
   15.2519   12.2226    3.6132 H   0  0  0  0  0
   13.7547   11.2626    3.4736 H   0  0  0  0  0
   14.7313    9.4492   -1.2241 H   0  0  0  0  0
   15.3164    6.1654    1.4643 H   0  0  0  0  0
   15.4047    6.4527   -4.8400 H   0  0  0  0  0
   13.8361    5.7829   -5.4338 H   0  0  0  0  0
   17.4425    5.0348   -5.0953 H   0  0  0  0  0
   17.4965    3.8070   -6.3592 H   0  0  0  0  0
   15.2009    2.9828   -2.8656 H   0  0  0  0  0
   16.4313    4.3212   -2.7482 H   0  0  0  0  0
   16.8518    9.3226    7.5603 H   0  0  0  0  0
   16.7844    9.8433    5.1162 H   0  0  0  0  0
   16.4822   10.0102    3.2085 H   0  0  0  0  0
   16.5794    8.5304    1.5376 H   0  0  0  0  0
   13.8118    7.8806   -2.9047 H   0  0  0  0  0
   14.4026    4.6124   -0.2138 H   0  0  0  0  0
   15.7985    5.4389   -6.9932 H   0  0  0  0  0
   14.9589    3.9548   -6.5114 H   0  0  0  0  0
   17.4323    2.7156   -4.1521 H   0  0  0  0  0
   15.9071    2.3943   -5.0224 H   0  0  0  0  0
 12  1  4  0  0  0
  1 13  4  0  0  0
 10  2  4  0  0  0
 13  2  4  0  0  0
  3 12  1  0  0  0
 14  3  1  0  0  0
  4 18  4  0  0  0
 19  4  4  0  0  0
  5 19  4  0  0  0
  5 20  4  0  0  0
 21  5  1  0  0  0
  6 18  4  0  0  0
 20  6  4  0  0  0
 24  7  1  0  0  0
  7 25  1  0  0  0
 25  8  1  0  0  0
 26  8  1  0  0  0
 24  9  1  0  0  0
  9 26  1  0  0  0
 11 10  4  0  0  0
 12 11  4  0  0  0
 15 14  1  0  0  0
 15 16  2  0  0  0
 17 15  1  0  0  0
 18 17  1  0  0  0
 21 22  2  0  0  0
 21 23  2  0  0  0
 21 24  1  0  0  0
  1 27  1  0  0  0
  2 28  1  0  0  0
  3 29  1  0  0  0
  3 30  1  0  0  0
  4 31  1  0  0  0
  6 32  1  0  0  0
  7 33  1  0  0  0
  7 34  1  0  0  0
  8 35  1  0  0  0
  8 36  1  0  0  0
  9 37  1  0  0  0
  9 38  1  0  0  0
 10 39  1  0  0  0
 11 40  1  0  0  0
 14 41  1  0  0  0
 17 42  1  0  0  0
 19 43  1  0  0  0
 20 44  1  0  0  0
 25 45  1  0  0  0
 25 46  1  0  0  0
 26 47  1  0  0  0
 26 48  1  0  0  0
M  END
$$$$
