1ekb_ligand
  -I-interpret- 

 66 65  0  0  0  0  0  0  0  0999 V2000
    6.4330   18.0640   16.5350 N   0  3  0  0  0
    7.2100   18.6820   15.4150 C   0  0  0  0  0
    6.8510   17.9470   14.1220 C   0  0  0  0  0
    5.6790   17.8310   13.7540 O   0  0  0  0  0
    8.7140   18.5340   15.7110 C   0  0  0  0  0
    9.5930   19.3730   14.8000 C   0  0  0  0  0
    9.0670   20.0920   13.9250 O   0  0  0  0  0
   10.8290   19.3150   14.9630 O   0  0  0  0  0
    7.8740   17.4720   13.4270 N   0  0  0  0  0
    7.6770   16.7080   12.2120 C   0  0  0  0  0
    7.6030   15.2690   12.7090 C   0  0  0  0  0
    7.1980   14.3640   11.9790 O   0  0  0  0  0
    8.8730   16.8780   11.2740 C   0  0  0  0  0
    8.9930   18.2900   10.7430 C   0  0  0  0  0
    7.9540   18.8510   10.3270 O   0  0  0  0  0
   10.1180   18.8380   10.7490 O   0  0  0  0  0
    7.9850   15.0770   13.9710 N   0  0  0  0  0
    7.9920   13.7550   14.5970 C   0  0  0  0  0
    6.6310   13.0930   14.5570 C   0  0  0  0  0
    5.6060   13.7510   14.6820 O   0  0  0  0  0
    8.4400   13.8530   16.0560 C   0  0  0  0  0
    9.8860   14.2980   16.2060 C   0  0  0  0  0
   10.7940   13.5950   15.7070 O   0  0  0  0  0
   10.1100   15.3540   16.8400 O   0  0  0  0  0
    6.6240   11.7800   14.3930 N   0  0  0  0  0
    5.3690   11.0530   14.3560 C   0  0  0  0  0
    5.1820   10.2220   15.6200 C   0  0  0  0  0
    4.0490   10.0730   16.0840 O   0  0  0  0  0
    5.3180   10.1570   13.1190 C   0  0  0  0  0
    5.3500   10.9310   11.8090 C   0  0  0  0  0
    5.5280   10.0060   10.6060 C   0  0  0  0  0
    5.5960   10.8040    9.3090 C   0  0  0  0  0
    5.6630    9.9310    8.1000 N   0  3  0  0  0
    5.4349   18.1576   16.3470 H   0  0  0  0  0
    6.6748   17.0759   16.6103 H   0  0  0  0  0
    6.6617   18.5387   17.4083 H   0  0  0  0  0
    6.9715   19.7407   15.3129 H   0  0  0  0  0
    8.9790   17.4887   15.5520 H   0  0  0  0  0
    8.8827   18.8724   16.7333 H   0  0  0  0  0
    8.1127   19.9949   13.9638 H   0  0  0  0  0
    8.8234   17.6485   13.7554 H   0  0  0  0  0
    6.7946   17.0181   11.6523 H   0  0  0  0  0
    8.7336   16.2089   10.4249 H   0  0  0  0  0
    9.7783   16.6512   11.8371 H   0  0  0  0  0
    7.2103   18.2503   10.4147 H   0  0  0  0  0
    8.2838   15.8822   14.5213 H   0  0  0  0  0
    8.6921   13.1468   14.0243 H   0  0  0  0  0
    8.3509   12.8605   16.4977 H   0  0  0  0  0
    7.8117   14.5963   16.5466 H   0  0  0  0  0
   10.4043   12.8356   15.2677 H   0  0  0  0  0
    7.5053   11.2765   14.2921 H   0  0  0  0  0
    4.5554   11.7765   14.3039 H   0  0  0  0  0
    5.7291   10.7635   16.3917 H   0  0  0  0  0
    5.5025    9.2179   15.3421 H   0  0  0  0  0
    4.0968    9.5295   16.8739 H   0  0  0  0  0
    4.3782    9.6057   13.1516 H   0  0  0  0  0
    6.1985    9.5149   13.1424 H   0  0  0  0  0
    6.1944   11.6196   11.8390 H   0  0  0  0  0
    4.4015   11.4567   11.6990 H   0  0  0  0  0
    4.6751    9.3292   10.5560 H   0  0  0  0  0
    6.4593    9.4523   10.7253 H   0  0  0  0  0
    6.5016   11.4101    9.3354 H   0  0  0  0  0
    4.6901   11.4060    9.2380 H   0  0  0  0  0
    5.7067   10.5133    7.2637 H   0  0  0  0  0
    6.4959    9.3445    8.1513 H   0  0  0  0  0
    4.8320    9.3408    8.0618 H   0  0  0  0  0
  1  2  1  0  0  0
  2  3  1  0  0  0
  2  5  1  0  0  0
  3  4  2  0  0  0
  3  9  1  0  0  0
  5  6  1  0  0  0
  6  7  1  0  0  0
  6  8  2  0  0  0
  9 10  1  0  0  0
 10 11  1  0  0  0
 10 13  1  0  0  0
 11 12  2  0  0  0
 11 17  1  0  0  0
 13 14  1  0  0  0
 14 15  1  0  0  0
 14 16  2  0  0  0
 17 18  1  0  0  0
 18 19  1  0  0  0
 18 21  1  0  0  0
 19 20  2  0  0  0
 19 25  1  0  0  0
 21 22  1  0  0  0
 22 23  1  0  0  0
 22 24  2  0  0  0
 25 26  1  0  0  0
 26 27  1  0  0  0
 26 29  1  0  0  0
 27 28  1  0  0  0
 29 30  1  0  0  0
 30 31  1  0  0  0
 31 32  1  0  0  0
 32 33  1  0  0  0
  1 34  1  0  0  0
  1 35  1  0  0  0
  1 36  1  0  0  0
  2 37  1  0  0  0
  5 38  1  0  0  0
  5 39  1  0  0  0
  7 40  1  0  0  0
  9 41  1  0  0  0
 10 42  1  0  0  0
 13 43  1  0  0  0
 13 44  1  0  0  0
 15 45  1  0  0  0
 17 46  1  0  0  0
 18 47  1  0  0  0
 21 48  1  0  0  0
 21 49  1  0  0  0
 23 50  1  0  0  0
 25 51  1  0  0  0
 26 52  1  0  0  0
 27 53  1  0  0  0
 27 54  1  0  0  0
 28 55  1  0  0  0
 29 56  1  0  0  0
 29 57  1  0  0  0
 30 58  1  0  0  0
 30 59  1  0  0  0
 31 60  1  0  0  0
 31 61  1  0  0  0
 32 62  1  0  0  0
 32 63  1  0  0  0
 33 64  1  0  0  0
 33 65  1  0  0  0
 33 66  1  0  0  0
M  END
$$$$
