6h33_ligand
  -I-interpret- 

 45 47  0  0  0  0  0  0  0  0999 V2000
   -5.5850    4.3590   14.3100 C   0  0  0  0  0
   -6.0600    3.3820   15.1690 C   0  0  0  0  0
   -5.2090    2.3720   15.5920 C   0  0  0  0  0
   -5.8190    1.0940   16.6550 S   0  0  0  0  0
   -5.1920    1.2740   17.9320 O   0  0  0  0  0
   -7.2480    1.1300   16.5910 O   0  0  0  0  0
   -3.8910    2.3420   15.1660 C   0  0  0  0  0
   -3.4270    3.3230   14.3070 C   0  0  0  0  0
   -4.2670    4.3400   13.8670 C   0  0  0  0  0
   -3.7710    5.3670   12.8930 C   0  0  0  0  0
   -4.5370    5.8290   12.0650 O   0  0  0  0  0
   -2.4670    5.6890   12.9180 N   0  0  0  0  0
   -1.7780    5.9570   14.1900 C   0  0  0  0  0
   -1.7530    7.4400   14.5170 C   0  0  0  0  0
   -1.8740    6.4560   11.8080 C   0  0  0  0  0
   -1.8300    7.9480   12.1030 C   0  0  0  0  0
   -1.0780    8.2350   13.4020 C   0  0  0  0  0
    0.2440    7.7200   13.2520 O   0  0  0  0  0
   -1.0390    9.7280   13.7180 C   0  0  0  0  0
   -1.8390   10.6300   13.0270 C   0  0  0  0  0
   -1.7480   11.9920   13.2660 C   0  0  0  0  0
   -0.8570   12.4730   14.2030 C   0  0  0  0  0
   -0.0580   11.5930   14.9010 C   0  0  0  0  0
   -0.1490   10.2310   14.6610 C   0  0  0  0  0
   -5.3410   -0.3210   16.0850 N   0  0  0  0  0
   -6.2530    5.1532   13.9768 H   0  0  0  0  0
   -7.0950    3.4067   15.5101 H   0  0  0  0  0
   -3.2232    1.5502   15.5055 H   0  0  0  0  0
   -2.3903    3.2981   13.9713 H   0  0  0  0  0
   -0.7490    5.6083   14.1021 H   0  0  0  0  0
   -2.3145    5.4399   14.9856 H   0  0  0  0  0
   -1.1909    7.5852   15.4395 H   0  0  0  0  0
   -2.7791    7.7915   14.6252 H   0  0  0  0  0
   -2.4895    6.3026   10.9216 H   0  0  0  0  0
   -0.8514    6.1078   11.6621 H   0  0  0  0  0
   -2.8523    8.3117   12.2062 H   0  0  0  0  0
   -1.3125    8.4485   11.2846 H   0  0  0  0  0
    0.6965    8.2012   12.5554 H   0  0  0  0  0
   -2.5484   10.2609   12.2863 H   0  0  0  0  0
   -2.3818   12.6848   12.7124 H   0  0  0  0  0
   -0.7852   13.5443   14.3906 H   0  0  0  0  0
    0.6465   11.9689   15.6429 H   0  0  0  0  0
    0.4864    9.5438   15.2196 H   0  0  0  0  0
   -4.7015   -0.9003   16.6289 H   0  0  0  0  0
   -5.6755   -0.6446   15.1774 H   0  0  0  0  0
  1  2  4  0  0  0
  1  9  4  0  0  0
  2  3  4  0  0  0
  3  4  1  0  0  0
  3  7  4  0  0  0
  4  5  2  0  0  0
  4  6  2  0  0  0
  4 25  1  0  0  0
  7  8  4  0  0  0
  8  9  4  0  0  0
  9 10  1  0  0  0
 10 11  2  0  0  0
 10 12  1  0  0  0
 12 13  1  0  0  0
 12 15  1  0  0  0
 13 14  1  0  0  0
 14 17  1  0  0  0
 15 16  1  0  0  0
 16 17  1  0  0  0
 17 18  1  0  0  0
 17 19  1  0  0  0
 19 20  4  0  0  0
 19 24  4  0  0  0
 20 21  4  0  0  0
 21 22  4  0  0  0
 22 23  4  0  0  0
 23 24  4  0  0  0
  1 26  1  0  0  0
  2 27  1  0  0  0
  7 28  1  0  0  0
  8 29  1  0  0  0
 13 30  1  0  0  0
 13 31  1  0  0  0
 14 32  1  0  0  0
 14 33  1  0  0  0
 15 34  1  0  0  0
 15 35  1  0  0  0
 16 36  1  0  0  0
 16 37  1  0  0  0
 18 38  1  0  0  0
 20 39  1  0  0  0
 21 40  1  0  0  0
 22 41  1  0  0  0
 23 42  1  0  0  0
 24 43  1  0  0  0
 25 44  1  0  0  0
 25 45  1  0  0  0
M  END
$$$$
