### 
### Created by X-TOOL on Mon Sep 10 21:13:31 2018
### 

@<TRIPOS>MOLECULE
5ul6_ligand
  243   247     1     0     0
SMALL
GAST_HUCK


@<TRIPOS>ATOM
      1 C          52.4560   -3.7620   16.1240 C.2       1 ACE         0.1752
      2 O          52.4680   -4.7660   15.4220 O.2       1 ACE        -0.3972
      3 CH3        53.6970   -3.2360   16.7790 C.3       1 ACE         0.0258
      4 N          51.3400   -3.0800   16.3570 N.am      1 TYR        -0.2643
      5 CA         50.0690   -3.4840   15.7690 C.3       1 TYR         0.1389
      6 C          50.1240   -3.3560   14.2520 C.2       1 TYR         0.2055
      7 O          49.6230   -4.2110   13.5320 O.2       1 TYR        -0.3942
      8 CB         48.9430   -2.6190   16.3270 C.3       1 TYR         0.0163
      9 CG         47.5650   -2.9500   15.8090 C.ar      1 TYR        -0.0493
     10 CD1        46.9380   -4.1360   16.1550 C.ar      1 TYR        -0.0685
     11 CD2        46.8770   -2.0530   15.0130 C.ar      1 TYR        -0.0685
     12 CE1        45.6540   -4.4200   15.6970 C.ar      1 TYR        -0.0398
     13 CE2        45.6050   -2.3280   14.5450 C.ar      1 TYR        -0.0398
     14 CZ         44.9990   -3.5060   14.8950 C.ar      1 TYR         0.0805
     15 OH         43.7260   -3.7720   14.4340 O.3       1 TYR        -0.3376
     16 N          50.7430   -2.2790   13.7750 N.am      1 GLY        -0.2663
     17 CA         50.9060   -2.0910   12.3600 C.3       1 GLY         0.1201
     18 C          49.6580   -1.5210   11.7250 C.2       1 GLY         0.2007
     19 O          48.7440   -1.0320   12.3920 O.2       1 GLY        -0.3947
     20 N          49.6310   -1.5840   10.4010 N.am      1 ARG        -0.2640
     21 CA         48.5080   -1.0790    9.6260 C.3       1 ARG         0.1313
     22 C          47.7750   -2.2650    9.0240 C.2       1 ARG         0.2064
     23 O          48.3030   -2.9040    8.0990 O.2       1 ARG        -0.3942
     24 CB         49.0010   -0.1510    8.5210 C.3       1 ARG        -0.0092
     25 CG         47.8740    0.5030    7.7300 C.3       1 ARG        -0.0156
     26 CD         48.4010    1.6140    6.8370 C.3       1 ARG         0.0627
     27 NE         47.3840    2.0970    5.9100 N.pl3     1 ARG        -0.2723
     28 CZ         47.3100    3.3470    5.4600 C.cat     1 ARG         0.2882
     29 NH1        48.1890    4.2580    5.8640 N.pl3     1 ARG        -0.2849
     30 NH2        46.3460    3.6910    4.6140 N.pl3     1 ARG        -0.2849
     31 N          46.5810   -2.6040    9.5090 N.am      1 PRO        -0.2498
     32 CA         45.8820   -3.7680    8.9730 C.3       1 PRO         0.1340
     33 C          45.4310   -3.5160    7.5460 C.2       1 PRO         0.2066
     34 O          45.2190   -2.3610    7.1420 O.2       1 PRO        -0.3942
     35 CB         44.6770   -3.9230    9.9160 C.3       1 PRO        -0.0104
     36 CG         44.5050   -2.5960   10.5560 C.3       1 PRO        -0.0281
     37 CD         45.8640   -1.9830   10.6380 C.3       1 PRO         0.0369
     38 N          45.2690   -4.5640    6.7440 N.am      1 PRO        -0.2498
     39 CA         44.7950   -4.3610    5.3720 C.3       1 PRO         0.1338
     40 C          43.3620   -3.8510    5.3660 C.2       1 PRO         0.2041
     41 O          42.6120   -4.0020    6.3330 O.2       1 PRO        -0.3944
     42 CB         44.9030   -5.7520    4.7280 C.3       1 PRO        -0.0104
     43 CG         45.0200   -6.7090    5.8670 C.3       1 PRO        -0.0281
     44 CD         45.6110   -5.9680    7.0330 C.3       1 PRO         0.0369
     45 N          43.0080   -3.1930    4.2690 N.am      1 LEU        -0.2637
     46 CA         41.6510   -2.6840    4.1100 C.3       1 LEU         0.1314
     47 C          40.6690   -3.8460    4.0630 C.2       1 LEU         0.2064
     48 O          40.9060   -4.8280    3.3450 O.2       1 LEU        -0.3942
     49 CB         41.5250   -1.8860    2.8110 C.3       1 LEU        -0.0101
     50 CG         41.7500   -0.3720    2.7870 C.3       1 LEU        -0.0425
     51 CD1        41.5200    0.1410    1.3790 C.3       1 LEU        -0.0625
     52 CD2        40.8510    0.3660    3.7610 C.3       1 LEU        -0.0625
     53 N          39.5420   -3.7580    4.7680 N.am      1 PRO        -0.2498
     54 CA         38.6150   -4.8870    4.7960 C.3       1 PRO         0.1340
     55 C          37.8670   -5.0150    3.4830 C.2       1 PRO         0.2066
     56 O          37.5640   -4.0080    2.8200 O.2       1 PRO        -0.3942
     57 CB         37.6530   -4.5210    5.9410 C.3       1 PRO        -0.0104
     58 CG         37.7270   -3.0320    6.0070 C.3       1 PRO        -0.0281
     59 CD         39.1440   -2.6780    5.6880 C.3       1 PRO         0.0369
     60 N          37.5360   -6.2360    3.0700 N.am      1 PRO        -0.2498
     61 CA         36.6230   -6.4000    1.9340 C.3       1 PRO         0.1338
     62 C          35.3010   -5.6970    2.2010 C.2       1 PRO         0.2041
     63 O          34.8480   -5.5940    3.3440 O.2       1 PRO        -0.3944
     64 CB         36.4220   -7.9180    1.8580 C.3       1 PRO        -0.0104
     65 CG         37.6010   -8.5100    2.5660 C.3       1 PRO        -0.0281
     66 CD         38.0120   -7.5230    3.6160 C.3       1 PRO         0.0369
     67 N          34.6870   -5.1970    1.1300 N.am      1 LYS        -0.2637
     68 CA         33.3360   -4.6470    1.2030 C.3       1 LYS         0.1310
     69 C          32.3450   -5.7450    0.8540 C.2       1 LYS         0.2039
     70 O          32.4610   -6.3800   -0.1960 O.2       1 LYS        -0.3944
     71 CB         33.1680   -3.4870    0.2200 C.3       1 LYS        -0.0122
     72 CG         33.9410   -2.2390    0.5930 C.3       1 LYS        -0.0440
     73 CD         33.6680   -1.1270   -0.3980 C.3       1 LYS        -0.0124
     74 CE         34.3480    0.1480    0.0690 C.3       1 LYS        -0.0354
     75 NZ         33.9110    1.2760   -0.7860 N.4       1 LYS         0.2185
     76 N          31.3740   -5.9740    1.7380 N.am      1 GLN        -0.2636
     77 CA         30.4480   -7.0700    1.4950 C.3       1 GLN         0.1330
     78 C          29.3390   -6.6750    0.5320 C.2       1 GLN         0.2040
     79 O          28.7790   -7.5470   -0.1430 O.2       1 GLN        -0.3944
     80 CB         29.8600   -7.5710    2.8110 C.3       1 GLN         0.0045
     81 CG         30.9070   -7.9930    3.8230 C.3       1 GLN         0.0412
     82 CD         31.7050   -9.1920    3.3720 C.2       1 GLN         0.1737
     83 OE1        31.1780  -10.0760    2.6860 O.2       1 GLN        -0.3973
     84 NE2        32.9830   -9.2360    3.7510 N.am      1 GLN        -0.3009
     85 N          28.9910   -5.3870    0.4810 N.am      1 LYS        -0.2637
     86 CA         28.0430   -4.8450   -0.4990 C.3       1 LYS         0.1310
     87 C          26.6740   -5.5290   -0.4650 C.2       1 LYS         0.2039
     88 O          26.0070   -5.6570   -1.4930 O.2       1 LYS        -0.3944
     89 CB         28.6310   -4.8170   -1.9140 C.3       1 LYS        -0.0122
     90 CG         29.8750   -3.9560   -2.0100 C.3       1 LYS        -0.0440
     91 CD         30.4120   -3.8600   -3.4250 C.3       1 LYS        -0.0124
     92 CE         31.5240   -2.8160   -3.4890 C.3       1 LYS        -0.0354
     93 NZ         32.2050   -2.7570   -4.8120 N.4       1 LYS         0.2185
     94 N          26.2170   -5.9690    0.7000 N.am      1 ARG        -0.2637
     95 CA         24.8910   -6.5670    0.7760 C.3       1 ARG         0.1311
     96 C          23.8100   -5.4960    0.7070 C.2       1 ARG         0.2039
     97 O          23.9770   -4.3840    1.2080 O.2       1 ARG        -0.3944
     98 CB         24.7300   -7.3380    2.0820 C.3       1 ARG        -0.0092
     99 CG         25.8020   -8.3660    2.3280 C.3       1 ARG        -0.0156
    100 CD         25.9200   -9.3270    1.1560 C.3       1 ARG         0.0627
    101 NE         26.8730  -10.3970    1.4510 N.pl3     1 ARG        -0.2723
    102 CZ         27.3680  -11.2440    0.5530 C.cat     1 ARG         0.2882
    103 NH1        28.2330  -12.1790    0.9340 N.pl3     1 ARG        -0.2849
    104 NH2        27.0100  -11.1570   -0.7240 N.pl3     1 ARG        -0.2849
    105 N          22.6780   -5.8510    0.1010 N.am      1 LYS        -0.2637
    106 CA         21.5270   -4.9670    0.1150 C.3       1 LYS         0.1306
    107 C          21.0010   -4.9100    1.5400 C.2       1 LYS         0.1992
    108 O          20.9030   -5.9340    2.2120 O.2       1 LYS        -0.3947
    109 CB         20.4400   -5.4590   -0.8430 C.3       1 LYS        -0.0122
    110 CG         19.5020   -4.3480   -1.3070 C.3       1 LYS        -0.0440
    111 CD         18.5670   -4.7900   -2.4310 C.3       1 LYS        -0.0124
    112 CE         17.9450   -3.5810   -3.1440 C.3       1 LYS        -0.0354
    113 NZ         18.9660   -2.7170   -3.8290 N.4       1 LYS         0.2185
    114 N          20.6920   -3.7060    2.0080 N.am      1 NH2        -0.2990
    115 H1         53.4519   -2.3326   17.3567 H         1 ACE         0.0467
    116 H2         54.4413   -2.9875   16.0082 H         1 ACE         0.0467
    117 H3         54.1086   -4.0017   17.4530 H         1 ACE         0.0467
    118 H4         51.3726   -2.2736   16.9474 H         1 TYR         0.1884
    119 H5         49.8742   -4.5347   16.0297 H         1 TYR         0.0821
    120 H6         49.1601   -1.5711   16.0725 H         1 TYR         0.0453
    121 H7         48.9331   -2.7362   17.4207 H         1 TYR         0.0453
    122 H8         47.4520   -4.8499   16.7885 H         1 TYR         0.0530
    123 H9         47.3457   -1.1118   14.7495 H         1 TYR         0.0530
    124 H10        45.1718   -5.3522   15.9681 H         1 TYR         0.0525
    125 H11        45.0919   -1.6177   13.9068 H         1 TYR         0.0525
    126 H12        43.1313   -3.0987   14.7432 H         1 TYR         0.2458
    127 H13        51.0989   -1.5924   14.4089 H         1 GLY         0.1881
    128 H14        51.1312   -3.0620   11.8948 H         1 GLY         0.0763
    129 H15        51.7427   -1.3984   12.1863 H         1 GLY         0.0763
    130 H16        50.4071   -1.9915    9.9198 H         1 ARG         0.1883
    131 H17        47.8270   -0.5224   10.2865 H         1 ARG         0.0800
    132 H18        49.6209   -0.7359    7.8255 H         1 ARG         0.0313
    133 H19        49.6113    0.6418    8.9782 H         1 ARG         0.0313
    134 H20        47.1407    0.9252    8.4328 H         1 ARG         0.0301
    135 H21        47.3859   -0.2588    7.1044 H         1 ARG         0.0301
    136 H22        49.2550    1.2307    6.2593 H         1 ARG         0.0689
    137 H23        48.7320    2.4512    7.4691 H         1 ARG         0.0689
    138 H24        46.6755    1.4254    5.5816 H         1 ARG         0.2642
    139 H25        48.1275    5.2243    5.5128 H         1 ARG         0.2615
    140 H26        48.9318    3.9978    6.5284 H         1 ARG         0.2615
    141 H27        45.6627    2.9879    4.2984 H         1 ARG         0.2615
    142 H28        46.2816    4.6609    4.2734 H         1 ARG         0.2615
    143 H29        46.5227   -4.6617    9.0030 H         1 PRO         0.0802
    144 H30        44.8788   -4.6931   10.6750 H         1 PRO         0.0313
    145 H31        43.7758   -4.1958    9.3474 H         1 PRO         0.0313
    146 H32        44.0799   -2.7128   11.5638 H         1 PRO         0.0287
    147 H33        43.8399   -1.9648    9.9483 H         1 PRO         0.0287
    148 H34        45.8120   -0.8906   10.5196 H         1 PRO         0.0524
    149 H35        46.3492   -2.2254   11.5950 H         1 PRO         0.0524
    150 H36        45.4366   -3.6412    4.8426 H         1 PRO         0.0802
    151 H37        45.7929   -5.8098    4.0841 H         1 PRO         0.0313
    152 H38        44.0045   -5.9710    4.1323 H         1 PRO         0.0313
    153 H39        45.6750   -7.5468    5.5857 H         1 PRO         0.0287
    154 H40        44.0254   -7.0950    6.1347 H         1 PRO         0.0287
    155 H41        45.1594   -6.2976    7.9803 H         1 PRO         0.0524
    156 H42        46.7011   -6.1078    7.0782 H         1 PRO         0.0524
    157 H43        43.6797   -3.0447    3.5432 H         1 LEU         0.1883
    158 H44        41.4085   -2.0325    4.9625 H         1 LEU         0.0800
    159 H45        40.5041   -2.0557    2.4383 H         1 LEU         0.0315
    160 H46        42.2495   -2.3203    2.1064 H         1 LEU         0.0315
    161 H47        42.7945   -0.1743    3.0697 H         1 LEU         0.0298
    162 H48        41.6801    1.2290    1.3545 H         1 LEU         0.0232
    163 H49        40.4886   -0.0849    1.0703 H         1 LEU         0.0232
    164 H50        42.2244   -0.3488    0.6906 H         1 LEU         0.0232
    165 H51        41.0246   -0.0125    4.7791 H         1 LEU         0.0232
    166 H52        39.7989    0.2038    3.4840 H         1 LEU         0.0232
    167 H53        41.0776    1.4418    3.7262 H         1 LEU         0.0232
    168 H54        39.1448   -5.8270    5.0096 H         1 PRO         0.0802
    169 H55        37.9824   -4.9719    6.8887 H         1 PRO         0.0313
    170 H56        36.6291   -4.8526    5.7135 H         1 PRO         0.0313
    171 H57        37.4623   -2.6800    7.0150 H         1 PRO         0.0287
    172 H58        37.0451   -2.5819    5.2705 H         1 PRO         0.0287
    173 H59        39.2078   -1.6950    5.1986 H         1 PRO         0.0524
    174 H60        39.7675   -2.6776    6.5942 H         1 PRO         0.0524
    175 H61        37.0692   -6.0115    1.0067 H         1 PRO         0.0802
    176 H62        36.3953   -8.2509    0.8099 H         1 PRO         0.0313
    177 H63        35.4866   -8.2081    2.3589 H         1 PRO         0.0313
    178 H64        38.4257   -8.6748    1.8570 H         1 PRO         0.0287
    179 H65        37.3222   -9.4662    3.0328 H         1 PRO         0.0287
    180 H66        37.5290   -7.7465    4.5787 H         1 PRO         0.0524
    181 H67        39.1042   -7.5170    3.7464 H         1 PRO         0.0524
    182 H68        35.1644   -5.1982    0.2513 H         1 LYS         0.1883
    183 H69        33.1443   -4.2866    2.2244 H         1 LYS         0.0800
    184 H70        32.0999   -3.2290    0.1704 H         1 LYS         0.0312
    185 H71        33.5107   -3.8217   -0.7702 H         1 LYS         0.0312
    186 H72        35.0171   -2.4668    0.5933 H         1 LYS         0.0269
    187 H73        33.6353   -1.9111    1.5975 H         1 LYS         0.0269
    188 H74        32.5834   -0.9585   -0.4699 H         1 LYS         0.0317
    189 H75        34.0612   -1.4114   -1.3852 H         1 LYS         0.0317
    190 H76        35.4392    0.0313   -0.0058 H         1 LYS         0.0813
    191 H77        34.0716    0.3505    1.1143 H         1 LYS         0.0813
    192 H78        34.3606    2.1243   -0.4788 H         1 LYS         0.1994
    193 H79        32.9109    1.3819   -0.7173 H         1 LYS         0.1994
    194 H80        34.1642    1.0895   -1.7437 H         1 LYS         0.1994
    195 H81        31.2835   -5.4027    2.5538 H         1 GLN         0.1883
    196 H82        31.0140   -7.8945    1.0369 H         1 GLN         0.0801
    197 H83        29.2153   -8.4361    2.5967 H         1 GLN         0.0337
    198 H84        29.2563   -6.7639    3.2516 H         1 GLN         0.0337
    199 H85        30.4023   -8.2418    4.7682 H         1 GLN         0.0504
    200 H86        31.5974   -7.1523    3.9862 H         1 GLN         0.0504
    201 H87        33.5585  -10.0077    3.4803 H         1 GLN         0.1814
    202 H88        33.3657   -8.4973    4.3058 H         1 GLN         0.1814
    203 H89        29.3974   -4.7593    1.1450 H         1 LYS         0.1883
    204 H90        27.8704   -3.7973   -0.2117 H         1 LYS         0.0800
    205 H91        27.8722   -4.4181   -2.6033 H         1 LYS         0.0312
    206 H92        28.8900   -5.8447   -2.2086 H         1 LYS         0.0312
    207 H93        30.6543   -4.3904   -1.3665 H         1 LYS         0.0269
    208 H94        29.6303   -2.9433   -1.6570 H         1 LYS         0.0269
    209 H95        29.5981   -3.5681   -4.1050 H         1 LYS         0.0317
    210 H96        30.8120   -4.8381   -3.7305 H         1 LYS         0.0317
    211 H97        32.2739   -3.0579   -2.7215 H         1 LYS         0.0813
    212 H98        31.0878   -1.8287   -3.2772 H         1 LYS         0.0813
    213 H99        32.9248   -2.0517   -4.7882 H         1 LYS         0.1994
    214 H100       31.5322   -2.5264   -5.5263 H         1 LYS         0.1994
    215 H101       32.6191   -3.6529   -5.0170 H         1 LYS         0.1994
    216 H102       26.7804   -5.8905    1.5225 H         1 ARG         0.1883
    217 H103       24.7663   -7.2591   -0.0698 H         1 ARG         0.0800
    218 H104       23.7576   -7.8518    2.0617 H         1 ARG         0.0313
    219 H105       24.7465   -6.6170    2.9126 H         1 ARG         0.0313
    220 H106       25.5519   -8.9354    3.2353 H         1 ARG         0.0301
    221 H107       26.7649   -7.8536    2.4704 H         1 ARG         0.0301
    222 H108       26.2634   -8.7734    0.2697 H         1 ARG         0.0689
    223 H109       24.9337   -9.7695    0.9526 H         1 ARG         0.0689
    224 H110       27.1839  -10.5023    2.4273 H         1 ARG         0.2642
    225 H111       28.6186  -12.8368    0.2415 H         1 ARG         0.2615
    226 H112       28.5176  -12.2456    1.9217 H         1 ARG         0.2615
    227 H113       26.3401  -10.4340   -1.0229 H         1 ARG         0.2615
    228 H114       27.4024  -11.8126   -1.4147 H         1 ARG         0.2615
    229 H115       22.6209   -6.7329   -0.3669 H         1 LYS         0.1883
    230 H116       21.8407   -3.9600   -0.1971 H         1 LYS         0.0800
    231 H117       19.8442   -6.2287   -0.3306 H         1 LYS         0.0312
    232 H118       20.9253   -5.8989   -1.7267 H         1 LYS         0.0312
    233 H119       20.1087   -3.5039   -1.6668 H         1 LYS         0.0269
    234 H120       18.8925   -4.0229   -0.4510 H         1 LYS         0.0269
    235 H121       17.7628   -5.4087   -2.0062 H         1 LYS         0.0317
    236 H122       19.1384   -5.3820   -3.1610 H         1 LYS         0.0317
    237 H123       17.4115   -2.9711   -2.4001 H         1 LYS         0.0813
    238 H124       17.2322   -3.9466   -3.8978 H         1 LYS         0.0813
    239 H125       18.5034   -1.9422   -4.2783 H         1 LYS         0.1994
    240 H126       19.4575   -3.2615   -4.5203 H         1 LYS         0.1994
    241 H127       19.6218   -2.3676   -3.1479 H         1 LYS         0.1994
    242 H128       20.3411   -3.6064    2.9391 H         1 NH2         0.1815
    243 H129       20.8102   -2.8991    1.4292 H         1 NH2         0.1815
@<TRIPOS>BOND
     1    1    2 2  
     2    1    3 1  
     3    1    4 am 
     4    4    5 1  
     5    5    6 1  
     6    5    8 1  
     7    6    7 2  
     8    6   16 am 
     9    8    9 1  
    10    9   10 ar 
    11    9   11 ar 
    12   10   12 ar 
    13   11   13 ar 
    14   12   14 ar 
    15   13   14 ar 
    16   14   15 1  
    17   16   17 1  
    18   17   18 1  
    19   18   19 2  
    20   18   20 am 
    21   20   21 1  
    22   21   22 1  
    23   21   24 1  
    24   22   23 2  
    25   22   31 am 
    26   24   25 1  
    27   25   26 1  
    28   26   27 1  
    29   27   28 ar 
    30   28   29 ar 
    31   28   30 ar 
    32   31   32 1  
    33   31   37 1  
    34   32   33 1  
    35   32   35 1  
    36   33   34 2  
    37   33   38 am 
    38   35   36 1  
    39   36   37 1  
    40   38   39 1  
    41   38   44 1  
    42   39   40 1  
    43   39   42 1  
    44   40   41 2  
    45   40   45 am 
    46   42   43 1  
    47   43   44 1  
    48   45   46 1  
    49   46   47 1  
    50   46   49 1  
    51   47   48 2  
    52   47   53 am 
    53   49   50 1  
    54   50   51 1  
    55   50   52 1  
    56   53   54 1  
    57   53   59 1  
    58   54   55 1  
    59   54   57 1  
    60   55   56 2  
    61   55   60 am 
    62   57   58 1  
    63   58   59 1  
    64   60   61 1  
    65   60   66 1  
    66   61   62 1  
    67   61   64 1  
    68   62   63 2  
    69   62   67 am 
    70   64   65 1  
    71   65   66 1  
    72   67   68 1  
    73   68   69 1  
    74   68   71 1  
    75   69   70 2  
    76   69   76 am 
    77   71   72 1  
    78   72   73 1  
    79   73   74 1  
    80   74   75 1  
    81   76   77 1  
    82   77   78 1  
    83   77   80 1  
    84   78   79 2  
    85   78   85 am 
    86   80   81 1  
    87   81   82 1  
    88   82   83 2  
    89   82   84 am 
    90   85   86 1  
    91   86   87 1  
    92   86   89 1  
    93   87   88 2  
    94   87   94 am 
    95   89   90 1  
    96   90   91 1  
    97   91   92 1  
    98   92   93 1  
    99   94   95 1  
   100   95   96 1  
   101   95   98 1  
   102   96   97 2  
   103   96  105 am 
   104   98   99 1  
   105   99  100 1  
   106  100  101 1  
   107  101  102 ar 
   108  102  103 ar 
   109  102  104 ar 
   110  105  106 1  
   111  106  107 1  
   112  106  109 1  
   113  107  108 2  
   114  107  114 am 
   115  109  110 1  
   116  110  111 1  
   117  111  112 1  
   118  112  113 1  
   119    3  115 1  
   120    3  116 1  
   121    3  117 1  
   122    4  118 1  
   123    5  119 1  
   124    8  120 1  
   125    8  121 1  
   126   10  122 1  
   127   11  123 1  
   128   12  124 1  
   129   13  125 1  
   130   15  126 1  
   131   16  127 1  
   132   17  128 1  
   133   17  129 1  
   134   20  130 1  
   135   21  131 1  
   136   24  132 1  
   137   24  133 1  
   138   25  134 1  
   139   25  135 1  
   140   26  136 1  
   141   26  137 1  
   142   27  138 1  
   143   29  139 1  
   144   29  140 1  
   145   30  141 1  
   146   30  142 1  
   147   32  143 1  
   148   35  144 1  
   149   35  145 1  
   150   36  146 1  
   151   36  147 1  
   152   37  148 1  
   153   37  149 1  
   154   39  150 1  
   155   42  151 1  
   156   42  152 1  
   157   43  153 1  
   158   43  154 1  
   159   44  155 1  
   160   44  156 1  
   161   45  157 1  
   162   46  158 1  
   163   49  159 1  
   164   49  160 1  
   165   50  161 1  
   166   51  162 1  
   167   51  163 1  
   168   51  164 1  
   169   52  165 1  
   170   52  166 1  
   171   52  167 1  
   172   54  168 1  
   173   57  169 1  
   174   57  170 1  
   175   58  171 1  
   176   58  172 1  
   177   59  173 1  
   178   59  174 1  
   179   61  175 1  
   180   64  176 1  
   181   64  177 1  
   182   65  178 1  
   183   65  179 1  
   184   66  180 1  
   185   66  181 1  
   186   67  182 1  
   187   68  183 1  
   188   71  184 1  
   189   71  185 1  
   190   72  186 1  
   191   72  187 1  
   192   73  188 1  
   193   73  189 1  
   194   74  190 1  
   195   74  191 1  
   196   75  192 1  
   197   75  193 1  
   198   75  194 1  
   199   76  195 1  
   200   77  196 1  
   201   80  197 1  
   202   80  198 1  
   203   81  199 1  
   204   81  200 1  
   205   84  201 1  
   206   84  202 1  
   207   85  203 1  
   208   86  204 1  
   209   89  205 1  
   210   89  206 1  
   211   90  207 1  
   212   90  208 1  
   213   91  209 1  
   214   91  210 1  
   215   92  211 1  
   216   92  212 1  
   217   93  213 1  
   218   93  214 1  
   219   93  215 1  
   220   94  216 1  
   221   95  217 1  
   222   98  218 1  
   223   98  219 1  
   224   99  220 1  
   225   99  221 1  
   226  100  222 1  
   227  100  223 1  
   228  101  224 1  
   229  103  225 1  
   230  103  226 1  
   231  104  227 1  
   232  104  228 1  
   233  105  229 1  
   234  106  230 1  
   235  109  231 1  
   236  109  232 1  
   237  110  233 1  
   238  110  234 1  
   239  111  235 1  
   240  111  236 1  
   241  112  237 1  
   242  112  238 1  
   243  113  239 1  
   244  113  240 1  
   245  113  241 1  
   246  114  242 1  
   247  114  243 1  
@<TRIPOS>SUBSTRUCTURE
     1 ACE         1

