5ul6_ligand
  -I-interpret- 

241245  0  0  0  0  0  0  0  0999 V2000
   52.4560   -3.7620   16.1240 C   0  0  0  0  0
   52.4680   -4.7660   15.4220 O   0  0  0  0  0
   53.6970   -3.2360   16.7790 C   0  0  0  0  0
   51.3400   -3.0800   16.3570 N   0  0  0  0  0
   50.0690   -3.4840   15.7690 C   0  0  0  0  0
   50.1240   -3.3560   14.2520 C   0  0  0  0  0
   49.6230   -4.2110   13.5320 O   0  0  0  0  0
   48.9430   -2.6190   16.3270 C   0  0  0  0  0
   47.5650   -2.9500   15.8090 C   0  0  0  0  0
   46.9380   -4.1360   16.1550 C   0  0  0  0  0
   46.8770   -2.0530   15.0130 C   0  0  0  0  0
   45.6540   -4.4200   15.6970 C   0  0  0  0  0
   45.6050   -2.3280   14.5450 C   0  0  0  0  0
   44.9990   -3.5060   14.8950 C   0  0  0  0  0
   43.7260   -3.7720   14.4340 O   0  0  0  0  0
   50.7430   -2.2790   13.7750 N   0  0  0  0  0
   50.9060   -2.0910   12.3600 C   0  0  0  0  0
   49.6580   -1.5210   11.7250 C   0  0  0  0  0
   48.7440   -1.0320   12.3920 O   0  0  0  0  0
   49.6310   -1.5840   10.4010 N   0  0  0  0  0
   48.5080   -1.0790    9.6260 C   0  0  0  0  0
   47.7750   -2.2650    9.0240 C   0  0  0  0  0
   48.3030   -2.9040    8.0990 O   0  0  0  0  0
   49.0010   -0.1510    8.5210 C   0  0  0  0  0
   47.8740    0.5030    7.7300 C   0  0  0  0  0
   48.4010    1.6140    6.8370 C   0  0  0  0  0
   47.3840    2.0970    5.9100 N   0  0  0  0  0
   47.3100    3.3470    5.4600 C   0  0  0  0  0
   48.1890    4.2580    5.8640 N   0  0  0  0  0
   46.3460    3.6910    4.6140 N   0  0  0  0  0
   46.5810   -2.6040    9.5090 N   0  0  0  0  0
   45.8820   -3.7680    8.9730 C   0  0  0  0  0
   45.4310   -3.5160    7.5460 C   0  0  0  0  0
   45.2190   -2.3610    7.1420 O   0  0  0  0  0
   44.6770   -3.9230    9.9160 C   0  0  0  0  0
   44.5050   -2.5960   10.5560 C   0  0  0  0  0
   45.8640   -1.9830   10.6380 C   0  0  0  0  0
   45.2690   -4.5640    6.7440 N   0  0  0  0  0
   44.7950   -4.3610    5.3720 C   0  0  0  0  0
   43.3620   -3.8510    5.3660 C   0  0  0  0  0
   42.6120   -4.0020    6.3330 O   0  0  0  0  0
   44.9030   -5.7520    4.7280 C   0  0  0  0  0
   45.0200   -6.7090    5.8670 C   0  0  0  0  0
   45.6110   -5.9680    7.0330 C   0  0  0  0  0
   43.0080   -3.1930    4.2690 N   0  0  0  0  0
   41.6510   -2.6840    4.1100 C   0  0  0  0  0
   40.6690   -3.8460    4.0630 C   0  0  0  0  0
   40.9060   -4.8280    3.3450 O   0  0  0  0  0
   41.5250   -1.8860    2.8110 C   0  0  0  0  0
   41.7500   -0.3720    2.7870 C   0  0  0  0  0
   41.5200    0.1410    1.3790 C   0  0  0  0  0
   40.8510    0.3660    3.7610 C   0  0  0  0  0
   39.5420   -3.7580    4.7680 N   0  0  0  0  0
   38.6150   -4.8870    4.7960 C   0  0  0  0  0
   37.8670   -5.0150    3.4830 C   0  0  0  0  0
   37.5640   -4.0080    2.8200 O   0  0  0  0  0
   37.6530   -4.5210    5.9410 C   0  0  0  0  0
   37.7270   -3.0320    6.0070 C   0  0  0  0  0
   39.1440   -2.6780    5.6880 C   0  0  0  0  0
   37.5360   -6.2360    3.0700 N   0  0  0  0  0
   36.6230   -6.4000    1.9340 C   0  0  0  0  0
   35.3010   -5.6970    2.2010 C   0  0  0  0  0
   34.8480   -5.5940    3.3440 O   0  0  0  0  0
   36.4220   -7.9180    1.8580 C   0  0  0  0  0
   37.6010   -8.5100    2.5660 C   0  0  0  0  0
   38.0120   -7.5230    3.6160 C   0  0  0  0  0
   34.6870   -5.1970    1.1300 N   0  0  0  0  0
   33.3360   -4.6470    1.2030 C   0  0  0  0  0
   32.3450   -5.7450    0.8540 C   0  0  0  0  0
   32.4610   -6.3800   -0.1960 O   0  0  0  0  0
   33.1680   -3.4870    0.2200 C   0  0  0  0  0
   33.9410   -2.2390    0.5930 C   0  0  0  0  0
   33.6680   -1.1270   -0.3980 C   0  0  0  0  0
   34.3480    0.1480    0.0690 C   0  0  0  0  0
   33.9110    1.2760   -0.7860 N   0  3  0  0  0
   31.3740   -5.9740    1.7380 N   0  0  0  0  0
   30.4480   -7.0700    1.4950 C   0  0  0  0  0
   29.3390   -6.6750    0.5320 C   0  0  0  0  0
   28.7790   -7.5470   -0.1430 O   0  0  0  0  0
   29.8600   -7.5710    2.8110 C   0  0  0  0  0
   30.9070   -7.9930    3.8230 C   0  0  0  0  0
   31.7050   -9.1920    3.3720 C   0  0  0  0  0
   31.1780  -10.0760    2.6860 O   0  0  0  0  0
   32.9830   -9.2360    3.7510 N   0  0  0  0  0
   28.9910   -5.3870    0.4810 N   0  0  0  0  0
   28.0430   -4.8450   -0.4990 C   0  0  0  0  0
   26.6740   -5.5290   -0.4650 C   0  0  0  0  0
   26.0070   -5.6570   -1.4930 O   0  0  0  0  0
   28.6310   -4.8170   -1.9140 C   0  0  0  0  0
   29.8750   -3.9560   -2.0100 C   0  0  0  0  0
   30.4120   -3.8600   -3.4250 C   0  0  0  0  0
   31.5240   -2.8160   -3.4890 C   0  0  0  0  0
   32.2050   -2.7570   -4.8120 N   0  3  0  0  0
   26.2170   -5.9690    0.7000 N   0  0  0  0  0
   24.8910   -6.5670    0.7760 C   0  0  0  0  0
   23.8100   -5.4960    0.7070 C   0  0  0  0  0
   23.9770   -4.3840    1.2080 O   0  0  0  0  0
   24.7300   -7.3380    2.0820 C   0  0  0  0  0
   25.8020   -8.3660    2.3280 C   0  0  0  0  0
   25.9200   -9.3270    1.1560 C   0  0  0  0  0
   26.8730  -10.3970    1.4510 N   0  0  0  0  0
   27.3680  -11.2440    0.5530 C   0  0  0  0  0
   28.2330  -12.1790    0.9340 N   0  0  0  0  0
   27.0100  -11.1570   -0.7240 N   0  0  0  0  0
   22.6780   -5.8510    0.1010 N   0  0  0  0  0
   21.5270   -4.9670    0.1150 C   0  0  0  0  0
   21.0010   -4.9100    1.5400 C   0  0  0  0  0
   20.9030   -5.9340    2.2120 O   0  0  0  0  0
   20.4400   -5.4590   -0.8430 C   0  0  0  0  0
   19.5020   -4.3480   -1.3070 C   0  0  0  0  0
   18.5670   -4.7900   -2.4310 C   0  0  0  0  0
   17.9450   -3.5810   -3.1440 C   0  0  0  0  0
   18.9660   -2.7170   -3.8290 N   0  3  0  0  0
   20.6920   -3.7060    2.0080 N   0  0  0  0  0
   54.1039   -3.9956   17.4465 H   0  0  0  0  0
   54.4337   -2.9902   16.0142 H   0  0  0  0  0
   53.4529   -2.3409   17.3511 H   0  0  0  0  0
   51.3733   -2.2574   16.9592 H   0  0  0  0  0
   49.8780   -4.5265   16.0235 H   0  0  0  0  0
   49.1547   -1.5938   16.0231 H   0  0  0  0  0
   48.9223   -2.7870   17.4038 H   0  0  0  0  0
   47.4548   -4.8538   16.7920 H   0  0  0  0  0
   47.3483   -1.1066   14.7480 H   0  0  0  0  0
   45.1691   -5.3574   15.9696 H   0  0  0  0  0
   45.0890   -1.6138   13.9033 H   0  0  0  0  0
   43.4221   -3.0379   13.8952 H   0  0  0  0  0
   51.1061   -1.5786   14.4216 H   0  0  0  0  0
   51.1107   -3.0605   11.9058 H   0  0  0  0  0
   51.7248   -1.3898   12.1985 H   0  0  0  0  0
   50.4226   -1.9997    9.9101 H   0  0  0  0  0
   47.8374   -0.5103   10.2702 H   0  0  0  0  0
   49.5850   -0.7521    7.8241 H   0  0  0  0  0
   49.5753    0.6458    8.9937 H   0  0  0  0  0
   47.1593    0.9314    8.4327 H   0  0  0  0  0
   47.4049   -0.2546    7.1022 H   0  0  0  0  0
   49.2331    1.2181    6.2548 H   0  0  0  0  0
   48.7070    2.4457    7.4716 H   0  0  0  0  0
   46.6823    1.4319    5.5848 H   0  0  0  0  0
   48.1217    5.2174    5.5243 H   0  0  0  0  0
   48.9310    3.9978    6.5138 H   0  0  0  0  0
   45.6630    2.9972    4.3096 H   0  0  0  0  0
   46.5052   -4.6613    8.9315 H   0  0  0  0  0
   44.8455   -4.7056   10.6558 H   0  0  0  0  0
   43.7808   -4.2255    9.3742 H   0  0  0  0  0
   44.0625   -2.6961   11.5471 H   0  0  0  0  0
   43.8290   -1.9683    9.9754 H   0  0  0  0  0
   45.8397   -0.8952   10.5740 H   0  0  0  0  0
   46.3504   -2.1643   11.5964 H   0  0  0  0  0
   45.3740   -3.6130    4.8303 H   0  0  0  0  0
   45.7620   -5.8180    4.0603 H   0  0  0  0  0
   44.0351   -5.9737    4.1069 H   0  0  0  0  0
   45.6575   -7.5489    5.5908 H   0  0  0  0  0
   44.0392   -7.1057    6.1294 H   0  0  0  0  0
   45.2193   -6.3087    7.9914 H   0  0  0  0  0
   46.6844   -6.1283    7.1341 H   0  0  0  0  0
   43.6932   -3.0417    3.5287 H   0  0  0  0  0
   41.4278   -2.0350    4.9568 H   0  0  0  0  0
   40.4775   -2.0008    2.5321 H   0  0  0  0  0
   42.3225   -2.2806    2.1813 H   0  0  0  0  0
   42.7770   -0.1828    3.0993 H   0  0  0  0  0
   42.2185   -0.3451    0.6979 H   0  0  0  0  0
   40.4978   -0.0834    1.0744 H   0  0  0  0  0
   41.6789    1.2191    1.3560 H   0  0  0  0  0
   39.8083    0.1775    3.5053 H   0  0  0  0  0
   41.0476    0.0135    4.7735 H   0  0  0  0  0
   41.0534    1.4354    3.7015 H   0  0  0  0  0
   39.1150   -5.8445    4.9421 H   0  0  0  0  0
   37.9318   -4.9922    6.8835 H   0  0  0  0  0
   36.6391   -4.8782    5.7609 H   0  0  0  0  0
   37.4395   -2.6647    6.9922 H   0  0  0  0  0
   37.0354   -2.5698    5.3026 H   0  0  0  0  0
   39.2486   -1.6846    5.2517 H   0  0  0  0  0
   39.7781   -2.6144    6.5723 H   0  0  0  0  0
   37.0109   -5.9728    1.0093 H   0  0  0  0  0
   36.3599   -8.2628    0.8258 H   0  0  0  0  0
   35.4829   -8.2215    2.3207 H   0  0  0  0  0
   38.4178   -8.6992    1.8695 H   0  0  0  0  0
   37.3436   -9.4697    3.0142 H   0  0  0  0  0
   37.5886   -7.7480    4.5949 H   0  0  0  0  0
   39.0857   -7.5299    3.8039 H   0  0  0  0  0
   35.1740   -5.1982    0.2337 H   0  0  0  0  0
   33.1576   -4.2743    2.2116 H   0  0  0  0  0
   32.1110   -3.2207    0.2149 H   0  0  0  0  0
   33.5490   -3.8248   -0.7438 H   0  0  0  0  0
   35.0068   -2.4674    0.5829 H   0  0  0  0  0
   33.6280   -1.9129    1.5849 H   0  0  0  0  0
   32.5932   -0.9599   -0.4686 H   0  0  0  0  0
   34.0582   -1.4089   -1.3760 H   0  0  0  0  0
   35.4295    0.0327   -0.0030 H   0  0  0  0  0
   34.0762    0.3485    1.1053 H   0  0  0  0  0
   34.3665    2.1337   -0.4742 H   0  0  0  0  0
   34.1677    1.0861   -1.7547 H   0  0  0  0  0
   32.8990    1.3822   -0.7157 H   0  0  0  0  0
   31.2816   -5.3913    2.5701 H   0  0  0  0  0
   31.0119   -7.8773    1.0277 H   0  0  0  0  0
   29.2528   -8.4475    2.5846 H   0  0  0  0  0
   29.2944   -6.7490    3.2498 H   0  0  0  0  0
   30.3914   -8.2623    4.7448 H   0  0  0  0  0
   31.5991   -7.1612    3.9545 H   0  0  0  0  0
   33.5701  -10.0231    3.4748 H   0  0  0  0  0
   33.3733   -8.4826    4.3170 H   0  0  0  0  0
   29.4056   -4.7468    1.1582 H   0  0  0  0  0
   27.8677   -3.8124   -0.1973 H   0  0  0  0  0
   27.8792   -4.3966   -2.5819 H   0  0  0  0  0
   28.9066   -5.8366   -2.1835 H   0  0  0  0  0
   30.6464   -4.4118   -1.3893 H   0  0  0  0  0
   29.6121   -2.9501   -1.6827 H   0  0  0  0  0
   29.6050   -3.5673   -4.0967 H   0  0  0  0  0
   30.8110   -4.8291   -3.7246 H   0  0  0  0  0
   32.2734   -3.0884   -2.7458 H   0  0  0  0  0
   31.0701   -1.8414   -3.3095 H   0  0  0  0  0
   32.9331   -2.0431   -4.7867 H   0  0  0  0  0
   32.6235   -3.6640   -5.0184 H   0  0  0  0  0
   31.5232   -2.5236   -5.5339 H   0  0  0  0  0
   26.7916   -5.8889    1.5389 H   0  0  0  0  0
   24.7849   -7.2454   -0.0705 H   0  0  0  0  0
   23.7806   -7.8705    2.0261 H   0  0  0  0  0
   24.7882   -6.6122    2.8932 H   0  0  0  0  0
   25.5406   -8.9351    3.2201 H   0  0  0  0  0
   26.7549   -7.8521    2.4543 H   0  0  0  0  0
   26.2720   -8.7749    0.2846 H   0  0  0  0  0
   24.9425   -9.7709    0.9673 H   0  0  0  0  0
   27.1809  -10.5013    2.4178 H   0  0  0  0  0
   28.6195  -12.8265    0.2472 H   0  0  0  0  0
   28.5101  -12.2488    1.9131 H   0  0  0  0  0
   26.3514  -10.4370   -1.0211 H   0  0  0  0  0
   22.6198   -6.7506   -0.3763 H   0  0  0  0  0
   21.8203   -3.9724   -0.2210 H   0  0  0  0  0
   19.8403   -6.1979   -0.3116 H   0  0  0  0  0
   20.9353   -5.8640   -1.7255 H   0  0  0  0  0
   20.1158   -3.5311   -1.6865 H   0  0  0  0  0
   18.8856   -4.0561   -0.4567 H   0  0  0  0  0
   17.7654   -5.3903   -2.0007 H   0  0  0  0  0
   19.1430   -5.3635   -3.1572 H   0  0  0  0  0
   17.4446   -2.9718   -2.3913 H   0  0  0  0  0
   17.2632   -3.9585   -3.9061 H   0  0  0  0  0
   18.4968   -1.9334   -4.2832 H   0  0  0  0  0
   19.6290   -2.3641   -3.1389 H   0  0  0  0  0
   19.4627   -3.2691   -4.5282 H   0  0  0  0  0
   20.3561   -3.6018    2.9654 H   0  0  0  0  0
   20.7906   -2.8856    1.4100 H   0  0  0  0  0
  1  2  2  0  0  0
  1  3  1  0  0  0
  1  4  1  0  0  0
  4  5  1  0  0  0
  5  6  1  0  0  0
  5  8  1  0  0  0
  6  7  2  0  0  0
  6 16  1  0  0  0
  8  9  1  0  0  0
  9 10  4  0  0  0
  9 11  4  0  0  0
 10 12  4  0  0  0
 11 13  4  0  0  0
 12 14  4  0  0  0
 13 14  4  0  0  0
 14 15  1  0  0  0
 16 17  1  0  0  0
 17 18  1  0  0  0
 18 19  2  0  0  0
 18 20  1  0  0  0
 20 21  1  0  0  0
 21 22  1  0  0  0
 21 24  1  0  0  0
 22 23  2  0  0  0
 22 31  1  0  0  0
 24 25  1  0  0  0
 25 26  1  0  0  0
 26 27  1  0  0  0
 27 28  1  0  0  0
 28 29  1  0  0  0
 28 30  2  0  0  0
 31 32  1  0  0  0
 31 37  1  0  0  0
 32 33  1  0  0  0
 32 35  1  0  0  0
 33 34  2  0  0  0
 33 38  1  0  0  0
 35 36  1  0  0  0
 36 37  1  0  0  0
 38 39  1  0  0  0
 38 44  1  0  0  0
 39 40  1  0  0  0
 39 42  1  0  0  0
 40 41  2  0  0  0
 40 45  1  0  0  0
 42 43  1  0  0  0
 43 44  1  0  0  0
 45 46  1  0  0  0
 46 47  1  0  0  0
 46 49  1  0  0  0
 47 48  2  0  0  0
 47 53  1  0  0  0
 49 50  1  0  0  0
 50 51  1  0  0  0
 50 52  1  0  0  0
 53 54  1  0  0  0
 53 59  1  0  0  0
 54 55  1  0  0  0
 54 57  1  0  0  0
 55 56  2  0  0  0
 55 60  1  0  0  0
 57 58  1  0  0  0
 58 59  1  0  0  0
 60 61  1  0  0  0
 60 66  1  0  0  0
 61 62  1  0  0  0
 61 64  1  0  0  0
 62 63  2  0  0  0
 62 67  1  0  0  0
 64 65  1  0  0  0
 65 66  1  0  0  0
 67 68  1  0  0  0
 68 69  1  0  0  0
 68 71  1  0  0  0
 69 70  2  0  0  0
 69 76  1  0  0  0
 71 72  1  0  0  0
 72 73  1  0  0  0
 73 74  1  0  0  0
 74 75  1  0  0  0
 76 77  1  0  0  0
 77 78  1  0  0  0
 77 80  1  0  0  0
 78 79  2  0  0  0
 78 85  1  0  0  0
 80 81  1  0  0  0
 81 82  1  0  0  0
 82 83  2  0  0  0
 82 84  1  0  0  0
 85 86  1  0  0  0
 86 87  1  0  0  0
 86 89  1  0  0  0
 87 88  2  0  0  0
 87 94  1  0  0  0
 89 90  1  0  0  0
 90 91  1  0  0  0
 91 92  1  0  0  0
 92 93  1  0  0  0
 94 95  1  0  0  0
 95 96  1  0  0  0
 95 98  1  0  0  0
 96 97  2  0  0  0
 96105  1  0  0  0
 98 99  1  0  0  0
 99100  1  0  0  0
100101  1  0  0  0
101102  1  0  0  0
102103  1  0  0  0
102104  2  0  0  0
105106  1  0  0  0
106107  1  0  0  0
106109  1  0  0  0
107108  2  0  0  0
107114  1  0  0  0
109110  1  0  0  0
110111  1  0  0  0
111112  1  0  0  0
112113  1  0  0  0
  3115  1  0  0  0
  3116  1  0  0  0
  3117  1  0  0  0
  4118  1  0  0  0
  5119  1  0  0  0
  8120  1  0  0  0
  8121  1  0  0  0
 10122  1  0  0  0
 11123  1  0  0  0
 12124  1  0  0  0
 13125  1  0  0  0
 15126  1  0  0  0
 16127  1  0  0  0
 17128  1  0  0  0
 17129  1  0  0  0
 20130  1  0  0  0
 21131  1  0  0  0
 24132  1  0  0  0
 24133  1  0  0  0
 25134  1  0  0  0
 25135  1  0  0  0
 26136  1  0  0  0
 26137  1  0  0  0
 27138  1  0  0  0
 29139  1  0  0  0
 29140  1  0  0  0
 30141  1  0  0  0
 32142  1  0  0  0
 35143  1  0  0  0
 35144  1  0  0  0
 36145  1  0  0  0
 36146  1  0  0  0
 37147  1  0  0  0
 37148  1  0  0  0
 39149  1  0  0  0
 42150  1  0  0  0
 42151  1  0  0  0
 43152  1  0  0  0
 43153  1  0  0  0
 44154  1  0  0  0
 44155  1  0  0  0
 45156  1  0  0  0
 46157  1  0  0  0
 49158  1  0  0  0
 49159  1  0  0  0
 50160  1  0  0  0
 51161  1  0  0  0
 51162  1  0  0  0
 51163  1  0  0  0
 52164  1  0  0  0
 52165  1  0  0  0
 52166  1  0  0  0
 54167  1  0  0  0
 57168  1  0  0  0
 57169  1  0  0  0
 58170  1  0  0  0
 58171  1  0  0  0
 59172  1  0  0  0
 59173  1  0  0  0
 61174  1  0  0  0
 64175  1  0  0  0
 64176  1  0  0  0
 65177  1  0  0  0
 65178  1  0  0  0
 66179  1  0  0  0
 66180  1  0  0  0
 67181  1  0  0  0
 68182  1  0  0  0
 71183  1  0  0  0
 71184  1  0  0  0
 72185  1  0  0  0
 72186  1  0  0  0
 73187  1  0  0  0
 73188  1  0  0  0
 74189  1  0  0  0
 74190  1  0  0  0
 75191  1  0  0  0
 75192  1  0  0  0
 75193  1  0  0  0
 76194  1  0  0  0
 77195  1  0  0  0
 80196  1  0  0  0
 80197  1  0  0  0
 81198  1  0  0  0
 81199  1  0  0  0
 84200  1  0  0  0
 84201  1  0  0  0
 85202  1  0  0  0
 86203  1  0  0  0
 89204  1  0  0  0
 89205  1  0  0  0
 90206  1  0  0  0
 90207  1  0  0  0
 91208  1  0  0  0
 91209  1  0  0  0
 92210  1  0  0  0
 92211  1  0  0  0
 93212  1  0  0  0
 93213  1  0  0  0
 93214  1  0  0  0
 94215  1  0  0  0
 95216  1  0  0  0
 98217  1  0  0  0
 98218  1  0  0  0
 99219  1  0  0  0
 99220  1  0  0  0
100221  1  0  0  0
100222  1  0  0  0
101223  1  0  0  0
103224  1  0  0  0
103225  1  0  0  0
104226  1  0  0  0
105227  1  0  0  0
106228  1  0  0  0
109229  1  0  0  0
109230  1  0  0  0
110231  1  0  0  0
110232  1  0  0  0
111233  1  0  0  0
111234  1  0  0  0
112235  1  0  0  0
112236  1  0  0  0
113237  1  0  0  0
113238  1  0  0  0
113239  1  0  0  0
114240  1  0  0  0
114241  1  0  0  0
M  END
$$$$
