3ieo_ligand
  -I-interpret- 

 36 36  0  0  0  0  0  0  0  0999 V2000
   -5.7070    8.1990   12.0880 C   0  0  0  0  0
   -5.1340    6.0750   13.1670 N   0  0  0  0  0
   -6.2950    9.1100   12.6680 O   0  0  0  0  0
   -4.6100    7.3960   12.7910 C   0  0  0  0  0
   -3.4180    7.2240   11.8470 C   0  0  0  0  0
   -3.6230    4.9190   11.4990 C   0  0  0  0  0
   -7.0550    7.2340   14.0610 C   0  0  0  0  0
   -6.7780    4.8430   14.1110 O   0  0  0  0  0
   -5.0600   10.9920    7.0690 C   0  0  0  0  0
   -6.0070   11.5360    7.9290 C   0  0  0  0  0
   -4.7320    9.6450    7.1590 C   0  0  0  0  0
   -6.6250   10.7320    8.8790 C   0  0  0  0  0
   -5.3500    8.8410    8.1090 C   0  0  0  0  0
   -6.9780    8.4990   10.0150 C   0  0  0  0  0
   -5.9550    7.8320   10.8340 N   0  0  0  0  0
   -2.8090    5.9440   12.0740 O   0  0  0  0  0
   -6.3050    5.9300   13.7810 C   0  0  0  0  0
   -6.2970    9.3840    8.9690 C   0  0  0  0  0
   -4.5829    5.2444   12.9505 H   0  0  0  0  0
   -4.2887    7.9271   13.6870 H   0  0  0  0  0
   -2.6887    8.0119   12.0352 H   0  0  0  0  0
   -3.7606    7.2854   10.8141 H   0  0  0  0  0
   -4.6102    4.9389   11.9608 H   0  0  0  0  0
   -3.7184    5.0912   10.4269 H   0  0  0  0  0
   -3.1589    3.9481   11.6725 H   0  0  0  0  0
   -8.0199    7.2126   13.5545 H   0  0  0  0  0
   -7.2092    7.3396   15.1349 H   0  0  0  0  0
   -6.4683    8.0754   13.6924 H   0  0  0  0  0
   -4.5747   11.6224    6.3239 H   0  0  0  0  0
   -6.2647   12.5927    7.8582 H   0  0  0  0  0
   -3.9897    9.2187    6.4842 H   0  0  0  0  0
   -7.3672   11.1583    9.5539 H   0  0  0  0  0
   -5.0920    7.7843    8.1797 H   0  0  0  0  0
   -7.6111    9.1140   10.6545 H   0  0  0  0  0
   -7.5883    7.7479    9.5135 H   0  0  0  0  0
   -5.4194    7.0647   10.4281 H   0  0  0  0  0
  1  3  2  0  0  0
  1  4  1  0  0  0
 15  1  1  0  0  0
  4  2  1  0  0  0
  2 17  1  0  0  0
  4  5  1  0  0  0
  5 16  1  0  0  0
 16  6  1  0  0  0
 17  7  1  0  0  0
 17  8  2  0  0  0
 10  9  4  0  0  0
 11  9  4  0  0  0
 12 10  4  0  0  0
 13 11  4  0  0  0
 18 12  4  0  0  0
 18 13  4  0  0  0
 14 15  1  0  0  0
 14 18  1  0  0  0
  2 19  1  0  0  0
  4 20  1  0  0  0
  5 21  1  0  0  0
  5 22  1  0  0  0
  6 23  1  0  0  0
  6 24  1  0  0  0
  6 25  1  0  0  0
  7 26  1  0  0  0
  7 27  1  0  0  0
  7 28  1  0  0  0
  9 29  1  0  0  0
 10 30  1  0  0  0
 11 31  1  0  0  0
 12 32  1  0  0  0
 13 33  1  0  0  0
 14 34  1  0  0  0
 14 35  1  0  0  0
 15 36  1  0  0  0
M  END
$$$$
