1c3r_ligand
  -I-interpret- 

 44 44  0  0  0  0  0  0  0  0999 V2000
   47.6690    8.1890  109.4640 O   0  0  0  0  0
   49.9520    6.9810  108.3400 O   0  0  0  0  0
   52.4580    5.1010  101.6670 O   0  0  0  0  0
   47.8000    7.7890  108.1310 N   0  0  0  0  0
   53.0130   -1.3290  101.2590 N   0  0  0  0  0
   51.8590    2.7990  101.6100 C   0  0  0  0  0
   50.9070    1.7690  101.6660 C   0  0  0  0  0
   51.2410    0.4190  101.5510 C   0  0  0  0  0
   52.6260    0.0260  101.3660 C   0  0  0  0  0
   53.5890    1.0800  101.3030 C   0  0  0  0  0
   53.2180    2.4080  101.4180 C   0  0  0  0  0
   51.5720    4.2610  101.7340 C   0  0  0  0  0
   50.1080    4.7260  101.9960 C   0  0  0  0  0
   50.0520    5.4210  103.3380 C   0  0  0  0  0
   49.0600    5.3570  104.2790 C   0  0  0  0  0
   49.3150    6.1550  105.5040 C   0  0  0  0  0
   48.5150    6.1840  106.5950 C   0  0  0  0  0
   48.8550    6.9940  107.7560 C   0  0  0  0  0
   49.6800    5.6930  100.8640 C   0  0  0  0  0
   47.7760    4.5450  104.1320 C   0  0  0  0  0
   54.4380   -1.7030  101.1390 C   0  0  0  0  0
   52.0440   -2.4160  101.3160 C   0  0  0  0  0
   46.8856    8.7360  109.5573 H   0  0  0  0  0
   47.1133    8.0871  107.4382 H   0  0  0  0  0
   49.8594    2.0358  101.8056 H   0  0  0  0  0
   50.4612   -0.3410  101.6001 H   0  0  0  0  0
   54.6408    0.8318  101.1610 H   0  0  0  0  0
   53.9867    3.1786  101.3602 H   0  0  0  0  0
   49.4285    3.8738  102.0085 H   0  0  0  0  0
   50.9067    6.0502  103.5865 H   0  0  0  0  0
   50.2176    6.7657  105.5267 H   0  0  0  0  0
   47.6006    5.5909  106.6048 H   0  0  0  0  0
   48.6602    6.0329  101.0445 H   0  0  0  0  0
   50.3525    6.5506  100.8469 H   0  0  0  0  0
   49.7272    5.1735   99.9069 H   0  0  0  0  0
   47.2249    4.8940  103.2588 H   0  0  0  0  0
   48.0261    3.4914  104.0081 H   0  0  0  0  0
   47.1633    4.6718  105.0245 H   0  0  0  0  0
   54.8582   -1.2456  100.2433 H   0  0  0  0  0
   54.9799   -1.3508  102.0167 H   0  0  0  0  0
   54.5230   -2.7874  101.0688 H   0  0  0  0  0
   51.5222   -2.3861  102.2725 H   0  0  0  0  0
   51.3249   -2.3029  100.5047 H   0  0  0  0  0
   52.5627   -3.3692  101.2132 H   0  0  0  0  0
  1  4  1  0  0  0
  4 18  1  0  0  0
 18  2  2  0  0  0
 18 17  1  0  0  0
 17 16  2  0  0  0
 16 15  1  0  0  0
 15 20  1  0  0  0
 15 14  2  0  0  0
 14 13  1  0  0  0
 13 19  1  0  0  0
 13 12  1  0  0  0
 12  3  2  0  0  0
 12  6  1  0  0  0
  6 11  4  0  0  0
  6  7  4  0  0  0
  7  8  4  0  0  0
  8  9  4  0  0  0
  9 10  4  0  0  0
  9  5  1  0  0  0
  5 22  1  0  0  0
  5 21  1  0  0  0
 10 11  4  0  0  0
  1 23  1  0  0  0
  4 24  1  0  0  0
  7 25  1  0  0  0
  8 26  1  0  0  0
 10 27  1  0  0  0
 11 28  1  0  0  0
 13 29  1  0  0  0
 14 30  1  0  0  0
 16 31  1  0  0  0
 17 32  1  0  0  0
 19 33  1  0  0  0
 19 34  1  0  0  0
 19 35  1  0  0  0
 20 36  1  0  0  0
 20 37  1  0  0  0
 20 38  1  0  0  0
 21 39  1  0  0  0
 21 40  1  0  0  0
 21 41  1  0  0  0
 22 42  1  0  0  0
 22 43  1  0  0  0
 22 44  1  0  0  0
M  END
$$$$
