2er9_ligand
  -I-interpret- 

130133  0  0  0  0  0  0  0  0999 V2000
   32.9440   -4.9710  -11.3300 O   0  0  0  0  0
   32.0340   -4.6980  -10.5550 C   0  0  0  0  0
   30.6570   -4.7680  -10.8890 O   0  0  0  0  0
   30.4470   -5.2750  -12.1930 C   0  0  0  0  0
   30.8750   -4.2200  -13.2280 C   0  0  0  0  0
   28.9400   -5.5710  -12.3680 C   0  0  0  0  0
   31.2390   -6.5710  -12.4030 C   0  0  0  0  0
   32.2360   -4.2970   -9.3080 N   0  0  0  0  0
   33.5710   -4.3610   -8.6750 C   0  0  0  0  0
   33.3970   -4.7760   -7.2060 C   0  0  0  0  0
   33.7020   -3.9880   -6.3210 O   0  0  0  0  0
   34.2240   -2.9720   -8.7110 C   0  0  0  0  0
   34.0100   -2.2980  -10.0640 C   0  0  0  0  0
   32.9450   -1.4820  -10.4290 N   0  0  0  0  0
   34.8750   -2.3950  -11.1580 C   0  0  0  0  0
   33.1420   -1.0770  -11.7500 C   0  0  0  0  0
   34.3380   -1.6410  -12.2010 N   0  0  0  0  0
   32.9160   -5.9870   -6.9810 N   0  0  0  0  0
   32.4940   -6.4320   -5.6710 C   0  0  0  0  0
   33.6560   -6.5580   -4.6880 C   0  0  0  0  0
   34.8250   -6.5470   -5.0360 O   0  0  0  0  0
   31.9240   -7.7960   -5.9970 C   0  0  0  0  0
   32.5500   -8.2490   -7.2920 C   0  0  0  0  0
   32.7690   -6.9650   -8.0660 C   0  0  0  0  0
   33.2950   -6.6630   -3.4370 N   0  0  0  0  0
   34.2820   -6.7970   -2.3380 C   0  0  0  0  0
   33.7670   -7.9640   -1.4570 C   0  0  0  0  0
   32.5930   -8.0030   -1.2270 O   0  0  0  0  0
   34.1210   -5.5090   -1.4650 C   0  0  0  0  0
   34.8830   -4.3720   -2.1480 C   0  0  0  0  0
   34.2450   -3.5600   -3.0740 C   0  0  0  0  0
   36.2210   -4.1670   -1.8240 C   0  0  0  0  0
   34.9460   -2.5290   -3.6890 C   0  0  0  0  0
   36.9260   -3.1300   -2.4420 C   0  0  0  0  0
   36.2830   -2.3210   -3.3670 C   0  0  0  0  0
   34.6540   -8.8030   -1.0470 N   0  0  0  0  0
   34.4250   -9.8190    0.0040 C   0  0  0  0  0
   35.5400   -9.7320    1.0430 C   0  0  0  0  0
   36.6080  -10.2910    0.8830 O   0  0  0  0  0
   34.3650  -11.1730   -0.6570 C   0  0  0  0  0
   34.3570  -12.3510    0.2920 C   0  0  0  0  0
   33.9000  -12.3850    1.5950 N   0  0  0  0  0
   34.8320  -13.6320   -0.0450 C   0  0  0  0  0
   34.0890  -13.6830    2.0850 C   0  0  0  0  0
   34.6520  -14.4270    1.0780 N   0  0  0  0  0
   35.2660   -9.0110    2.1230 N   0  0  0  0  0
   36.2400   -8.7630    3.1850 C   0  0  0  0  0
   36.7490   -7.3720    3.2110 C   0  0  0  0  0
   37.2040   -6.7510    1.9200 C   0  0  0  0  0
   37.3720   -5.2440    2.0540 C   0  0  0  0  0
   38.5740   -7.3000    1.4150 C   0  0  0  0  0
   35.6950   -9.2000    4.5530 C   0  0  0  0  0
   34.5450   -8.4800    4.9000 O   0  0  0  0  0
   35.3740  -10.7030    4.5640 C   0  0  0  0  0
   36.6380  -11.5220    4.7400 C   0  0  0  0  0
   37.4860  -11.5300    3.8500 O   0  0  0  0  0
   36.7890  -12.2010    5.8630 N   0  0  0  0  0
   37.8180  -13.2800    5.9280 C   0  0  0  0  0
   37.2760  -14.5430    5.2570 C   0  0  0  0  0
   36.1000  -14.8770    5.4240 O   0  0  0  0  0
   38.1510  -13.5490    7.3840 C   0  0  0  0  0
   38.9300  -12.4170    8.0130 C   0  0  0  0  0
   38.7780  -12.3690    9.5270 C   0  0  0  0  0
   40.3760  -12.3210    7.6040 C   0  0  0  0  0
   38.1100  -15.2360    4.5030 N   0  0  0  0  0
   31.9389   -4.0121  -13.1144 H   0  0  0  0  0
   30.6827   -4.5987  -14.2318 H   0  0  0  0  0
   30.3055   -3.3044  -13.0684 H   0  0  0  0  0
   28.7604   -5.9531  -13.3729 H   0  0  0  0  0
   28.6295   -6.3148  -11.6342 H   0  0  0  0  0
   28.3711   -4.6531  -12.2199 H   0  0  0  0  0
   30.9220   -7.3120  -11.6691 H   0  0  0  0  0
   31.0529   -6.9503  -13.4078 H   0  0  0  0  0
   32.3031   -6.3689  -12.2809 H   0  0  0  0  0
   31.4490   -3.9342   -8.7701 H   0  0  0  0  0
   34.1954   -5.0776   -9.2085 H   0  0  0  0  0
   35.2951   -3.0860   -8.5440 H   0  0  0  0  0
   33.7693   -2.3530   -7.9375 H   0  0  0  0  0
   35.8061   -2.9609  -11.1901 H   0  0  0  0  0
   32.4790   -0.4335  -12.3284 H   0  0  0  0  0
   31.8043   -5.7425   -5.1840 H   0  0  0  0  0
   30.8397   -7.7433   -6.0949 H   0  0  0  0  0
   32.1454   -8.5034   -5.1978 H   0  0  0  0  0
   33.4786   -8.7966   -7.1313 H   0  0  0  0  0
   31.9163   -8.9525   -7.8320 H   0  0  0  0  0
   33.6269   -7.0025   -8.7373 H   0  0  0  0  0
   31.9595   -6.7300   -8.7571 H   0  0  0  0  0
   32.3010   -6.6525   -3.2083 H   0  0  0  0  0
   35.3011   -6.9460   -2.6949 H   0  0  0  0  0
   34.5203   -5.6809   -0.4654 H   0  0  0  0  0
   33.0666   -5.2498   -1.3696 H   0  0  0  0  0
   33.1965   -3.7299   -3.3189 H   0  0  0  0  0
   36.7148   -4.8093   -1.0948 H   0  0  0  0  0
   34.4512   -1.8880   -4.4186 H   0  0  0  0  0
   37.9745   -2.9583   -2.1984 H   0  0  0  0  0
   36.8325   -1.5117   -3.8478 H   0  0  0  0  0
   35.5783   -8.7644   -1.4766 H   0  0  0  0  0
   33.4833   -9.6472    0.5253 H   0  0  0  0  0
   35.2653  -11.2657   -1.2645 H   0  0  0  0  0
   33.4271  -11.2102   -1.2111 H   0  0  0  0  0
   35.2576  -13.9393   -1.0003 H   0  0  0  0  0
   33.8353  -14.0380    3.0839 H   0  0  0  0  0
   34.3323   -8.6112    2.2166 H   0  0  0  0  0
   37.1059   -9.3828    2.9525 H   0  0  0  0  0
   37.6384   -7.4056    3.8403 H   0  0  0  0  0
   35.9042   -6.7653    3.5370 H   0  0  0  0  0
   36.4200   -7.0081    1.2077 H   0  0  0  0  0
   36.4185   -4.7970    2.3351 H   0  0  0  0  0
   38.1157   -5.0294    2.8215 H   0  0  0  0  0
   37.7018   -4.8303    1.1010 H   0  0  0  0  0
   39.3418   -7.1004    2.1625 H   0  0  0  0  0
   38.4952   -8.3747    1.2512 H   0  0  0  0  0
   38.8390   -6.8071    0.4796 H   0  0  0  0  0
   36.4742   -8.9931    5.2866 H   0  0  0  0  0
   34.2302   -8.7758    5.7573 H   0  0  0  0  0
   34.9111  -10.9706    3.6142 H   0  0  0  0  0
   34.7007  -10.9126    5.3951 H   0  0  0  0  0
   36.2095  -11.9905    6.6756 H   0  0  0  0  0
   38.7231  -12.9725    5.4042 H   0  0  0  0  0
   38.7651  -14.4484    7.4298 H   0  0  0  0  0
   37.2142  -13.6593    7.9303 H   0  0  0  0  0
   38.4601  -11.5266    7.5953 H   0  0  0  0  0
   37.7268  -12.2333    9.7812 H   0  0  0  0  0
   39.1395  -13.3031    9.9570 H   0  0  0  0  0
   39.3593  -11.5363    9.9230 H   0  0  0  0  0
   40.8919  -13.2409    7.8791 H   0  0  0  0  0
   40.4384  -12.1766    6.5254 H   0  0  0  0  0
   40.8408  -11.4763    8.1124 H   0  0  0  0  0
   37.7891  -16.0822    4.0325 H   0  0  0  0  0
   39.0750  -14.9250    4.3912 H   0  0  0  0  0
  9  8  1  0  0  0
  9 12  1  0  0  0
 10  9  1  0  0  0
 10 11  2  0  0  0
 12 13  1  0  0  0
 13 14  4  0  0  0
 13 15  4  0  0  0
 15 17  4  0  0  0
 17 16  4  0  0  0
 14 16  4  0  0  0
 20 19  1  0  0  0
 19 22  1  0  0  0
 19 18  1  0  0  0
 18 24  1  0  0  0
 24 23  1  0  0  0
 22 23  1  0  0  0
 20 21  2  0  0  0
 18 10  1  0  0  0
 26 25  1  0  0  0
 26 29  1  0  0  0
 27 26  1  0  0  0
 27 28  2  0  0  0
 29 30  1  0  0  0
 30 31  4  0  0  0
 30 32  4  0  0  0
 32 34  4  0  0  0
 34 35  4  0  0  0
 33 35  4  0  0  0
 31 33  4  0  0  0
 25 20  1  0  0  0
 37 36  1  0  0  0
 37 40  1  0  0  0
 38 37  1  0  0  0
 38 39  2  0  0  0
 40 41  1  0  0  0
 41 42  4  0  0  0
 41 43  4  0  0  0
 43 45  4  0  0  0
 45 44  4  0  0  0
 42 44  4  0  0  0
 36 27  1  0  0  0
 57 58  1  0  0  0
 58 61  1  0  0  0
 58 59  1  0  0  0
 59 60  2  0  0  0
 61 62  1  0  0  0
 62 63  1  0  0  0
 62 64  1  0  0  0
 59 65  1  0  0  0
  2  1  2  0  0  0
  2  3  1  0  0  0
  8  2  1  0  0  0
  3  4  1  0  0  0
  4  5  1  0  0  0
  4  6  1  0  0  0
  4  7  1  0  0  0
 46 38  1  0  0  0
 47 46  1  0  0  0
 47 48  1  0  0  0
 52 47  1  0  0  0
 48 49  1  0  0  0
 49 50  1  0  0  0
 49 51  1  0  0  0
 52 53  1  0  0  0
 54 52  1  0  0  0
 55 54  1  0  0  0
 55 56  2  0  0  0
 55 57  1  0  0  0
  5 66  1  0  0  0
  5 67  1  0  0  0
  5 68  1  0  0  0
  6 69  1  0  0  0
  6 70  1  0  0  0
  6 71  1  0  0  0
  7 72  1  0  0  0
  7 73  1  0  0  0
  7 74  1  0  0  0
  8 75  1  0  0  0
  9 76  1  0  0  0
 12 77  1  0  0  0
 12 78  1  0  0  0
 15 79  1  0  0  0
 16 80  1  0  0  0
 19 81  1  0  0  0
 22 82  1  0  0  0
 22 83  1  0  0  0
 23 84  1  0  0  0
 23 85  1  0  0  0
 24 86  1  0  0  0
 24 87  1  0  0  0
 25 88  1  0  0  0
 26 89  1  0  0  0
 29 90  1  0  0  0
 29 91  1  0  0  0
 31 92  1  0  0  0
 32 93  1  0  0  0
 33 94  1  0  0  0
 34 95  1  0  0  0
 35 96  1  0  0  0
 36 97  1  0  0  0
 37 98  1  0  0  0
 40 99  1  0  0  0
 40100  1  0  0  0
 43101  1  0  0  0
 44102  1  0  0  0
 46103  1  0  0  0
 47104  1  0  0  0
 48105  1  0  0  0
 48106  1  0  0  0
 49107  1  0  0  0
 50108  1  0  0  0
 50109  1  0  0  0
 50110  1  0  0  0
 51111  1  0  0  0
 51112  1  0  0  0
 51113  1  0  0  0
 52114  1  0  0  0
 53115  1  0  0  0
 54116  1  0  0  0
 54117  1  0  0  0
 57118  1  0  0  0
 58119  1  0  0  0
 61120  1  0  0  0
 61121  1  0  0  0
 62122  1  0  0  0
 63123  1  0  0  0
 63124  1  0  0  0
 63125  1  0  0  0
 64126  1  0  0  0
 64127  1  0  0  0
 64128  1  0  0  0
 65129  1  0  0  0
 65130  1  0  0  0
M  END
$$$$
