### 
### Created by X-TOOL on Mon Sep 10 21:12:44 2018
### 

@<TRIPOS>MOLECULE
2er9_ligand
  132   135     1     0     0
SMALL
GAST_HUCK


@<TRIPOS>ATOM
      1 OT1        32.9440   -4.9710  -11.3300 O.2       1 BOC        -0.3774
      2 CT1        32.0340   -4.6980  -10.5550 C.2       1 BOC         0.3224
      3 OT2        30.6570   -4.7680  -10.8890 O.3       1 BOC        -0.2580
      4 CT2        30.4470   -5.2750  -12.1930 C.3       1 BOC         0.0905
      5 CT3        30.8750   -4.2200  -13.2280 C.3       1 BOC        -0.0320
      6 CT4        28.9400   -5.5710  -12.3680 C.3       1 BOC        -0.0320
      7 CT5        31.2390   -6.5710  -12.4030 C.3       1 BOC        -0.0320
      8 N          32.2360   -4.2970   -9.3080 N.am      1 HIS        -0.2393
      9 CA         33.5710   -4.3610   -8.6750 C.3       1 HIS         0.1442
     10 C          33.3970   -4.7760   -7.2060 C.2       1 HIS         0.2084
     11 O          33.7020   -3.9880   -6.3210 O.2       1 HIS        -0.3940
     12 CB         34.2240   -2.9720   -8.7110 C.3       1 HIS         0.0427
     13 CG         34.0100   -2.2980  -10.0640 C.2       1 HIS         0.0561
     14 ND1        32.9450   -1.4820  -10.4290 N.pl3     1 HIS        -0.2623
     15 CD2        34.8750   -2.3950  -11.1580 C.2       1 HIS        -0.0276
     16 CE1        33.1420   -1.0770  -11.7500 C.2       1 HIS         0.0875
     17 NE2        34.3380   -1.6410  -12.2010 N.2       1 HIS        -0.3437
     18 N          32.9160   -5.9870   -6.9810 N.am      1 PRO        -0.2497
     19 CA         32.4940   -6.4320   -5.6710 C.3       1 PRO         0.1338
     20 C          33.6560   -6.5580   -4.6880 C.2       1 PRO         0.2042
     21 O          34.8250   -6.5470   -5.0360 O.2       1 PRO        -0.3944
     22 CB         31.9240   -7.7960   -5.9970 C.3       1 PRO        -0.0104
     23 CG         32.5500   -8.2490   -7.2920 C.3       1 PRO        -0.0281
     24 CD         32.7690   -6.9650   -8.0660 C.3       1 PRO         0.0369
     25 N          33.2950   -6.6630   -3.4370 N.am      1 PHE        -0.2619
     26 CA         34.2820   -6.7970   -2.3380 C.3       1 PHE         0.1404
     27 C          33.7670   -7.9640   -1.4570 C.2       1 PHE         0.2061
     28 O          32.5930   -8.0030   -1.2270 O.2       1 PHE        -0.3942
     29 CB         34.1210   -5.5090   -1.4650 C.3       1 PHE         0.0214
     30 CG         34.8830   -4.3720   -2.1480 C.ar      1 PHE        -0.0386
     31 CD1        34.2450   -3.5600   -3.0740 C.ar      1 PHE        -0.0601
     32 CD2        36.2210   -4.1670   -1.8240 C.ar      1 PHE        -0.0601
     33 CE1        34.9460   -2.5290   -3.6890 C.ar      1 PHE        -0.0686
     34 CE2        36.9260   -3.1300   -2.4420 C.ar      1 PHE        -0.0686
     35 CZ         36.2830   -2.3210   -3.3670 C.ar      1 PHE        -0.0687
     36 N          34.6540   -8.8030   -1.0470 N.am      1 HIS        -0.2617
     37 CA         34.4250   -9.8190    0.0040 C.3       1 HIS         0.1420
     38 C          35.5400   -9.7320    1.0430 C.2       1 HIS         0.2041
     39 O          36.6080  -10.2910    0.8830 O.2       1 HIS        -0.3943
     40 CB         34.3650  -11.1730   -0.6570 C.3       1 HIS         0.0427
     41 CG         34.3570  -12.3510    0.2920 C.2       1 HIS         0.0561
     42 ND1        33.9000  -12.3850    1.5950 N.pl3     1 HIS        -0.2623
     43 CD2        34.8320  -13.6320   -0.0450 C.2       1 HIS        -0.0276
     44 CE1        34.0890  -13.6830    2.0850 C.2       1 HIS         0.0875
     45 NE2        34.6520  -14.4270    1.0780 N.2       1 HIS        -0.3437
     46 N          35.2660   -9.0110    2.1230 N.am      1 STA        -0.2792
     47 CA         36.2400   -8.7630    3.1850 C.3       1 STA         0.0703
     48 CB         36.7490   -7.3720    3.2110 C.3       1 STA        -0.0250
     49 CG         37.2040   -6.7510    1.9200 C.3       1 STA        -0.0446
     50 CD1        37.3720   -5.2440    2.0540 C.3       1 STA        -0.0626
     51 CD2        38.5740   -7.3000    1.4150 C.3       1 STA        -0.0626
     52 CH         35.6950   -9.2000    4.5530 C.3       1 STA         0.0947
     53 OH         34.5450   -8.4800    4.9000 O.3       1 STA        -0.3872
     54 CM         35.3740  -10.7030    4.5640 C.3       1 STA         0.0655
     55 C          36.6380  -11.5220    4.7400 C.2       1 STA         0.1808
     56 O          37.4860  -11.5300    3.8500 O.2       1 STA        -0.3968
     57 N          36.7890  -12.2010    5.8630 N.am      1 LEU        -0.2656
     58 CA         37.8180  -13.2800    5.9280 C.3       1 LEU         0.1308
     59 C          37.2760  -14.5430    5.2570 C.2       1 LEU         0.1992
     60 O          36.1000  -14.8770    5.4240 O.2       1 LEU        -0.3947
     61 CB         38.1510  -13.5490    7.3840 C.3       1 LEU        -0.0101
     62 CG         38.9300  -12.4170    8.0130 C.3       1 LEU        -0.0425
     63 CD1        38.7780  -12.3690    9.5270 C.3       1 LEU        -0.0625
     64 CD2        40.3760  -12.3210    7.6040 C.3       1 LEU        -0.0625
     65 N          38.1100  -15.2360    4.5030 N.am      1 PHE        -0.2990
     66 H1         30.7118   -4.6139  -14.2420 H         1 BOC         0.0260
     67 H2         31.9411   -3.9853  -13.0930 H         1 BOC         0.0260
     68 H3         30.2780   -3.3066  -13.0890 H         1 BOC         0.0260
     69 H4         28.7590   -5.9666  -13.3783 H         1 BOC         0.0260
     70 H5         28.3655   -4.6433  -12.2292 H         1 BOC         0.0260
     71 H6         28.6230   -6.3138  -11.6212 H         1 BOC         0.0260
     72 H7         31.0621   -6.9479  -13.4212 H         1 BOC         0.0260
     73 H8         30.9109   -7.3239  -11.6712 H         1 BOC         0.0260
     74 H9         32.3121   -6.3710  -12.2674 H         1 BOC         0.0260
     75 H10        31.4644   -3.9414   -8.7806 H         1 HIS         0.1901
     76 H11        34.2037   -5.0890   -9.2038 H         1 HIS         0.0823
     77 H12        35.3037   -3.0780   -8.5294 H         1 HIS         0.0491
     78 H13        33.7795   -2.3457   -7.9236 H         1 HIS         0.0491
     79 H14        32.1493   -1.2217   -9.8290 H         1 HIS         0.2386
     80 H15        35.8052   -2.9603  -11.1901 H         1 HIS         0.0324
     81 H16        32.4796   -0.4341  -12.3279 H         1 HIS         0.1149
     82 H17        31.7301   -5.7620   -5.2496 H         1 PRO         0.0802
     83 H18        30.8319   -7.7297   -6.1104 H         1 PRO         0.0313
     84 H19        32.1668   -8.5068   -5.1933 H         1 PRO         0.0313
     85 H20        33.5059   -8.7604   -7.1056 H         1 PRO         0.0287
     86 H21        31.8736   -8.9233   -7.8377 H         1 PRO         0.0287
     87 H22        33.6776   -7.0188   -8.6836 H         1 PRO         0.0524
     88 H23        31.9050   -6.7291   -8.7046 H         1 PRO         0.0524
     89 H24        32.3205   -6.6527   -3.2128 H         1 PHE         0.1885
     90 H25        35.3104   -6.9486   -2.6977 H         1 PHE         0.0823
     91 H26        34.5353   -5.6849   -0.4613 H         1 PHE         0.0474
     92 H27        33.0561   -5.2463   -1.3813 H         1 PHE         0.0474
     93 H28        33.2023   -3.7289   -3.3175 H         1 PHE         0.0557
     94 H29        36.7121   -4.8058   -1.0989 H         1 PHE         0.0557
     95 H30        34.4539   -1.8915   -4.4146 H         1 PHE         0.0599
     96 H31        37.9687   -2.9593   -2.1998 H         1 PHE         0.0599
     97 H32        36.8295   -1.5162   -3.8452 H         1 PHE         0.0559
     98 H33        35.5602   -8.7651   -1.4681 H         1 HIS         0.1885
     99 H34        33.4639   -9.6223    0.5016 H         1 HIS         0.0824
    100 H35        35.2419  -11.2707   -1.3138 H         1 HIS         0.0491
    101 H36        33.4472  -11.2165   -1.2618 H         1 HIS         0.0491
    102 H37        33.4921  -11.5948    2.1147 H         1 HIS         0.2386
    103 H38        35.2572  -13.9390   -0.9994 H         1 HIS         0.0324
    104 H39        33.8356  -14.0376    3.0830 H         1 HIS         0.1149
    105 H40        34.3506   -8.6190    2.2148 H         1 STA         0.1856
    106 H41        37.1066   -9.4050    2.9687 H         1 STA         0.0583
    107 H42        37.6058   -7.3525    3.9005 H         1 STA         0.0291
    108 H43        35.9429   -6.7385    3.6097 H         1 STA         0.0291
    109 H44        36.4377   -6.9617    1.1595 H         1 STA         0.0296
    110 H45        37.7048   -4.8253    1.0928 H         1 STA         0.0232
    111 H46        38.1223   -5.0261    2.8283 H         1 STA         0.0232
    112 H47        36.4103   -4.7916    2.3377 H         1 STA         0.0232
    113 H48        38.5111   -8.3921    1.2991 H         1 STA         0.0232
    114 H49        39.3593   -7.0533    2.1447 H         1 STA         0.0232
    115 H50        38.8176   -6.8418    0.4451 H         1 STA         0.0232
    116 H51        36.4700   -9.0027    5.3082 H         1 STA         0.0642
    117 H52        34.7526   -7.5538    4.9400 H         1 STA         0.2101
    118 H53        34.8965  -10.9768    3.6116 H         1 STA         0.0529
    119 H54        34.6859  -10.9188    5.3946 H         1 STA         0.0529
    120 H55        36.2209  -11.9946    6.6597 H         1 LEU         0.1883
    121 H56        38.7269  -12.9535    5.4015 H         1 LEU         0.0800
    122 H57        38.7515  -14.4685    7.4455 H         1 LEU         0.0315
    123 H58        37.2129  -13.6857    7.9420 H         1 LEU         0.0315
    124 H59        38.4582  -11.4987    7.6334 H         1 LEU         0.0298
    125 H60        39.3643  -11.5290    9.9279 H         1 LEU         0.0232
    126 H61        39.1425  -13.3112    9.9622 H         1 LEU         0.0232
    127 H62        37.7175  -12.2320    9.7849 H         1 LEU         0.0232
    128 H63        40.4500  -12.3586    6.5071 H         1 LEU         0.0232
    129 H64        40.9365  -13.1619    8.0383 H         1 LEU         0.0232
    130 H65        40.7977  -11.3724    7.9676 H         1 LEU         0.0232
    131 H66        37.7968  -16.0684    4.0458 H         1 PHE         0.1815
    132 H67        39.0547  -14.9283    4.3893 H         1 PHE         0.1815
@<TRIPOS>BOND
     1    9    8 1  
     2    9   12 1  
     3   10    9 1  
     4   10   11 2  
     5   12   13 1  
     6   13   14 1  
     7   13   15 2  
     8   15   17 1  
     9   17   16 2  
    10   14   16 1  
    11   20   19 1  
    12   19   22 1  
    13   19   18 1  
    14   18   24 1  
    15   24   23 1  
    16   22   23 1  
    17   20   21 2  
    18   18   10 am 
    19   26   25 1  
    20   26   29 1  
    21   27   26 1  
    22   27   28 2  
    23   29   30 1  
    24   30   31 ar 
    25   30   32 ar 
    26   32   34 ar 
    27   34   35 ar 
    28   33   35 ar 
    29   31   33 ar 
    30   25   20 am 
    31   37   36 1  
    32   37   40 1  
    33   38   37 1  
    34   38   39 2  
    35   40   41 1  
    36   41   42 1  
    37   41   43 2  
    38   43   45 1  
    39   45   44 2  
    40   42   44 1  
    41   36   27 am 
    42   57   58 1  
    43   58   61 1  
    44   58   59 1  
    45   59   60 2  
    46   61   62 1  
    47   62   63 1  
    48   62   64 1  
    49   59   65 am 
    50    2    1 2  
    51    2    3 1  
    52    8    2 am 
    53    3    4 1  
    54    4    5 1  
    55    4    6 1  
    56    4    7 1  
    57   46   38 am 
    58   47   46 1  
    59   47   48 1  
    60   52   47 1  
    61   48   49 1  
    62   49   50 1  
    63   49   51 1  
    64   52   53 1  
    65   54   52 1  
    66   55   54 1  
    67   55   56 2  
    68   55   57 am 
    69    5   66 1  
    70    5   67 1  
    71    5   68 1  
    72    6   69 1  
    73    6   70 1  
    74    6   71 1  
    75    7   72 1  
    76    7   73 1  
    77    7   74 1  
    78    8   75 1  
    79    9   76 1  
    80   12   77 1  
    81   12   78 1  
    82   14   79 1  
    83   15   80 1  
    84   16   81 1  
    85   19   82 1  
    86   22   83 1  
    87   22   84 1  
    88   23   85 1  
    89   23   86 1  
    90   24   87 1  
    91   24   88 1  
    92   25   89 1  
    93   26   90 1  
    94   29   91 1  
    95   29   92 1  
    96   31   93 1  
    97   32   94 1  
    98   33   95 1  
    99   34   96 1  
   100   35   97 1  
   101   36   98 1  
   102   37   99 1  
   103   40  100 1  
   104   40  101 1  
   105   42  102 1  
   106   43  103 1  
   107   44  104 1  
   108   46  105 1  
   109   47  106 1  
   110   48  107 1  
   111   48  108 1  
   112   49  109 1  
   113   50  110 1  
   114   50  111 1  
   115   50  112 1  
   116   51  113 1  
   117   51  114 1  
   118   51  115 1  
   119   52  116 1  
   120   53  117 1  
   121   54  118 1  
   122   54  119 1  
   123   57  120 1  
   124   58  121 1  
   125   61  122 1  
   126   61  123 1  
   127   62  124 1  
   128   63  125 1  
   129   63  126 1  
   130   63  127 1  
   131   64  128 1  
   132   64  129 1  
   133   64  130 1  
   134   65  131 1  
   135   65  132 1  
@<TRIPOS>SUBSTRUCTURE
     1 BOC         1

