5npc_ligand
  -I-interpret- 

 28 29  0  0  0  0  0  0  0  0999 V2000
   29.9860   80.4010   34.9690 C   0  0  0  0  0
   27.6220   80.3310   35.9740 C   0  0  0  0  0
   30.6330   79.8630   36.2320 C   0  0  0  0  0
   28.5350   79.9020   34.8320 C   0  0  0  0  0
   28.1940   79.6510   37.2130 C   0  0  0  0  0
   29.7040   79.9430   37.4650 C   0  0  0  0  0
   30.2860   79.0110   38.5400 C   0  0  0  0  0
   31.8410   80.6440   36.4410 O   0  0  0  0  0
   30.2080   81.8080   35.1270 O   0  0  0  0  0
   30.0560   77.6320   38.2150 O   0  0  0  0  0
   27.3580   80.0840   38.2680 O   0  0  0  0  0
   26.2240   79.9700   35.7760 O   0  0  0  0  0
   27.8990   80.1930   33.5960 O   0  0  0  0  0
   31.5880   82.0580   35.8210 S   0  0  0  0  0
   32.5470   82.4660   34.8300 O   0  0  0  0  0
   31.5420   83.0790   36.8680 O   0  0  0  0  0
   30.3892   80.0619   34.0148 H   0  0  0  0  0
   27.6052   81.4179   36.0550 H   0  0  0  0  0
   30.8535   78.8026   36.1093 H   0  0  0  0  0
   28.6751   78.8219   34.8745 H   0  0  0  0  0
   28.1911   78.5666   37.1031 H   0  0  0  0  0
   29.6908   80.9848   37.7854 H   0  0  0  0  0
   29.7980   79.2296   39.4898 H   0  0  0  0  0
   31.3614   79.1787   38.5993 H   0  0  0  0  0
   30.4295   77.0758   38.9025 H   0  0  0  0  0
   26.4446   79.8778   38.0562 H   0  0  0  0  0
   25.8890   80.4103   34.9915 H   0  0  0  0  0
   28.4701   79.9246   32.8725 H   0  0  0  0  0
  1  3  1  0  0  0
  1  4  1  0  0  0
  1  9  1  0  0  0
  4  2  1  0  0  0
  2  5  1  0  0  0
  2 12  1  0  0  0
  3  6  1  0  0  0
  3  8  1  0  0  0
  4 13  1  0  0  0
  5  6  1  0  0  0
  5 11  1  0  0  0
  6  7  1  0  0  0
  7 10  1  0  0  0
  8 14  1  0  0  0
  9 14  1  0  0  0
 14 15  2  0  0  0
 14 16  2  0  0  0
  1 17  1  0  0  0
  2 18  1  0  0  0
  3 19  1  0  0  0
  4 20  1  0  0  0
  5 21  1  0  0  0
  6 22  1  0  0  0
  7 23  1  0  0  0
  7 24  1  0  0  0
 10 25  1  0  0  0
 11 26  1  0  0  0
 12 27  1  0  0  0
 13 28  1  0  0  0
M  END
$$$$
