2bgn_ligand
  -I-interpret- 

100103  0  0  0  0  0  0  0  0999 V2000
   24.3180   -4.0240  125.3380 N   0  3  0  0  0
   25.0840   -5.1400  124.7140 C   0  0  0  0  0
   25.0160   -6.3660  125.6010 C   0  0  0  0  0
   25.6930   -6.4290  126.6270 O   0  0  0  0  0
   26.5510   -4.7530  124.5410 C   0  0  0  0  0
   27.4440   -5.8470  124.0180 C   0  0  0  0  0
   27.2400   -6.1010  122.2660 S   0  0  0  0  0
   28.2330   -4.7700  121.6370 C   0  0  0  0  0
   24.2040   -7.3420  125.2090 N   0  0  0  0  0
   24.0920   -8.5630  125.9780 C   0  0  0  0  0
   24.0480   -9.7130  124.9960 C   0  0  0  0  0
   23.7290   -9.5180  123.8320 O   0  0  0  0  0
   22.8710   -8.5430  126.9070 C   0  0  0  0  0
   22.8460   -7.3540  127.8370 C   0  0  0  0  0
   22.3490   -6.1160  127.5590 C   0  0  0  0  0
   23.3490   -7.2790  129.1770 C   0  0  0  0  0
   22.4940   -5.2790  128.6380 N   0  0  0  0  0
   23.1080   -5.9680  129.6470 C   0  0  0  0  0
   23.9850   -8.1840  130.0320 C   0  0  0  0  0
   23.4750   -5.5430  130.9180 C   0  0  0  0  0
   24.3380   -7.7600  131.3000 C   0  0  0  0  0
   24.0830   -6.4520  131.7300 C   0  0  0  0  0
   24.4230  -10.8970  125.4660 N   0  0  0  0  0
   24.3330  -12.1080  124.6850 C   0  0  0  0  0
   23.0280  -12.3650  123.9510 C   0  0  0  0  0
   21.9420  -12.0480  124.4390 O   0  0  0  0  0
   24.5360  -13.2000  125.7370 C   0  0  0  0  0
   25.4160  -12.5900  126.7680 C   0  0  0  0  0
   25.0300  -11.1460  126.7890 C   0  0  0  0  0
   23.1690  -12.9390  122.7590 N   0  0  0  0  0
   22.0660  -13.6050  122.0660 C   0  0  0  0  0
   21.4300  -14.5840  123.0400 C   0  0  0  0  0
   22.0910  -15.4850  123.5790 O   0  0  0  0  0
   22.5010  -14.3860  120.7890 C   0  0  0  0  0
   22.8120  -13.4090  119.7240 C   0  0  0  0  0
   23.6870  -15.3810  121.0060 C   0  0  0  0  0
   20.1300  -14.4110  123.2500 N   0  0  0  0  0
   19.4720  -15.0170  124.3940 C   0  0  0  0  0
   18.6310  -16.2530  124.0930 C   0  0  0  0  0
   17.9840  -16.3490  123.0410 O   0  0  0  0  0
   18.5820  -13.9760  125.0610 C   0  0  0  0  0
   17.5150  -13.4800  124.1280 C   0  0  0  0  0
   17.8620  -12.7180  123.1930 O   0  0  0  0  0
   16.3240  -13.8500  124.2480 O   0  0  0  0  0
   18.6710  -17.2070  125.0230 N   0  0  0  0  0
   17.6780  -18.2850  125.0960 C   0  0  0  0  0
   16.4800  -17.9140  125.9930 C   0  0  0  0  0
   15.3160  -18.1990  125.6750 O   0  0  0  0  0
   18.4810  -19.4620  125.6960 C   0  0  0  0  0
   19.7030  -18.8480  126.3990 C   0  0  0  0  0
   19.7110  -17.3610  126.0630 C   0  0  0  0  0
   23.3422   -4.3011  125.4451 H   0  0  0  0  0
   24.7146   -3.8110  126.2533 H   0  0  0  0  0
   24.3748   -3.1988  124.7412 H   0  0  0  0  0
   24.6443   -5.3510  123.7392 H   0  0  0  0  0
   26.9245   -4.4898  125.5306 H   0  0  0  0  0
   26.5783   -3.9481  123.8065 H   0  0  0  0  0
   27.1804   -6.7734  124.5283 H   0  0  0  0  0
   28.4787   -5.5571  124.2008 H   0  0  0  0  0
   27.8347   -3.8206  121.9950 H   0  0  0  0  0
   29.2595   -4.8888  121.9840 H   0  0  0  0  0
   28.2122   -4.7864  120.5473 H   0  0  0  0  0
   23.6540   -7.2296  124.3574 H   0  0  0  0  0
   24.9515   -8.6740  126.6391 H   0  0  0  0  0
   22.9114   -9.4415  127.5228 H   0  0  0  0  0
   21.9812   -8.4888  126.2797 H   0  0  0  0  0
   21.8977   -5.8291  126.6092 H   0  0  0  0  0
   24.1981   -9.2021  129.7061 H   0  0  0  0  0
   23.2840   -4.5231  131.2518 H   0  0  0  0  0
   24.8253   -8.4592  131.9795 H   0  0  0  0  0
   24.3775   -6.1548  132.7365 H   0  0  0  0  0
   25.0573  -12.0598  123.8719 H   0  0  0  0  0
   24.9833  -14.0955  125.3056 H   0  0  0  0  0
   23.5880  -13.5299  126.1619 H   0  0  0  0  0
   26.4719  -12.7256  126.5338 H   0  0  0  0  0
   25.2869  -13.0600  127.7430 H   0  0  0  0  0
   24.3376  -10.9234  127.6009 H   0  0  0  0  0
   25.8889  -10.4995  126.9689 H   0  0  0  0  0
   24.0843  -12.9137  122.3096 H   0  0  0  0  0
   21.3752  -12.8298  121.7343 H   0  0  0  0  0
   21.6646  -15.0229  120.5010 H   0  0  0  0  0
   21.9258  -12.8112  119.5111 H   0  0  0  0  0
   23.6204  -12.7573  120.0554 H   0  0  0  0  0
   23.1183  -13.9407  118.8231 H   0  0  0  0  0
   24.5616  -14.8314  121.3539 H   0  0  0  0  0
   23.4038  -16.1249  121.7506 H   0  0  0  0  0
   23.9196  -15.8780  120.0642 H   0  0  0  0  0
   19.5863  -13.8447  122.5988 H   0  0  0  0  0
   20.2792  -15.3601  125.0412 H   0  0  0  0  0
   19.2030  -13.1296  125.3544 H   0  0  0  0  0
   18.0987  -14.4375  125.9221 H   0  0  0  0  0
   18.8034  -12.5417  123.2580 H   0  0  0  0  0
   17.2359  -18.5106  124.1255 H   0  0  0  0  0
   16.6610  -17.3879  126.9303 H   0  0  0  0  0
   18.7899  -20.1593  124.9172 H   0  0  0  0  0
   17.8721  -20.0298  126.3995 H   0  0  0  0  0
   20.6226  -19.3247  126.0597 H   0  0  0  0  0
   19.6439  -18.9992  127.4768 H   0  0  0  0  0
   19.5059  -16.7447  126.9383 H   0  0  0  0  0
   20.6883  -17.0277  125.7140 H   0  0  0  0  0
  1  2  1  0  0  0
  2  3  1  0  0  0
  2  5  1  0  0  0
  3  4  2  0  0  0
  3  9  1  0  0  0
  5  6  1  0  0  0
  6  7  1  0  0  0
  7  8  1  0  0  0
  9 10  1  0  0  0
 10 11  1  0  0  0
 10 13  1  0  0  0
 11 12  2  0  0  0
 11 23  1  0  0  0
 13 14  1  0  0  0
 14 15  4  0  0  0
 14 16  4  0  0  0
 15 17  4  0  0  0
 16 18  4  0  0  0
 16 19  4  0  0  0
 17 18  4  0  0  0
 18 20  4  0  0  0
 19 21  4  0  0  0
 20 22  4  0  0  0
 21 22  4  0  0  0
 23 24  1  0  0  0
 23 29  1  0  0  0
 24 25  1  0  0  0
 24 27  1  0  0  0
 25 26  2  0  0  0
 25 30  1  0  0  0
 27 28  1  0  0  0
 28 29  1  0  0  0
 30 31  1  0  0  0
 31 32  1  0  0  0
 31 34  1  0  0  0
 32 33  2  0  0  0
 32 37  1  0  0  0
 34 35  1  0  0  0
 34 36  1  0  0  0
 37 38  1  0  0  0
 38 39  1  0  0  0
 38 41  1  0  0  0
 39 40  2  0  0  0
 39 45  1  0  0  0
 41 42  1  0  0  0
 42 43  1  0  0  0
 42 44  2  0  0  0
 45 46  1  0  0  0
 45 51  1  0  0  0
 46 47  1  0  0  0
 46 49  1  0  0  0
 47 48  2  0  0  0
 49 50  1  0  0  0
 50 51  1  0  0  0
  1 52  1  0  0  0
  1 53  1  0  0  0
  1 54  1  0  0  0
  2 55  1  0  0  0
  5 56  1  0  0  0
  5 57  1  0  0  0
  6 58  1  0  0  0
  6 59  1  0  0  0
  8 60  1  0  0  0
  8 61  1  0  0  0
  8 62  1  0  0  0
  9 63  1  0  0  0
 10 64  1  0  0  0
 13 65  1  0  0  0
 13 66  1  0  0  0
 15 67  1  0  0  0
 19 68  1  0  0  0
 20 69  1  0  0  0
 21 70  1  0  0  0
 22 71  1  0  0  0
 24 72  1  0  0  0
 27 73  1  0  0  0
 27 74  1  0  0  0
 28 75  1  0  0  0
 28 76  1  0  0  0
 29 77  1  0  0  0
 29 78  1  0  0  0
 30 79  1  0  0  0
 31 80  1  0  0  0
 34 81  1  0  0  0
 35 82  1  0  0  0
 35 83  1  0  0  0
 35 84  1  0  0  0
 36 85  1  0  0  0
 36 86  1  0  0  0
 36 87  1  0  0  0
 37 88  1  0  0  0
 38 89  1  0  0  0
 41 90  1  0  0  0
 41 91  1  0  0  0
 43 92  1  0  0  0
 46 93  1  0  0  0
 47 94  1  0  0  0
 49 95  1  0  0  0
 49 96  1  0  0  0
 50 97  1  0  0  0
 50 98  1  0  0  0
 51 99  1  0  0  0
 51100  1  0  0  0
M  END
$$$$
