4dju_ligand
  -I-interpret- 

 35 37  0  0  0  0  0  0  0  0999 V2000
   21.8230   13.1940   22.6510 O   0  0  0  0  0
   21.9860   12.0030   22.8380 C   0  0  0  0  0
   21.7410   10.8480   21.8250 C   0  0  0  0  0
   22.0950    9.6270   22.5950 N   0  0  0  0  0
   22.4580   10.0150   23.8380 C   0  0  0  0  0
   22.4180   11.4310   24.0130 N   0  0  0  0  0
   22.8270    9.1960   24.8210 N   0  0  0  0  0
   22.7430   12.2060   25.2160 C   0  0  0  0  0
   20.2620   10.6920   21.4230 C   0  0  0  0  0
   19.8770    9.7650   20.4590 C   0  0  0  0  0
   18.5430    9.6320   20.0900 C   0  0  0  0  0
   17.5760   10.4230   20.6790 C   0  0  0  0  0
   17.9390   11.3360   21.6450 C   0  0  0  0  0
   19.2720   11.4690   22.0180 C   0  0  0  0  0
   22.6270   11.0910   20.5900 C   0  0  0  0  0
   22.4470   12.2110   19.7790 C   0  0  0  0  0
   23.2720   12.4360   18.6790 C   0  0  0  0  0
   24.2900   11.5520   18.3800 C   0  0  0  0  0
   24.4810   10.4370   19.1730 C   0  0  0  0  0
   23.6520   10.2040   20.2690 C   0  0  0  0  0
   22.0687    8.6683   22.2478 H   0  0  0  0  0
   23.0911    9.5765   25.7298 H   0  0  0  0  0
   22.0831   11.9051   26.0297 H   0  0  0  0  0
   23.7790   12.0187   25.4984 H   0  0  0  0  0
   22.6074   13.2678   25.0102 H   0  0  0  0  0
   20.6310    9.1350   19.9871 H   0  0  0  0  0
   18.2593    8.9008   19.3331 H   0  0  0  0  0
   16.5319   10.3256   20.3814 H   0  0  0  0  0
   17.1783   11.9565   22.1187 H   0  0  0  0  0
   19.5455   12.1916   22.7869 H   0  0  0  0  0
   21.6509   12.9193   20.0085 H   0  0  0  0  0
   23.1133   13.3133   18.0519 H   0  0  0  0  0
   24.9391   11.7330   17.5232 H   0  0  0  0  0
   25.2832    9.7366   18.9406 H   0  0  0  0  0
   23.8077    9.3167   20.8826 H   0  0  0  0  0
  1  2  2  0  0  0
  2  3  1  0  0  0
  2  6  1  0  0  0
  3  4  1  0  0  0
  3  9  1  0  0  0
  3 15  1  0  0  0
  4  5  1  0  0  0
  5  6  4  0  0  0
  5  7  2  0  0  0
  6  8  1  0  0  0
  9 10  4  0  0  0
  9 14  4  0  0  0
 10 11  4  0  0  0
 11 12  4  0  0  0
 12 13  4  0  0  0
 13 14  4  0  0  0
 15 16  4  0  0  0
 15 20  4  0  0  0
 16 17  4  0  0  0
 17 18  4  0  0  0
 18 19  4  0  0  0
 19 20  4  0  0  0
  4 21  1  0  0  0
  7 22  1  0  0  0
  8 23  1  0  0  0
  8 24  1  0  0  0
  8 25  1  0  0  0
 10 26  1  0  0  0
 11 27  1  0  0  0
 12 28  1  0  0  0
 13 29  1  0  0  0
 14 30  1  0  0  0
 16 31  1  0  0  0
 17 32  1  0  0  0
 18 33  1  0  0  0
 19 34  1  0  0  0
 20 35  1  0  0  0
M  END
$$$$
