3o23_ligand
  -I-interpret- 

 48 51  0  0  0  0  0  0  0  0999 V2000
    6.8930   -0.0770   22.6320 N   0  0  0  0  0
    7.6070   -1.2230   22.3330 C   0  0  0  0  0
    7.0820    1.1360   22.0510 C   0  0  0  0  0
    5.8990   -0.0280   23.5630 C   0  0  0  0  0
    6.9370   -2.3300   21.7360 C   0  0  0  0  0
    9.0060   -1.3250   22.6060 C   0  0  0  0  0
    6.2050    2.0270   22.5860 N   0  0  0  0  0
    7.9050    1.3980   21.1760 O   0  0  0  0  0
    5.3510    1.4100   23.6000 C   0  0  0  0  0
    5.4740   -0.9500   24.2690 O   0  0  0  0  0
    7.6350   -3.5060   21.4190 C   0  0  0  0  0
    9.7110   -2.5090   22.2860 C   0  0  0  0  0
    6.0790    3.4540   22.2280 C   0  0  0  0  0
    3.8560    1.4080   23.2220 C   0  0  0  0  0
    9.0170   -3.5960   21.6890 C   0  0  0  0  0
    7.0130    4.4330   22.9520 C   0  0  0  0  0
    9.8760   -5.0880   21.2630 S   0  0  0  0  0
    6.9420    5.8550   22.6580 C   0  0  0  0  0
    7.9740    3.9970   23.9220 C   0  0  0  0  0
   10.3010   -4.8830   19.5310 C   0  0  0  0  0
   11.1000   -5.1500   21.9980 O   0  0  0  0  0
    8.9650   -6.1920   21.3540 O   0  0  0  0  0
    7.8310    6.7860   23.3510 C   0  0  0  0  0
    6.0010    6.3820   21.6950 C   0  0  0  0  0
    8.8070    4.9450   24.5560 C   0  0  0  0  0
   10.9360   -5.9690   19.1440 F   0  0  0  0  0
   11.1030   -3.8290   19.4240 F   0  0  0  0  0
    9.1880   -4.6980   18.8260 F   0  0  0  0  0
    8.7380    6.2770   24.2800 N   0  0  0  0  0
    7.7530    8.1840   23.0550 C   0  0  0  0  0
    5.9470    7.7760   21.4240 C   0  0  0  0  0
    6.8180    8.6750   22.1000 C   0  0  0  0  0
    5.8701   -2.2628   21.5230 H   0  0  0  0  0
    9.5322   -0.4868   23.0628 H   0  0  0  0  0
    5.3804    1.9229   24.5614 H   0  0  0  0  0
    7.1108   -4.3473   20.9655 H   0  0  0  0  0
   10.7778   -2.5869   22.4956 H   0  0  0  0  0
    5.0661    3.7445   22.5067 H   0  0  0  0  0
    6.3355    3.5215   21.1708 H   0  0  0  0  0
    3.5154    2.4345   23.0865 H   0  0  0  0  0
    3.7178    0.8526   22.2944 H   0  0  0  0  0
    3.2817    0.9355   24.0189 H   0  0  0  0  0
    8.0615    2.9390   24.1691 H   0  0  0  0  0
    5.3268    5.7038   21.1720 H   0  0  0  0  0
    9.5314    4.5981   25.2929 H   0  0  0  0  0
    8.4170    8.8809   23.5665 H   0  0  0  0  0
    5.2339    8.1587   20.6938 H   0  0  0  0  0
    6.7694    9.7427   21.8863 H   0  0  0  0  0
  1  2  1  0  0  0
  1  3  1  0  0  0
  1  4  1  0  0  0
  2  5  4  0  0  0
  2  6  4  0  0  0
  3  7  1  0  0  0
  3  8  2  0  0  0
  4  9  1  0  0  0
  4 10  2  0  0  0
  5 11  4  0  0  0
  6 12  4  0  0  0
  7  9  1  0  0  0
  7 13  1  0  0  0
  9 14  1  0  0  0
 11 15  4  0  0  0
 12 15  4  0  0  0
 13 16  1  0  0  0
 15 17  1  0  0  0
 16 18  4  0  0  0
 16 19  4  0  0  0
 17 20  1  0  0  0
 17 21  2  0  0  0
 17 22  2  0  0  0
 18 23  4  0  0  0
 18 24  4  0  0  0
 19 25  4  0  0  0
 20 26  1  0  0  0
 20 27  1  0  0  0
 20 28  1  0  0  0
 23 29  4  0  0  0
 23 30  4  0  0  0
 24 31  4  0  0  0
 25 29  4  0  0  0
 30 32  4  0  0  0
 31 32  4  0  0  0
  5 33  1  0  0  0
  6 34  1  0  0  0
  9 35  1  0  0  0
 11 36  1  0  0  0
 12 37  1  0  0  0
 13 38  1  0  0  0
 13 39  1  0  0  0
 14 40  1  0  0  0
 14 41  1  0  0  0
 14 42  1  0  0  0
 19 43  1  0  0  0
 24 44  1  0  0  0
 25 45  1  0  0  0
 30 46  1  0  0  0
 31 47  1  0  0  0
 32 48  1  0  0  0
M  END
$$$$
