6gub_ligand
  -I-interpret- 

 49 52  0  0  0  0  0  0  0  0999 V2000
   -6.7270  -20.7250   20.5460 C   0  0  0  0  0
   -6.5720  -25.1390   24.9580 C   0  0  0  0  0
   -8.1510  -20.8600   21.0740 C   0  0  0  0  0
   -9.2390  -20.2680   20.3930 C   0  0  0  0  0
   -8.8270  -23.1220   24.6020 C   0  0  0  0  0
  -10.5420  -20.3790   20.8840 C   0  0  0  0  0
  -10.7840  -21.1030   22.0370 C   0  0  0  0  0
   -9.7190  -21.7240   22.7260 C   0  0  0  0  0
   -9.9680  -22.4870   23.9630 C   0  0  0  0  0
   -7.5930  -23.0620   24.0080 C   0  0  0  0  0
   -6.4030  -23.8510   24.4510 C   0  0  0  0  0
   -4.3590  -20.5980   18.8460 N   0  3  0  0  0
   -6.2180  -21.9860   19.8560 C   0  0  0  0  0
   -2.9100  -20.5050   18.6950 C   0  0  0  0  0
   -4.7420  -21.8590   19.5130 C   0  0  0  0  0
   -9.1100  -19.5420   19.2450 O   0  0  0  0  0
  -12.0560  -21.2310   22.4750 O   0  0  0  0  0
  -11.0930  -22.5420   24.4570 O   0  0  0  0  0
   -5.4860  -25.9050   25.3630 C   0  0  0  0  0
   -4.2080  -25.3940   25.3050 C   0  0  0  0  0
   -4.0100  -24.1240   24.8350 C   0  0  0  0  0
   -5.0990  -23.3690   24.4170 C   0  0  0  0  0
   -4.7480  -21.8130   23.8240 Cl  0  0  0  0  0
   -7.3660  -22.2460   22.8830 O   0  0  0  0  0
   -8.4110  -21.6070   22.2260 C   0  0  0  0  0
   -6.3660  -19.6100   19.5720 C   0  0  0  0  0
   -6.9070  -18.3480   19.8320 O   0  0  0  0  0
   -4.8650  -19.4560   19.6010 C   0  0  0  0  0
   -6.2608  -20.4891   21.5026 H   0  0  0  0  0
   -7.5770  -25.5534   25.0382 H   0  0  0  0  0
   -8.9523  -23.6442   25.5505 H   0  0  0  0  0
  -11.3663  -19.8959   20.3594 H   0  0  0  0  0
   -4.7750  -20.5899   17.9147 H   0  0  0  0  0
   -6.7807  -22.1324   18.9340 H   0  0  0  0  0
   -6.3495  -22.8320   20.5306 H   0  0  0  0  0
   -2.4407  -20.5375   19.6783 H   0  0  0  0  0
   -2.5543  -21.3414   18.0933 H   0  0  0  0  0
   -2.6569  -19.5669   18.2011 H   0  0  0  0  0
   -4.1969  -21.8927   20.4563 H   0  0  0  0  0
   -4.5117  -22.6648   18.8160 H   0  0  0  0  0
   -9.9752  -19.2381   18.9610 H   0  0  0  0  0
  -12.0652  -21.7557   23.2789 H   0  0  0  0  0
   -5.6465  -26.9188   25.7297 H   0  0  0  0  0
   -3.3605  -25.9969   25.6311 H   0  0  0  0  0
   -3.0039  -23.7072   24.7888 H   0  0  0  0  0
   -6.7859  -19.9199   18.6151 H   0  0  0  0  0
   -7.8653  -18.4037   19.8222 H   0  0  0  0  0
   -4.5456  -18.5086   19.1669 H   0  0  0  0  0
   -4.4782  -19.4393   20.6199 H   0  0  0  0  0
  1  3  1  0  0  0
 13  1  1  0  0  0
  1 26  1  0  0  0
 11  2  4  0  0  0
  2 19  4  0  0  0
  3  4  4  0  0  0
  3 25  4  0  0  0
  4  6  4  0  0  0
  4 16  1  0  0  0
  9  5  1  0  0  0
  5 10  2  0  0  0
  6  7  4  0  0  0
  8  7  4  0  0  0
  7 17  1  0  0  0
  8  9  1  0  0  0
 25  8  4  0  0  0
  9 18  2  0  0  0
 10 11  1  0  0  0
 10 24  1  0  0  0
 11 22  4  0  0  0
 12 14  1  0  0  0
 15 12  1  0  0  0
 12 28  1  0  0  0
 13 15  1  0  0  0
 19 20  4  0  0  0
 20 21  4  0  0  0
 21 22  4  0  0  0
 22 23  1  0  0  0
 24 25  1  0  0  0
 26 27  1  0  0  0
 26 28  1  0  0  0
  1 29  1  0  0  0
  2 30  1  0  0  0
  5 31  1  0  0  0
  6 32  1  0  0  0
 12 33  1  0  0  0
 13 34  1  0  0  0
 13 35  1  0  0  0
 14 36  1  0  0  0
 14 37  1  0  0  0
 14 38  1  0  0  0
 15 39  1  0  0  0
 15 40  1  0  0  0
 16 41  1  0  0  0
 17 42  1  0  0  0
 19 43  1  0  0  0
 20 44  1  0  0  0
 21 45  1  0  0  0
 26 46  1  0  0  0
 27 47  1  0  0  0
 28 48  1  0  0  0
 28 49  1  0  0  0
M  END
$$$$
