4m8t_ligand
  -I-interpret- 

 29 30  0  0  0  0  0  0  0  0999 V2000
  -25.5600   11.4310  -22.4360 N   0  0  0  0  0
  -26.2150   10.7880  -21.7540 C   0  0  0  0  0
  -27.0810    9.9510  -20.8740 C   0  0  0  0  0
  -26.4430    9.8260  -19.5340 C   0  0  0  0  0
  -25.7470    8.6260  -19.1810 N   0  0  0  0  0
  -26.5140   10.7560  -18.7430 O   0  0  0  0  0
  -28.4240   10.5880  -20.7210 C   0  0  0  0  0
  -29.0050   11.5450  -21.7070 C   0  0  0  0  0
  -28.6860   11.4610  -23.0310 C   0  0  0  0  0
  -29.2750   12.4250  -24.0020 C   0  0  0  0  0
  -30.1350   13.3880  -23.5650 C   0  0  0  0  0
  -30.4840   13.4790  -22.1180 C   0  0  0  0  0
  -31.4340   14.5190  -21.6310 C   0  0  0  0  0
  -31.5320   14.9780  -20.3490 C   0  0  0  0  0
  -32.5480   15.9280  -20.3240 N   0  0  0  0  0
  -33.0650   16.0440  -21.5660 N   0  0  0  0  0
  -32.4030   15.1790  -22.4150 C   0  0  0  0  0
  -29.9490   12.5940  -21.2310 C   0  0  0  0  0
  -27.2012    8.9653  -21.3236 H   0  0  0  0  0
  -25.3064    8.5427  -18.2649 H   0  0  0  0  0
  -25.6917    7.8542  -19.8456 H   0  0  0  0  0
  -28.2998   11.2038  -19.8302 H   0  0  0  0  0
  -29.1034    9.7376  -20.7798 H   0  0  0  0  0
  -28.0000   10.6884  -23.3782 H   0  0  0  0  0
  -29.0189   12.3604  -25.0595 H   0  0  0  0  0
  -30.5684   14.0929  -24.2745 H   0  0  0  0  0
  -30.9258   14.6589  -19.5012 H   0  0  0  0  0
  -32.5917   15.0351  -23.4788 H   0  0  0  0  0
  -30.2114   12.6536  -20.1747 H   0  0  0  0  0
  1  2  3  0  0  0
  2  3  1  0  0  0
  3  4  1  0  0  0
  3  7  1  0  0  0
  4  5  1  0  0  0
  4  6  2  0  0  0
  7  8  1  0  0  0
  8  9  4  0  0  0
  8 18  4  0  0  0
  9 10  4  0  0  0
 10 11  4  0  0  0
 11 12  4  0  0  0
 12 13  1  0  0  0
 12 18  4  0  0  0
 13 14  4  0  0  0
 13 17  4  0  0  0
 14 15  4  0  0  0
 15 16  4  0  0  0
 16 17  4  0  0  0
  3 19  1  0  0  0
  5 20  1  0  0  0
  5 21  1  0  0  0
  7 22  1  0  0  0
  7 23  1  0  0  0
  9 24  1  0  0  0
 10 25  1  0  0  0
 11 26  1  0  0  0
 14 27  1  0  0  0
 17 28  1  0  0  0
 18 29  1  0  0  0
M  END
$$$$
