1yp9_ligand
  -I-interpret- 

 58 63  0  0  0  0  0  0  0  0999 V2000
   10.2660   67.3520    7.0210 N   0  0  0  0  0
   11.5340   67.0880    7.3440 C   0  0  0  0  0
   12.2450   66.3720    6.4320 N   0  0  0  0  0
   12.1500   67.5160    8.5580 C   0  0  0  0  0
   13.4910   67.1870    8.8330 C   0  0  0  0  0
   14.0840   67.5970   10.0220 C   0  0  0  0  0
   13.3420   68.3480   10.9540 C   0  0  0  0  0
   13.9750   68.8110   12.2350 C   0  0  0  0  0
   14.5120   70.2480   12.2890 C   0  0  0  0  0
   13.4690   71.3620   12.0890 C   0  0  0  0  0
   12.4110   71.3280   11.4200 O   0  0  0  0  0
   13.8060   72.3910   12.9460 N   0  0  0  0  0
   12.8550   73.5570   13.0540 C   0  0  0  0  0
   12.9640   74.6170   11.9690 C   0  0  0  0  0
   11.8090   75.0460   11.2380 C   0  0  0  0  0
   11.8990   76.0360   10.2370 C   0  0  0  0  0
   13.1670   76.5720    9.9760 C   0  0  0  0  0
   13.5140   77.5350    9.0580 O   0  0  0  0  0
   14.9590   77.7100    9.2040 C   0  0  0  0  0
   15.4590   76.8310   10.2460 O   0  0  0  0  0
   14.3110   76.1590   10.6770 C   0  0  0  0  0
   14.2180   75.1770   11.6820 C   0  0  0  0  0
   14.6940   71.9390   14.0070 C   0  0  0  0  0
   14.8060   70.3970   13.8090 C   0  0  0  0  0
   13.6540   69.5850   14.4710 C   0  0  0  0  0
   14.2710   68.6490   15.5370 C   0  0  0  0  0
   13.3140   67.4730   15.5160 C   0  0  0  0  0
   13.0060   67.2820   14.0030 C   0  0  0  0  0
   13.0800   68.6520   13.4240 N   0  3  0  0  0
   12.0070   68.6620   10.6850 C   0  0  0  0  0
   11.4080   68.2550    9.4850 C   0  0  0  0  0
    9.6784   67.8888    7.6589 H   0  0  0  0  0
   11.8032   66.0711    5.5633 H   0  0  0  0  0
   13.2200   66.1360    6.6168 H   0  0  0  0  0
   14.0669   66.6084    8.1107 H   0  0  0  0  0
   15.1216   67.3375   10.2324 H   0  0  0  0  0
   14.8345   68.1414   12.2648 H   0  0  0  0  0
   15.2911   70.3563   11.5344 H   0  0  0  0  0
   13.0931   74.0574   13.9926 H   0  0  0  0  0
   11.8516   73.1394   12.9711 H   0  0  0  0  0
   10.8404   74.5981   11.4599 H   0  0  0  0  0
   11.0181   76.3703    9.6890 H   0  0  0  0  0
   15.1710   78.7447    9.4734 H   0  0  0  0  0
   15.4484   77.4655    8.2612 H   0  0  0  0  0
   15.1056   74.8572   12.2279 H   0  0  0  0  0
   14.3066   72.1927   14.9937 H   0  0  0  0  0
   15.6681   72.4252   13.9533 H   0  0  0  0  0
   15.7552   70.0441   14.2122 H   0  0  0  0  0
   12.9128   70.2671   14.8875 H   0  0  0  0  0
   14.3622   69.1138   16.5187 H   0  0  0  0  0
   15.3024   68.3701   15.3215 H   0  0  0  0  0
   12.4154   67.6552   16.1054 H   0  0  0  0  0
   13.7405   66.5793   15.9715 H   0  0  0  0  0
   12.0293   66.8256   13.8421 H   0  0  0  0  0
   13.7127   66.6018   13.5277 H   0  0  0  0  0
   12.1248   68.8560   13.1300 H   0  0  0  0  0
   11.4271   69.2278   11.4141 H   0  0  0  0  0
   10.3699   68.5129    9.2755 H   0  0  0  0  0
  1  2  2  0  0  0
  2  3  1  0  0  0
  2  4  1  0  0  0
  4  5  4  0  0  0
  4 31  4  0  0  0
  5  6  4  0  0  0
  6  7  4  0  0  0
  7  8  1  0  0  0
  7 30  4  0  0  0
  8  9  1  0  0  0
  8 29  1  0  0  0
  9 10  1  0  0  0
  9 24  1  0  0  0
 10 11  2  0  0  0
 10 12  1  0  0  0
 12 13  1  0  0  0
 12 23  1  0  0  0
 13 14  1  0  0  0
 14 15  4  0  0  0
 14 22  4  0  0  0
 15 16  4  0  0  0
 16 17  4  0  0  0
 17 18  1  0  0  0
 17 21  4  0  0  0
 18 19  1  0  0  0
 19 20  1  0  0  0
 20 21  1  0  0  0
 21 22  4  0  0  0
 23 24  1  0  0  0
 24 25  1  0  0  0
 25 26  1  0  0  0
 25 29  1  0  0  0
 26 27  1  0  0  0
 27 28  1  0  0  0
 28 29  1  0  0  0
 30 31  4  0  0  0
  1 32  1  0  0  0
  3 33  1  0  0  0
  3 34  1  0  0  0
  5 35  1  0  0  0
  6 36  1  0  0  0
  8 37  1  0  0  0
  9 38  1  0  0  0
 13 39  1  0  0  0
 13 40  1  0  0  0
 15 41  1  0  0  0
 16 42  1  0  0  0
 19 43  1  0  0  0
 19 44  1  0  0  0
 22 45  1  0  0  0
 23 46  1  0  0  0
 23 47  1  0  0  0
 24 48  1  0  0  0
 25 49  1  0  0  0
 26 50  1  0  0  0
 26 51  1  0  0  0
 27 52  1  0  0  0
 27 53  1  0  0  0
 28 54  1  0  0  0
 28 55  1  0  0  0
 29 56  1  0  0  0
 30 57  1  0  0  0
 31 58  1  0  0  0
M  END
$$$$
