### 
### Created by X-TOOL on Mon Sep 10 21:13:08 2018
### 

@<TRIPOS>MOLECULE
2l8r_ligand
   57    60     1     0     0
SMALL
GAST_HUCK


@<TRIPOS>ATOM
      1 N1          0.8360    0.9430  -11.2430 N.ar      1 APR        -0.2698
      2 C2         -0.2710    0.2020  -11.1360 C.ar      1 APR         0.0533
      3 N3         -0.2180   -1.1160  -11.2390 N.ar      1 APR        -0.2714
      4 C4          0.9480   -1.7380  -11.4520 C.ar      1 APR         0.1613
      5 C5          2.0950   -1.0110  -11.5650 C.ar      1 APR         0.1045
      6 C6          2.0270    0.3600  -11.4580 C.ar      1 APR         0.1298
      7 N6          3.1220    1.0950  -11.5660 N.pl3     1 APR        -0.3152
      8 N7          3.0990   -1.8560  -11.7690 N.2       1 APR        -0.2958
      9 C8          2.5900   -3.0920  -11.7890 C.2       1 APR         0.1123
     10 N9          1.2530   -3.0040  -11.6000 N.pl3     1 APR        -0.1919
     11 C1'         0.2440   -4.1370  -11.5980 C.3       1 APR         0.2010
     12 C2'         0.9610   -5.4970  -11.9560 C.3       1 APR         0.1385
     13 O2'         0.4740   -6.0020  -13.1510 O.3       1 APR        -0.3836
     14 C3'         0.5790   -6.4180  -10.7740 C.3       1 APR         0.1149
     15 O3'        -0.5130   -7.2200  -11.0970 O.3       1 APR        -0.3864
     16 O4'        -0.4030   -4.2820  -10.3290 O.3       1 APR        -0.3364
     17 C4'         0.2050   -5.3900   -9.6620 C.3       1 APR         0.1189
     18 C5'         1.4710   -4.9890   -8.8750 C.3       1 APR         0.1128
     19 O5'         1.4400   -5.5410   -7.5470 O.3       1 APR        -0.2476
     20 PA          2.2890   -6.8730   -7.2060 P.3       1 APR         0.2972
     21 O1A         3.7600   -6.6230   -7.0980 O.co2     1 APR        -0.6127
     22 O2A         1.9750   -7.9300   -8.3930 O.co2     1 APR        -0.6127
     23 O3A         1.6830   -7.5010   -5.8540 O.3       1 APR        -0.1319
     24 PB          2.4300   -7.2690   -4.4420 P.3       1 APR         0.2972
     25 O1B         1.6980   -7.8310   -3.2660 O.co2     1 APR        -0.6127
     26 O2B         2.6470   -5.6710   -4.2760 O.co2     1 APR        -0.6127
     27 O5D         3.8950   -7.8990   -4.5800 O.3       1 APR        -0.2476
     28 C5D         4.7890   -7.8600   -3.4690 C.3       1 APR         0.1128
     29 O4D         6.5160   -9.4000   -4.3380 O.3       1 APR        -0.3403
     30 O1D         7.6530   -7.2980   -4.2280 O.3       1 APR        -0.3649
     31 C1D         7.6960   -8.7200   -3.9100 C.3       1 APR         0.1854
     32 O2D         8.6280   -9.9870   -2.0320 O.3       1 APR        -0.3841
     33 C2D         7.7930   -8.9140   -2.3490 C.3       1 APR         0.1339
     34 O3D         6.1800  -10.4230   -1.2610 O.3       1 APR        -0.3864
     35 C3D         6.3250   -9.2210   -1.9450 C.3       1 APR         0.1144
     36 C4D         5.5510   -9.2090   -3.3190 C.3       1 APR         0.1184
     37 H          -1.2300    0.6898  -10.9616 H         1 APR         0.0996
     38 H           4.0233    0.6463  -11.7295 H         1 APR         0.1820
     39 H           3.0648    2.1102  -11.4858 H         1 APR         0.1820
     40 H           3.1551   -4.0129  -11.9329 H         1 APR         0.1349
     41 H          -0.5122   -3.8922  -12.3438 H         1 APR         0.0996
     42 H           2.0383   -5.3962  -12.0878 H         1 APR         0.0676
     43 H          -0.4697   -6.1581  -13.0702 H         1 APR         0.2101
     44 H           1.3704   -7.1096  -10.4853 H         1 APR         0.0648
     45 H          -0.2939   -7.7668  -11.8551 H         1 APR         0.2100
     46 H          -0.4891   -5.8015   -8.9292 H         1 APR         0.0651
     47 H           1.5124   -3.9021   -8.8040 H         1 APR         0.0648
     48 H           2.3471   -5.3745   -9.3965 H         1 APR         0.0648
     49 H           4.2119   -7.6815   -2.5617 H         1 APR         0.0648
     50 H           5.5156   -7.0641   -3.6324 H         1 APR         0.0648
     51 H           7.5698   -7.1860   -5.1778 H         1 APR         0.2126
     52 H           8.5638   -9.1307   -4.4261 H         1 APR         0.0935
     53 H           8.2767  -10.7906   -2.4224 H         1 APR         0.2101
     54 H           8.2117   -8.0499   -1.8332 H         1 APR         0.0671
     55 H           6.4836  -11.1447   -1.8166 H         1 APR         0.2100
     56 H           5.9367   -8.4900   -1.2358 H         1 APR         0.0648
     57 H           4.8045  -10.0010   -3.3796 H         1 APR         0.0651
@<TRIPOS>BOND
     1    2    1 ar 
     2    6    1 ar 
     3    3    2 ar 
     4    4    3 ar 
     5    4    5 ar 
     6   10    4 1  
     7    5    6 ar 
     8    8    5 1  
     9    6    7 1  
    10    9    8 2  
    11   10    9 1  
    12   11   10 1  
    13   11   12 1  
    14   16   11 1  
    15   12   13 1  
    16   14   12 1  
    17   14   15 1  
    18   17   14 1  
    19   17   16 1  
    20   18   17 1  
    21   19   18 1  
    22   20   19 1  
    23   20   21 ar 
    24   20   22 ar 
    25   23   20 1  
    26   24   23 1  
    27   24   25 ar 
    28   24   26 ar 
    29   27   24 1  
    30   28   27 1  
    31   36   28 1  
    32   29   31 1  
    33   29   36 1  
    34   31   30 1  
    35   31   33 1  
    36   33   32 1  
    37   33   35 1  
    38   35   34 1  
    39   35   36 1  
    40    2   37 1  
    41    7   38 1  
    42    7   39 1  
    43    9   40 1  
    44   11   41 1  
    45   12   42 1  
    46   13   43 1  
    47   14   44 1  
    48   15   45 1  
    49   17   46 1  
    50   18   47 1  
    51   18   48 1  
    52   28   49 1  
    53   28   50 1  
    54   30   51 1  
    55   31   52 1  
    56   32   53 1  
    57   33   54 1  
    58   34   55 1  
    59   35   56 1  
    60   36   57 1  
@<TRIPOS>SUBSTRUCTURE
     1 APR         1

