2l8r_ligand
  -I-interpret- 

 59 62  0  0  0  0  0  0  0  0999 V2000
    0.8360    0.9430  -11.2430 N   0  0  0  0  0
   -0.2710    0.2020  -11.1360 C   0  0  0  0  0
   -0.2180   -1.1160  -11.2390 N   0  0  0  0  0
    0.9480   -1.7380  -11.4520 C   0  0  0  0  0
    2.0950   -1.0110  -11.5650 C   0  0  0  0  0
    2.0270    0.3600  -11.4580 C   0  0  0  0  0
    3.1220    1.0950  -11.5660 N   0  0  0  0  0
    3.0990   -1.8560  -11.7690 N   0  0  0  0  0
    2.5900   -3.0920  -11.7890 C   0  0  0  0  0
    1.2530   -3.0040  -11.6000 N   0  0  0  0  0
    0.2440   -4.1370  -11.5980 C   0  0  0  0  0
    0.9610   -5.4970  -11.9560 C   0  0  0  0  0
    0.4740   -6.0020  -13.1510 O   0  0  0  0  0
    0.5790   -6.4180  -10.7740 C   0  0  0  0  0
   -0.5130   -7.2200  -11.0970 O   0  0  0  0  0
   -0.4030   -4.2820  -10.3290 O   0  0  0  0  0
    0.2050   -5.3900   -9.6620 C   0  0  0  0  0
    1.4710   -4.9890   -8.8750 C   0  0  0  0  0
    1.4400   -5.5410   -7.5470 O   0  0  0  0  0
    2.2890   -6.8730   -7.2060 P   0  0  0  0  0
    3.7600   -6.6230   -7.0980 O   0  0  0  0  0
    1.9750   -7.9300   -8.3930 O   0  0  0  0  0
    1.6830   -7.5010   -5.8540 O   0  0  0  0  0
    2.4300   -7.2690   -4.4420 P   0  0  0  0  0
    1.6980   -7.8310   -3.2660 O   0  0  0  0  0
    2.6470   -5.6710   -4.2760 O   0  0  0  0  0
    3.8950   -7.8990   -4.5800 O   0  0  0  0  0
    4.7890   -7.8600   -3.4690 C   0  0  0  0  0
    6.5160   -9.4000   -4.3380 O   0  0  0  0  0
    7.6530   -7.2980   -4.2280 O   0  0  0  0  0
    7.6960   -8.7200   -3.9100 C   0  0  0  0  0
    8.6280   -9.9870   -2.0320 O   0  0  0  0  0
    7.7930   -8.9140   -2.3490 C   0  0  0  0  0
    6.1800  -10.4230   -1.2610 O   0  0  0  0  0
    6.3250   -9.2210   -1.9450 C   0  0  0  0  0
    5.5510   -9.2090   -3.3190 C   0  0  0  0  0
   -1.2300    0.6898  -10.9616 H   0  0  0  0  0
    3.0647    2.1102  -11.4860 H   0  0  0  0  0
    4.0234    0.6463  -11.7292 H   0  0  0  0  0
    3.1551   -4.0129  -11.9329 H   0  0  0  0  0
   -0.5122   -3.8922  -12.3438 H   0  0  0  0  0
    2.0383   -5.3962  -12.0878 H   0  0  0  0  0
    0.9198   -6.8277  -13.3535 H   0  0  0  0  0
    1.3704   -7.1096  -10.4853 H   0  0  0  0  0
   -0.7293   -7.7807  -10.3484 H   0  0  0  0  0
   -0.4891   -5.8015   -8.9292 H   0  0  0  0  0
    1.5124   -3.9021   -8.8040 H   0  0  0  0  0
    2.3471   -5.3745   -9.3965 H   0  0  0  0  0
    1.0279   -8.0772   -8.4466 H   0  0  0  0  0
    3.1180   -5.3320   -5.0408 H   0  0  0  0  0
    4.2119   -7.6815   -2.5617 H   0  0  0  0  0
    5.5156   -7.0641   -3.6324 H   0  0  0  0  0
    8.4617   -6.8789   -3.9249 H   0  0  0  0  0
    8.5638   -9.1307   -4.4261 H   0  0  0  0  0
    8.6718  -10.0860   -1.0781 H   0  0  0  0  0
    8.2117   -8.0499   -1.8332 H   0  0  0  0  0
    5.2550  -10.5548   -1.0404 H   0  0  0  0  0
    5.9367   -8.4900   -1.2358 H   0  0  0  0  0
    4.8045  -10.0010   -3.3796 H   0  0  0  0  0
  2  1  4  0  0  0
  6  1  4  0  0  0
  3  2  4  0  0  0
  4  3  4  0  0  0
  4  5  4  0  0  0
 10  4  4  0  0  0
  5  6  4  0  0  0
  8  5  4  0  0  0
  6  7  1  0  0  0
  9  8  4  0  0  0
 10  9  4  0  0  0
 11 10  1  0  0  0
 11 12  1  0  0  0
 16 11  1  0  0  0
 12 13  1  0  0  0
 14 12  1  0  0  0
 14 15  1  0  0  0
 17 14  1  0  0  0
 17 16  1  0  0  0
 18 17  1  0  0  0
 19 18  1  0  0  0
 20 19  1  0  0  0
 20 21  2  0  0  0
 20 22  1  0  0  0
 23 20  1  0  0  0
 24 23  1  0  0  0
 24 25  2  0  0  0
 24 26  1  0  0  0
 27 24  1  0  0  0
 28 27  1  0  0  0
 36 28  1  0  0  0
 29 31  1  0  0  0
 29 36  1  0  0  0
 31 30  1  0  0  0
 31 33  1  0  0  0
 33 32  1  0  0  0
 33 35  1  0  0  0
 35 34  1  0  0  0
 35 36  1  0  0  0
  2 37  1  0  0  0
  7 38  1  0  0  0
  7 39  1  0  0  0
  9 40  1  0  0  0
 11 41  1  0  0  0
 12 42  1  0  0  0
 13 43  1  0  0  0
 14 44  1  0  0  0
 15 45  1  0  0  0
 17 46  1  0  0  0
 18 47  1  0  0  0
 18 48  1  0  0  0
 22 49  1  0  0  0
 26 50  1  0  0  0
 28 51  1  0  0  0
 28 52  1  0  0  0
 30 53  1  0  0  0
 31 54  1  0  0  0
 32 55  1  0  0  0
 33 56  1  0  0  0
 34 57  1  0  0  0
 35 58  1  0  0  0
 36 59  1  0  0  0
M  END
$$$$
