4odn_ligand
  -I-interpret- 

212215  0  0  0  0  0  0  0  0999 V2000
   -5.4200  -25.8730    2.0170 N   0  3  0  0  0
   -5.6090  -26.7570    0.8650 C   0  0  0  0  0
   -5.3260  -28.2210    1.1940 C   0  0  0  0  0
   -4.4310  -28.5330    1.9890 O   0  0  0  0  0
   -4.6960  -26.3500   -0.2990 C   0  0  0  0  0
   -4.9850  -24.9890   -0.8600 C   0  0  0  0  0
   -6.1630  -24.7460   -1.5550 C   0  0  0  0  0
   -4.0670  -23.9590   -0.7180 C   0  0  0  0  0
   -6.4310  -23.4970   -2.0800 C   0  0  0  0  0
   -4.3290  -22.7010   -1.2410 C   0  0  0  0  0
   -5.5110  -22.4710   -1.9220 C   0  0  0  0  0
   -6.0880  -29.1120    0.5630 N   0  0  0  0  0
   -5.7860  -30.5370    0.5910 C   0  0  0  0  0
   -5.3920  -30.9690   -0.8230 C   0  0  0  0  0
   -4.2120  -31.1830   -1.0990 O   0  0  0  0  0
   -6.9530  -31.3620    1.1690 C   0  0  0  0  0
   -7.2170  -30.9290    2.6150 C   0  0  0  0  0
   -6.6320  -32.8430    1.1350 C   0  0  0  0  0
   -8.2670  -31.7440    3.3400 C   0  0  0  0  0
   -6.3600  -31.0380   -1.7310 N   0  0  0  0  0
   -6.0480  -31.3290   -3.1300 C   0  0  0  0  0
   -6.1800  -30.1120   -4.0580 C   0  0  0  0  0
   -5.9230  -30.2080   -5.2580 O   0  0  0  0  0
   -6.9240  -32.4770   -3.6410 C   0  0  0  0  0
   -6.5250  -33.8310   -3.1130 C   0  0  0  0  0
   -5.3490  -34.4350   -3.5360 C   0  0  0  0  0
   -7.3350  -34.5120   -2.2120 C   0  0  0  0  0
   -4.9800  -35.6850   -3.0670 C   0  0  0  0  0
   -6.9700  -35.7720   -1.7360 C   0  0  0  0  0
   -5.7860  -36.3540   -2.1710 C   0  0  0  0  0
   -6.5540  -28.9680   -3.4960 N   0  0  0  0  0
   -6.9280  -27.8140   -4.2980 C   0  0  0  0  0
   -5.8880  -26.7710   -4.6880 C   0  0  0  0  0
   -6.2010  -25.8860   -5.4890 O   0  0  0  0  0
   -4.6690  -26.8490   -4.1520 N   0  0  0  0  0
   -3.6570  -25.8270   -4.4530 C   0  0  0  0  0
   -3.3140  -25.7720   -5.9390 C   0  0  0  0  0
   -3.2080  -24.6890   -6.5160 O   0  0  0  0  0
   -2.4000  -26.0450   -3.6300 C   0  0  0  0  0
   -3.1610  -26.9460   -6.5500 N   0  0  0  0  0
   -2.7830  -27.0570   -7.9600 C   0  0  0  0  0
   -3.7680  -26.3820   -8.9140 C   0  0  0  0  0
   -3.4370  -26.1130  -10.0680 O   0  0  0  0  0
   -2.5940  -28.5270   -8.3490 C   0  0  0  0  0
   -1.3610  -29.1700   -7.7350 C   0  0  0  0  0
   -1.3640  -30.6790   -7.9130 C   0  0  0  0  0
   -0.2630  -31.3180   -7.1970 N   0  0  0  0  0
   -0.1010  -32.6350   -7.1000 C   0  0  0  0  0
   -0.9730  -33.4550   -7.6730 N   0  0  0  0  0
    0.9310  -33.1340   -6.4310 N   0  0  0  0  0
   -4.9750  -26.1080   -8.4270 N   0  0  0  0  0
   -5.9870  -25.4340   -9.2280 C   0  0  0  0  0
   -6.3050  -24.0300   -8.7220 C   0  0  0  0  0
   -6.8000  -23.1940   -9.4760 O   0  0  0  0  0
   -7.2720  -26.2630   -9.2640 C   0  0  0  0  0
   -7.0760  -27.6080   -9.9270 C   0  0  0  0  0
   -6.2850  -27.7430  -10.8610 O   0  0  0  0  0
   -7.7970  -28.6160   -9.4460 N   0  0  0  0  0
   -6.0050  -23.7700   -7.4530 N   0  0  0  0  0
   -6.5220  -22.5790   -6.7850 C   0  0  0  0  0
   -5.5140  -21.4790   -6.4080 C   0  0  0  0  0
   -5.8420  -20.6230   -5.5980 O   0  0  0  0  0
   -7.3300  -22.9740   -5.5390 C   0  0  0  0  0
   -8.6440  -23.6960   -5.8290 C   0  0  0  0  0
   -9.3110  -24.1550   -4.5370 C   0  0  0  0  0
  -10.6140  -24.8890   -4.8160 C   0  0  0  0  0
  -11.2320  -25.4380   -3.5770 N   0  3  0  0  0
   -4.3150  -21.4750   -6.9840 N   0  0  0  0  0
   -3.3740  -20.3740   -6.7260 C   0  0  0  0  0
   -2.8950  -19.6830   -8.0220 C   0  0  0  0  0
   -2.4860  -20.3590   -8.9640 O   0  0  0  0  0
   -2.1940  -20.8670   -5.8630 C   0  0  0  0  0
   -1.0910  -19.8440   -5.7760 C   0  0  0  0  0
   -2.6870  -21.2340   -4.4710 C   0  0  0  0  0
   -2.9920  -18.3480   -8.0720 N   0  0  0  0  0
   -2.4130  -17.5290   -9.1480 C   0  0  0  0  0
   -1.1030  -16.9140   -8.6520 C   0  0  0  0  0
   -1.0760  -16.3040   -7.5900 O   0  0  0  0  0
   -3.3340  -16.3640   -9.5270 C   0  0  0  0  0
   -4.6530  -16.7740  -10.0990 C   0  0  0  0  0
   -4.7720  -17.4580  -11.2900 N   0  0  0  0  0
   -5.9150  -16.5560   -9.6630 C   0  0  0  0  0
   -6.0500  -17.6640  -11.5520 C   0  0  0  0  0
   -6.7650  -17.1230  -10.5810 N   0  0  0  0  0
   -0.0360  -17.0400   -9.4330 N   0  0  0  0  0
    1.2830  -16.5700   -9.0180 C   0  0  0  0  0
    1.7510  -15.3780   -9.8520 C   0  0  0  0  0
    1.7940  -15.4490  -11.0800 O   0  0  0  0  0
    2.3040  -17.7100   -9.1180 C   0  0  0  0  0
    1.8100  -18.9060   -8.3010 C   0  0  0  0  0
    3.6780  -17.2400   -8.6510 C   0  0  0  0  0
    2.6870  -20.1250   -8.3920 C   0  0  0  0  0
    2.1060  -14.2790   -9.1910 N   0  0  0  0  0
    2.4770  -13.0780   -9.9300 C   0  0  0  0  0
    3.9290  -12.6800   -9.7300 C   0  0  0  0  0
    4.5590  -12.1520  -10.6480 O   0  0  0  0  0
    1.5370  -11.9200   -9.5810 C   0  0  0  0  0
    0.0880  -12.2670   -9.8090 C   0  0  0  0  0
   -0.4340  -12.3080  -11.0970 C   0  0  0  0  0
   -0.7620  -12.5550   -8.7510 C   0  0  0  0  0
   -1.7510  -12.6350  -11.3260 C   0  0  0  0  0
   -2.0940  -12.8790   -8.9750 C   0  0  0  0  0
   -2.5780  -12.9120  -10.2730 C   0  0  0  0  0
   -3.8910  -13.2350  -10.5250 O   0  0  0  0  0
    4.4600  -12.9370   -8.5370 N   0  0  0  0  0
   -6.0378  -26.1660    2.7739 H   0  0  0  0  0
   -4.4502  -25.9252    2.3286 H   0  0  0  0  0
   -5.6409  -24.9142    1.7481 H   0  0  0  0  0
   -6.6572  -26.6535    0.5843 H   0  0  0  0  0
   -4.8576  -27.0697   -1.1015 H   0  0  0  0  0
   -3.6758  -26.3300    0.0842 H   0  0  0  0  0
   -6.8852  -25.5516   -1.6877 H   0  0  0  0  0
   -3.1305  -24.1397   -0.1903 H   0  0  0  0  0
   -7.3626  -23.3181   -2.6169 H   0  0  0  0  0
   -3.6052  -21.8957   -1.1156 H   0  0  0  0  0
   -5.7193  -21.4837   -2.3343 H   0  0  0  0  0
   -6.9054  -28.7881    0.0459 H   0  0  0  0  0
   -4.9496  -30.7271    1.2636 H   0  0  0  0  0
   -7.8399  -31.1846    0.5607 H   0  0  0  0  0
   -7.5835  -29.9032    2.5763 H   0  0  0  0  0
   -6.2824  -31.0601    3.1603 H   0  0  0  0  0
   -6.4582  -33.1522    0.1043 H   0  0  0  0  0
   -5.7378  -33.0334    1.7285 H   0  0  0  0  0
   -7.4700  -33.4047    1.5478 H   0  0  0  0  0
   -9.2160  -31.6658    2.8096 H   0  0  0  0  0
   -7.9543  -32.7876    3.3759 H   0  0  0  0  0
   -8.3839  -31.3633    4.3547 H   0  0  0  0  0
   -7.3287  -30.8867   -1.4499 H   0  0  0  0  0
   -4.9979  -31.6204   -3.1527 H   0  0  0  0  0
   -6.8181  -32.5078   -4.7254 H   0  0  0  0  0
   -7.9418  -32.2839   -3.3021 H   0  0  0  0  0
   -4.7061  -33.9177   -4.2481 H   0  0  0  0  0
   -8.2657  -34.0568   -1.8734 H   0  0  0  0  0
   -4.0501  -36.1407   -3.4072 H   0  0  0  0  0
   -7.6103  -36.2966   -1.0269 H   0  0  0  0  0
   -5.4948  -37.3383   -1.8043 H   0  0  0  0  0
   -6.5794  -28.8973   -2.4788 H   0  0  0  0  0
   -7.6320  -27.2682   -3.6698 H   0  0  0  0  0
   -7.2484  -28.2410   -5.2484 H   0  0  0  0  0
   -4.4379  -27.6230   -3.5292 H   0  0  0  0  0
   -4.0928  -24.8655   -4.1814 H   0  0  0  0  0
   -2.6474  -25.9905   -2.5698 H   0  0  0  0  0
   -1.9841  -27.0265   -3.8574 H   0  0  0  0  0
   -1.6692  -25.2739   -3.8740 H   0  0  0  0  0
   -3.3131  -27.8007   -6.0146 H   0  0  0  0  0
   -1.8391  -26.5218   -8.0630 H   0  0  0  0  0
   -2.4751  -28.5641   -9.4319 H   0  0  0  0  0
   -3.4626  -29.0745   -7.9831 H   0  0  0  0  0
   -1.3559  -28.9509   -6.6673 H   0  0  0  0  0
   -0.4798  -28.7677   -8.2348 H   0  0  0  0  0
   -1.2511  -30.8966   -8.9751 H   0  0  0  0  0
   -2.3008  -31.0670   -7.5130 H   0  0  0  0  0
    0.4247  -30.7170   -6.7429 H   0  0  0  0  0
   -1.7676  -33.0756   -8.1879 H   0  0  0  0  0
    1.0516  -34.1443   -6.3588 H   0  0  0  0  0
    1.6035  -32.5072   -5.9891 H   0  0  0  0  0
   -5.1972  -26.3767   -7.4685 H   0  0  0  0  0
   -5.5736  -25.3349  -10.2317 H   0  0  0  0  0
   -8.0132  -25.7091   -9.8402 H   0  0  0  0  0
   -7.5878  -26.4382   -8.2356 H   0  0  0  0  0
   -7.7067  -29.5471   -9.8525 H   0  0  0  0  0
   -8.4405  -28.4583   -8.6705 H   0  0  0  0  0
   -5.4039  -24.4131   -6.9377 H   0  0  0  0  0
   -7.1430  -22.1191   -7.5538 H   0  0  0  0  0
   -7.5850  -22.0493   -5.0213 H   0  0  0  0  0
   -6.7102  -23.6636   -4.9658 H   0  0  0  0  0
   -8.4342  -24.5708   -6.4445 H   0  0  0  0  0
   -9.3148  -23.0084   -6.3441 H   0  0  0  0  0
   -9.5313  -23.2768   -3.9300 H   0  0  0  0  0
   -8.6340  -24.8354   -4.0205 H   0  0  0  0  0
  -10.3954  -25.7234   -5.4824 H   0  0  0  0  0
  -11.3139  -24.1788   -5.2562 H   0  0  0  0  0
  -12.0994  -25.9189   -3.8154 H   0  0  0  0  0
  -10.5867  -26.0954   -3.1391 H   0  0  0  0  0
  -11.4317  -24.6744   -2.9310 H   0  0  0  0  0
   -4.0473  -22.2375   -7.6064 H   0  0  0  0  0
   -3.9106  -19.6088   -6.1651 H   0  0  0  0  0
   -1.7773  -21.7512   -6.3454 H   0  0  0  0  0
   -0.7154  -19.6306   -6.7767 H   0  0  0  0  0
   -1.4803  -18.9289   -5.3299 H   0  0  0  0  0
   -0.2823  -20.2352   -5.1587 H   0  0  0  0  0
   -3.1339  -20.3572   -4.0023 H   0  0  0  0  0
   -3.4320  -22.0259   -4.5479 H   0  0  0  0  0
   -1.8470  -21.5809   -3.8692 H   0  0  0  0  0
   -3.4952  -17.8731   -7.3226 H   0  0  0  0  0
   -2.2652  -18.1763  -10.0124 H   0  0  0  0  0
   -2.8188  -15.7884  -10.2960 H   0  0  0  0  0
   -3.5425  -15.8121   -8.6104 H   0  0  0  0  0
   -6.2033  -16.0290   -8.7535 H   0  0  0  0  0
   -6.4470  -18.1900  -12.4202 H   0  0  0  0  0
   -0.1408  -17.4774  -10.3485 H   0  0  0  0  0
    1.2034  -16.2400   -7.9822 H   0  0  0  0  0
    2.4049  -18.0201  -10.1581 H   0  0  0  0  0
    0.8337  -19.1837   -8.6984 H   0  0  0  0  0
    1.7990  -18.5970   -7.2558 H   0  0  0  0  0
    4.0093  -16.4115   -9.2770 H   0  0  0  0  0
    3.6148  -16.9107   -7.6138 H   0  0  0  0  0
    4.3882  -18.0631   -8.7296 H   0  0  0  0  0
    2.7470  -20.4512   -9.4303 H   0  0  0  0  0
    3.6851  -19.8809   -8.0283 H   0  0  0  0  0
    2.2621  -20.9230   -7.7831 H   0  0  0  0  0
    2.1185  -14.2767   -8.1711 H   0  0  0  0  0
    2.3696  -13.3155  -10.9884 H   0  0  0  0  0
    1.7871  -11.0769  -10.2250 H   0  0  0  0  0
    1.6658  -11.6881   -8.5238 H   0  0  0  0  0
    0.2133  -12.0764  -11.9429 H   0  0  0  0  0
   -0.3796  -12.5266   -7.7307 H   0  0  0  0  0
   -2.1344  -12.6731  -12.3456 H   0  0  0  0  0
   -2.7530  -13.1054   -8.1368 H   0  0  0  0  0
   -4.3433  -13.4019   -9.6948 H   0  0  0  0  0
    5.4328  -12.6948   -8.3489 H   0  0  0  0  0
    3.8942  -13.3761   -7.8108 H   0  0  0  0  0
  1  2  1  0  0  0
  2  3  1  0  0  0
  2  5  1  0  0  0
  3  4  2  0  0  0
  3 12  1  0  0  0
  5  6  1  0  0  0
  6  7  4  0  0  0
  6  8  4  0  0  0
  7  9  4  0  0  0
  8 10  4  0  0  0
  9 11  4  0  0  0
 10 11  4  0  0  0
 12 13  1  0  0  0
 13 14  1  0  0  0
 13 16  1  0  0  0
 14 15  2  0  0  0
 14 20  1  0  0  0
 16 17  1  0  0  0
 16 18  1  0  0  0
 17 19  1  0  0  0
 20 21  1  0  0  0
 21 22  1  0  0  0
 21 24  1  0  0  0
 22 23  2  0  0  0
 22 31  1  0  0  0
 24 25  1  0  0  0
 25 26  4  0  0  0
 25 27  4  0  0  0
 26 28  4  0  0  0
 27 29  4  0  0  0
 28 30  4  0  0  0
 29 30  4  0  0  0
 31 32  1  0  0  0
 32 33  1  0  0  0
 33 34  2  0  0  0
 33 35  1  0  0  0
 35 36  1  0  0  0
 36 37  1  0  0  0
 36 39  1  0  0  0
 37 38  2  0  0  0
 37 40  1  0  0  0
 40 41  1  0  0  0
 41 42  1  0  0  0
 41 44  1  0  0  0
 42 43  2  0  0  0
 42 51  1  0  0  0
 44 45  1  0  0  0
 45 46  1  0  0  0
 46 47  1  0  0  0
 47 48  1  0  0  0
 48 49  2  0  0  0
 48 50  1  0  0  0
 51 52  1  0  0  0
 52 53  1  0  0  0
 52 55  1  0  0  0
 53 54  2  0  0  0
 53 59  1  0  0  0
 55 56  1  0  0  0
 56 57  2  0  0  0
 56 58  1  0  0  0
 59 60  1  0  0  0
 60 61  1  0  0  0
 60 63  1  0  0  0
 61 62  2  0  0  0
 61 68  1  0  0  0
 63 64  1  0  0  0
 64 65  1  0  0  0
 65 66  1  0  0  0
 66 67  1  0  0  0
 68 69  1  0  0  0
 69 70  1  0  0  0
 69 72  1  0  0  0
 70 71  2  0  0  0
 70 75  1  0  0  0
 72 73  1  0  0  0
 72 74  1  0  0  0
 75 76  1  0  0  0
 76 77  1  0  0  0
 76 79  1  0  0  0
 77 78  2  0  0  0
 77 85  1  0  0  0
 79 80  1  0  0  0
 80 81  4  0  0  0
 80 82  4  0  0  0
 81 83  4  0  0  0
 82 84  4  0  0  0
 83 84  4  0  0  0
 85 86  1  0  0  0
 86 87  1  0  0  0
 86 89  1  0  0  0
 87 88  2  0  0  0
 87 93  1  0  0  0
 89 90  1  0  0  0
 89 91  1  0  0  0
 90 92  1  0  0  0
 93 94  1  0  0  0
 94 95  1  0  0  0
 94 97  1  0  0  0
 95 96  2  0  0  0
 95105  1  0  0  0
 97 98  1  0  0  0
 98 99  4  0  0  0
 98100  4  0  0  0
 99101  4  0  0  0
100102  4  0  0  0
101103  4  0  0  0
102103  4  0  0  0
103104  1  0  0  0
  1106  1  0  0  0
  1107  1  0  0  0
  1108  1  0  0  0
  2109  1  0  0  0
  5110  1  0  0  0
  5111  1  0  0  0
  7112  1  0  0  0
  8113  1  0  0  0
  9114  1  0  0  0
 10115  1  0  0  0
 11116  1  0  0  0
 12117  1  0  0  0
 13118  1  0  0  0
 16119  1  0  0  0
 17120  1  0  0  0
 17121  1  0  0  0
 18122  1  0  0  0
 18123  1  0  0  0
 18124  1  0  0  0
 19125  1  0  0  0
 19126  1  0  0  0
 19127  1  0  0  0
 20128  1  0  0  0
 21129  1  0  0  0
 24130  1  0  0  0
 24131  1  0  0  0
 26132  1  0  0  0
 27133  1  0  0  0
 28134  1  0  0  0
 29135  1  0  0  0
 30136  1  0  0  0
 31137  1  0  0  0
 32138  1  0  0  0
 32139  1  0  0  0
 35140  1  0  0  0
 36141  1  0  0  0
 39142  1  0  0  0
 39143  1  0  0  0
 39144  1  0  0  0
 40145  1  0  0  0
 41146  1  0  0  0
 44147  1  0  0  0
 44148  1  0  0  0
 45149  1  0  0  0
 45150  1  0  0  0
 46151  1  0  0  0
 46152  1  0  0  0
 47153  1  0  0  0
 49154  1  0  0  0
 50155  1  0  0  0
 50156  1  0  0  0
 51157  1  0  0  0
 52158  1  0  0  0
 55159  1  0  0  0
 55160  1  0  0  0
 58161  1  0  0  0
 58162  1  0  0  0
 59163  1  0  0  0
 60164  1  0  0  0
 63165  1  0  0  0
 63166  1  0  0  0
 64167  1  0  0  0
 64168  1  0  0  0
 65169  1  0  0  0
 65170  1  0  0  0
 66171  1  0  0  0
 66172  1  0  0  0
 67173  1  0  0  0
 67174  1  0  0  0
 67175  1  0  0  0
 68176  1  0  0  0
 69177  1  0  0  0
 72178  1  0  0  0
 73179  1  0  0  0
 73180  1  0  0  0
 73181  1  0  0  0
 74182  1  0  0  0
 74183  1  0  0  0
 74184  1  0  0  0
 75185  1  0  0  0
 76186  1  0  0  0
 79187  1  0  0  0
 79188  1  0  0  0
 82189  1  0  0  0
 83190  1  0  0  0
 85191  1  0  0  0
 86192  1  0  0  0
 89193  1  0  0  0
 90194  1  0  0  0
 90195  1  0  0  0
 91196  1  0  0  0
 91197  1  0  0  0
 91198  1  0  0  0
 92199  1  0  0  0
 92200  1  0  0  0
 92201  1  0  0  0
 93202  1  0  0  0
 94203  1  0  0  0
 97204  1  0  0  0
 97205  1  0  0  0
 99206  1  0  0  0
100207  1  0  0  0
101208  1  0  0  0
102209  1  0  0  0
104210  1  0  0  0
105211  1  0  0  0
105212  1  0  0  0
M  END
$$$$
