### 
### Created by X-TOOL on Mon Sep 10 21:13:23 2018
### 

@<TRIPOS>MOLECULE
4odn_ligand
  214   217     1     0     0
SMALL
GAST_HUCK


@<TRIPOS>ATOM
      1 N          -5.4200  -25.8730    2.0170 N.4       1 PHE         0.2394
      2 CA         -5.6090  -26.7570    0.8650 C.3       1 PHE         0.0744
      3 C          -5.3260  -28.2210    1.1940 C.2       1 PHE         0.2288
      4 O          -4.4310  -28.5330    1.9890 O.2       1 PHE        -0.3905
      5 CB         -4.6960  -26.3500   -0.2990 C.3       1 PHE         0.0416
      6 CG         -4.9850  -24.9890   -0.8600 C.ar      1 PHE        -0.0353
      7 CD1        -6.1630  -24.7460   -1.5550 C.ar      1 PHE        -0.0600
      8 CD2        -4.0670  -23.9590   -0.7180 C.ar      1 PHE        -0.0600
      9 CE1        -6.4310  -23.4970   -2.0800 C.ar      1 PHE        -0.0686
     10 CE2        -4.3290  -22.7010   -1.2410 C.ar      1 PHE        -0.0686
     11 CZ         -5.5110  -22.4710   -1.9220 C.ar      1 PHE        -0.0687
     12 N          -6.0880  -29.1120    0.5630 N.am      1 ILE        -0.2606
     13 CA         -5.7860  -30.5370    0.5910 C.3       1 ILE         0.1336
     14 C          -5.3920  -30.9690   -0.8230 C.2       1 ILE         0.2043
     15 O          -4.2120  -31.1830   -1.0990 O.2       1 ILE        -0.3944
     16 CB         -6.9530  -31.3620    1.1690 C.3       1 ILE        -0.0037
     17 CG1        -7.2170  -30.9290    2.6150 C.3       1 ILE        -0.0491
     18 CG2        -6.6320  -32.8430    1.1350 C.3       1 ILE        -0.0582
     19 CD1        -8.2670  -31.7440    3.3400 C.3       1 ILE        -0.0648
     20 N          -6.3600  -31.0380   -1.7310 N.am      1 PHE        -0.2619
     21 CA         -6.0480  -31.3290   -3.1300 C.3       1 PHE         0.1404
     22 C          -6.1800  -30.1120   -4.0580 C.2       1 PHE         0.2058
     23 O          -5.9230  -30.2080   -5.2580 O.2       1 PHE        -0.3942
     24 CB         -6.9240  -32.4770   -3.6410 C.3       1 PHE         0.0214
     25 CG         -6.5250  -33.8310   -3.1130 C.ar      1 PHE        -0.0386
     26 CD1        -5.3490  -34.4350   -3.5360 C.ar      1 PHE        -0.0601
     27 CD2        -7.3350  -34.5120   -2.2120 C.ar      1 PHE        -0.0601
     28 CE1        -4.9800  -35.6850   -3.0670 C.ar      1 PHE        -0.0686
     29 CE2        -6.9700  -35.7720   -1.7360 C.ar      1 PHE        -0.0686
     30 CZ         -5.7860  -36.3540   -2.1710 C.ar      1 PHE        -0.0687
     31 N          -6.5540  -28.9680   -3.4960 N.am      1 GLY        -0.2663
     32 CA         -6.9280  -27.8140   -4.2980 C.3       1 GLY         0.1201
     33 C          -5.8880  -26.7710   -4.6880 C.2       1 GLY         0.2007
     34 O          -6.2010  -25.8860   -5.4890 O.2       1 GLY        -0.3947
     35 N          -4.6690  -26.8490   -4.1520 N.am      1 ALA        -0.2642
     36 CA         -3.6570  -25.8270   -4.4530 C.3       1 ALA         0.1282
     37 C          -3.3140  -25.7720   -5.9390 C.2       1 ALA         0.2036
     38 O          -3.2080  -24.6890   -6.5160 O.2       1 ALA        -0.3944
     39 CB         -2.4000  -26.0450   -3.6300 C.3       1 ALA        -0.0244
     40 N          -3.1610  -26.9460   -6.5500 N.am      1 ARG        -0.2637
     41 CA         -2.7830  -27.0570   -7.9600 C.3       1 ARG         0.1311
     42 C          -3.7680  -26.3820   -8.9140 C.2       1 ARG         0.2040
     43 O          -3.4370  -26.1130  -10.0680 O.2       1 ARG        -0.3944
     44 CB         -2.5940  -28.5270   -8.3490 C.3       1 ARG        -0.0092
     45 CG         -1.3610  -29.1700   -7.7350 C.3       1 ARG        -0.0156
     46 CD         -1.3640  -30.6790   -7.9130 C.3       1 ARG         0.0627
     47 NE         -0.2630  -31.3180   -7.1970 N.pl3     1 ARG        -0.2723
     48 CZ         -0.1010  -32.6350   -7.1000 C.cat     1 ARG         0.2882
     49 NH1        -0.9730  -33.4550   -7.6730 N.pl3     1 ARG        -0.2849
     50 NH2         0.9310  -33.1340   -6.4310 N.pl3     1 ARG        -0.2849
     51 N          -4.9750  -26.1080   -8.4270 N.am      1 ASN        -0.2616
     52 CA         -5.9870  -25.4340   -9.2280 C.3       1 ASN         0.1476
     53 C          -6.3050  -24.0300   -8.7220 C.2       1 ASN         0.2063
     54 O          -6.8000  -23.1940   -9.4760 O.2       1 ASN        -0.3942
     55 CB         -7.2720  -26.2630   -9.2640 C.3       1 ASN         0.0773
     56 CG         -7.0760  -27.6080   -9.9270 C.2       1 ASN         0.1780
     57 OD1        -6.2850  -27.7430  -10.8610 O.2       1 ASN        -0.3970
     58 ND2        -7.7970  -28.6160   -9.4460 N.am      1 ASN        -0.3007
     59 N          -6.0050  -23.7700   -7.4530 N.am      1 LYS        -0.2636
     60 CA         -6.5220  -22.5790   -6.7850 C.3       1 LYS         0.1310
     61 C          -5.5140  -21.4790   -6.4080 C.2       1 LYS         0.2039
     62 O          -5.8420  -20.6230   -5.5980 O.2       1 LYS        -0.3944
     63 CB         -7.3300  -22.9740   -5.5390 C.3       1 LYS        -0.0122
     64 CG         -8.6440  -23.6960   -5.8290 C.3       1 LYS        -0.0440
     65 CD         -9.3110  -24.1550   -4.5370 C.3       1 LYS        -0.0124
     66 CE        -10.6140  -24.8890   -4.8160 C.3       1 LYS        -0.0354
     67 NZ        -11.2320  -25.4380   -3.5770 N.4       1 LYS         0.2185
     68 N          -4.3150  -21.4750   -6.9840 N.am      1 VAL        -0.2635
     69 CA         -3.3740  -20.3740   -6.7260 C.3       1 VAL         0.1333
     70 C          -2.8950  -19.6830   -8.0220 C.2       1 VAL         0.2042
     71 O          -2.4860  -20.3590   -8.9640 O.2       1 VAL        -0.3944
     72 CB         -2.1940  -20.8670   -5.8630 C.3       1 VAL        -0.0063
     73 CG1        -1.0910  -19.8440   -5.7760 C.3       1 VAL        -0.0584
     74 CG2        -2.6870  -21.2340   -4.4710 C.3       1 VAL        -0.0584
     75 N          -2.9920  -18.3480   -8.0720 N.am      1 HIS        -0.2625
     76 CA         -2.4130  -17.5290   -9.1480 C.3       1 HIS         0.1369
     77 C          -1.1030  -16.9140   -8.6520 C.2       1 HIS         0.2054
     78 O          -1.0760  -16.3040   -7.5900 O.2       1 HIS        -0.3942
     79 CB         -3.3340  -16.3640   -9.5270 C.3       1 HIS         0.0145
     80 CG         -4.6530  -16.7740  -10.0990 C.2       1 HIS        -0.0027
     81 ND1        -4.7720  -17.4580  -11.2900 N.2       1 HIS        -0.3252
     82 CD2        -5.9150  -16.5560   -9.6630 C.2       1 HIS         0.0291
     83 CE1        -6.0500  -17.6640  -11.5520 C.2       1 HIS         0.0907
     84 NE2        -6.7650  -17.1230  -10.5810 N.pl3     1 HIS        -0.2752
     85 N          -0.0360  -17.0400   -9.4330 N.am      1 ILE        -0.2634
     86 CA          1.2830  -16.5700   -9.0180 C.3       1 ILE         0.1335
     87 C           1.7510  -15.3780   -9.8520 C.2       1 ILE         0.2043
     88 O           1.7940  -15.4490  -11.0800 O.2       1 ILE        -0.3944
     89 CB          2.3040  -17.7100   -9.1180 C.3       1 ILE        -0.0037
     90 CG1         1.8100  -18.9060   -8.3010 C.3       1 ILE        -0.0491
     91 CG2         3.6780  -17.2400   -8.6510 C.3       1 ILE        -0.0582
     92 CD1         2.6870  -20.1250   -8.3920 C.3       1 ILE        -0.0648
     93 N           2.1060  -14.2790   -9.1910 N.am      1 TYR        -0.2621
     94 CA          2.4770  -13.0780   -9.9300 C.3       1 TYR         0.1387
     95 C           3.9290  -12.6800   -9.7300 C.2       1 TYR         0.2010
     96 O           4.5590  -12.1520  -10.6480 O.2       1 TYR        -0.3946
     97 CB          1.5370  -11.9200   -9.5810 C.3       1 TYR         0.0163
     98 CG          0.0880  -12.2670   -9.8090 C.ar      1 TYR        -0.0493
     99 CD1        -0.4340  -12.3080  -11.0970 C.ar      1 TYR        -0.0685
    100 CD2        -0.7620  -12.5550   -8.7510 C.ar      1 TYR        -0.0685
    101 CE1        -1.7510  -12.6350  -11.3260 C.ar      1 TYR        -0.0398
    102 CE2        -2.0940  -12.8790   -8.9750 C.ar      1 TYR        -0.0398
    103 CZ         -2.5780  -12.9120  -10.2730 C.ar      1 TYR         0.0805
    104 OH         -3.8910  -13.2350  -10.5250 O.3       1 TYR        -0.3376
    105 N           4.4600  -12.9370   -8.5370 N.am      1 NH2        -0.2988
    106 H1         -5.6187  -24.9223    1.7472 H         1 PHE         0.2017
    107 H2         -4.4668  -25.9388    2.3382 H         1 PHE         0.2017
    108 H3         -6.0443  -26.1493    2.7586 H         1 PHE         0.2017
    109 H4         -6.6565  -26.6690    0.5409 H         1 PHE         0.1122
    110 H5         -4.8156  -27.0882   -1.1057 H         1 PHE         0.0507
    111 H6         -3.6556  -26.3622    0.0580 H         1 PHE         0.0507
    112 H7         -6.8812  -25.5471   -1.6870 H         1 PHE         0.0557
    113 H8         -3.1357  -24.1387   -0.1932 H         1 PHE         0.0557
    114 H9         -7.3575  -23.3190   -2.6139 H         1 PHE         0.0599
    115 H10        -3.6092  -21.9001   -1.1163 H         1 PHE         0.0599
    116 H11        -5.7182  -21.4892   -2.3321 H         1 PHE         0.0559
    117 H12        -6.8894  -28.7945    0.0561 H         1 ILE         0.1885
    118 H13        -4.9182  -30.6923    1.2489 H         1 ILE         0.0803
    119 H14        -7.8542  -31.1779    0.5657 H         1 ILE         0.0345
    120 H15        -7.5463  -29.8795    2.6033 H         1 ILE         0.0267
    121 H16        -6.2735  -31.0111    3.1745 H         1 ILE         0.0267
    122 H17        -6.4426  -33.1533    0.0968 H         1 ILE         0.0235
    123 H18        -7.4827  -33.4119    1.5383 H         1 ILE         0.0235
    124 H19        -5.7378  -33.0385    1.7451 H         1 ILE         0.0235
    125 H20        -8.3859  -31.3608    4.3642 H         1 ILE         0.0230
    126 H21        -7.9526  -32.7974    3.3769 H         1 ILE         0.0230
    127 H22        -9.2253  -31.6659    2.8057 H         1 ILE         0.0230
    128 H23        -7.3098  -30.8897   -1.4554 H         1 PHE         0.1885
    129 H24        -4.9992  -31.6584   -3.1692 H         1 PHE         0.0823
    130 H25        -6.8587  -32.5004   -4.7388 H         1 PHE         0.0474
    131 H26        -7.9634  -32.2803   -3.3396 H         1 PHE         0.0474
    132 H27        -4.7096  -33.9206   -4.2442 H         1 PHE         0.0557
    133 H28        -8.2606  -34.0593   -1.8753 H         1 PHE         0.0557
    134 H29        -4.0552  -36.1382   -3.4054 H         1 PHE         0.0599
    135 H30        -7.6068  -36.2937   -1.0308 H         1 PHE         0.0599
    136 H31        -5.4964  -37.3329   -1.8063 H         1 PHE         0.0559
    137 H32        -6.5789  -28.8987   -2.4987 H         1 GLY         0.1881
    138 H33        -7.7121  -27.2827   -3.7386 H         1 GLY         0.0763
    139 H34        -7.3482  -28.2055   -5.2362 H         1 GLY         0.0763
    140 H35        -4.4424  -27.6078   -3.5414 H         1 ALA         0.1883
    141 H36        -4.0793  -24.8509   -4.1722 H         1 ALA         0.0797
    142 H37        -1.6617  -25.2674   -3.8754 H         1 ALA         0.0277
    143 H38        -1.9792  -27.0353   -3.8586 H         1 ALA         0.0277
    144 H39        -2.6483  -25.9902   -2.5598 H         1 ALA         0.0277
    145 H40        -3.3102  -27.7840   -6.0251 H         1 ARG         0.1883
    146 H41        -1.8145  -26.5491   -8.0780 H         1 ARG         0.0800
    147 H42        -2.5081  -28.5878   -9.4439 H         1 ARG         0.0313
    148 H43        -3.4795  -29.0898   -8.0188 H         1 ARG         0.0313
    149 H44        -1.3365  -28.9383   -6.6600 H         1 ARG         0.0301
    150 H45        -0.4646  -28.7561   -8.2199 H         1 ARG         0.0301
    151 H46        -1.2720  -30.9101   -8.9845 H         1 ARG         0.0689
    152 H47        -2.3150  -31.0794   -7.5318 H         1 ARG         0.0689
    153 H48         0.4315  -30.7111   -6.7385 H         1 ARG         0.2642
    154 H49        -0.8474  -34.4745   -7.5978 H         1 ARG         0.2615
    155 H50        -1.7754  -33.0719   -8.1929 H         1 ARG         0.2615
    156 H51         1.6101  -32.5011   -5.9848 H         1 ARG         0.2615
    157 H52         1.0528  -34.1542   -6.3580 H         1 ARG         0.2615
    158 H53        -5.1929  -26.3715   -7.4873 H         1 ASN         0.1885
    159 H54        -5.6000  -25.3455  -10.2539 H         1 ASN         0.0826
    160 H55        -8.0373  -25.7032   -9.8216 H         1 ASN         0.0551
    161 H56        -7.6159  -26.4255   -8.2319 H         1 ASN         0.0551
    162 H57        -7.7091  -29.5287   -9.8451 H         1 ASN         0.1814
    163 H58        -8.4272  -28.4615   -8.6851 H         1 ASN         0.1814
    164 H59        -5.4156  -24.4005   -6.9478 H         1 LYS         0.1883
    165 H60        -7.2211  -22.1170   -7.4975 H         1 LYS         0.0800
    166 H61        -7.5604  -22.0575   -4.9761 H         1 LYS         0.0312
    167 H62        -6.7050  -23.6361   -4.9218 H         1 LYS         0.0312
    168 H63        -8.4408  -24.5735   -6.4604 H         1 LYS         0.0269
    169 H64        -9.3214  -23.0111   -6.3600 H         1 LYS         0.0269
    170 H65        -9.5226  -23.2754   -3.9112 H         1 LYS         0.0317
    171 H66        -8.6274  -24.8302   -4.0015 H         1 LYS         0.0317
    172 H67       -10.4105  -25.7199   -5.5075 H         1 LYS         0.0813
    173 H68       -11.3215  -24.1881   -5.2831 H         1 LYS         0.0813
    174 H69       -12.0893  -25.9135   -3.8114 H         1 LYS         0.1994
    175 H70       -11.4299  -24.6842   -2.9377 H         1 LYS         0.1994
    176 H71       -10.5951  -26.0879   -3.1434 H         1 LYS         0.1994
    177 H72        -4.0525  -22.2225   -7.5942 H         1 VAL         0.1883
    178 H73        -3.9137  -19.6153   -6.1403 H         1 VAL         0.0802
    179 H74        -1.7815  -21.7713   -6.3344 H         1 VAL         0.0343
    180 H75        -0.2742  -20.2376   -5.1532 H         1 VAL         0.0234
    181 H76        -1.4826  -18.9199   -5.3259 H         1 VAL         0.0234
    182 H77        -0.7110  -19.6278   -6.7854 H         1 VAL         0.0234
    183 H78        -3.4908  -21.9806   -4.5517 H         1 VAL         0.0234
    184 H79        -3.0717  -20.3340   -3.9691 H         1 VAL         0.0234
    185 H80        -1.8550  -21.6528   -3.8859 H         1 VAL         0.0234
    186 H81        -3.4853  -17.8824   -7.3372 H         1 HIS         0.1885
    187 H82        -2.2294  -18.1608  -10.0295 H         1 HIS         0.0817
    188 H83        -2.8144  -15.7444  -10.2727 H         1 HIS         0.0420
    189 H84        -3.5229  -15.7676   -8.6222 H         1 HIS         0.0420
    190 H85        -6.2031  -16.0295   -8.7543 H         1 HIS         0.0729
    191 H86        -6.4466  -18.1895  -12.4194 H         1 HIS         0.1199
    192 H87        -7.7933  -17.1261  -10.5222 H         1 HIS         0.2361
    193 H88        -0.1388  -17.4688  -10.3305 H         1 ILE         0.1883
    194 H89         1.2179  -16.2498   -7.9677 H         1 ILE         0.0803
    195 H90         2.3857  -18.0178  -10.1709 H         1 ILE         0.0345
    196 H91         0.8061  -19.1768   -8.6598 H         1 ILE         0.0267
    197 H92         1.7524  -18.6016   -7.2455 H         1 ILE         0.0267
    198 H93         3.9985  -16.3818   -9.2600 H         1 ILE         0.0235
    199 H94         4.4032  -18.0596   -8.7621 H         1 ILE         0.0235
    200 H95         3.6232  -16.9396   -7.5942 H         1 ILE         0.0235
    201 H96         2.2592  -20.9311   -7.7779 H         1 ILE         0.0230
    202 H97         3.6947  -19.8800   -8.0251 H         1 ILE         0.0230
    203 H98         2.7483  -20.4553   -9.4394 H         1 ILE         0.0230
    204 H99         2.1183  -14.2768   -8.1911 H         1 TYR         0.1885
    205 H100        2.3471  -13.3011  -10.9993 H         1 TYR         0.0821
    206 H101        1.7956  -11.0539  -10.2079 H         1 TYR         0.0453
    207 H102        1.6753  -11.6599   -8.5212 H         1 TYR         0.0453
    208 H103        0.2097  -12.0776  -11.9382 H         1 TYR         0.0530
    209 H104       -0.3817  -12.5268   -7.7363 H         1 TYR         0.0530
    210 H105       -2.1323  -12.6729  -12.3400 H         1 TYR         0.0525
    211 H106       -2.7494  -13.1041   -8.1414 H         1 TYR         0.0525
    212 H107       -4.4589  -12.6099  -10.0899 H         1 TYR         0.2458
    213 H108        5.4125  -12.6956   -8.3511 H         1 NH2         0.1815
    214 H109        3.9065  -13.3715   -7.8265 H         1 NH2         0.1815
@<TRIPOS>BOND
     1    1    2 1  
     2    2    3 1  
     3    2    5 1  
     4    3    4 2  
     5    3   12 am 
     6    5    6 1  
     7    6    7 ar 
     8    6    8 ar 
     9    7    9 ar 
    10    8   10 ar 
    11    9   11 ar 
    12   10   11 ar 
    13   12   13 1  
    14   13   14 1  
    15   13   16 1  
    16   14   15 2  
    17   14   20 am 
    18   16   17 1  
    19   16   18 1  
    20   17   19 1  
    21   20   21 1  
    22   21   22 1  
    23   21   24 1  
    24   22   23 2  
    25   22   31 am 
    26   24   25 1  
    27   25   26 ar 
    28   25   27 ar 
    29   26   28 ar 
    30   27   29 ar 
    31   28   30 ar 
    32   29   30 ar 
    33   31   32 1  
    34   32   33 1  
    35   33   34 2  
    36   33   35 am 
    37   35   36 1  
    38   36   37 1  
    39   36   39 1  
    40   37   38 2  
    41   37   40 am 
    42   40   41 1  
    43   41   42 1  
    44   41   44 1  
    45   42   43 2  
    46   42   51 am 
    47   44   45 1  
    48   45   46 1  
    49   46   47 1  
    50   47   48 ar 
    51   48   49 ar 
    52   48   50 ar 
    53   51   52 1  
    54   52   53 1  
    55   52   55 1  
    56   53   54 2  
    57   53   59 am 
    58   55   56 1  
    59   56   57 2  
    60   56   58 am 
    61   59   60 1  
    62   60   61 1  
    63   60   63 1  
    64   61   62 2  
    65   61   68 am 
    66   63   64 1  
    67   64   65 1  
    68   65   66 1  
    69   66   67 1  
    70   68   69 1  
    71   69   70 1  
    72   69   72 1  
    73   70   71 2  
    74   70   75 am 
    75   72   73 1  
    76   72   74 1  
    77   75   76 1  
    78   76   77 1  
    79   76   79 1  
    80   77   78 2  
    81   77   85 am 
    82   79   80 1  
    83   80   81 1  
    84   80   82 2  
    85   81   83 2  
    86   82   84 1  
    87   83   84 1  
    88   85   86 1  
    89   86   87 1  
    90   86   89 1  
    91   87   88 2  
    92   87   93 am 
    93   89   90 1  
    94   89   91 1  
    95   90   92 1  
    96   93   94 1  
    97   94   95 1  
    98   94   97 1  
    99   95   96 2  
   100   95  105 am 
   101   97   98 1  
   102   98   99 ar 
   103   98  100 ar 
   104   99  101 ar 
   105  100  102 ar 
   106  101  103 ar 
   107  102  103 ar 
   108  103  104 1  
   109    1  106 1  
   110    1  107 1  
   111    1  108 1  
   112    2  109 1  
   113    5  110 1  
   114    5  111 1  
   115    7  112 1  
   116    8  113 1  
   117    9  114 1  
   118   10  115 1  
   119   11  116 1  
   120   12  117 1  
   121   13  118 1  
   122   16  119 1  
   123   17  120 1  
   124   17  121 1  
   125   18  122 1  
   126   18  123 1  
   127   18  124 1  
   128   19  125 1  
   129   19  126 1  
   130   19  127 1  
   131   20  128 1  
   132   21  129 1  
   133   24  130 1  
   134   24  131 1  
   135   26  132 1  
   136   27  133 1  
   137   28  134 1  
   138   29  135 1  
   139   30  136 1  
   140   31  137 1  
   141   32  138 1  
   142   32  139 1  
   143   35  140 1  
   144   36  141 1  
   145   39  142 1  
   146   39  143 1  
   147   39  144 1  
   148   40  145 1  
   149   41  146 1  
   150   44  147 1  
   151   44  148 1  
   152   45  149 1  
   153   45  150 1  
   154   46  151 1  
   155   46  152 1  
   156   47  153 1  
   157   49  154 1  
   158   49  155 1  
   159   50  156 1  
   160   50  157 1  
   161   51  158 1  
   162   52  159 1  
   163   55  160 1  
   164   55  161 1  
   165   58  162 1  
   166   58  163 1  
   167   59  164 1  
   168   60  165 1  
   169   63  166 1  
   170   63  167 1  
   171   64  168 1  
   172   64  169 1  
   173   65  170 1  
   174   65  171 1  
   175   66  172 1  
   176   66  173 1  
   177   67  174 1  
   178   67  175 1  
   179   67  176 1  
   180   68  177 1  
   181   69  178 1  
   182   72  179 1  
   183   73  180 1  
   184   73  181 1  
   185   73  182 1  
   186   74  183 1  
   187   74  184 1  
   188   74  185 1  
   189   75  186 1  
   190   76  187 1  
   191   79  188 1  
   192   79  189 1  
   193   82  190 1  
   194   83  191 1  
   195   84  192 1  
   196   85  193 1  
   197   86  194 1  
   198   89  195 1  
   199   90  196 1  
   200   90  197 1  
   201   91  198 1  
   202   91  199 1  
   203   91  200 1  
   204   92  201 1  
   205   92  202 1  
   206   92  203 1  
   207   93  204 1  
   208   94  205 1  
   209   97  206 1  
   210   97  207 1  
   211   99  208 1  
   212  100  209 1  
   213  101  210 1  
   214  102  211 1  
   215  104  212 1  
   216  105  213 1  
   217  105  214 1  
@<TRIPOS>SUBSTRUCTURE
     1 PHE         1

