1gja_ligand
  -I-interpret- 

 32 33  0  0  0  0  0  0  0  0999 V2000
    8.6090    0.5270   25.3730 C   0  0  0  0  0
    9.4400    0.6780   24.2510 C   0  0  0  0  0
    9.8880    1.9150   23.8390 C   0  0  0  0  0
    9.5050    3.0280   24.5500 C   0  0  0  0  0
    8.6900    2.9550   25.6560 C   0  0  0  0  0
    8.2410    1.7030   26.0610 C   0  0  0  0  0
    8.1680   -0.7360   25.7880 C   0  0  0  0  0
    7.5160   -0.8470   26.9160 N   0  0  0  0  0
    8.4100   -1.7900   25.0590 N   0  0  0  0  0
   10.0240    4.1440   24.0940 N   0  0  0  0  0
    9.5920    5.3670   24.3100 C   0  0  0  0  0
    8.6100    5.6680   24.9770 O   0  0  0  0  0
   10.3990    6.3420   23.6500 C   0  0  0  0  0
    9.9210    7.6630   23.6150 C   0  0  0  0  0
   10.6100    8.6750   22.9700 C   0  0  0  0  0
   11.8340    8.4290   22.3750 C   0  0  0  0  0
   12.3510    7.1460   22.3840 C   0  0  0  0  0
   11.6740    6.1070   23.0230 C   0  0  0  0  0
   12.3300    4.8830   22.9660 O   0  0  0  0  0
    9.7391   -0.2075   23.6903 H   0  0  0  0  0
   10.5338    2.0090   22.9659 H   0  0  0  0  0
    8.4039    3.8549   26.2004 H   0  0  0  0  0
    7.5888    1.6279   26.9311 H   0  0  0  0  0
    7.1933   -1.7620   27.2306 H   0  0  0  0  0
    7.3301   -0.0186   27.4813 H   0  0  0  0  0
    8.0901   -2.7080   25.3677 H   0  0  0  0  0
   10.8536    4.0525   23.5076 H   0  0  0  0  0
    8.9791    7.8976   24.1109 H   0  0  0  0  0
   10.1833    9.6772   22.9304 H   0  0  0  0  0
   12.3874    9.2404   21.9023 H   0  0  0  0  0
   13.2992    6.9443   21.8856 H   0  0  0  0  0
   13.1603    4.9878   22.4956 H   0  0  0  0  0
  7  1  1  0  0  0
  1  6  4  0  0  0
  1  2  4  0  0  0
  2  3  4  0  0  0
  3  4  4  0  0  0
  4 10  1  0  0  0
  4  5  4  0  0  0
  6  5  4  0  0  0
 10 11  1  0  0  0
 11 13  1  0  0  0
 11 12  2  0  0  0
 13 18  4  0  0  0
 13 14  4  0  0  0
 14 15  4  0  0  0
 15 16  4  0  0  0
 16 17  4  0  0  0
 18 17  4  0  0  0
 18 19  1  0  0  0
  7  9  2  0  0  0
  7  8  1  0  0  0
  2 20  1  0  0  0
  3 21  1  0  0  0
  5 22  1  0  0  0
  6 23  1  0  0  0
  8 24  1  0  0  0
  8 25  1  0  0  0
  9 26  1  0  0  0
 10 27  1  0  0  0
 14 28  1  0  0  0
 15 29  1  0  0  0
 16 30  1  0  0  0
 17 31  1  0  0  0
 19 32  1  0  0  0
M  END
$$$$
