4ddl_ligand
  -I-interpret- 

 61 64  0  0  0  0  0  0  0  0999 V2000
   13.9930   85.8360   36.8520 C   0  0  0  0  0
   14.0270   86.5200   38.1130 O   0  0  0  0  0
   13.1380   87.4590   38.3380 C   0  0  0  0  0
   12.2280   87.8650   37.4010 C   0  0  0  0  0
   13.1810   88.0670   39.5590 C   0  0  0  0  0
   14.1010   87.6500   40.4190 O   0  0  0  0  0
   13.9110   88.1760   41.7460 C   0  0  0  0  0
   12.3080   89.0760   39.8570 C   0  0  0  0  0
   11.3440   89.4310   38.9490 C   0  0  0  0  0
   11.3520   88.8840   37.6970 C   0  0  0  0  0
   10.4740   89.2930   36.8020 N   0  0  0  0  0
    9.7030   90.1800   37.0580 N   0  0  0  0  0
    9.6660   90.7980   38.2020 C   0  0  0  0  0
   10.5840   90.5290   39.1750 C   0  0  0  0  0
   10.5120   91.1180   40.4100 C   0  0  0  0  0
   10.2510   90.4350   41.5520 C   0  0  0  0  0
   10.0980   91.1000   42.7380 C   0  0  0  0  0
    9.9010   90.3180   44.0250 C   0  0  0  0  0
   10.3680   92.4530   40.4940 C   0  0  0  0  0
   10.3120   93.0790   41.6180 N   0  0  0  0  0
   10.1100   92.4650   42.7470 C   0  0  0  0  0
   10.0090   93.2130   43.8970 N   0  0  0  0  0
    9.6660   94.6040   43.8560 C   0  0  0  0  0
    9.4430   95.2150   45.2330 C   0  0  0  0  0
   10.7570   92.7470   45.0370 C   0  0  0  0  0
   10.4160   93.4030   46.3550 C   0  0  0  0  0
   10.5700   94.8770   46.1980 C   0  0  0  0  0
   10.4340   95.6790   47.5010 C   0  0  0  0  0
   11.2050   95.1190   48.6510 C   0  0  0  0  0
    8.9970   95.8000   47.9260 C   0  0  0  0  0
   10.8170   96.9940   47.1790 O   0  0  0  0  0
   13.0284   85.3424   36.7337 H   0  0  0  0  0
   14.1357   86.5556   36.0458 H   0  0  0  0  0
   14.7892   85.0922   36.8220 H   0  0  0  0  0
   12.1969   87.3833   36.4237 H   0  0  0  0  0
   13.9564   89.2646   41.7139 H   0  0  0  0  0
   12.9378   87.8626   42.1238 H   0  0  0  0  0
   14.6956   87.7975   42.4012 H   0  0  0  0  0
   12.3781   89.5960   40.8124 H   0  0  0  0  0
    8.8905   91.5415   38.3860 H   0  0  0  0  0
   10.1625   89.3489   41.5250 H   0  0  0  0  0
    9.0005   89.7092   43.9445 H   0  0  0  0  0
   10.7635   89.6729   44.1923 H   0  0  0  0  0
    9.7981   91.0127   44.8586 H   0  0  0  0  0
   10.2957   93.0292   39.5716 H   0  0  0  0  0
    8.7318   94.6951   43.3018 H   0  0  0  0  0
   10.4989   95.1335   43.3934 H   0  0  0  0  0
    8.5154   94.8108   45.6383 H   0  0  0  0  0
    9.4037   96.2986   45.1220 H   0  0  0  0  0
   11.8028   92.9800   44.8370 H   0  0  0  0  0
   10.5229   91.6883   45.1487 H   0  0  0  0  0
   11.0821   93.0388   47.1372 H   0  0  0  0  0
    9.3913   93.1623   46.6383 H   0  0  0  0  0
   11.5708   95.1397   45.8552 H   0  0  0  0  0
   10.8582   94.1072   48.8610 H   0  0  0  0  0
   12.2653   95.0961   48.3992 H   0  0  0  0  0
   11.0523   95.7464   49.5291 H   0  0  0  0  0
    8.4304   96.3089   47.1462 H   0  0  0  0  0
    8.5822   94.8050   48.0877 H   0  0  0  0  0
    8.9401   96.3735   48.8512 H   0  0  0  0  0
   10.7515   97.5459   47.9617 H   0  0  0  0  0
  1  2  1  0  0  0
  2  3  1  0  0  0
  3  4  4  0  0  0
  3  5  4  0  0  0
  4 10  4  0  0  0
  5  6  1  0  0  0
  5  8  4  0  0  0
  6  7  1  0  0  0
  8  9  4  0  0  0
  9 10  4  0  0  0
  9 14  4  0  0  0
 10 11  4  0  0  0
 11 12  4  0  0  0
 12 13  4  0  0  0
 13 14  4  0  0  0
 14 15  1  0  0  0
 15 16  4  0  0  0
 15 19  4  0  0  0
 16 17  4  0  0  0
 17 18  1  0  0  0
 17 21  4  0  0  0
 19 20  4  0  0  0
 20 21  4  0  0  0
 21 22  1  0  0  0
 22 23  1  0  0  0
 22 25  1  0  0  0
 23 24  1  0  0  0
 24 27  1  0  0  0
 25 26  1  0  0  0
 26 27  1  0  0  0
 27 28  1  0  0  0
 28 29  1  0  0  0
 28 30  1  0  0  0
 28 31  1  0  0  0
  1 32  1  0  0  0
  1 33  1  0  0  0
  1 34  1  0  0  0
  4 35  1  0  0  0
  7 36  1  0  0  0
  7 37  1  0  0  0
  7 38  1  0  0  0
  8 39  1  0  0  0
 13 40  1  0  0  0
 16 41  1  0  0  0
 18 42  1  0  0  0
 18 43  1  0  0  0
 18 44  1  0  0  0
 19 45  1  0  0  0
 23 46  1  0  0  0
 23 47  1  0  0  0
 24 48  1  0  0  0
 24 49  1  0  0  0
 25 50  1  0  0  0
 25 51  1  0  0  0
 26 52  1  0  0  0
 26 53  1  0  0  0
 27 54  1  0  0  0
 29 55  1  0  0  0
 29 56  1  0  0  0
 29 57  1  0  0  0
 30 58  1  0  0  0
 30 59  1  0  0  0
 30 60  1  0  0  0
 31 61  1  0  0  0
M  END
$$$$
