5chk_ligand
  -I-interpret- 

 28 29  0  0  0  0  0  0  0  0999 V2000
   13.9350    4.4840   28.7080 O   0  0  0  0  0
   13.6490    3.2400   30.4740 O   0  0  0  0  0
   13.2990    3.6020   29.3300 C   0  0  0  0  0
   12.0750    2.9800   28.7120 C   0  0  0  0  0
   11.3590    1.9380   29.3090 C   0  0  0  0  0
   10.2370    1.4040   28.6890 C   0  0  0  0  0
    9.8300    1.9070   27.4700 C   0  0  0  0  0
   10.5480    2.9250   26.8630 C   0  0  0  0  0
   11.6570    3.4720   27.4860 C   0  0  0  0  0
   12.0170   -1.6800   36.0100 O   0  0  0  0  0
   11.8030   -1.1680   34.8820 C   0  0  0  0  0
   10.6090   -1.5600   34.1190 C   0  0  0  0  0
   10.3650   -0.9920   32.8970 C   0  0  0  0  0
   12.7220   -0.1610   34.3230 C   0  0  0  0  0
   12.4680    0.4140   33.1020 C   0  0  0  0  0
   11.2780    0.0130   32.3270 C   0  0  0  0  0
   10.9690    0.4980   31.1460 N   0  0  0  0  0
   11.7330    1.4150   30.5500 N   0  0  0  0  0
   13.5238    4.6305   27.8530 H   0  0  0  0  0
    9.6819    0.5937   29.1616 H   0  0  0  0  0
    8.9421    1.5028   26.9838 H   0  0  0  0  0
   10.2372    3.2982   25.8872 H   0  0  0  0  0
   12.2009    4.2892   27.0122 H   0  0  0  0  0
    9.9199   -2.3006   34.5248 H   0  0  0  0  0
    9.4789   -1.2892   32.3361 H   0  0  0  0  0
   13.6107    0.1299   34.8831 H   0  0  0  0  0
   13.1470    1.1683   32.7044 H   0  0  0  0  0
   12.5906    1.7346   31.0003 H   0  0  0  0  0
  3  1  1  0  0  0
  3  2  2  0  0  0
  4  3  1  0  0  0
  5  4  4  0  0  0
  4  9  4  0  0  0
  5  6  4  0  0  0
 18  5  1  0  0  0
  6  7  4  0  0  0
  7  8  4  0  0  0
  9  8  4  0  0  0
 11 10  2  0  0  0
 12 11  1  0  0  0
 14 11  1  0  0  0
 13 12  2  0  0  0
 16 13  1  0  0  0
 15 14  2  0  0  0
 16 15  1  0  0  0
 17 16  2  0  0  0
 17 18  1  0  0  0
  1 19  1  0  0  0
  6 20  1  0  0  0
  7 21  1  0  0  0
  8 22  1  0  0  0
  9 23  1  0  0  0
 12 24  1  0  0  0
 13 25  1  0  0  0
 14 26  1  0  0  0
 15 27  1  0  0  0
 18 28  1  0  0  0
M  END
$$$$
