5uf0_ligand
  -I-interpret- 

 29 30  0  0  0  0  0  0  0  0999 V2000
  -15.6340   11.3610    2.6740 C   0  0  0  0  0
  -15.7860   13.2590    1.1940 C   0  0  0  0  0
  -15.0710   12.1980    1.7310 C   0  0  0  0  0
  -11.4610   12.7050    0.8410 C   0  0  0  0  0
  -13.7090   11.9320    1.2410 C   0  0  0  0  0
  -11.2990   11.5000    0.0010 C   0  0  0  0  0
  -17.6410   12.6710    2.5780 C   0  0  0  0  0
  -16.9280   11.6090    3.1060 C   0  0  0  0  0
  -17.0800   13.4980    1.6250 C   0  0  0  0  0
  -12.6230   12.9040    1.4910 C   0  0  0  0  0
  -12.2470    9.4050   -0.7680 C   0  0  0  0  0
  -11.8290   14.8630    2.7090 C   0  0  0  0  0
  -13.5770   10.8770    0.5180 N   0  0  0  0  0
  -12.3580   10.6370   -0.0210 N   0  0  0  0  0
  -12.8920   13.9650    2.3320 N   0  0  0  0  0
  -10.2180   11.2950   -0.5560 O   0  0  0  0  0
  -15.0697   10.5180    3.0728 H   0  0  0  0  0
  -15.3322   13.8999    0.4381 H   0  0  0  0  0
  -10.6481   13.4252    0.9333 H   0  0  0  0  0
  -18.6594   12.8573    2.9190 H   0  0  0  0  0
  -17.3833   10.9680    3.8609 H   0  0  0  0  0
  -17.6507   14.3315    1.2157 H   0  0  0  0  0
  -12.4682    8.5628   -0.1123 H   0  0  0  0  0
  -12.9558    9.4185   -1.5960 H   0  0  0  0  0
  -11.2335    9.3076   -1.1572 H   0  0  0  0  0
  -11.0484   14.3037    3.2247 H   0  0  0  0  0
  -11.4141   15.3284    1.8150 H   0  0  0  0  0
  -12.2237   15.6334    3.3714 H   0  0  0  0  0
  -13.8376   14.1129    2.6848 H   0  0  0  0  0
  3  1  4  0  0  0
  1  8  4  0  0  0
  3  2  4  0  0  0
  2  9  4  0  0  0
  5  3  1  0  0  0
  4  6  1  0  0  0
 10  4  2  0  0  0
  5 10  1  0  0  0
  5 13  2  0  0  0
  6 14  1  0  0  0
  6 16  2  0  0  0
  8  7  4  0  0  0
  7  9  4  0  0  0
 10 15  1  0  0  0
 14 11  1  0  0  0
 15 12  1  0  0  0
 13 14  1  0  0  0
  1 17  1  0  0  0
  2 18  1  0  0  0
  4 19  1  0  0  0
  7 20  1  0  0  0
  8 21  1  0  0  0
  9 22  1  0  0  0
 11 23  1  0  0  0
 11 24  1  0  0  0
 11 25  1  0  0  0
 12 26  1  0  0  0
 12 27  1  0  0  0
 12 28  1  0  0  0
 15 29  1  0  0  0
M  END
$$$$
