6aee_ligand
  -I-interpret- 

173174  0  0  0  0  0  0  0  0999 V2000
   49.3910  -20.1710   67.0160 N   0  3  0  0  0
   47.9430  -20.0870   67.1680 C   0  0  0  0  0
   47.5250  -20.4050   68.6010 C   0  0  0  0  0
   47.6440  -21.5420   69.0570 O   0  0  0  0  0
   47.2460  -21.0340   66.1880 C   0  0  0  0  0
   45.7390  -21.1180   66.3680 C   0  0  0  0  0
   45.0840  -19.7530   66.2540 C   0  0  0  0  0
   45.2020  -19.1950   64.9110 N   0  0  0  0  0
   44.2630  -19.2970   63.9770 C   0  0  0  0  0
   43.1310  -19.9360   64.2410 N   0  0  0  0  0
   44.4520  -18.7590   62.7800 N   0  0  0  0  0
   47.0370  -19.3870   69.3040 N   0  0  0  0  0
   46.6250  -19.5350   70.6950 C   0  0  0  0  0
   45.2490  -20.1860   70.7540 C   0  0  0  0  0
   44.4450  -20.0840   69.8200 O   0  0  0  0  0
   46.6420  -18.1670   71.4080 C   0  0  0  0  0
   46.6090  -18.3460   72.9280 C   0  0  0  0  0
   45.4820  -17.2980   70.9390 C   0  0  0  0  0
   46.6860  -17.0460   73.6970 C   0  0  0  0  0
   44.9800  -20.8760   71.8560 N   0  0  0  0  0
   43.6660  -21.5010   72.0520 C   0  0  0  0  0
   42.6130  -20.4090   72.2050 C   0  0  0  0  0
   42.8850  -19.3810   72.8510 O   0  0  0  0  0
   43.7040  -22.4250   73.2740 C   0  0  0  0  0
   42.3580  -23.1160   73.4890 C   0  0  0  0  0
   44.1450  -21.6660   74.5230 C   0  0  0  0  0
   42.4590  -24.3490   74.3330 C   0  0  0  0  0
   41.4260  -20.5520   71.6040 N   0  0  0  0  0
   40.4490  -19.4450   71.6590 C   0  0  0  0  0
   39.9920  -19.0620   73.0590 C   0  0  0  0  0
   40.0730  -17.8840   73.4320 O   0  0  0  0  0
   39.2860  -19.9740   70.8080 C   0  0  0  0  0
   39.9000  -20.9790   69.9010 C   0  0  0  0  0
   40.9980  -21.6230   70.6880 C   0  0  0  0  0
   39.5100  -20.0200   73.8470 N   0  0  0  0  0
   38.8940  -19.7300   75.1360 C   0  0  0  0  0
   39.8650  -19.9560   76.2870 C   0  0  0  0  0
   40.6230  -20.9300   76.2940 O   0  0  0  0  0
   37.6380  -20.5790   75.3480 C   0  0  0  0  0
   36.3460  -19.7760   75.3160 C   0  0  0  0  0
   35.8380  -19.5830   73.8970 C   0  0  0  0  0
   35.6100  -20.8560   73.2210 N   0  0  0  0  0
   34.5120  -21.5910   73.3650 C   0  0  0  0  0
   33.5350  -21.1780   74.1610 N   0  0  0  0  0
   34.3890  -22.7380   72.7110 N   0  0  0  0  0
   39.8330  -19.0500   77.2580 N   0  0  0  0  0
   40.4950  -19.2610   78.5350 C   0  0  0  0  0
   39.5400  -19.9570   79.5010 C   0  0  0  0  0
   38.3170  -19.8880   79.3590 O   0  0  0  0  0
   40.9650  -17.9290   79.1240 C   0  0  0  0  0
   42.3150  -17.9920   79.7680 C   0  0  0  0  0
   43.4370  -18.4370   79.1030 N   0  0  0  0  0
   42.7240  -17.6610   81.0160 C   0  0  0  0  0
   44.4790  -18.3800   79.9140 C   0  0  0  0  0
   44.0730  -17.9130   81.0810 N   0  0  0  0  0
   40.1120  -20.6290   80.4960 N   0  0  0  0  0
   39.2960  -21.2880   81.5050 C   0  0  0  0  0
   38.7070  -20.2710   82.4760 C   0  0  0  0  0
   39.2680  -19.1950   82.7020 O   0  0  0  0  0
   40.1080  -22.3290   82.2760 C   0  0  0  0  0
   40.3840  -23.6520   81.5590 C   0  0  0  0  0
   40.9640  -24.6780   82.5190 C   0  0  0  0  0
   39.1170  -24.1840   80.9050 C   0  0  0  0  0
   37.5620  -20.6270   83.0530 N   0  0  0  0  0
   36.9060  -19.8260   84.0810 C   0  0  0  0  0
   37.0470  -20.5600   85.4080 C   0  0  0  0  0
   36.3850  -21.5790   85.6350 O   0  0  0  0  0
   35.4390  -19.5820   83.7360 C   0  0  0  0  0
   35.2270  -18.6070   82.5900 C   0  0  0  0  0
   33.7600  -18.3860   82.2780 C   0  0  0  0  0
   33.3270  -18.5360   81.1350 O   0  0  0  0  0
   32.9860  -18.0240   83.2950 N   0  0  0  0  0
   37.9050  -20.0430   86.2790 N   0  0  0  0  0
   38.1470  -20.6660   87.5730 C   0  0  0  0  0
   37.1420  -20.1690   88.6040 C   0  0  0  0  0
   36.9780  -20.7610   89.6700 O   0  0  0  0  0
   39.5760  -20.3870   88.0420 C   0  0  0  0  0
   40.6720  -20.6330   87.0020 C   0  0  0  0  0
   42.0470  -20.3410   87.5850 C   0  0  0  0  0
   40.6020  -22.0570   86.4720 C   0  0  0  0  0
   36.4670  -19.1630   88.3880 O   0  0  0  0  0
   49.8384  -19.5345   67.6756 H   0  0  0  0  0
   49.6964  -21.1261   67.2029 H   0  0  0  0  0
   49.6473  -19.9110   66.0636 H   0  0  0  0  0
   47.6384  -19.0648   66.9433 H   0  0  0  0  0
   47.6472  -22.0320   66.3647 H   0  0  0  0  0
   47.4292  -20.6501   65.1844 H   0  0  0  0  0
   45.5331  -21.5163   67.3615 H   0  0  0  0  0
   45.3345  -21.7599   65.5854 H   0  0  0  0  0
   45.5855  -19.0775   66.9470 H   0  0  0  0  0
   44.0242  -19.8655   66.4824 H   0  0  0  0  0
   46.0592  -18.6953   64.6745 H   0  0  0  0  0
   42.4093  -20.0123   63.5242 H   0  0  0  0  0
   42.9822  -20.3511   65.1608 H   0  0  0  0  0
   45.3204  -18.2651   62.5742 H   0  0  0  0  0
   46.9482  -18.4747   68.8565 H   0  0  0  0  0
   47.3289  -20.1825   71.2179 H   0  0  0  0  0
   47.5711  -17.6601   71.1472 H   0  0  0  0  0
   47.4804  -18.9396   73.2046 H   0  0  0  0  0
   45.6586  -18.8168   73.1795 H   0  0  0  0  0
   45.5627  -17.1357   69.8642 H   0  0  0  0  0
   44.5404  -17.7996   71.1624 H   0  0  0  0  0
   45.5159  -16.3390   71.4561 H   0  0  0  0  0
   47.6163  -16.5342   73.4507 H   0  0  0  0  0
   45.8398  -16.4145   73.4263 H   0  0  0  0  0
   46.6571  -17.2556   74.7663 H   0  0  0  0  0
   45.6958  -20.9732   72.5761 H   0  0  0  0  0
   43.4066  -22.1111   71.1868 H   0  0  0  0  0
   44.4435  -23.2020   73.0804 H   0  0  0  0  0
   41.9786  -23.4138   72.5115 H   0  0  0  0  0
   41.7038  -22.4136   74.0056 H   0  0  0  0  0
   45.1422  -21.2557   74.3641 H   0  0  0  0  0
   43.4441  -20.8548   74.7200 H   0  0  0  0  0
   44.1624  -22.3475   75.3735 H   0  0  0  0  0
   43.1249  -25.0645   73.8505 H   0  0  0  0  0
   42.8559  -24.0852   75.3133 H   0  0  0  0  0
   41.4695  -24.7916   74.4473 H   0  0  0  0  0
   40.8870  -18.5151   71.2963 H   0  0  0  0  0
   38.7952  -19.1747   70.2526 H   0  0  0  0  0
   38.5008  -20.4119   71.4242 H   0  0  0  0  0
   40.2840  -20.5119   68.9941 H   0  0  0  0  0
   39.1665  -21.7140   69.5696 H   0  0  0  0  0
   40.6695  -22.5199   71.2131 H   0  0  0  0  0
   41.8094  -21.9877   70.0582 H   0  0  0  0  0
   39.5738  -20.9902   73.5386 H   0  0  0  0  0
   38.6140  -18.6766   75.1242 H   0  0  0  0  0
   37.7148  -21.0346   76.3352 H   0  0  0  0  0
   37.5924  -21.3032   74.5346 H   0  0  0  0  0
   36.5416  -18.7941   75.7469 H   0  0  0  0  0
   35.5892  -20.3211   75.8801 H   0  0  0  0  0
   36.5919  -19.0296   73.3371 H   0  0  0  0  0
   34.8900  -19.0471   73.9440 H   0  0  0  0  0
   36.3394  -21.2038   72.5986 H   0  0  0  0  0
   32.6921  -21.7421   74.2688 H   0  0  0  0  0
   33.6265  -20.2962   74.6655 H   0  0  0  0  0
   35.1377  -23.0574   72.0963 H   0  0  0  0  0
   39.3275  -18.1778   77.1025 H   0  0  0  0  0
   41.3691  -19.8929   78.3776 H   0  0  0  0  0
   40.2503  -17.6466   79.8971 H   0  0  0  0  0
   41.0315  -17.2168   78.3016 H   0  0  0  0  0
   42.0998  -17.2682   81.8186 H   0  0  0  0  0
   45.4995  -18.6691   79.6627 H   0  0  0  0  0
   41.1290  -20.6829   80.5523 H   0  0  0  0  0
   38.4814  -21.7949   80.9877 H   0  0  0  0  0
   39.5155  -22.5815   83.1554 H   0  0  0  0  0
   41.0828  -21.8761   82.4571 H   0  0  0  0  0
   41.1203  -23.4657   80.7772 H   0  0  0  0  0
   41.8997  -24.3000   82.9310 H   0  0  0  0  0
   40.2558  -24.8580   83.3278 H   0  0  0  0  0
   41.1510  -25.6092   81.9841 H   0  0  0  0  0
   38.3569  -24.3484   81.6688 H   0  0  0  0  0
   38.7525  -23.4581   80.1782 H   0  0  0  0  0
   39.3373  -25.1252   80.4013 H   0  0  0  0  0
   37.1224  -21.5006   82.7631 H   0  0  0  0  0
   37.3773  -18.8454   84.1477 H   0  0  0  0  0
   34.9668  -19.1508   84.6187 H   0  0  0  0  0
   35.0158  -20.5384   83.4290 H   0  0  0  0  0
   35.7001  -19.0251   81.7015 H   0  0  0  0  0
   35.6566  -17.6484   82.8808 H   0  0  0  0  0
   31.9907  -17.8587   83.1448 H   0  0  0  0  0
   33.3869  -17.9113   84.2261 H   0  0  0  0  0
   38.4069  -19.1889   86.0362 H   0  0  0  0  0
   38.0225  -21.7433   87.4637 H   0  0  0  0  0
   39.7712  -21.0730   88.8663 H   0  0  0  0  0
   39.6186  -19.3270   88.2925 H   0  0  0  0  0
   40.5066  -19.9512   86.1678 H   0  0  0  0  0
   42.0916  -19.2994   87.9032 H   0  0  0  0  0
   42.2227  -20.9917   88.4416 H   0  0  0  0  0
   42.8081  -20.5234   86.8264 H   0  0  0  0  0
   40.7351  -22.7572   87.2967 H   0  0  0  0  0
   39.6305  -22.2226   86.0062 H   0  0  0  0  0
   41.3904  -22.2080   85.7346 H   0  0  0  0  0
   36.6952  -18.8047   87.5271 H   0  0  0  0  0
  1  2  1  0  0  0
  2  3  1  0  0  0
  2  5  1  0  0  0
  3  4  2  0  0  0
  3 12  1  0  0  0
  5  6  1  0  0  0
  6  7  1  0  0  0
  7  8  1  0  0  0
  8  9  1  0  0  0
  9 10  1  0  0  0
  9 11  2  0  0  0
 12 13  1  0  0  0
 13 14  1  0  0  0
 13 16  1  0  0  0
 14 15  2  0  0  0
 14 20  1  0  0  0
 16 17  1  0  0  0
 16 18  1  0  0  0
 17 19  1  0  0  0
 20 21  1  0  0  0
 21 22  1  0  0  0
 21 24  1  0  0  0
 22 23  2  0  0  0
 22 28  1  0  0  0
 24 25  1  0  0  0
 24 26  1  0  0  0
 25 27  1  0  0  0
 28 29  1  0  0  0
 28 34  1  0  0  0
 29 30  1  0  0  0
 29 32  1  0  0  0
 30 31  2  0  0  0
 30 35  1  0  0  0
 32 33  1  0  0  0
 33 34  1  0  0  0
 35 36  1  0  0  0
 36 37  1  0  0  0
 36 39  1  0  0  0
 37 38  2  0  0  0
 37 46  1  0  0  0
 39 40  1  0  0  0
 40 41  1  0  0  0
 41 42  1  0  0  0
 42 43  1  0  0  0
 43 44  1  0  0  0
 43 45  2  0  0  0
 46 47  1  0  0  0
 47 48  1  0  0  0
 47 50  1  0  0  0
 48 49  2  0  0  0
 48 56  1  0  0  0
 50 51  1  0  0  0
 51 52  4  0  0  0
 51 53  4  0  0  0
 52 54  4  0  0  0
 53 55  4  0  0  0
 54 55  4  0  0  0
 56 57  1  0  0  0
 57 58  1  0  0  0
 57 60  1  0  0  0
 58 59  2  0  0  0
 58 64  1  0  0  0
 60 61  1  0  0  0
 61 62  1  0  0  0
 61 63  1  0  0  0
 64 65  1  0  0  0
 65 66  1  0  0  0
 65 68  1  0  0  0
 66 67  2  0  0  0
 66 73  1  0  0  0
 68 69  1  0  0  0
 69 70  1  0  0  0
 70 71  2  0  0  0
 70 72  1  0  0  0
 73 74  1  0  0  0
 74 75  1  0  0  0
 74 77  1  0  0  0
 75 76  2  0  0  0
 75 81  1  0  0  0
 77 78  1  0  0  0
 78 79  1  0  0  0
 78 80  1  0  0  0
  1 82  1  0  0  0
  1 83  1  0  0  0
  1 84  1  0  0  0
  2 85  1  0  0  0
  5 86  1  0  0  0
  5 87  1  0  0  0
  6 88  1  0  0  0
  6 89  1  0  0  0
  7 90  1  0  0  0
  7 91  1  0  0  0
  8 92  1  0  0  0
 10 93  1  0  0  0
 10 94  1  0  0  0
 11 95  1  0  0  0
 12 96  1  0  0  0
 13 97  1  0  0  0
 16 98  1  0  0  0
 17 99  1  0  0  0
 17100  1  0  0  0
 18101  1  0  0  0
 18102  1  0  0  0
 18103  1  0  0  0
 19104  1  0  0  0
 19105  1  0  0  0
 19106  1  0  0  0
 20107  1  0  0  0
 21108  1  0  0  0
 24109  1  0  0  0
 25110  1  0  0  0
 25111  1  0  0  0
 26112  1  0  0  0
 26113  1  0  0  0
 26114  1  0  0  0
 27115  1  0  0  0
 27116  1  0  0  0
 27117  1  0  0  0
 29118  1  0  0  0
 32119  1  0  0  0
 32120  1  0  0  0
 33121  1  0  0  0
 33122  1  0  0  0
 34123  1  0  0  0
 34124  1  0  0  0
 35125  1  0  0  0
 36126  1  0  0  0
 39127  1  0  0  0
 39128  1  0  0  0
 40129  1  0  0  0
 40130  1  0  0  0
 41131  1  0  0  0
 41132  1  0  0  0
 42133  1  0  0  0
 44134  1  0  0  0
 44135  1  0  0  0
 45136  1  0  0  0
 46137  1  0  0  0
 47138  1  0  0  0
 50139  1  0  0  0
 50140  1  0  0  0
 53141  1  0  0  0
 54142  1  0  0  0
 56143  1  0  0  0
 57144  1  0  0  0
 60145  1  0  0  0
 60146  1  0  0  0
 61147  1  0  0  0
 62148  1  0  0  0
 62149  1  0  0  0
 62150  1  0  0  0
 63151  1  0  0  0
 63152  1  0  0  0
 63153  1  0  0  0
 64154  1  0  0  0
 65155  1  0  0  0
 68156  1  0  0  0
 68157  1  0  0  0
 69158  1  0  0  0
 69159  1  0  0  0
 72160  1  0  0  0
 72161  1  0  0  0
 73162  1  0  0  0
 74163  1  0  0  0
 77164  1  0  0  0
 77165  1  0  0  0
 78166  1  0  0  0
 79167  1  0  0  0
 79168  1  0  0  0
 79169  1  0  0  0
 80170  1  0  0  0
 80171  1  0  0  0
 80172  1  0  0  0
 81173  1  0  0  0
M  END
$$$$
