### 
### Created by X-TOOL on Mon Aug  2 16:12:35 2021
### 

@<TRIPOS>MOLECULE
6aee_ligand
  175   176     1     0     0
SMALL
GAST_HUCK


@<TRIPOS>ATOM
      1 N          49.3910  -20.1710   67.0160 N.4       1 ARG         0.2379
      2 CA         47.9430  -20.0870   67.1680 C.3       1 ARG         0.0651
      3 C          47.5250  -20.4050   68.6010 C.2       1 ARG         0.2267
      4 O          47.6440  -21.5420   69.0570 O.2       1 ARG        -0.3907
      5 CB         47.2460  -21.0340   66.1880 C.3       1 ARG         0.0110
      6 CG         45.7390  -21.1180   66.3680 C.3       1 ARG        -0.0125
      7 CD         45.0840  -19.7530   66.2540 C.3       1 ARG         0.0629
      8 NE         45.2020  -19.1950   64.9110 N.pl3     1 ARG        -0.2723
      9 CZ         44.2630  -19.2970   63.9770 C.cat     1 ARG         0.2882
     10 NH1        43.1310  -19.9360   64.2410 N.pl3     1 ARG        -0.2849
     11 NH2        44.4520  -18.7590   62.7800 N.pl3     1 ARG        -0.2849
     12 N          47.0370  -19.3870   69.3040 N.am      1 ARG        -0.2608
     13 CA         46.6250  -19.5350   70.6950 C.3       1 ARG         0.1336
     14 C          45.2490  -20.1860   70.7540 C.2       1 ARG         0.2042
     15 O          44.4450  -20.0840   69.8200 O.2       1 ARG        -0.3944
     16 CB         46.6420  -18.1670   71.4080 C.3       1 ARG        -0.0037
     17 CG1        46.6090  -18.3460   72.9280 C.3       1 ARG        -0.0491
     18 CG2        45.4820  -17.2980   70.9390 C.3       1 ARG        -0.0582
     19 CD1        46.6860  -17.0460   73.6970 C.3       1 ARG        -0.0648
     20 N          44.9800  -20.8760   71.8560 N.am      1 ARG        -0.2634
     21 CA         43.6660  -21.5010   72.0520 C.3       1 ARG         0.1337
     22 C          42.6130  -20.4090   72.2050 C.2       1 ARG         0.2067
     23 O          42.8850  -19.3810   72.8510 O.2       1 ARG        -0.3942
     24 CB         43.7040  -22.4250   73.2740 C.3       1 ARG        -0.0037
     25 CG1        42.3580  -23.1160   73.4890 C.3       1 ARG        -0.0491
     26 CG2        44.1450  -21.6660   74.5230 C.3       1 ARG        -0.0582
     27 CD1        42.4590  -24.3490   74.3330 C.3       1 ARG        -0.0648
     28 N          41.4260  -20.5520   71.6040 N.am      1 ARG        -0.2498
     29 CA         40.4490  -19.4450   71.6590 C.3       1 ARG         0.1338
     30 C          39.9920  -19.0620   73.0590 C.2       1 ARG         0.2041
     31 O          40.0730  -17.8840   73.4320 O.2       1 ARG        -0.3944
     32 CB         39.2860  -19.9740   70.8080 C.3       1 ARG        -0.0104
     33 CG         39.9000  -20.9790   69.9010 C.3       1 ARG        -0.0281
     34 CD         40.9980  -21.6230   70.6880 C.3       1 ARG         0.0369
     35 N          39.5100  -20.0200   73.8470 N.am      1 ARG        -0.2637
     36 CA         38.8940  -19.7300   75.1360 C.3       1 ARG         0.1311
     37 C          39.8650  -19.9560   76.2870 C.2       1 ARG         0.2040
     38 O          40.6230  -20.9300   76.2940 O.2       1 ARG        -0.3944
     39 CB         37.6380  -20.5790   75.3480 C.3       1 ARG        -0.0092
     40 CG         36.3460  -19.7760   75.3160 C.3       1 ARG        -0.0156
     41 CD         35.8380  -19.5830   73.8970 C.3       1 ARG         0.0627
     42 NE         35.6100  -20.8560   73.2210 N.pl3     1 ARG        -0.2723
     43 CZ         34.5120  -21.5910   73.3650 C.cat     1 ARG         0.2882
     44 NH1        33.5350  -21.1780   74.1610 N.pl3     1 ARG        -0.2849
     45 NH2        34.3890  -22.7380   72.7110 N.pl3     1 ARG        -0.2849
     46 N          39.8330  -19.0500   77.2580 N.am      1 ARG        -0.2625
     47 CA         40.4950  -19.2610   78.5350 C.3       1 ARG         0.1369
     48 C          39.5400  -19.9570   79.5010 C.2       1 ARG         0.2054
     49 O          38.3170  -19.8880   79.3590 O.2       1 ARG        -0.3942
     50 CB         40.9650  -17.9290   79.1240 C.3       1 ARG         0.0145
     51 CG         42.3150  -17.9920   79.7680 C.2       1 ARG        -0.0027
     52 ND1        43.4370  -18.4370   79.1030 N.2       1 ARG        -0.3252
     53 CD2        42.7240  -17.6610   81.0160 C.2       1 ARG         0.0291
     54 CE1        44.4790  -18.3800   79.9140 C.2       1 ARG         0.0907
     55 NE2        44.0730  -17.9130   81.0810 N.pl3     1 ARG        -0.2752
     56 N          40.1120  -20.6290   80.4960 N.am      1 ARG        -0.2636
     57 CA         39.2960  -21.2880   81.5050 C.3       1 ARG         0.1312
     58 C          38.7070  -20.2710   82.4760 C.2       1 ARG         0.2039
     59 O          39.2680  -19.1950   82.7020 O.2       1 ARG        -0.3944
     60 CB         40.1080  -22.3290   82.2760 C.3       1 ARG        -0.0101
     61 CG         40.3840  -23.6520   81.5590 C.3       1 ARG        -0.0425
     62 CD1        40.9640  -24.6780   82.5190 C.3       1 ARG        -0.0625
     63 CD2        39.1170  -24.1840   80.9050 C.3       1 ARG        -0.0625
     64 N          37.5620  -20.6270   83.0530 N.am      1 ARG        -0.2636
     65 CA         36.9060  -19.8260   84.0810 C.3       1 ARG         0.1330
     66 C          37.0470  -20.5600   85.4080 C.2       1 ARG         0.2035
     67 O          36.3850  -21.5790   85.6350 O.2       1 ARG        -0.3944
     68 CB         35.4390  -19.5820   83.7360 C.3       1 ARG         0.0045
     69 CG         35.2270  -18.6070   82.5900 C.3       1 ARG         0.0412
     70 CD         33.7600  -18.3860   82.2780 C.2       1 ARG         0.1737
     71 OE1        33.3270  -18.5360   81.1350 O.2       1 ARG        -0.3973
     72 NE2        32.9860  -18.0240   83.2950 N.am      1 ARG        -0.3009
     73 N          37.9050  -20.0430   86.2790 N.am      1 ARG        -0.2695
     74 CA         38.1470  -20.6660   87.5730 C.3       1 ARG         0.0946
     75 C          37.1420  -20.1690   88.6040 C.2       1 ARG         0.0601
     76 O          36.9780  -20.7610   89.6700 O.co2     1 ARG        -0.5666
     77 CB         39.5760  -20.3870   88.0420 C.3       1 ARG        -0.0156
     78 CG         40.6720  -20.6330   87.0020 C.3       1 ARG        -0.0431
     79 CD1        42.0470  -20.3410   87.5850 C.3       1 ARG        -0.0625
     80 CD2        40.6020  -22.0570   86.4720 C.3       1 ARG        -0.0625
     81 OXT        36.4670  -19.1630   88.3880 O.co2     1 ARG        -0.5666
     82 H1         49.6418  -19.9573   66.0634 H         1 ARG         0.2015
     83 H2         49.6992  -21.1034   67.2435 H         1 ARG         0.2015
     84 H3         49.8328  -19.5104   67.6360 H         1 ARG         0.2015
     85 H4         47.6310  -19.0577   66.9375 H         1 ARG         0.1098
     86 H5         47.6663  -22.0414   66.3237 H         1 ARG         0.0347
     87 H6         47.4523  -20.6853   65.1654 H         1 ARG         0.0347
     88 H7         45.5212  -21.5362   67.3618 H         1 ARG         0.0302
     89 H8         45.3235  -21.7788   65.5930 H         1 ARG         0.0302
     90 H9         45.5672  -19.0677   66.9659 H         1 ARG         0.0689
     91 H10        44.0174  -19.8499   66.5047 H         1 ARG         0.0689
     92 H11        46.0676  -18.6904   64.6722 H         1 ARG         0.2642
     93 H12        42.4031  -20.0149   63.5165 H         1 ARG         0.2615
     94 H13        42.9799  -20.3533   65.1705 H         1 ARG         0.2615
     95 H14        45.3298  -18.2621   62.5715 H         1 ARG         0.2615
     96 H15        43.7210  -18.8380   62.0586 H         1 ARG         0.2615
     97 H16        46.9499  -18.4926   68.8653 H         1 ARG         0.1885
     98 H17        47.3418  -20.1958   71.2045 H         1 ARG         0.0803
     99 H18        47.5798  -17.6559   71.1446 H         1 ARG         0.0345
    100 H19        47.4629  -18.9740   73.2220 H         1 ARG         0.0267
    101 H20        45.6708  -18.8533   73.1973 H         1 ARG         0.0267
    102 H21        45.5276  -17.1844   69.8458 H         1 ARG         0.0235
    103 H22        45.5502  -16.3080   71.4136 H         1 ARG         0.0235
    104 H23        44.5307  -17.7741   71.2188 H         1 ARG         0.0235
    105 H24        46.6570  -17.2562   74.7763 H         1 ARG         0.0230
    106 H25        45.8325  -16.4078   73.4247 H         1 ARG         0.0230
    107 H26        47.6246  -16.5285   73.4494 H         1 ARG         0.0230
    108 H27        45.6818  -20.9713   72.5620 H         1 ARG         0.1883
    109 H28        43.4207  -22.1047   71.1658 H         1 ARG         0.0803
    110 H29        44.4520  -23.2073   73.0778 H         1 ARG         0.0345
    111 H30        41.9475  -23.3962   72.5077 H         1 ARG         0.0267
    112 H31        41.6761  -22.4084   73.9832 H         1 ARG         0.0267
    113 H32        45.1146  -21.1818   74.3346 H         1 ARG         0.0235
    114 H33        44.2434  -22.3687   75.3635 H         1 ARG         0.0235
    115 H34        43.3949  -20.9005   74.7709 H         1 ARG         0.0235
    116 H35        41.4609  -24.7966   74.4491 H         1 ARG         0.0230
    117 H36        42.8594  -24.0841   75.3227 H         1 ARG         0.0230
    118 H37        43.1308  -25.0719   73.8471 H         1 ARG         0.0230
    119 H38        40.8836  -18.5493   71.1912 H         1 ARG         0.0802
    120 H39        38.8286  -19.1586   70.2285 H         1 ARG         0.0313
    121 H40        38.5226  -20.4438   71.4456 H         1 ARG         0.0313
    122 H41        40.3082  -20.4877   69.0055 H         1 ARG         0.0287
    123 H42        39.1541  -21.7292   69.5998 H         1 ARG         0.0287
    124 H43        40.6248  -22.4942   71.2463 H         1 ARG         0.0524
    125 H44        41.8238  -21.9344   70.0315 H         1 ARG         0.0524
    126 H45        39.5725  -20.9711   73.5446 H         1 ARG         0.1883
    127 H46        38.5991  -18.6703   75.1390 H         1 ARG         0.0800
    128 H47        37.7148  -21.0748   76.3269 H         1 ARG         0.0313
    129 H48        37.5943  -21.3393   74.5542 H         1 ARG         0.0313
    130 H49        36.5286  -18.7892   75.7663 H         1 ARG         0.0301
    131 H50        35.5806  -20.3092   75.8990 H         1 ARG         0.0301
    132 H51        36.5828  -19.0071   73.3282 H         1 ARG         0.0689
    133 H52        34.8910  -19.0245   73.9315 H         1 ARG         0.0689
    134 H53        36.3466  -21.2072   72.5925 H         1 ARG         0.2642
    135 H54        32.6847  -21.7487   74.2715 H         1 ARG         0.2615
    136 H55        33.6265  -20.2865   74.6687 H         1 ARG         0.2615
    137 H56        35.1460  -23.0616   72.0920 H         1 ARG         0.2615
    138 H57        33.5365  -23.3053   72.8220 H         1 ARG         0.2615
    139 H58        39.3374  -18.1949   77.1056 H         1 ARG         0.1885
    140 H59        41.3724  -19.9052   78.3768 H         1 ARG         0.0817
    141 H60        40.2347  -17.6086   79.8817 H         1 ARG         0.0420
    142 H61        41.0025  -17.1861   78.3136 H         1 ARG         0.0420
    143 H62        42.1003  -17.2686   81.8178 H         1 ARG         0.0729
    144 H63        45.4985  -18.6688   79.6629 H         1 ARG         0.1199
    145 H64        44.6709  -17.7622   81.9060 H         1 ARG         0.2361
    146 H65        41.1091  -20.6818   80.5512 H         1 ARG         0.1883
    147 H66        38.4681  -21.8020   80.9948 H         1 ARG         0.0800
    148 H67        39.5612  -22.5594   83.2023 H         1 ARG         0.0315
    149 H68        41.0788  -21.8764   82.5262 H         1 ARG         0.0315
    150 H69        41.1257  -23.4649   80.7685 H         1 ARG         0.0298
    151 H70        41.1531  -25.6183   81.9804 H         1 ARG         0.0232
    152 H71        40.2502  -24.8606   83.3358 H         1 ARG         0.0232
    153 H72        41.9084  -24.2977   82.9355 H         1 ARG         0.0232
    154 H73        38.7147  -23.4271   80.2156 H         1 ARG         0.0232
    155 H74        38.3699  -24.4073   81.6808 H         1 ARG         0.0232
    156 H75        39.3506  -25.1020   80.3458 H         1 ARG         0.0232
    157 H76        37.1311  -21.4835   82.7688 H         1 ARG         0.1883
    158 H77        37.4118  -18.8520   84.1545 H         1 ARG         0.0801
    159 H78        34.9359  -19.1813   84.6284 H         1 ARG         0.0337
    160 H79        34.9840  -20.5446   83.4596 H         1 ARG         0.0337
    161 H80        35.7222  -19.0052   81.6921 H         1 ARG         0.0504
    162 H81        35.6792  -17.6414   82.8604 H         1 ARG         0.0504
    163 H82        32.0098  -17.8643   83.1483 H         1 ARG         0.1814
    164 H83        33.3795  -17.9112   84.2074 H         1 ARG         0.1814
    165 H84        38.3970  -19.2056   86.0409 H         1 ARG         0.1875
    166 H85        38.0231  -21.7535   87.4634 H         1 ARG         0.0726
    167 H86        39.7803  -21.0330   88.9085 H         1 ARG         0.0308
    168 H87        39.6317  -19.3324   88.3496 H         1 ARG         0.0308
    169 H88        40.5047  -19.9457   86.1596 H         1 ARG         0.0297
    170 H89        42.8160  -20.5247   86.8203 H         1 ARG         0.0232
    171 H90        42.2256  -20.9972   88.4496 H         1 ARG         0.0232
    172 H91        42.0934  -19.2901   87.9065 H         1 ARG         0.0232
    173 H92        39.6010  -22.2447   86.0564 H         1 ARG         0.0232
    174 H93        40.7968  -22.7636   87.2922 H         1 ARG         0.0232
    175 H94        41.3575  -22.1925   85.6840 H         1 ARG         0.0232
@<TRIPOS>BOND
     1    1    2 1  
     2    2    3 1  
     3    2    5 1  
     4    3    4 2  
     5    3   12 am 
     6    5    6 1  
     7    6    7 1  
     8    7    8 1  
     9    8    9 ar 
    10    9   10 ar 
    11    9   11 ar 
    12   12   13 1  
    13   13   14 1  
    14   13   16 1  
    15   14   15 2  
    16   14   20 am 
    17   16   17 1  
    18   16   18 1  
    19   17   19 1  
    20   20   21 1  
    21   21   22 1  
    22   21   24 1  
    23   22   23 2  
    24   22   28 am 
    25   24   25 1  
    26   24   26 1  
    27   25   27 1  
    28   28   29 1  
    29   28   34 1  
    30   29   30 1  
    31   29   32 1  
    32   30   31 2  
    33   30   35 am 
    34   32   33 1  
    35   33   34 1  
    36   35   36 1  
    37   36   37 1  
    38   36   39 1  
    39   37   38 2  
    40   37   46 am 
    41   39   40 1  
    42   40   41 1  
    43   41   42 1  
    44   42   43 ar 
    45   43   44 ar 
    46   43   45 ar 
    47   46   47 1  
    48   47   48 1  
    49   47   50 1  
    50   48   49 2  
    51   48   56 am 
    52   50   51 1  
    53   51   52 1  
    54   51   53 2  
    55   52   54 2  
    56   53   55 1  
    57   54   55 1  
    58   56   57 1  
    59   57   58 1  
    60   57   60 1  
    61   58   59 2  
    62   58   64 am 
    63   60   61 1  
    64   61   62 1  
    65   61   63 1  
    66   64   65 1  
    67   65   66 1  
    68   65   68 1  
    69   66   67 2  
    70   66   73 am 
    71   68   69 1  
    72   69   70 1  
    73   70   71 2  
    74   70   72 am 
    75   73   74 1  
    76   74   75 1  
    77   74   77 1  
    78   75   76 ar 
    79   75   81 ar 
    80   77   78 1  
    81   78   79 1  
    82   78   80 1  
    83    1   82 1  
    84    1   83 1  
    85    1   84 1  
    86    2   85 1  
    87    5   86 1  
    88    5   87 1  
    89    6   88 1  
    90    6   89 1  
    91    7   90 1  
    92    7   91 1  
    93    8   92 1  
    94   10   93 1  
    95   10   94 1  
    96   11   95 1  
    97   11   96 1  
    98   12   97 1  
    99   13   98 1  
   100   16   99 1  
   101   17  100 1  
   102   17  101 1  
   103   18  102 1  
   104   18  103 1  
   105   18  104 1  
   106   19  105 1  
   107   19  106 1  
   108   19  107 1  
   109   20  108 1  
   110   21  109 1  
   111   24  110 1  
   112   25  111 1  
   113   25  112 1  
   114   26  113 1  
   115   26  114 1  
   116   26  115 1  
   117   27  116 1  
   118   27  117 1  
   119   27  118 1  
   120   29  119 1  
   121   32  120 1  
   122   32  121 1  
   123   33  122 1  
   124   33  123 1  
   125   34  124 1  
   126   34  125 1  
   127   35  126 1  
   128   36  127 1  
   129   39  128 1  
   130   39  129 1  
   131   40  130 1  
   132   40  131 1  
   133   41  132 1  
   134   41  133 1  
   135   42  134 1  
   136   44  135 1  
   137   44  136 1  
   138   45  137 1  
   139   45  138 1  
   140   46  139 1  
   141   47  140 1  
   142   50  141 1  
   143   50  142 1  
   144   53  143 1  
   145   54  144 1  
   146   55  145 1  
   147   56  146 1  
   148   57  147 1  
   149   60  148 1  
   150   60  149 1  
   151   61  150 1  
   152   62  151 1  
   153   62  152 1  
   154   62  153 1  
   155   63  154 1  
   156   63  155 1  
   157   63  156 1  
   158   64  157 1  
   159   65  158 1  
   160   68  159 1  
   161   68  160 1  
   162   69  161 1  
   163   69  162 1  
   164   72  163 1  
   165   72  164 1  
   166   73  165 1  
   167   74  166 1  
   168   77  167 1  
   169   77  168 1  
   170   78  169 1  
   171   79  170 1  
   172   79  171 1  
   173   79  172 1  
   174   80  173 1  
   175   80  174 1  
   176   80  175 1  
@<TRIPOS>SUBSTRUCTURE
     1 ARG         1

