6qme_ligand
  -I-interpret- 

 39 41  0  0  0  0  0  0  0  0999 V2000
   14.7390   65.7560   30.9370 C   0  0  0  0  0
   15.8960   65.0160   30.3190 C   0  0  0  0  0
   15.9360   64.8550   28.9370 C   0  0  0  0  0
   18.0010   63.6610   29.1090 C   0  0  0  0  0
   17.9820   63.8080   30.4750 C   0  0  0  0  0
   16.9420   64.4780   31.0790 C   0  0  0  0  0
   17.6160   65.1770   26.0700 C   0  0  0  0  0
   17.9170   64.8540   24.6160 C   0  0  0  0  0
   15.7380   63.5010   26.2450 C   0  0  0  0  0
   14.9640   64.2920   25.3860 C   0  0  0  0  0
   14.0560   61.7530   26.0700 C   0  0  0  0  0
   15.2800   62.2260   26.5870 C   0  0  0  0  0
   16.9820   64.1800   28.3210 C   0  0  0  0  0
   16.9760   64.6290   32.8030 Cl  0  0  0  0  0
   17.0640   63.9820   26.8190 C   0  0  0  0  0
   17.4030   65.5770   23.7430 O   0  0  0  0  0
   18.6580   63.8840   24.3780 O   0  0  0  0  0
   13.7570   63.8320   24.8740 C   0  0  0  0  0
   13.3200   62.5570   25.2280 C   0  0  0  0  0
   12.2290   61.8540   24.9050 N   0  0  0  0  0
   11.1080   62.2130   24.0450 C   0  0  0  0  0
   12.2690   60.6370   25.5230 N   0  0  0  0  0
   13.3840   60.5800   26.2320 N   0  0  0  0  0
   14.7067   66.7717   30.5427 H   0  0  0  0  0
   13.8092   65.2412   30.6950 H   0  0  0  0  0
   14.8667   65.7888   32.0190 H   0  0  0  0  0
   15.1317   65.2662   28.3270 H   0  0  0  0  0
   18.8275   63.1296   28.6372 H   0  0  0  0  0
   18.7893   63.3947   31.0796 H   0  0  0  0  0
   16.8663   65.9679   26.0936 H   0  0  0  0  0
   18.5470   65.4778   26.5504 H   0  0  0  0  0
   15.3154   65.2873   25.1141 H   0  0  0  0  0
   15.8691   61.5964   27.2539 H   0  0  0  0  0
   17.7979   63.1912   26.6638 H   0  0  0  0  0
   16.8735   66.2580   24.1642 H   0  0  0  0  0
   13.1627   64.4571   24.2075 H   0  0  0  0  0
   10.6176   63.1020   24.4416 H   0  0  0  0  0
   11.4744   62.4169   23.0389 H   0  0  0  0  0
   10.3968   61.3876   24.0138 H   0  0  0  0  0
  2  1  1  0  0  0
  3  2  4  0  0  0
  2  6  4  0  0  0
 13  3  4  0  0  0
  4  5  4  0  0  0
 13  4  4  0  0  0
  5  6  4  0  0  0
  6 14  1  0  0  0
  7  8  1  0  0  0
 15  7  1  0  0  0
  8 16  1  0  0  0
  8 17  2  0  0  0
  9 10  4  0  0  0
  9 12  4  0  0  0
 15  9  1  0  0  0
 10 18  4  0  0  0
 12 11  4  0  0  0
 11 19  4  0  0  0
 11 23  4  0  0  0
 13 15  1  0  0  0
 18 19  4  0  0  0
 19 20  4  0  0  0
 20 21  1  0  0  0
 20 22  4  0  0  0
 22 23  4  0  0  0
  1 24  1  0  0  0
  1 25  1  0  0  0
  1 26  1  0  0  0
  3 27  1  0  0  0
  4 28  1  0  0  0
  5 29  1  0  0  0
  7 30  1  0  0  0
  7 31  1  0  0  0
 10 32  1  0  0  0
 12 33  1  0  0  0
 15 34  1  0  0  0
 16 35  1  0  0  0
 18 36  1  0  0  0
 21 37  1  0  0  0
 21 38  1  0  0  0
 21 39  1  0  0  0
M  END
$$$$
