5l8t_ligand
  -I-interpret- 

 32 33  0  0  0  0  0  0  0  0999 V2000
  -30.7000   -7.8520   -1.0390 O   0  0  0  0  0
  -24.5990   -7.2510    0.6920 C   0  0  0  0  0
  -25.9660   -6.8350    0.6710 C   0  0  0  0  0
  -28.9550   -9.7100   -1.2730 C   0  0  0  0  0
  -24.7590  -11.0090    0.7480 C   0  0  0  0  0
  -25.1950   -9.4960    0.7150 C   0  0  0  0  0
  -26.5980   -9.1890    0.6940 C   0  0  0  0  0
  -27.6080  -10.2680    0.6860 N   0  0  0  0  0
  -28.9530   -9.9190    0.2300 C   0  0  0  0  0
  -30.0470  -11.0250    0.7090 C   0  0  0  0  0
  -31.3750  -11.2120   -0.2210 C   0  0  0  0  0
  -31.7060  -10.1490   -1.2780 C   0  0  0  0  0
  -30.4670   -9.0990   -1.7220 S   0  0  0  0  0
  -30.4710   -8.8990   -3.1370 O   0  0  0  0  0
  -26.9780   -7.8110    0.6700 C   0  0  0  0  0
  -24.2820   -8.5600    0.7120 N   0  0  0  0  0
  -23.8063   -6.5029    0.6918 H   0  0  0  0  0
  -26.2207   -5.7753    0.6560 H   0  0  0  0  0
  -28.7674  -10.6553   -1.7822 H   0  0  0  0  0
  -28.1697   -9.0083   -1.5540 H   0  0  0  0  0
  -25.1624  -11.4826    1.6430 H   0  0  0  0  0
  -25.1430  -11.5158   -0.1373 H   0  0  0  0  0
  -23.6709  -11.0720    0.7610 H   0  0  0  0  0
  -27.3769  -11.2152    0.9856 H   0  0  0  0  0
  -29.2499   -8.9782    0.6934 H   0  0  0  0  0
  -30.4101  -10.6818    1.6777 H   0  0  0  0  0
  -29.5295  -11.9840    0.6822 H   0  0  0  0  0
  -32.2112  -11.1805    0.4775 H   0  0  0  0  0
  -31.1907  -12.1232   -0.7901 H   0  0  0  0  0
  -32.4822   -9.5233   -0.8373 H   0  0  0  0  0
  -31.9670  -10.6997   -2.1817 H   0  0  0  0  0
  -28.0292   -7.5234    0.6513 H   0  0  0  0  0
 13  1  2  0  0  0
  3  2  4  0  0  0
 16  2  4  0  0  0
 15  3  4  0  0  0
  9  4  1  0  0  0
  4 13  1  0  0  0
  6  5  1  0  0  0
  7  6  4  0  0  0
  6 16  4  0  0  0
  8  7  1  0  0  0
  7 15  4  0  0  0
  8  9  1  0  0  0
  9 10  1  0  0  0
 10 11  1  0  0  0
 11 12  1  0  0  0
 12 13  1  0  0  0
 13 14  2  0  0  0
  2 17  1  0  0  0
  3 18  1  0  0  0
  4 19  1  0  0  0
  4 20  1  0  0  0
  5 21  1  0  0  0
  5 22  1  0  0  0
  5 23  1  0  0  0
  8 24  1  0  0  0
  9 25  1  0  0  0
 10 26  1  0  0  0
 10 27  1  0  0  0
 11 28  1  0  0  0
 11 29  1  0  0  0
 12 30  1  0  0  0
 12 31  1  0  0  0
 15 32  1  0  0  0
M  END
$$$$
