1o4b_ligand
  -I-interpret- 

 79 82  0  0  0  0  0  0  0  0999 V2000
   18.3470   25.1510   18.2600 C   0  0  0  0  0
   17.9190   25.7600   17.1210 C   0  0  0  0  0
   17.1620   26.8700   17.2590 C   0  0  0  0  0
   16.7820   27.3970   18.4740 C   0  0  0  0  0
   17.2130   26.8140   19.7180 C   0  0  0  0  0
   18.0690   25.6410   19.5110 C   0  0  0  0  0
   19.0000   24.7710   20.3300 C   0  0  0  0  0
   19.0090   25.3390   21.7540 C   0  0  0  0  0
   19.8580   24.4270   22.6270 C   0  0  0  0  0
   19.2440   23.4080   23.2650 N   0  0  0  0  0
   19.4620   26.7300   21.7960 N   0  0  0  0  0
   18.7950   27.7140   22.4040 C   0  0  0  0  0
   19.5500   28.9770   22.2110 C   0  0  0  0  0
   17.7270   27.6140   23.0200 O   0  0  0  0  0
   21.0830   24.7080   22.7490 O   0  0  0  0  0
   20.0170   22.4290   24.0370 C   0  0  0  0  0
   18.9530   21.4860   24.6210 C   0  0  0  0  0
   19.4680   20.3020   25.5440 C   0  0  0  0  0
   20.8290   20.5600   26.1470 C   0  0  0  0  0
   21.9480   20.2400   25.1590 C   0  0  0  0  0
   21.9310   20.7900   23.7660 N   0  0  0  0  0
   21.0520   21.7040   23.1560 C   0  0  0  0  0
   22.9650   20.0820   22.9730 C   0  0  0  0  0
   22.5360   18.6740   22.7880 C   0  0  0  0  0
   21.0910   21.9630   21.9470 O   0  0  0  0  0
   16.6200   27.5360   15.7270 P   0  0  0  0  0
   21.4810   18.4820   21.8760 C   0  0  0  0  0
   20.8700   17.2110   21.7940 C   0  0  0  0  0
   21.3390   16.1370   22.5960 C   0  0  0  0  0
   22.4630   16.3150   23.4560 C   0  0  0  0  0
   23.0630   17.5980   23.5580 C   0  0  0  0  0
   20.6500   14.8290   22.4470 C   0  0  0  0  0
   21.4160   13.6370   22.4180 C   0  0  0  0  0
   20.8030   12.4050   22.0650 C   0  0  0  0  0
   19.4320   12.3720   21.7540 C   0  0  0  0  0
   18.6340   13.5270   21.8690 C   0  0  0  0  0
   19.2430   14.7500   22.2130 C   0  0  0  0  0
   15.8670   28.8570   18.2340 P   0  0  0  0  0
   14.8490   28.8820   17.1700 O   0  0  0  0  0
   16.7000   30.0440   18.2930 O   0  0  0  0  0
   15.0720   28.6650   19.3920 O   0  0  0  0  0
   15.2160   27.2480   15.4970 O   0  0  0  0  0
   17.4120   27.1530   14.4100 O   0  0  0  0  0
   17.1270   28.9920   15.6280 O   0  0  0  0  0
   18.9345   24.2368   18.1751 H   0  0  0  0  0
   18.1766   25.3680   16.1371 H   0  0  0  0  0
   16.9355   27.1994   20.6991 H   0  0  0  0  0
   20.0044   24.7765   19.9066 H   0  0  0  0  0
   18.6591   23.7357   20.3303 H   0  0  0  0  0
   17.9899   25.3620   22.1399 H   0  0  0  0  0
   18.2295   23.3176   23.2096 H   0  0  0  0  0
   20.3406   26.9618   21.3327 H   0  0  0  0  0
   18.9265   29.6934   21.6760 H   0  0  0  0  0
   19.8244   29.3869   23.1830 H   0  0  0  0  0
   20.4516   28.7751   21.6327 H   0  0  0  0  0
   20.6169   22.8858   24.8241 H   0  0  0  0  0
   18.4754   21.0097   23.7648 H   0  0  0  0  0
   18.3224   22.1067   25.2575 H   0  0  0  0  0
   19.5480   19.4109   24.9214 H   0  0  0  0  0
   18.7598   20.1938   26.3655 H   0  0  0  0  0
   20.9465   19.9197   27.0212 H   0  0  0  0  0
   20.8945   21.6150   26.4132 H   0  0  0  0  0
   21.8741   19.1618   25.0174 H   0  0  0  0  0
   22.8332   20.6895   25.6089 H   0  0  0  0  0
   23.9208   20.1136   23.4961 H   0  0  0  0  0
   23.0844   20.5646   22.0030 H   0  0  0  0  0
   21.1408   19.3014   21.2429 H   0  0  0  0  0
   20.0345   17.0539   21.1118 H   0  0  0  0  0
   22.8570   15.4754   24.0286 H   0  0  0  0  0
   23.9162   17.7573   24.2174 H   0  0  0  0  0
   22.4768   13.6655   22.6669 H   0  0  0  0  0
   21.3930   11.4890   22.0353 H   0  0  0  0  0
   18.9800   11.4385   21.4189 H   0  0  0  0  0
   17.5594   13.4753   21.6941 H   0  0  0  0  0
   18.6321   15.6483   22.3018 H   0  0  0  0  0
   15.2783   29.0095   16.3209 H   0  0  0  0  0
   17.2105   30.1159   17.4832 H   0  0  0  0  0
   18.3463   27.3343   14.5357 H   0  0  0  0  0
   18.0702   29.0140   15.8056 H   0  0  0  0  0
  1  2  4  0  0  0
  1  6  4  0  0  0
  2  3  4  0  0  0
  3  4  4  0  0  0
  3 26  1  0  0  0
  4  5  4  0  0  0
  4 38  1  0  0  0
  5  6  4  0  0  0
  6  7  1  0  0  0
  7  8  1  0  0  0
  8  9  1  0  0  0
  8 11  1  0  0  0
  9 10  1  0  0  0
  9 15  2  0  0  0
 10 16  1  0  0  0
 11 12  1  0  0  0
 12 13  1  0  0  0
 12 14  2  0  0  0
 16 17  1  0  0  0
 16 22  1  0  0  0
 17 18  1  0  0  0
 18 19  1  0  0  0
 19 20  1  0  0  0
 20 21  1  0  0  0
 21 22  1  0  0  0
 21 23  1  0  0  0
 22 25  2  0  0  0
 23 24  1  0  0  0
 24 27  4  0  0  0
 24 31  4  0  0  0
 26 42  2  0  0  0
 26 43  1  0  0  0
 26 44  1  0  0  0
 27 28  4  0  0  0
 28 29  4  0  0  0
 29 30  4  0  0  0
 29 32  1  0  0  0
 30 31  4  0  0  0
 32 33  4  0  0  0
 32 37  4  0  0  0
 33 34  4  0  0  0
 34 35  4  0  0  0
 35 36  4  0  0  0
 36 37  4  0  0  0
 38 39  1  0  0  0
 38 40  1  0  0  0
 38 41  2  0  0  0
  1 45  1  0  0  0
  2 46  1  0  0  0
  5 47  1  0  0  0
  7 48  1  0  0  0
  7 49  1  0  0  0
  8 50  1  0  0  0
 10 51  1  0  0  0
 11 52  1  0  0  0
 13 53  1  0  0  0
 13 54  1  0  0  0
 13 55  1  0  0  0
 16 56  1  0  0  0
 17 57  1  0  0  0
 17 58  1  0  0  0
 18 59  1  0  0  0
 18 60  1  0  0  0
 19 61  1  0  0  0
 19 62  1  0  0  0
 20 63  1  0  0  0
 20 64  1  0  0  0
 23 65  1  0  0  0
 23 66  1  0  0  0
 27 67  1  0  0  0
 28 68  1  0  0  0
 30 69  1  0  0  0
 31 70  1  0  0  0
 33 71  1  0  0  0
 34 72  1  0  0  0
 35 73  1  0  0  0
 36 74  1  0  0  0
 37 75  1  0  0  0
 39 76  1  0  0  0
 40 77  1  0  0  0
 43 78  1  0  0  0
 44 79  1  0  0  0
M  END
$$$$
