### 
### Created by X-TOOL on Mon Sep 10 21:12:51 2018
### 

@<TRIPOS>MOLECULE
1o4b_ligand
   75    78     1     0     0
SMALL
GAST_HUCK


@<TRIPOS>ATOM
      1 C1         18.3470   25.1510   18.2600 C.ar      1 876        -0.0521
      2 C2         17.9190   25.7600   17.1210 C.ar      1 876        -0.0436
      3 C3         17.1620   26.8700   17.2590 C.ar      1 876         0.0481
      4 C4         16.7820   27.3970   18.4740 C.ar      1 876         0.0485
      5 C5         17.2130   26.8140   19.7180 C.ar      1 876        -0.0351
      6 C6         18.0690   25.6410   19.5110 C.ar      1 876        -0.0305
      7 C7         19.0000   24.7710   20.3300 C.3       1 876         0.0237
      8 C8         19.0090   25.3390   21.7540 C.3       1 876         0.1409
      9 C9         19.8580   24.4270   22.6270 C.2       1 876         0.2060
     10 N10        19.2440   23.4080   23.2650 N.am      1 876        -0.2636
     11 N11        19.4620   26.7300   21.7960 N.am      1 876        -0.2640
     12 C12        18.7950   27.7140   22.4040 C.2       1 876         0.1753
     13 C13        19.5500   28.9770   22.2110 C.3       1 876         0.0258
     14 O14        17.7270   27.6140   23.0200 O.2       1 876        -0.3972
     15 O15        21.0830   24.7080   22.7490 O.2       1 876        -0.3942
     16 C16        20.0170   22.4290   24.0370 C.3       1 876         0.1312
     17 C17        18.9530   21.4860   24.6210 C.3       1 876        -0.0123
     18 C18        19.4680   20.3020   25.5440 C.3       1 876        -0.0470
     19 C19        20.8290   20.5600   26.1470 C.3       1 876        -0.0321
     20 C20        21.9480   20.2400   25.1590 C.3       1 876         0.0362
     21 N21        21.9310   20.7900   23.7660 N.am      1 876        -0.2598
     22 C22        21.0520   21.7040   23.1560 C.2       1 876         0.2060
     23 C23        22.9650   20.0820   22.9730 C.3       1 876         0.0680
     24 C24        22.5360   18.6740   22.7880 C.ar      1 876        -0.0198
     25 O25        21.0910   21.9630   21.9470 O.2       1 876        -0.3942
     26 P26        16.6200   27.5360   15.7270 P.3       1 876         0.0821
     27 C27        21.4810   18.4820   21.8760 C.ar      1 876        -0.0570
     28 C28        20.8700   17.2110   21.7940 C.ar      1 876        -0.0600
     29 C29        21.3390   16.1370   22.5960 C.ar      1 876        -0.0242
     30 C30        22.4630   16.3150   23.4560 C.ar      1 876        -0.0600
     31 C31        23.0630   17.5980   23.5580 C.ar      1 876        -0.0570
     32 C32        20.6500   14.8290   22.4470 C.ar      1 876        -0.0221
     33 C59        21.4160   13.6370   22.4180 C.ar      1 876        -0.0557
     34 C60        20.8030   12.4050   22.0650 C.ar      1 876        -0.0622
     35 C61        19.4320   12.3720   21.7540 C.ar      1 876        -0.0627
     36 C62        18.6340   13.5270   21.8690 C.ar      1 876        -0.0622
     37 C63        19.2430   14.7500   22.2130 C.ar      1 876        -0.0557
     38 P69        15.8670   28.8570   18.2340 P.3       1 876         0.0851
     39 O70        14.8490   28.8820   17.1700 O.co2     1 876        -0.5611
     40 O71        16.7000   30.0440   18.2930 O.co2     1 876        -0.5611
     41 O72        15.0720   28.6650   19.3920 O.co2     1 876        -0.5611
     42 O73        15.2160   27.2480   15.4970 O.co2     1 876        -0.5624
     43 O74        17.4120   27.1530   14.4100 O.co2     1 876        -0.5624
     44 O75        17.1270   28.9920   15.6280 O.co2     1 876        -0.5624
     45 H1         18.9313   24.2419   18.1756 H         1 876         0.0592
     46 H2         18.1752   25.3701   16.1425 H         1 876         0.0654
     47 H3         16.9371   27.1973   20.6937 H         1 876         0.0611
     48 H4         20.0144   24.7997   19.9057 H         1 876         0.0481
     49 H5         18.6358   23.7331   20.3398 H         1 876         0.0481
     50 H6         17.9783   25.3181   22.1376 H         1 876         0.0824
     51 H7         18.2494   23.3194   23.2106 H         1 876         0.1883
     52 H8         20.3234   26.9573   21.3418 H         1 876         0.1884
     53 H9         19.0165   29.8023   22.7053 H         1 876         0.0467
     54 H10        19.6393   29.1902   21.1356 H         1 876         0.0467
     55 H11        20.5538   28.8748   22.6492 H         1 876         0.0467
     56 H12        20.5536   22.9331   24.8542 H         1 876         0.0800
     57 H13        18.4090   21.0364   23.7773 H         1 876         0.0312
     58 H14        18.2611   22.0966   25.2198 H         1 876         0.0312
     59 H15        19.5233   19.3859   24.9377 H         1 876         0.0268
     60 H16        18.7462   20.1578   26.3614 H         1 876         0.0268
     61 H17        20.9497   19.9295   27.0402 H         1 876         0.0285
     62 H18        20.8978   21.6196   26.4341 H         1 876         0.0285
     63 H19        21.9750   19.1446   25.0618 H         1 876         0.0524
     64 H20        22.8825   20.5902   25.6215 H         1 876         0.0524
     65 H21        23.9259   20.1096   23.5077 H         1 876         0.0689
     66 H22        23.0770   20.5674   21.9923 H         1 876         0.0689
     67 H23        21.1427   19.2969   21.2463 H         1 876         0.0561
     68 H24        20.0391   17.0547   21.1156 H         1 876         0.0609
     69 H25        22.8549   15.4800   24.0255 H         1 876         0.0609
     70 H26        23.9115   17.7565   24.2137 H         1 876         0.0561
     71 H27        22.4710   13.6654   22.6655 H         1 876         0.0615
     72 H28        21.3898   11.4940   22.0355 H         1 876         0.0615
     73 H29        18.9825   11.4436   21.4207 H         1 876         0.0610
     74 H30        17.5653   13.4756   21.6951 H         1 876         0.0615
     75 H31        18.6355   15.6434   22.3013 H         1 876         0.0615
@<TRIPOS>BOND
     1    1    2 ar 
     2    1    6 ar 
     3    2    3 ar 
     4    3    4 ar 
     5    3   26 1  
     6    4    5 ar 
     7    4   38 1  
     8    5    6 ar 
     9    6    7 1  
    10    7    8 1  
    11    8    9 1  
    12    8   11 1  
    13    9   10 am 
    14    9   15 2  
    15   10   16 1  
    16   11   12 am 
    17   12   13 1  
    18   12   14 2  
    19   16   17 1  
    20   16   22 1  
    21   17   18 1  
    22   18   19 1  
    23   19   20 1  
    24   20   21 1  
    25   21   22 am 
    26   21   23 1  
    27   22   25 2  
    28   23   24 1  
    29   24   27 ar 
    30   24   31 ar 
    31   26   42 ar 
    32   26   43 ar 
    33   26   44 ar 
    34   27   28 ar 
    35   28   29 ar 
    36   29   30 ar 
    37   29   32 1  
    38   30   31 ar 
    39   32   33 ar 
    40   32   37 ar 
    41   33   34 ar 
    42   34   35 ar 
    43   35   36 ar 
    44   36   37 ar 
    45   38   39 ar 
    46   38   40 ar 
    47   38   41 ar 
    48    1   45 1  
    49    2   46 1  
    50    5   47 1  
    51    7   48 1  
    52    7   49 1  
    53    8   50 1  
    54   10   51 1  
    55   11   52 1  
    56   13   53 1  
    57   13   54 1  
    58   13   55 1  
    59   16   56 1  
    60   17   57 1  
    61   17   58 1  
    62   18   59 1  
    63   18   60 1  
    64   19   61 1  
    65   19   62 1  
    66   20   63 1  
    67   20   64 1  
    68   23   65 1  
    69   23   66 1  
    70   27   67 1  
    71   28   68 1  
    72   30   69 1  
    73   31   70 1  
    74   33   71 1  
    75   34   72 1  
    76   35   73 1  
    77   36   74 1  
    78   37   75 1  
@<TRIPOS>SUBSTRUCTURE
     1 876         1

