5kjn_ligand
  -I-interpret- 

 79 84  0  0  0  0  0  0  0  0999 V2000
  -64.6910  -13.4310  -24.8770 C   0  0  0  0  0
  -65.2250  -12.4860  -25.7500 C   0  0  0  0  0
  -64.9000  -12.5000  -27.1000 C   0  0  0  0  0
  -52.9260  -16.2220  -32.4550 N   0  3  0  0  0
  -62.6280  -15.2970  -27.4880 C   0  0  0  0  0
  -62.7280  -14.8370  -28.7680 C   0  0  0  0  0
  -61.8970  -16.5310  -27.0340 C   0  0  0  0  0
  -60.8480  -16.3780  -25.9420 C   0  0  0  0  0
  -58.6120  -15.8430  -26.8150 C   0  0  0  0  0
  -57.5650  -14.7310  -26.9920 C   0  0  0  0  0
  -58.5520  -13.5550  -25.1050 C   0  0  0  0  0
  -59.5130  -14.6950  -24.9110 C   0  0  0  0  0
  -56.2780  -12.9550  -25.7140 C   0  0  0  0  0
  -56.6620  -11.6090  -25.6410 C   0  0  0  0  0
  -53.9670  -12.2380  -25.7280 C   0  0  0  0  0
  -54.9000  -13.2850  -25.7520 C   0  0  0  0  0
  -54.3600  -14.6760  -25.8100 C   0  0  0  0  0
  -53.4100  -15.0270  -26.7750 C   0  0  0  0  0
  -53.2870  -17.2040  -25.8480 C   0  0  0  0  0
  -51.3980  -18.3510  -29.6490 C   0  0  0  0  0
  -54.1430  -16.5260  -33.2120 C   0  0  0  0  0
  -54.2890  -15.3420  -34.1180 C   0  0  0  0  0
  -53.5710  -14.3320  -33.6390 C   0  0  0  0  0
  -52.9190  -14.7600  -32.3620 C   0  0  0  0  0
  -50.9540  -15.9780  -28.2070 O   0  0  0  0  0
  -51.9000  -16.7010  -27.8880 C   0  0  0  0  0
  -52.1580  -17.8570  -28.5080 N   0  0  0  0  0
  -51.4870  -17.4460  -30.8530 C   0  0  0  0  0
  -52.8660  -16.8920  -31.1600 C   0  0  0  0  0
  -52.8590  -16.3010  -26.8100 C   0  0  0  0  0
  -54.2130  -16.9170  -24.9240 N   0  0  0  0  0
  -54.7210  -15.6780  -24.9150 C   0  0  0  0  0
  -54.3720  -10.9110  -25.6800 C   0  0  0  0  0
  -55.7120  -10.6000  -25.6370 C   0  0  0  0  0
  -57.3070  -14.0110  -25.7340 N   0  0  0  0  0
  -59.8510  -15.3160  -26.1970 N   0  3  0  0  0
  -63.4680  -14.4460  -26.6890 C   0  0  0  0  0
  -63.8130  -14.4070  -25.3350 C   0  0  0  0  0
  -63.5750  -13.7610  -28.8240 N   0  0  0  0  0
  -64.0360  -13.4910  -27.5580 C   0  0  0  0  0
  -64.9647  -13.4050  -23.8222 H   0  0  0  0  0
  -65.9067  -11.7258  -25.3686 H   0  0  0  0  0
  -65.3101  -11.7555  -27.7824 H   0  0  0  0  0
  -52.0888  -16.5755  -32.9182 H   0  0  0  0  0
  -62.2079  -15.2646  -29.6252 H   0  0  0  0  0
  -61.3532  -16.8841  -27.9102 H   0  0  0  0  0
  -62.6624  -17.1816  -26.6109 H   0  0  0  0  0
  -60.3039  -17.3209  -25.8868 H   0  0  0  0  0
  -61.3757  -16.1083  -25.0272 H   0  0  0  0  0
  -58.1971  -16.6120  -26.1633 H   0  0  0  0  0
  -58.8575  -16.2501  -27.7959 H   0  0  0  0  0
  -57.9466  -14.0166  -27.7215 H   0  0  0  0  0
  -56.6322  -15.1901  -27.3194 H   0  0  0  0  0
  -58.3138  -13.1311  -24.1294 H   0  0  0  0  0
  -59.0183  -12.8137  -25.7540 H   0  0  0  0  0
  -60.4258  -14.3116  -24.4551 H   0  0  0  0  0
  -59.0458  -15.4436  -24.2711 H   0  0  0  0  0
  -57.7201  -11.3529  -25.5867 H   0  0  0  0  0
  -52.9024  -12.4710  -25.7474 H   0  0  0  0  0
  -53.0969  -14.2876  -27.5122 H   0  0  0  0  0
  -52.8460  -18.2008  -25.8439 H   0  0  0  0  0
  -51.8125  -19.3192  -29.9300 H   0  0  0  0  0
  -50.3508  -18.4061  -29.3517 H   0  0  0  0  0
  -55.0113  -16.6729  -32.5698 H   0  0  0  0  0
  -54.0738  -17.4667  -33.7582 H   0  0  0  0  0
  -54.8897  -15.3136  -35.0271 H   0  0  0  0  0
  -53.4727  -13.3500  -34.1016 H   0  0  0  0  0
  -51.9153  -14.3513  -32.2452 H   0  0  0  0  0
  -53.4425  -14.3927  -31.4793 H   0  0  0  0  0
  -52.9311  -18.4258  -28.1626 H   0  0  0  0  0
  -51.1980  -18.0487  -31.7140 H   0  0  0  0  0
  -50.8498  -16.5874  -30.6413 H   0  0  0  0  0
  -53.5659  -17.7273  -31.1818 H   0  0  0  0  0
  -53.1118  -16.1592  -30.3915 H   0  0  0  0  0
  -55.4664  -15.4388  -24.1565 H   0  0  0  0  0
  -53.6279  -10.1145  -25.6764 H   0  0  0  0  0
  -56.0270   -9.5572  -25.5997 H   0  0  0  0  0
  -60.2561  -14.6443  -26.8490 H   0  0  0  0  0
  -63.3960  -15.1377  -24.6420 H   0  0  0  0  0
  1  2  4  0  0  0
 38  1  4  0  0  0
  2  3  4  0  0  0
  3 40  4  0  0  0
  4 21  1  0  0  0
  4 24  1  0  0  0
 29  4  1  0  0  0
  5  6  4  0  0  0
  5  7  1  0  0  0
 37  5  4  0  0  0
  6 39  4  0  0  0
  7  8  1  0  0  0
  8 36  1  0  0  0
  9 10  1  0  0  0
 36  9  1  0  0  0
 10 35  1  0  0  0
 12 11  1  0  0  0
 11 35  1  0  0  0
 36 12  1  0  0  0
 13 14  4  0  0  0
 13 16  4  0  0  0
 35 13  1  0  0  0
 14 34  4  0  0  0
 16 15  4  0  0  0
 15 33  4  0  0  0
 16 17  1  0  0  0
 17 18  4  0  0  0
 17 32  4  0  0  0
 18 30  4  0  0  0
 30 19  4  0  0  0
 31 19  4  0  0  0
 27 20  1  0  0  0
 20 28  1  0  0  0
 21 22  1  0  0  0
 23 22  2  0  0  0
 24 23  1  0  0  0
 26 25  2  0  0  0
 26 27  1  0  0  0
 30 26  1  0  0  0
 28 29  1  0  0  0
 32 31  4  0  0  0
 34 33  4  0  0  0
 37 38  4  0  0  0
 37 40  4  0  0  0
 39 40  4  0  0  0
  1 41  1  0  0  0
  2 42  1  0  0  0
  3 43  1  0  0  0
  4 44  1  0  0  0
  6 45  1  0  0  0
  7 46  1  0  0  0
  7 47  1  0  0  0
  8 48  1  0  0  0
  8 49  1  0  0  0
  9 50  1  0  0  0
  9 51  1  0  0  0
 10 52  1  0  0  0
 10 53  1  0  0  0
 11 54  1  0  0  0
 11 55  1  0  0  0
 12 56  1  0  0  0
 12 57  1  0  0  0
 14 58  1  0  0  0
 15 59  1  0  0  0
 18 60  1  0  0  0
 19 61  1  0  0  0
 20 62  1  0  0  0
 20 63  1  0  0  0
 21 64  1  0  0  0
 21 65  1  0  0  0
 22 66  1  0  0  0
 23 67  1  0  0  0
 24 68  1  0  0  0
 24 69  1  0  0  0
 27 70  1  0  0  0
 28 71  1  0  0  0
 28 72  1  0  0  0
 29 73  1  0  0  0
 29 74  1  0  0  0
 32 75  1  0  0  0
 33 76  1  0  0  0
 34 77  1  0  0  0
 36 78  1  0  0  0
 38 79  1  0  0  0
M  END
$$$$
