1hgi_ligand
  -I-interpret- 

 48 48  0  0  0  0  0  0  0  0999 V2000
   -7.5140   71.6350   28.1390 C   0  0  0  0  0
   -8.2370   72.9020   27.6560 C   0  0  0  0  0
   -8.1790   74.0100   28.7110 C   0  0  0  0  0
   -6.7690   74.5550   28.8370 C   0  0  0  0  0
   -6.3190   75.0860   27.4810 C   0  0  0  0  0
   -6.3410   73.9550   26.4600 C   0  0  0  0  0
   -5.9570   74.3300   25.0330 C   0  0  0  0  0
   -6.1310   73.1110   24.1080 C   0  0  0  0  0
   -5.5280   73.4090   22.7380 C   0  0  0  0  0
   -4.4950   76.6390   27.0280 C   0  0  0  0  0
   -3.0490   77.0410   27.2650 C   0  0  0  0  0
   -9.8620   71.5390   26.4670 C   0  0  0  0  0
   -6.8080   75.2060   31.1970 C   0  0  0  0  0
   -8.0340   75.6950   31.9280 C   0  0  0  0  0
   -4.9680   75.5860   27.6600 N   0  0  0  0  0
   -7.8140   71.1280   29.2190 O   0  0  0  0  0
   -6.6280   71.1390   27.4570 O   0  0  0  0  0
   -9.6080   72.5550   27.4610 O   0  0  0  0  0
   -6.5930   75.5930   29.8380 O   0  0  0  0  0
   -7.6600   73.4020   26.4290 O   0  0  0  0  0
   -6.7660   75.3990   24.5890 O   0  0  0  0  0
   -5.5090   71.9820   24.6680 O   0  0  0  0  0
   -5.4070   72.2350   21.9630 O   0  0  0  0  0
   -5.2200   77.2380   26.2370 O   0  0  0  0  0
   -6.0560   74.4070   31.7540 O   0  0  0  0  0
   -8.4854   73.5981   29.6726 H   0  0  0  0  0
   -8.8445   74.8191   28.4100 H   0  0  0  0  0
   -6.1583   73.7176   29.1746 H   0  0  0  0  0
   -6.9765   75.8760   27.1179 H   0  0  0  0  0
   -5.5768   73.2538   26.7952 H   0  0  0  0  0
   -4.9130   74.6423   25.0097 H   0  0  0  0  0
   -7.1954   72.9056   23.9944 H   0  0  0  0  0
   -4.5343   73.8333   22.8817 H   0  0  0  0  0
   -6.1844   74.1038   22.2142 H   0  0  0  0  0
   -2.4956   76.9708   26.3286 H   0  0  0  0  0
   -3.0140   78.0663   27.6333 H   0  0  0  0  0
   -2.6038   76.3732   28.0026 H   0  0  0  0  0
   -9.4917   71.8783   25.4996 H   0  0  0  0  0
   -9.3509   70.6190   26.7508 H   0  0  0  0  0
  -10.9345   71.3554   26.4028 H   0  0  0  0  0
   -8.6722   74.8460   32.1730 H   0  0  0  0  0
   -7.7312   76.2002   32.8452 H   0  0  0  0  0
   -8.5812   76.3909   31.2921 H   0  0  0  0  0
   -4.3532   75.0956   28.3095 H   0  0  0  0  0
   -8.5215   71.6352   29.6238 H   0  0  0  0  0
   -6.6486   76.1517   25.1732 H   0  0  0  0  0
   -5.6250   71.2305   24.0820 H   0  0  0  0  0
   -5.0259   72.4542   21.1096 H   0  0  0  0  0
  2  1  1  0  0  0
  1 16  1  0  0  0
  1 17  2  0  0  0
  3  2  1  0  0  0
  2 18  1  0  0  0
  2 20  1  0  0  0
  4  3  1  0  0  0
  4  5  1  0  0  0
 19  4  1  0  0  0
  5  6  1  0  0  0
  5 15  1  0  0  0
  6  7  1  0  0  0
  6 20  1  0  0  0
  7  8  1  0  0  0
  7 21  1  0  0  0
  8  9  1  0  0  0
  8 22  1  0  0  0
  9 23  1  0  0  0
 10 11  1  0  0  0
 15 10  1  0  0  0
 10 24  2  0  0  0
 18 12  1  0  0  0
 13 14  1  0  0  0
 13 19  1  0  0  0
 13 25  2  0  0  0
  3 26  1  0  0  0
  3 27  1  0  0  0
  4 28  1  0  0  0
  5 29  1  0  0  0
  6 30  1  0  0  0
  7 31  1  0  0  0
  8 32  1  0  0  0
  9 33  1  0  0  0
  9 34  1  0  0  0
 11 35  1  0  0  0
 11 36  1  0  0  0
 11 37  1  0  0  0
 12 38  1  0  0  0
 12 39  1  0  0  0
 12 40  1  0  0  0
 14 41  1  0  0  0
 14 42  1  0  0  0
 14 43  1  0  0  0
 15 44  1  0  0  0
 16 45  1  0  0  0
 21 46  1  0  0  0
 22 47  1  0  0  0
 23 48  1  0  0  0
M  END
$$$$
