5opu_ligand
  -I-interpret- 

 30 32  0  0  0  0  0  0  0  0999 V2000
    5.7050   -5.8720   13.8220 C   0  0  0  0  0
    5.2180   -6.0990   15.2860 C   0  0  0  0  0
    5.1530   -5.0010   16.1750 C   0  0  0  0  0
    4.8540   -7.3540   15.6610 C   0  0  0  0  0
    4.4050   -7.6150   16.9940 C   0  0  0  0  0
    4.3080   -6.5600   17.8440 C   0  0  0  0  0
    4.7070   -5.2780   17.5350 C   0  0  0  0  0
    4.6080   -4.0940   18.4130 C   0  0  0  0  0
    5.6390   -3.1150   18.5890 C   0  0  0  0  0
    3.3790   -3.9080   18.9830 C   0  0  0  0  0
    3.2710   -2.6950   19.8000 C   0  0  0  0  0
    2.0780   -2.5040   20.3580 N   0  0  0  0  0
    4.1950   -1.7720   19.9540 N   0  0  0  0  0
    5.4200   -1.9770   19.4140 C   0  0  0  0  0
    6.4820   -1.2170   19.3250 N   0  0  0  0  0
    7.4650   -1.7860   18.6300 C   0  0  0  0  0
    6.9690   -2.9760   18.1750 C   0  0  0  0  0
    7.8060   -3.8000   17.2990 C   0  0  0  0  0
    8.4700   -4.4910   16.6520 N   0  0  0  0  0
    5.0429   -5.1622   13.3261 H   0  0  0  0  0
    6.7202   -5.4754   13.8355 H   0  0  0  0  0
    5.6911   -6.8203   13.2847 H   0  0  0  0  0
    5.4239   -3.9940   15.8579 H   0  0  0  0  0
    4.9047   -8.1691   14.9392 H   0  0  0  0  0
    4.1498   -8.6246   17.3161 H   0  0  0  0  0
    3.8877   -6.7390   18.8336 H   0  0  0  0  0
    2.5504   -4.6021   18.8421 H   0  0  0  0  0
    1.3277   -3.1769   20.2006 H   0  0  0  0  0
    1.9139   -1.6848   20.9431 H   0  0  0  0  0
    8.4636   -1.3841   18.4585 H   0  0  0  0  0
  1  2  1  0  0  0
  2  3  4  0  0  0
  2  4  4  0  0  0
  3  7  4  0  0  0
  4  5  4  0  0  0
  5  6  4  0  0  0
  6  7  4  0  0  0
  7  8  1  0  0  0
  8  9  4  0  0  0
  8 10  4  0  0  0
  9 14  4  0  0  0
  9 17  4  0  0  0
 10 11  4  0  0  0
 11 12  1  0  0  0
 11 13  4  0  0  0
 13 14  4  0  0  0
 14 15  4  0  0  0
 15 16  4  0  0  0
 16 17  4  0  0  0
 17 18  1  0  0  0
 18 19  3  0  0  0
  1 20  1  0  0  0
  1 21  1  0  0  0
  1 22  1  0  0  0
  3 23  1  0  0  0
  4 24  1  0  0  0
  5 25  1  0  0  0
  6 26  1  0  0  0
 10 27  1  0  0  0
 12 28  1  0  0  0
 12 29  1  0  0  0
 16 30  1  0  0  0
M  END
$$$$
