3g0d_ligand
  -I-interpret- 

 53 56  0  0  0  0  0  0  0  0999 V2000
   43.1440    0.1760   13.0240 C   0  0  0  0  0
   44.1360   -0.8220   13.4410 C   0  0  0  0  0
   44.2020    0.8640   14.7340 C   0  0  0  0  0
   45.4420    2.8400   15.4660 C   0  0  0  0  0
   44.7140    2.0420   18.2610 C   0  0  0  0  0
   44.6520    1.0030   17.1360 C   0  0  0  0  0
   42.4830    2.4980   13.8840 C   0  0  0  0  0
   38.9510    3.5370   13.1090 C   0  0  0  0  0
   38.2010    2.7180   13.9480 C   0  0  0  0  0
   38.8260    1.7920   14.7840 C   0  0  0  0  0
   40.7500    0.8000   15.6100 C   0  0  0  0  0
   43.5150   -2.2950   11.6930 C   0  0  0  0  0
   41.7520   -1.8160   10.0220 C   0  0  0  0  0
   42.5230   -1.4020   11.2060 N   0  0  0  0  0
   42.2990   -0.1530   11.8420 C   0  0  0  0  0
   41.4390    0.6360   11.4140 O   0  0  0  0  0
   44.7670   -0.3490   14.5170 N   0  0  0  0  0
   44.7210    1.5970   15.7920 N   0  0  0  0  0
   45.5420    3.7830   16.6650 C   0  0  0  0  0
   45.8260    3.0480   17.9720 C   0  0  0  0  0
   43.4260    2.7020   18.3750 N   0  3  0  0  0
   43.2160    1.2240   13.8780 N   0  0  0  0  0
   40.9760    2.4950   13.9560 C   0  0  0  0  0
   40.3350    3.4190   13.1250 C   0  0  0  0  0
   40.2220    1.6710   14.8000 C   0  0  0  0  0
   41.2610    0.0890   16.3760 N   0  0  0  0  0
   44.3250   -1.9920   12.8120 N   0  0  0  0  0
   45.3330   -2.9560   13.2860 C   0  0  0  0  0
   43.6960   -3.3840   11.1160 O   0  0  0  0  0
   44.8925    3.3530   14.6767 H   0  0  0  0  0
   46.4536    2.5741   15.1592 H   0  0  0  0  0
   44.9379    1.5532   19.2092 H   0  0  0  0  0
   43.6969    0.4842   17.2186 H   0  0  0  0  0
   45.5118    0.3427   17.2492 H   0  0  0  0  0
   42.7106    2.9500   12.9186 H   0  0  0  0  0
   42.8005    2.9929   14.8018 H   0  0  0  0  0
   38.4621    4.2567   12.4524 H   0  0  0  0  0
   37.1142    2.8008   13.9520 H   0  0  0  0  0
   38.2221    1.1561   15.4314 H   0  0  0  0  0
   42.4316   -1.9744    9.1846 H   0  0  0  0  0
   41.2214   -2.7425   10.2413 H   0  0  0  0  0
   41.0342   -1.0365    9.7666 H   0  0  0  0  0
   44.5845    4.2932   16.7697 H   0  0  0  0  0
   46.3680    4.4702   16.4817 H   0  0  0  0  0
   46.7743    2.5177   17.8853 H   0  0  0  0  0
   45.8742    3.7714   18.7859 H   0  0  0  0  0
   42.7049    2.0068   18.5676 H   0  0  0  0  0
   43.4588    3.3796   19.1367 H   0  0  0  0  0
   43.2125    3.1817   17.5005 H   0  0  0  0  0
   40.9332    4.0594   12.4769 H   0  0  0  0  0
   44.8401   -3.8869   13.5663 H   0  0  0  0  0
   46.0516   -3.1494   12.4896 H   0  0  0  0  0
   45.8505   -2.5425   14.1516 H   0  0  0  0  0
  1  2  4  0  0  0
  1 15  1  0  0  0
 22  1  4  0  0  0
 17  2  4  0  0  0
  2 27  1  0  0  0
  3 17  4  0  0  0
  3 18  1  0  0  0
 22  3  4  0  0  0
 18  4  1  0  0  0
  4 19  1  0  0  0
  6  5  1  0  0  0
  5 20  1  0  0  0
  5 21  1  0  0  0
 18  6  1  0  0  0
  7 22  1  0  0  0
 23  7  1  0  0  0
  8  9  4  0  0  0
 24  8  4  0  0  0
  9 10  4  0  0  0
 10 25  4  0  0  0
 25 11  1  0  0  0
 11 26  3  0  0  0
 14 12  1  0  0  0
 27 12  1  0  0  0
 12 29  2  0  0  0
 14 13  1  0  0  0
 15 14  1  0  0  0
 15 16  2  0  0  0
 19 20  1  0  0  0
 23 24  4  0  0  0
 23 25  4  0  0  0
 27 28  1  0  0  0
  4 30  1  0  0  0
  4 31  1  0  0  0
  5 32  1  0  0  0
  6 33  1  0  0  0
  6 34  1  0  0  0
  7 35  1  0  0  0
  7 36  1  0  0  0
  8 37  1  0  0  0
  9 38  1  0  0  0
 10 39  1  0  0  0
 13 40  1  0  0  0
 13 41  1  0  0  0
 13 42  1  0  0  0
 19 43  1  0  0  0
 19 44  1  0  0  0
 20 45  1  0  0  0
 20 46  1  0  0  0
 21 47  1  0  0  0
 21 48  1  0  0  0
 21 49  1  0  0  0
 24 50  1  0  0  0
 28 51  1  0  0  0
 28 52  1  0  0  0
 28 53  1  0  0  0
M  END
$$$$
