5f3e_ligand
  -I-interpret- 

 38 40  0  0  0  0  0  0  0  0999 V2000
    6.5290  -18.4420  -53.1620 C   0  0  0  0  0
    4.5740  -14.8140  -52.1630 N   0  0  0  0  0
    5.4380  -15.0040  -53.2770 C   0  0  0  0  0
    3.3300  -13.7620  -50.7950 C   0  0  0  0  0
    3.4640  -15.0580  -50.2770 C   0  0  0  0  0
    2.8970  -15.6190  -48.9980 C   0  0  0  0  0
    4.2190  -15.7860  -45.4550 C   0  0  0  0  0
    4.2690  -15.7060  -51.1970 C   0  0  0  0  0
    6.5710  -13.9050  -54.9330 C   0  0  0  0  0
    7.3600  -14.9970  -55.2180 C   0  0  0  0  0
    5.8370  -17.3780  -52.8240 N   0  0  0  0  0
    6.1410  -16.2210  -53.5040 C   0  0  0  0  0
    3.8130  -15.3970  -47.8060 C   0  0  0  0  0
    2.7240  -17.2150  -46.6360 C   0  0  0  0  0
    3.9900  -13.6030  -51.9260 N   0  0  0  0  0
    3.2340  -15.8460  -46.5360 N   0  3  0  0  0
    5.6220  -13.8930  -53.9920 N   0  0  0  0  0
    7.1280  -16.1640  -54.4970 C   0  0  0  0  0
    7.8840  -17.3800  -54.8000 C   0  0  0  0  0
    8.8100  -17.4010  -55.6020 O   0  0  0  0  0
    7.5080  -18.4690  -54.0930 N   0  0  0  0  0
    6.2953  -19.3763  -52.6516 H   0  0  0  0  0
    2.7465  -12.9750  -50.3172 H   0  0  0  0  0
    2.7721  -16.6938  -49.1295 H   0  0  0  0  0
    1.9549  -15.1091  -48.7967 H   0  0  0  0  0
    5.0643  -16.4293  -45.6993 H   0  0  0  0  0
    4.5646  -14.7590  -45.3367 H   0  0  0  0  0
    3.7590  -16.1252  -44.5268 H   0  0  0  0  0
    4.5963  -16.7446  -51.1503 H   0  0  0  0  0
    6.7302  -12.9943  -55.5104 H   0  0  0  0  0
    8.1376  -14.9488  -55.9803 H   0  0  0  0  0
    3.9928  -14.3250  -47.7246 H   0  0  0  0  0
    4.7207  -15.9759  -47.9765 H   0  0  0  0  0
    3.5493  -17.8941  -46.8500 H   0  0  0  0  0
    2.2553  -17.4966  -45.6930 H   0  0  0  0  0
    1.9891  -17.2698  -47.4391 H   0  0  0  0  0
    2.4610  -15.2147  -46.3255 H   0  0  0  0  0
    7.9857  -19.3526  -54.2706 H   0  0  0  0  0
 11  1  2  0  0  0
  1 21  1  0  0  0
  2  3  1  0  0  0
  8  2  4  0  0  0
  2 15  4  0  0  0
  3 12  4  0  0  0
  3 17  4  0  0  0
  5  4  4  0  0  0
  4 15  4  0  0  0
  6  5  1  0  0  0
  5  8  4  0  0  0
 13  6  1  0  0  0
 16  7  1  0  0  0
  9 10  4  0  0  0
 17  9  4  0  0  0
 18 10  4  0  0  0
 12 11  1  0  0  0
 12 18  4  0  0  0
 13 16  1  0  0  0
 16 14  1  0  0  0
 18 19  1  0  0  0
 19 20  2  0  0  0
 19 21  1  0  0  0
  1 22  1  0  0  0
  4 23  1  0  0  0
  6 24  1  0  0  0
  6 25  1  0  0  0
  7 26  1  0  0  0
  7 27  1  0  0  0
  7 28  1  0  0  0
  8 29  1  0  0  0
  9 30  1  0  0  0
 10 31  1  0  0  0
 13 32  1  0  0  0
 13 33  1  0  0  0
 14 34  1  0  0  0
 14 35  1  0  0  0
 14 36  1  0  0  0
 16 37  1  0  0  0
 21 38  1  0  0  0
M  END
$$$$
