4h58_ligand
  -I-interpret- 

 53 56  0  0  0  0  0  0  0  0999 V2000
   37.5430  121.6730   78.4140 C   0  0  0  0  0
   36.5040  122.4850   77.8550 O   0  0  0  0  0
   35.3350  121.7710   77.4210 C   0  0  0  0  0
   34.2500  122.7160   76.8650 C   0  0  0  0  0
   32.9020  122.5300   77.4650 N   0  3  0  0  0
   31.8430  122.0980   76.5050 C   0  0  0  0  0
   30.4250  122.0890   77.0820 C   0  0  0  0  0
   29.7180  120.8950   77.2650 C   0  0  0  0  0
   28.4250  120.8970   77.8030 C   0  0  0  0  0
   27.8290  122.1060   78.1530 C   0  0  0  0  0
   28.5420  123.2850   77.9640 C   0  0  0  0  0
   29.8210  123.2800   77.4350 C   0  0  0  0  0
   26.5390  122.3010   78.7300 N   0  0  0  0  0
   25.4960  121.4480   79.1950 C   0  0  0  0  0
   25.5940  120.0660   79.1540 N   0  0  0  0  0
   24.5520  119.2690   79.6100 C   0  0  0  0  0
   24.6670  117.8950   79.5550 C   0  0  0  0  0
   23.6390  117.0780   80.0020 C   0  0  0  0  0
   22.4710  117.6180   80.5240 C   0  0  0  0  0
   22.3410  119.0060   80.5700 C   0  0  0  0  0
   23.3820  119.8200   80.1200 C   0  0  0  0  0
   23.2810  121.1960   80.1640 C   0  0  0  0  0
   24.3290  121.9950   79.7070 N   0  0  0  0  0
   21.3980  116.6920   80.9550 C   0  0  0  0  0
   21.6880  115.4720   81.5490 C   0  0  0  0  0
   20.6500  114.6250   81.9130 C   0  0  0  0  0
   19.3240  114.9770   81.6830 N   0  0  0  0  0
   19.0360  116.1830   81.0800 C   0  0  0  0  0
   20.0700  117.0300   80.7120 C   0  0  0  0  0
   37.1596  121.1449   79.2870 H   0  0  0  0  0
   37.8785  120.9511   77.6694 H   0  0  0  0  0
   38.3788  122.3072   78.7095 H   0  0  0  0  0
   34.9195  121.2452   78.2806 H   0  0  0  0  0
   35.6305  121.0874   76.6250 H   0  0  0  0  0
   34.1569  122.5026   75.8002 H   0  0  0  0  0
   34.5644  123.7335   77.0972 H   0  0  0  0  0
   32.6148  123.4364   77.8343 H   0  0  0  0  0
   32.9881  121.7912   78.1629 H   0  0  0  0  0
   32.0751  121.0731   76.2153 H   0  0  0  0  0
   31.8475  122.8139   75.6831 H   0  0  0  0  0
   30.1809  119.9489   76.9844 H   0  0  0  0  0
   27.8889  119.9589   77.9468 H   0  0  0  0  0
   28.0831  124.2347   78.2388 H   0  0  0  0  0
   30.3542  124.2205   77.2963 H   0  0  0  0  0
   26.3072  123.2887   78.8351 H   0  0  0  0  0
   25.5765  117.4463   79.1555 H   0  0  0  0  0
   23.7497  115.9953   79.9426 H   0  0  0  0  0
   21.4265  119.4551   80.9574 H   0  0  0  0  0
   22.3772  121.6607   80.5581 H   0  0  0  0  0
   22.7229  115.1808   81.7285 H   0  0  0  0  0
   20.8775  113.6698   82.3862 H   0  0  0  0  0
   18.0008  116.4690   80.8936 H   0  0  0  0  0
   19.8389  117.9769   80.2240 H   0  0  0  0  0
  1  2  1  0  0  0
  2  3  1  0  0  0
  3  4  1  0  0  0
  4  5  1  0  0  0
  5  6  1  0  0  0
  6  7  1  0  0  0
  7  8  4  0  0  0
  7 12  4  0  0  0
  8  9  4  0  0  0
  9 10  4  0  0  0
 10 11  4  0  0  0
 10 13  1  0  0  0
 11 12  4  0  0  0
 13 14  1  0  0  0
 14 15  4  0  0  0
 14 23  4  0  0  0
 15 16  4  0  0  0
 16 17  4  0  0  0
 16 21  4  0  0  0
 17 18  4  0  0  0
 18 19  4  0  0  0
 19 20  4  0  0  0
 19 24  1  0  0  0
 20 21  4  0  0  0
 21 22  4  0  0  0
 22 23  4  0  0  0
 24 25  4  0  0  0
 24 29  4  0  0  0
 25 26  4  0  0  0
 26 27  4  0  0  0
 27 28  4  0  0  0
 28 29  4  0  0  0
  1 30  1  0  0  0
  1 31  1  0  0  0
  1 32  1  0  0  0
  3 33  1  0  0  0
  3 34  1  0  0  0
  4 35  1  0  0  0
  4 36  1  0  0  0
  5 37  1  0  0  0
  5 38  1  0  0  0
  6 39  1  0  0  0
  6 40  1  0  0  0
  8 41  1  0  0  0
  9 42  1  0  0  0
 11 43  1  0  0  0
 12 44  1  0  0  0
 13 45  1  0  0  0
 17 46  1  0  0  0
 18 47  1  0  0  0
 20 48  1  0  0  0
 22 49  1  0  0  0
 25 50  1  0  0  0
 26 51  1  0  0  0
 28 52  1  0  0  0
 29 53  1  0  0  0
M  END
$$$$
