5ot8_ligand
  -I-interpret- 

 36 35  0  0  0  0  0  0  0  0999 V2000
    5.7880   19.3490  -12.2320 O   0  0  0  0  0
    5.7510   20.4380  -11.6380 C   0  0  0  0  0
    4.4680   20.9950  -11.1780 C   0  0  0  0  0
    3.9200   22.0390  -12.1820 C   0  0  0  0  0
    3.4400   19.9960  -10.8980 N   0  3  0  0  0
    3.7430   18.8700   -9.9690 C   0  0  0  0  0
    2.5010   18.0560   -9.7180 C   0  0  0  0  0
    1.3570   18.5530   -9.9230 O   0  0  0  0  0
    2.5960   16.8460   -9.2850 O   0  0  0  0  0
    4.3940   19.2860   -8.6450 C   0  0  0  0  0
    3.6010   20.3980   -7.9110 C   0  0  0  0  0
    3.8350   20.3910   -6.4200 C   0  0  0  0  0
    3.2050   21.5800   -5.9710 N   0  0  0  0  0
    3.5620   22.1720   -4.7720 C   0  0  0  0  0
    2.9540   23.2560   -4.4060 N   0  0  0  0  0
    4.4810   21.6260   -4.0480 N   0  0  0  0  0
    6.8510   21.0360  -11.4300 O   0  0  0  0  0
    4.6985   21.4750  -10.2269 H   0  0  0  0  0
    3.6398   21.5379  -13.1086 H   0  0  0  0  0
    3.0457   22.5290  -11.7537 H   0  0  0  0  0
    4.6902   22.7823  -12.3880 H   0  0  0  0  0
    3.2624   19.5486  -11.7973 H   0  0  0  0  0
    2.6923   20.5161  -10.4387 H   0  0  0  0  0
    4.4942   18.2646  -10.4762 H   0  0  0  0  0
    3.5223   16.6165   -9.1806 H   0  0  0  0  0
    5.3872   19.6754   -8.8685 H   0  0  0  0  0
    4.4211   18.4106   -7.9961 H   0  0  0  0  0
    2.5393   20.2227   -8.0845 H   0  0  0  0  0
    3.9363   21.3601   -8.2984 H   0  0  0  0  0
    4.8949   20.3629   -6.1672 H   0  0  0  0  0
    3.4282   19.5004   -5.9410 H   0  0  0  0  0
    2.4755   22.0065   -6.5423 H   0  0  0  0  0
    3.1972   23.7036   -3.5223 H   0  0  0  0  0
    2.2322   23.6618   -5.0016 H   0  0  0  0  0
    4.9349   20.7681   -4.3617 H   0  0  0  0  0
    6.6835   21.8596  -10.9661 H   0  0  0  0  0
  1  2  2  0  0  0
  2  3  1  0  0  0
  2 17  1  0  0  0
  3  4  1  0  0  0
  3  5  1  0  0  0
  5  6  1  0  0  0
  6  7  1  0  0  0
  6 10  1  0  0  0
  7  8  2  0  0  0
  7  9  1  0  0  0
 10 11  1  0  0  0
 11 12  1  0  0  0
 12 13  1  0  0  0
 13 14  1  0  0  0
 14 15  1  0  0  0
 14 16  2  0  0  0
  3 18  1  0  0  0
  4 19  1  0  0  0
  4 20  1  0  0  0
  4 21  1  0  0  0
  5 22  1  0  0  0
  5 23  1  0  0  0
  6 24  1  0  0  0
  9 25  1  0  0  0
 10 26  1  0  0  0
 10 27  1  0  0  0
 11 28  1  0  0  0
 11 29  1  0  0  0
 12 30  1  0  0  0
 12 31  1  0  0  0
 13 32  1  0  0  0
 15 33  1  0  0  0
 15 34  1  0  0  0
 16 35  1  0  0  0
 17 36  1  0  0  0
M  END
$$$$
