3ipa_ligand
  -I-interpret- 

 14 13  0  0  0  0  0  0  0  0999 V2000
   23.2250   18.7540   16.8420 N   0  3  0  0  0
   23.4190   18.6240   18.2810 C   0  0  0  0  0
   23.0750   17.2090   18.7360 C   0  0  0  0  0
   23.2120   16.8440   19.9100 O   0  0  0  0  0
   22.5680   19.6480   19.0170 C   0  0  0  0  0
   22.6530   16.3910   17.9150 O   0  0  0  0  0
   23.7996   18.0635   16.3589 H   0  0  0  0  0
   22.2425   18.5977   16.6171 H   0  0  0  0  0
   23.4977   19.6915   16.5467 H   0  0  0  0  0
   24.4667   18.8126   18.5151 H   0  0  0  0  0
   23.5452   17.5757   20.4346 H   0  0  0  0  0
   21.5145   19.4579   18.8118 H   0  0  0  0  0
   22.7510   19.5678   20.0885 H   0  0  0  0  0
   22.8309   20.6494   18.6761 H   0  0  0  0  0
  1  2  1  0  0  0
  2  3  1  0  0  0
  2  5  1  0  0  0
  3  4  1  0  0  0
  3  6  2  0  0  0
  1  7  1  0  0  0
  1  8  1  0  0  0
  1  9  1  0  0  0
  2 10  1  0  0  0
  4 11  1  0  0  0
  5 12  1  0  0  0
  5 13  1  0  0  0
  5 14  1  0  0  0
M  END
$$$$
