5eqe_ligand
  -I-interpret- 

 43 44  0  0  0  0  0  0  0  0999 V2000
   17.2160   72.9340   60.2590 C   0  0  0  0  0
   19.6050   72.1640   60.4190 C   0  0  0  0  0
   18.2970   72.3260   61.0750 N   0  3  0  0  0
   17.4650   74.4120   59.8420 C   0  0  0  0  0
   17.8350   75.3910   60.9230 N   0  3  0  0  0
   17.4390   75.0220   62.3020 C   0  0  0  0  0
   18.4690   74.1010   62.9500 C   0  0  0  0  0
   18.2850   72.6280   62.5420 C   0  0  0  0  0
   17.7520   76.8590   60.6240 C   0  0  0  0  0
   17.2610   77.3120   59.2440 C   0  0  0  0  0
   18.1980   77.6890   58.2340 C   0  0  0  0  0
   17.7530   78.1070   56.9580 C   0  0  0  0  0
   16.3510   78.1660   56.6640 C   0  0  0  0  0
   15.4130   77.7940   57.6690 C   0  0  0  0  0
   15.8580   77.3760   58.9420 C   0  0  0  0  0
   15.8630   78.6110   55.3030 C   0  0  0  0  0
   16.0910   80.0430   55.0660 N   0  3  0  0  0
   16.3146   72.9259   60.8718 H   0  0  0  0  0
   17.1492   72.3529   59.3392 H   0  0  0  0  0
   20.1804   73.0835   60.5267 H   0  0  0  0  0
   20.1443   71.3396   60.8854 H   0  0  0  0  0
   19.4553   71.9494   59.3609 H   0  0  0  0  0
   18.0005   71.3505   61.1057 H   0  0  0  0  0
   16.5153   74.7658   59.4408 H   0  0  0  0  0
   18.3211   74.3845   59.1679 H   0  0  0  0  0
   18.8451   75.2513   60.8997 H   0  0  0  0  0
   16.4844   74.4976   62.2592 H   0  0  0  0  0
   17.3666   75.9327   62.8966 H   0  0  0  0  0
   18.3458   74.1677   64.0310 H   0  0  0  0  0
   19.4581   74.4194   62.6207 H   0  0  0  0  0
   19.1352   72.0924   62.9644 H   0  0  0  0  0
   17.2958   72.3405   62.8983 H   0  0  0  0  0
   18.7799   77.2161   60.6866 H   0  0  0  0  0
   17.0128   77.2463   61.3253 H   0  0  0  0  0
   19.2661   77.6543   58.4485 H   0  0  0  0  0
   18.4795   78.3856   56.1946 H   0  0  0  0  0
   14.3451   77.8322   57.4541 H   0  0  0  0  0
   15.1293   77.0989   59.7038 H   0  0  0  0  0
   14.7896   78.4280   55.2535 H   0  0  0  0  0
   16.4156   78.0523   54.5477 H   0  0  0  0  0
   15.7461   80.2921   54.1390 H   0  0  0  0  0
   15.5946   80.5865   55.7721 H   0  0  0  0  0
   17.0900   80.2410   55.1230 H   0  0  0  0  0
  1  3  1  0  0  0
  1  4  1  0  0  0
  3  2  1  0  0  0
  3  8  1  0  0  0
  4  5  1  0  0  0
  5  6  1  0  0  0
  5  9  1  0  0  0
  6  7  1  0  0  0
  7  8  1  0  0  0
  9 10  1  0  0  0
 10 11  4  0  0  0
 10 15  4  0  0  0
 11 12  4  0  0  0
 12 13  4  0  0  0
 13 14  4  0  0  0
 13 16  1  0  0  0
 14 15  4  0  0  0
 16 17  1  0  0  0
  1 18  1  0  0  0
  1 19  1  0  0  0
  2 20  1  0  0  0
  2 21  1  0  0  0
  2 22  1  0  0  0
  3 23  1  0  0  0
  4 24  1  0  0  0
  4 25  1  0  0  0
  5 26  1  0  0  0
  6 27  1  0  0  0
  6 28  1  0  0  0
  7 29  1  0  0  0
  7 30  1  0  0  0
  8 31  1  0  0  0
  8 32  1  0  0  0
  9 33  1  0  0  0
  9 34  1  0  0  0
 11 35  1  0  0  0
 12 36  1  0  0  0
 14 37  1  0  0  0
 15 38  1  0  0  0
 16 39  1  0  0  0
 16 40  1  0  0  0
 17 41  1  0  0  0
 17 42  1  0  0  0
 17 43  1  0  0  0
M  END
$$$$
