### 
### Created by X-TOOL on Mon Sep 10 21:13:10 2018
### 

@<TRIPOS>MOLECULE
4ge2_ligand
   65    66     1     0     0
SMALL
GAST_HUCK


@<TRIPOS>ATOM
      1 C23        19.1090    1.1630   -2.6650 C.2       1 75A         0.1753
      2 O7         18.9790    2.1720   -2.0020 O.2       1 75A        -0.3972
      3 C24        20.3570    0.6900   -2.9460 C.3       1 75A         0.0258
      4 N1         17.9300    0.6040   -3.0810 N.am      1 75A        -0.2633
      5 C9         16.9980   -0.2650   -2.3390 C.3       1 75A         0.1450
      6 C10        17.2450   -1.7380   -2.7090 C.2       1 75A         0.2068
      7 O4         17.3460   -2.5910   -1.8560 O.2       1 75A        -0.3941
      8 C8         15.5570    0.2830   -2.6260 C.3       1 75A         0.0367
      9 C5         14.5310   -0.2520   -1.6250 C.ar      1 75A        -0.0068
     10 C6         14.4670    0.2450   -0.3400 C.ar      1 75A        -0.0280
     11 C4         13.6420   -1.2520   -1.9760 C.ar      1 75A        -0.0280
     12 C7         13.5490   -0.2420    0.5660 C.ar      1 75A        -0.0385
     13 C3         12.7210   -1.7420   -1.0720 C.ar      1 75A        -0.0385
     14 C2         12.6530   -1.2500    0.2210 C.ar      1 75A         0.0219
     15 C1         11.6480   -1.7960    1.2390 C.3       1 75A         0.2931
     16 F1         11.9700   -1.4070    2.5070 F         1 75A        -0.2419
     17 F2         11.6190   -3.1710    1.2690 F         1 75A        -0.2419
     18 P1          9.8910   -1.2380    0.9470 P.3       1 75A         0.0966
     19 O2          9.6550    0.1510    1.4200 O.co2     1 75A        -0.5668
     20 O1          9.5410   -1.3070   -0.6190 O.co2     1 75A        -0.5668
     21 O3          8.9370   -2.2470    1.7700 O.co2     1 75A        -0.5668
     22 N2         17.3570   -2.0100   -4.0620 N.am      1 75A        -0.2635
     23 N4         15.2290   -2.2530   -9.1770 N.am      1 75A        -0.2861
     24 C11        16.5730   -3.0430   -4.7710 C.3       1 75A         0.1307
     25 C12        17.2670   -4.4210   -4.7360 C.2       1 75A         0.1992
     26 C13        16.3640   -2.5710   -6.2320 C.3       1 75A        -0.0106
     27 C14        14.9520   -2.8100   -6.8060 C.3       1 75A        -0.0286
     28 C15        15.0270   -3.3660   -8.2470 C.3       1 75A         0.0306
     29 C16        16.1500   -2.0990  -10.1850 C.2       1 75A         0.2055
     30 C17        15.9750   -1.4880  -11.3990 C.ar      1 75A         0.0528
     31 C18        16.0330   -0.0980  -11.4600 C.ar      1 75A        -0.0394
     32 C19        15.8630    0.5880  -12.6470 C.ar      1 75A        -0.0533
     33 C20        15.6270   -0.1030  -13.8150 C.ar      1 75A        -0.0465
     34 C21        15.5660   -1.4800  -13.7770 C.ar      1 75A         0.0151
     35 C22        15.7390   -2.1540  -12.5890 C.ar      1 75A        -0.0308
     36 O5         16.7390   -5.4280   -4.3340 O.2       1 75A        -0.3947
     37 O6         17.2460   -2.5740   -9.9320 O.2       1 75A        -0.3847
     38 I          15.1970   -2.5900  -15.6030 I         1 75A        -0.0481
     39 N3         18.5510   -4.4560   -5.1940 N.am      1 75A        -0.2990
     40 H1         20.2747   -0.2244   -3.5519 H         1 75A         0.0467
     41 H2         20.8826    0.4616   -2.0071 H         1 75A         0.0467
     42 H3         20.9202    1.4512   -3.5057 H         1 75A         0.0467
     43 H4         17.6633    0.8151   -4.0214 H         1 75A         0.1885
     44 H5         17.1904   -0.1629   -1.2608 H         1 75A         0.0833
     45 H6         15.2565   -0.0213   -3.6395 H         1 75A         0.0547
     46 H7         15.5754    1.3810   -2.5631 H         1 75A         0.0547
     47 H8         15.1494    1.0311   -0.0376 H         1 75A         0.0652
     48 H9         13.6691   -1.6587   -2.9804 H         1 75A         0.0652
     49 H10        13.5244    0.1689    1.5688 H         1 75A         0.0835
     50 H11        12.0386   -2.5261   -1.3796 H         1 75A         0.0835
     51 H12        18.0110   -1.4724   -4.5942 H         1 75A         0.1883
     52 H13        14.5985   -1.4856   -9.0603 H         1 75A         0.1845
     53 H14        15.5922   -3.1394   -4.2824 H         1 75A         0.0800
     54 H15        17.0845   -3.1057   -6.8683 H         1 75A         0.0313
     55 H16        16.5693   -1.4911   -6.2730 H         1 75A         0.0313
     56 H17        14.4017   -1.8576   -6.8160 H         1 75A         0.0287
     57 H18        14.4221   -3.5330   -6.1685 H         1 75A         0.0287
     58 H19        15.8677   -4.0709   -8.3271 H         1 75A         0.0519
     59 H20        14.0885   -3.8852   -8.4913 H         1 75A         0.0519
     60 H21        16.2168    0.4617  -10.5501 H         1 75A         0.0690
     61 H22        15.9154    1.6707  -12.6592 H         1 75A         0.0636
     62 H23        15.4912    0.4279  -14.7503 H         1 75A         0.0681
     63 H24        15.6889   -3.2368  -12.5856 H         1 75A         0.0698
     64 H25        19.0571   -5.3185   -5.1981 H         1 75A         0.1815
     65 H26        18.9865   -3.6192   -5.5258 H         1 75A         0.1815
@<TRIPOS>BOND
     1    1    2 2  
     2    1    3 1  
     3    4    1 am 
     4    5    4 1  
     5    6    5 1  
     6    5    8 1  
     7    6    7 2  
     8   22    6 am 
     9    8    9 1  
    10    9   10 ar 
    11    9   11 ar 
    12   10   12 ar 
    13   11   13 ar 
    14   12   14 ar 
    15   13   14 ar 
    16   14   15 1  
    17   15   16 1  
    18   15   17 1  
    19   15   18 1  
    20   18   19 ar 
    21   18   20 ar 
    22   18   21 ar 
    23   24   22 1  
    24   28   23 1  
    25   23   29 am 
    26   24   25 1  
    27   26   24 1  
    28   25   36 2  
    29   25   39 am 
    30   27   26 1  
    31   27   28 1  
    32   29   30 1  
    33   29   37 2  
    34   30   31 ar 
    35   30   35 ar 
    36   31   32 ar 
    37   32   33 ar 
    38   33   34 ar 
    39   34   35 ar 
    40   34   38 1  
    41    3   40 1  
    42    3   41 1  
    43    3   42 1  
    44    4   43 1  
    45    5   44 1  
    46    8   45 1  
    47    8   46 1  
    48   10   47 1  
    49   11   48 1  
    50   12   49 1  
    51   13   50 1  
    52   22   51 1  
    53   23   52 1  
    54   24   53 1  
    55   26   54 1  
    56   26   55 1  
    57   27   56 1  
    58   27   57 1  
    59   28   58 1  
    60   28   59 1  
    61   31   60 1  
    62   32   61 1  
    63   33   62 1  
    64   35   63 1  
    65   39   64 1  
    66   39   65 1  
@<TRIPOS>SUBSTRUCTURE
     1 75A         1

