4ge2_ligand
  -I-interpret- 

 67 68  0  0  0  0  0  0  0  0999 V2000
   19.1090    1.1630   -2.6650 C   0  0  0  0  0
   18.9790    2.1720   -2.0020 O   0  0  0  0  0
   20.3570    0.6900   -2.9460 C   0  0  0  0  0
   17.9300    0.6040   -3.0810 N   0  0  0  0  0
   16.9980   -0.2650   -2.3390 C   0  0  0  0  0
   17.2450   -1.7380   -2.7090 C   0  0  0  0  0
   17.3460   -2.5910   -1.8560 O   0  0  0  0  0
   15.5570    0.2830   -2.6260 C   0  0  0  0  0
   14.5310   -0.2520   -1.6250 C   0  0  0  0  0
   14.4670    0.2450   -0.3400 C   0  0  0  0  0
   13.6420   -1.2520   -1.9760 C   0  0  0  0  0
   13.5490   -0.2420    0.5660 C   0  0  0  0  0
   12.7210   -1.7420   -1.0720 C   0  0  0  0  0
   12.6530   -1.2500    0.2210 C   0  0  0  0  0
   11.6480   -1.7960    1.2390 C   0  0  0  0  0
   11.9700   -1.4070    2.5070 F   0  0  0  0  0
   11.6190   -3.1710    1.2690 F   0  0  0  0  0
    9.8910   -1.2380    0.9470 P   0  0  0  0  0
    9.6550    0.1510    1.4200 O   0  0  0  0  0
    9.5410   -1.3070   -0.6190 O   0  0  0  0  0
    8.9370   -2.2470    1.7700 O   0  0  0  0  0
   17.3570   -2.0100   -4.0620 N   0  0  0  0  0
   15.2290   -2.2530   -9.1770 N   0  0  0  0  0
   16.5730   -3.0430   -4.7710 C   0  0  0  0  0
   17.2670   -4.4210   -4.7360 C   0  0  0  0  0
   16.3640   -2.5710   -6.2320 C   0  0  0  0  0
   14.9520   -2.8100   -6.8060 C   0  0  0  0  0
   15.0270   -3.3660   -8.2470 C   0  0  0  0  0
   16.1500   -2.0990  -10.1850 C   0  0  0  0  0
   15.9750   -1.4880  -11.3990 C   0  0  0  0  0
   16.0330   -0.0980  -11.4600 C   0  0  0  0  0
   15.8630    0.5880  -12.6470 C   0  0  0  0  0
   15.6270   -0.1030  -13.8150 C   0  0  0  0  0
   15.5660   -1.4800  -13.7770 C   0  0  0  0  0
   15.7390   -2.1540  -12.5890 C   0  0  0  0  0
   16.7390   -5.4280   -4.3340 O   0  0  0  0  0
   17.2460   -2.5740   -9.9320 O   0  0  0  0  0
   15.1970   -2.5900  -15.6030 I   0  0  0  0  0
   18.5510   -4.4560   -5.1940 N   0  0  0  0  0
   20.9140    1.4452   -3.5006 H   0  0  0  0  0
   20.8767    0.4641   -2.0149 H   0  0  0  0  0
   20.2741   -0.2160   -3.5463 H   0  0  0  0  0
   17.6580    0.8193   -4.0402 H   0  0  0  0  0
   17.1452   -0.2434   -1.2592 H   0  0  0  0  0
   15.2613   -0.0413   -3.6237 H   0  0  0  0  0
   15.5821    1.3694   -2.5409 H   0  0  0  0  0
   15.1532    1.0354   -0.0359 H   0  0  0  0  0
   13.6693   -1.6610   -2.9860 H   0  0  0  0  0
   13.5242    0.1712    1.5743 H   0  0  0  0  0
   12.0348   -2.5304   -1.3813 H   0  0  0  0  0
    9.6887   -2.1997   -0.9397 H   0  0  0  0  0
    9.0866   -3.1456    1.4672 H   0  0  0  0  0
   18.0241   -1.4617   -4.6049 H   0  0  0  0  0
   14.5859   -1.4703   -9.0580 H   0  0  0  0  0
   15.6128   -3.1687   -4.2706 H   0  0  0  0  0
   17.0534   -3.1481   -6.8482 H   0  0  0  0  0
   16.5252   -1.4930   -6.2380 H   0  0  0  0  0
   14.4166   -1.8607   -6.8247 H   0  0  0  0  0
   14.4370   -3.5362   -6.1771 H   0  0  0  0  0
   15.8570   -4.0679   -8.3276 H   0  0  0  0  0
   14.0995   -3.8845   -8.4899 H   0  0  0  0  0
   16.2178    0.4648  -10.5450 H   0  0  0  0  0
   15.9156    1.6767  -12.6593 H   0  0  0  0  0
   15.4905    0.4309  -14.7555 H   0  0  0  0  0
   15.6887   -3.2428  -12.5856 H   0  0  0  0  0
   19.0675   -5.3355   -5.1972 H   0  0  0  0  0
   18.9949   -3.6026   -5.5334 H   0  0  0  0  0
  1  2  2  0  0  0
  1  3  1  0  0  0
  4  1  1  0  0  0
  5  4  1  0  0  0
  6  5  1  0  0  0
  5  8  1  0  0  0
  6  7  2  0  0  0
 22  6  1  0  0  0
  8  9  1  0  0  0
  9 10  4  0  0  0
  9 11  4  0  0  0
 10 12  4  0  0  0
 11 13  4  0  0  0
 12 14  4  0  0  0
 13 14  4  0  0  0
 14 15  1  0  0  0
 15 16  1  0  0  0
 15 17  1  0  0  0
 15 18  1  0  0  0
 18 19  2  0  0  0
 18 20  1  0  0  0
 18 21  1  0  0  0
 24 22  1  0  0  0
 28 23  1  0  0  0
 23 29  1  0  0  0
 24 25  1  0  0  0
 26 24  1  0  0  0
 25 36  2  0  0  0
 25 39  1  0  0  0
 27 26  1  0  0  0
 27 28  1  0  0  0
 29 30  1  0  0  0
 29 37  2  0  0  0
 30 31  4  0  0  0
 30 35  4  0  0  0
 31 32  4  0  0  0
 32 33  4  0  0  0
 33 34  4  0  0  0
 34 35  4  0  0  0
 34 38  1  0  0  0
  3 40  1  0  0  0
  3 41  1  0  0  0
  3 42  1  0  0  0
  4 43  1  0  0  0
  5 44  1  0  0  0
  8 45  1  0  0  0
  8 46  1  0  0  0
 10 47  1  0  0  0
 11 48  1  0  0  0
 12 49  1  0  0  0
 13 50  1  0  0  0
 20 51  1  0  0  0
 21 52  1  0  0  0
 22 53  1  0  0  0
 23 54  1  0  0  0
 24 55  1  0  0  0
 26 56  1  0  0  0
 26 57  1  0  0  0
 27 58  1  0  0  0
 27 59  1  0  0  0
 28 60  1  0  0  0
 28 61  1  0  0  0
 31 62  1  0  0  0
 32 63  1  0  0  0
 33 64  1  0  0  0
 35 65  1  0  0  0
 39 66  1  0  0  0
 39 67  1  0  0  0
M  END
$$$$
