4aci_ligand
  -I-interpret- 

 21 20  0  0  0  0  0  0  0  0999 V2000
  -11.1130    9.4630   37.0710 C   0  0  0  0  0
  -12.2910    9.1490   36.7650 O   0  0  0  0  0
  -10.2990    9.9130   36.1850 O   0  0  0  0  0
  -10.6430    9.3330   38.4790 C   0  0  0  0  0
  -11.7320    9.6290   39.4940 C   0  0  0  0  0
  -12.8620    8.8030   39.1690 O   0  0  0  0  0
  -11.2430    9.3090   40.8940 C   0  0  0  0  0
  -12.3000    9.5370   41.9790 C   0  0  0  0  0
  -13.5550    9.6900   41.7660 O   0  0  0  0  0
  -11.8820    9.6490   43.1710 O   0  0  0  0  0
  -12.2180   11.0740   39.3350 C   0  0  0  0  0
  -13.4170   11.3830   39.4610 O   0  0  0  0  0
  -11.4100   11.9580   39.1020 O   0  0  0  0  0
   -9.4513   10.0985   36.5957 H   0  0  0  0  0
   -9.8409   10.0553   38.6306 H   0  0  0  0  0
  -10.3192    8.3030   38.6285 H   0  0  0  0  0
  -13.1650    9.0116   38.2823 H   0  0  0  0  0
  -10.4060    9.9736   41.1080 H   0  0  0  0  0
  -10.9766    8.2523   40.9138 H   0  0  0  0  0
  -13.7352    9.5803   40.8295 H   0  0  0  0  0
  -13.9327   10.5933   39.6403 H   0  0  0  0  0
  1  2  2  0  0  0
  1  3  1  0  0  0
  1  4  1  0  0  0
  4  5  1  0  0  0
  5  6  1  0  0  0
  5  7  1  0  0  0
  5 11  1  0  0  0
  7  8  1  0  0  0
  8  9  1  0  0  0
  8 10  2  0  0  0
 11 12  1  0  0  0
 11 13  2  0  0  0
  3 14  1  0  0  0
  4 15  1  0  0  0
  4 16  1  0  0  0
  6 17  1  0  0  0
  7 18  1  0  0  0
  7 19  1  0  0  0
  9 20  1  0  0  0
 12 21  1  0  0  0
M  END
$$$$
