4lc7_ligand
  -I-interpret- 

 41 44  0  0  0  0  0  0  0  0999 V2000
   23.3990   14.3510    8.6590 C   0  0  0  0  0
   23.0810   15.4640    7.6210 C   0  0  0  0  0
   22.3370   14.9530    6.3690 C   0  0  0  0  0
   21.1360   14.0350    6.6780 C   0  0  0  0  0
   21.2390   13.1570    7.9510 C   0  0  0  0  0
   22.6990   12.9840    8.4510 C   0  0  0  0  0
   22.8160   14.8570    9.8820 N   0  0  0  0  0
   22.1350   15.9690    9.6210 C   0  0  0  0  0
   22.1390   16.3210    8.3110 O   0  0  0  0  0
   24.9300   14.2910    8.7900 C   0  0  0  0  0
   25.6830   13.1500    8.4120 C   0  0  0  0  0
   27.0940   13.1510    8.5290 C   0  0  0  0  0
   27.7840   14.2870    9.0150 C   0  0  0  0  0
   27.0430   15.4350    9.3970 C   0  0  0  0  0
   25.6270   15.4240    9.2770 C   0  0  0  0  0
   27.6530   16.6290    9.8410 C   0  0  0  0  0
   21.2820   16.5580   10.4490 N   0  0  0  0  0
   28.8560   17.0950    9.2500 C   0  0  0  0  0
   29.4360   18.2650    9.6100 N   0  0  0  0  0
   28.8500   19.0540   10.5340 C   0  0  0  0  0
   27.6330   18.6900   11.1560 C   0  0  0  0  0
   27.0230   17.4630   10.8020 C   0  0  0  0  0
   26.9220   19.7360   12.3100 Cl  0  0  0  0  0
   24.0125   15.9210    7.2869 H   0  0  0  0  0
   23.0492   14.3665    5.7886 H   0  0  0  0  0
   21.9478   15.8271    5.8469 H   0  0  0  0  0
   21.0655   13.3413    5.8402 H   0  0  0  0  0
   20.2856   14.6977    6.8388 H   0  0  0  0  0
   20.8525   12.1680    7.7048 H   0  0  0  0  0
   20.6731   13.6500    8.7415 H   0  0  0  0  0
   22.6750   12.4613    9.4072 H   0  0  0  0  0
   23.2554   12.4239    7.6995 H   0  0  0  0  0
   22.9123   14.4275   10.8021 H   0  0  0  0  0
   25.1721   12.2666    8.0289 H   0  0  0  0  0
   27.6572   12.2635    8.2404 H   0  0  0  0  0
   28.8711   14.2801    9.0948 H   0  0  0  0  0
   25.0627   16.3102    9.5672 H   0  0  0  0  0
   20.6383   17.2674   10.0985 H   0  0  0  0  0
   29.3307   16.4893    8.4781 H   0  0  0  0  0
   29.3262   19.9954   10.8081 H   0  0  0  0  0
   26.0814   17.1620   11.2613 H   0  0  0  0  0
  1  2  1  0  0  0
  1  6  1  0  0  0
  1  7  1  0  0  0
  1 10  1  0  0  0
  2  3  1  0  0  0
  2  9  1  0  0  0
  3  4  1  0  0  0
  4  5  1  0  0  0
  5  6  1  0  0  0
  7  8  1  0  0  0
  8  9  1  0  0  0
  8 17  2  0  0  0
 10 11  4  0  0  0
 10 15  4  0  0  0
 11 12  4  0  0  0
 12 13  4  0  0  0
 13 14  4  0  0  0
 14 15  4  0  0  0
 14 16  1  0  0  0
 16 18  4  0  0  0
 16 22  4  0  0  0
 18 19  4  0  0  0
 19 20  4  0  0  0
 20 21  4  0  0  0
 21 22  4  0  0  0
 21 23  1  0  0  0
  2 24  1  0  0  0
  3 25  1  0  0  0
  3 26  1  0  0  0
  4 27  1  0  0  0
  4 28  1  0  0  0
  5 29  1  0  0  0
  5 30  1  0  0  0
  6 31  1  0  0  0
  6 32  1  0  0  0
  7 33  1  0  0  0
 11 34  1  0  0  0
 12 35  1  0  0  0
 13 36  1  0  0  0
 15 37  1  0  0  0
 17 38  1  0  0  0
 18 39  1  0  0  0
 20 40  1  0  0  0
 22 41  1  0  0  0
M  END
$$$$
