5i2i_ligand
  -I-interpret- 

191192  0  0  0  0  0  0  0  0999 V2000
   15.4470   31.9470  -29.4780 N   0  0  0  0  0
   15.6550   32.4470  -28.1290 C   0  0  0  0  0
   14.9150   33.7240  -27.7720 C   0  0  0  0  0
   14.6660   33.9900  -26.5950 O   0  0  0  0  0
   14.5710   34.5200  -28.7840 N   0  0  0  0  0
   13.8660   35.7790  -28.5920 C   0  0  0  0  0
   12.4050   35.6430  -28.9830 C   0  0  0  0  0
   12.0510   34.9010  -29.9030 O   0  0  0  0  0
   14.5010   36.9010  -29.4090 C   0  0  0  0  0
   15.6060   37.6500  -28.6900 C   0  0  0  0  0
   15.9740   38.9460  -29.3960 C   0  0  0  0  0
   15.4160   39.2730  -30.4440 O   0  0  0  0  0
   16.9140   39.6920  -28.8200 N   0  0  0  0  0
   11.5520   36.3700  -28.2750 N   0  0  0  0  0
   10.1410   36.2970  -28.5930 C   0  0  0  0  0
    9.8310   37.1490  -29.8160 C   0  0  0  0  0
   10.4720   38.1670  -30.0770 O   0  0  0  0  0
    9.2810   36.7350  -27.4150 C   0  0  0  0  0
    7.9100   36.1000  -27.4460 C   0  0  0  0  0
    6.8190   37.1040  -27.2100 C   0  0  0  0  0
    7.0830   38.2680  -26.9170 O   0  0  0  0  0
    5.5820   36.6640  -27.3320 N   0  0  0  0  0
    8.8540   36.6880  -30.5870 N   0  0  0  0  0
    8.4800   37.2840  -31.8660 C   0  0  0  0  0
    7.0820   37.8600  -31.7140 C   0  0  0  0  0
    6.1280   37.1100  -31.4910 O   0  0  0  0  0
    8.5500   36.2230  -32.9720 C   0  0  0  0  0
    7.9390   36.6680  -34.2940 C   0  0  0  0  0
    7.5680   37.8450  -34.4490 O   0  0  0  0  0
    7.8460   35.8220  -35.2070 O   0  0  0  0  0
    6.9630   39.1880  -31.8310 N   0  0  0  0  0
    5.6870   39.8420  -31.5500 C   0  0  0  0  0
    4.6130   39.5050  -32.5760 C   0  0  0  0  0
    3.4260   39.6910  -32.2920 O   0  0  0  0  0
    5.8690   41.3560  -31.4750 C   0  0  0  0  0
    6.9560   41.8160  -30.5060 C   0  0  0  0  0
    6.9560   43.3250  -30.4030 C   0  0  0  0  0
    6.7930   41.1770  -29.1330 C   0  0  0  0  0
    4.9970   39.0060  -33.7550 N   0  0  0  0  0
    4.0010   38.6170  -34.7530 C   0  0  0  0  0
    3.2340   37.3730  -34.3130 C   0  0  0  0  0
    2.0070   37.2980  -34.4590 O   0  0  0  0  0
    4.6690   38.3650  -36.1090 C   0  0  0  0  0
    5.2280   39.5460  -36.6620 O   0  0  0  0  0
    3.9410   36.3900  -33.7680 N   0  0  0  0  0
    3.3540   35.1100  -33.4120 C   0  0  0  0  0
    3.2520   34.8870  -31.9150 C   0  0  0  0  0
    2.5880   33.9330  -31.4950 O   0  0  0  0  0
    4.1760   33.9700  -34.0230 C   0  0  0  0  0
    5.5180   34.0420  -33.5220 O   0  0  0  0  0
    4.1970   34.1000  -35.5460 C   0  0  0  0  0
    3.8870   35.7330  -31.1100 N   0  0  0  0  0
    3.9720   35.5740  -29.6610 C   0  0  0  0  0
    4.6970   34.2960  -29.2620 C   0  0  0  0  0
    4.4880   33.7760  -28.1620 O   0  0  0  0  0
    2.5900   35.6220  -29.0100 C   0  0  0  0  0
    1.8450   36.9070  -29.2730 C   0  0  0  0  0
    0.5770   36.9450  -28.4760 C   0  0  0  0  0
   -0.1850   38.1620  -28.7150 N   0  0  0  0  0
   -1.2210   38.5390  -27.9760 C   0  0  0  0  0
   -1.5900   37.7800  -26.9460 N   0  0  0  0  0
   -1.8720   39.6650  -28.2630 N   0  0  0  0  0
    5.5560   33.7870  -30.1370 N   0  0  0  0  0
    6.2750   32.5490  -29.9100 C   0  0  0  0  0
    7.7670   32.8200  -29.9580 C   0  0  0  0  0
    8.2140   33.7600  -30.6130 O   0  0  0  0  0
    5.9030   31.4910  -30.9440 C   0  0  0  0  0
    4.4830   30.9850  -30.8110 C   0  0  0  0  0
    4.2590   30.3170  -29.4710 C   0  0  0  0  0
    5.2110   29.2400  -29.2740 N   0  0  0  0  0
    5.1090   28.0520  -29.8520 C   0  0  0  0  0
    4.0830   27.7970  -30.6540 N   0  0  0  0  0
    6.0300   27.1220  -29.6260 N   0  0  0  0  0
    8.5310   31.9920  -29.2520 N   0  0  0  0  0
    9.9750   32.1530  -29.1950 C   0  0  0  0  0
   10.5910   31.6650  -30.4940 C   0  0  0  0  0
   10.2850   30.5660  -30.9640 O   0  0  0  0  0
   10.5600   31.3930  -28.0030 C   0  0  0  0  0
   10.2290   31.9720  -26.6220 C   0  0  0  0  0
   10.6710   31.0280  -25.5180 C   0  0  0  0  0
   10.8630   33.3390  -26.4460 C   0  0  0  0  0
   11.4440   32.4970  -31.0760 N   0  0  0  0  0
   12.0980   32.2210  -32.3490 C   0  0  0  0  0
   13.5720   32.5720  -32.1760 C   0  0  0  0  0
   13.9260   33.7520  -32.0860 O   0  0  0  0  0
   11.4460   33.0220  -33.4840 C   0  0  0  0  0
   12.0770   32.8180  -34.8500 C   0  0  0  0  0
   11.1880   33.3170  -35.9840 C   0  0  0  0  0
   11.7770   32.8790  -37.3220 C   0  0  0  0  0
   11.0030   33.3850  -38.4800 N   0  3  0  0  0
   14.4220   31.5540  -32.1000 N   0  0  0  0  0
   15.8340   31.7740  -31.8610 C   0  0  0  0  0
   16.0990   32.4440  -30.5280 C   0  0  0  0  0
   16.8690   33.4000  -30.4520 O   0  0  0  0  0
   15.5470   32.0400  -29.5060 O   0  0  0  0  0
   16.0806   32.3177  -27.1339 H   0  0  0  0  0
   14.8119   34.2350  -29.7333 H   0  0  0  0  0
   13.9367   36.0301  -27.5337 H   0  0  0  0  0
   13.7141   37.6231  -29.6271 H   0  0  0  0  0
   14.9470   36.4418  -30.2912 H   0  0  0  0  0
   16.4898   37.0125  -28.6683 H   0  0  0  0  0
   15.2528   37.8972  -27.6889 H   0  0  0  0  0
   17.1984   40.5735  -29.2472 H   0  0  0  0  0
   17.3499   39.3821  -27.9514 H   0  0  0  0  0
   11.8835   36.9701  -27.5198 H   0  0  0  0  0
    9.9023   35.2565  -28.8130 H   0  0  0  0  0
    9.1564   37.8165  -27.4682 H   0  0  0  0  0
    9.7789   36.4250  -26.4963 H   0  0  0  0  0
    7.8626   35.3530  -26.6537 H   0  0  0  0  0
    7.7606   35.6601  -28.4320 H   0  0  0  0  0
    4.7978   37.2986  -27.1814 H   0  0  0  0  0
    5.4093   35.6890  -27.5769 H   0  0  0  0  0
    8.3347   35.8703  -30.2675 H   0  0  0  0  0
    9.1652   38.0830  -32.1490 H   0  0  0  0  0
    7.9829   35.3581  -32.6277 H   0  0  0  0  0
    9.6042   36.0155  -33.1558 H   0  0  0  0  0
    8.1822   34.9785  -34.8956 H   0  0  0  0  0
    7.7671   39.7463  -32.1177 H   0  0  0  0  0
    5.3481   39.4613  -30.5865 H   0  0  0  0  0
    4.9270   41.7733  -31.1191 H   0  0  0  0  0
    6.1651   41.6913  -32.4690 H   0  0  0  0  0
    7.9188   41.4904  -30.8999 H   0  0  0  0  0
    7.1471   43.7550  -31.3862 H   0  0  0  0  0
    5.9856   43.6631  -30.0396 H   0  0  0  0  0
    7.7353   43.6405  -29.7093 H   0  0  0  0  0
    5.8234   41.4526  -28.7182 H   0  0  0  0  0
    6.8538   40.0929  -29.2287 H   0  0  0  0  0
    7.5855   41.5298  -28.4730 H   0  0  0  0  0
    5.9901   38.8959  -33.9599 H   0  0  0  0  0
    3.2928   39.4396  -34.8519 H   0  0  0  0  0
    3.9083   37.9966  -36.7973 H   0  0  0  0  0
    5.4754   37.6468  -35.9603 H   0  0  0  0  0
    5.6339   39.3411  -37.5075 H   0  0  0  0  0
    4.9346   36.5395  -33.5926 H   0  0  0  0  0
    2.3395   35.1212  -33.8105 H   0  0  0  0  0
    3.7269   33.0142  -33.7531 H   0  0  0  0  0
    6.0386   33.3301  -33.9012 H   0  0  0  0  0
    3.1771   34.0525  -35.9275 H   0  0  0  0  0
    4.6453   35.0545  -35.8218 H   0  0  0  0  0
    4.7835   33.2854  -35.9709 H   0  0  0  0  0
    4.3428   36.5429  -31.5303 H   0  0  0  0  0
    4.5581   36.4166  -29.2942 H   0  0  0  0  0
    2.7326   35.5407  -27.9324 H   0  0  0  0  0
    2.0002   34.8089  -29.4333 H   0  0  0  0  0
    1.6007   36.9661  -30.3336 H   0  0  0  0  0
    2.4735   37.7488  -28.9823 H   0  0  0  0  0
    0.8394   36.9108  -27.4186 H   0  0  0  0  0
   -0.0373   36.0956  -28.7746 H   0  0  0  0  0
    0.0929   38.7586  -29.4943 H   0  0  0  0  0
   -1.0786   36.9231  -26.7349 H   0  0  0  0  0
   -2.6645   39.9559  -27.6906 H   0  0  0  0  0
   -1.5780   40.2363  -29.0552 H   0  0  0  0  0
    5.7175   34.2904  -31.0093 H   0  0  0  0  0
    5.9989   32.1646  -28.9281 H   0  0  0  0  0
    6.5679   30.6404  -30.7943 H   0  0  0  0  0
    5.9950   31.9501  -31.9283 H   0  0  0  0  0
    4.3008   30.2530  -31.5979 H   0  0  0  0  0
    3.8037   31.8334  -30.8931 H   0  0  0  0  0
    3.2496   29.9064  -29.4446 H   0  0  0  0  0
    4.3919   31.0558  -28.6807 H   0  0  0  0  0
    6.0044   29.4069  -28.6550 H   0  0  0  0  0
    3.3774   28.5139  -30.8231 H   0  0  0  0  0
    5.9505   26.2070  -30.0697 H   0  0  0  0  0
    6.8168   27.3228  -29.0087 H   0  0  0  0  0
    8.0942   31.2264  -28.7387 H   0  0  0  0  0
   10.2081   33.2096  -29.0634 H   0  0  0  0  0
   11.6440   31.4404  -28.1071 H   0  0  0  0  0
   10.1281   30.3926  -28.0312 H   0  0  0  0  0
    9.1472   32.0869  -26.5549 H   0  0  0  0  0
   10.1570   30.0734  -25.6305 H   0  0  0  0  0
   11.7478   30.8724  -25.5842 H   0  0  0  0  0
   10.4244   31.4629  -24.5494 H   0  0  0  0  0
   11.9453   33.2511  -26.5410 H   0  0  0  0  0
   10.4835   34.0154  -27.2118 H   0  0  0  0  0
   10.6141   33.7292  -25.4591 H   0  0  0  0  0
   11.6539   33.3782  -30.6072 H   0  0  0  0  0
   11.9944   31.1715  -32.6246 H   0  0  0  0  0
   11.5631   34.0768  -33.2352 H   0  0  0  0  0
   10.4129   32.6826  -33.5584 H   0  0  0  0  0
   12.2344   31.7488  -34.9916 H   0  0  0  0  0
   13.0080   33.3841  -34.8784 H   0  0  0  0  0
   11.1321   34.4050  -35.9502 H   0  0  0  0  0
   10.1877   32.8985  -35.8728 H   0  0  0  0  0
   11.7571   31.7897  -37.3561 H   0  0  0  0  0
   12.7869   33.2833  -37.3918 H   0  0  0  0  0
   11.4384   33.0642  -39.3448 H   0  0  0  0  0
   10.0470   33.0331  -38.4284 H   0  0  0  0  0
   10.9927   34.4048  -38.4611 H   0  0  0  0  0
   14.0748   30.6014  -32.2118 H   0  0  0  0  0
   16.2103   32.4285  -32.6472 H   0  0  0  0  0
   16.3293   30.8031  -31.8539 H   0  0  0  0  0
  1  2  1  0  0  0
  1 93  1  0  0  0
  1 95  1  0  0  0
  2  3  1  0  0  0
  2 95  1  0  0  0
  3  4  2  0  0  0
  3  5  1  0  0  0
  5  6  1  0  0  0
  6  7  1  0  0  0
  6  9  1  0  0  0
  7  8  2  0  0  0
  7 14  1  0  0  0
  9 10  1  0  0  0
 10 11  1  0  0  0
 11 12  2  0  0  0
 11 13  1  0  0  0
 14 15  1  0  0  0
 15 16  1  0  0  0
 15 18  1  0  0  0
 16 17  2  0  0  0
 16 23  1  0  0  0
 18 19  1  0  0  0
 19 20  1  0  0  0
 20 21  2  0  0  0
 20 22  1  0  0  0
 23 24  1  0  0  0
 24 25  1  0  0  0
 24 27  1  0  0  0
 25 26  2  0  0  0
 25 31  1  0  0  0
 27 28  1  0  0  0
 28 29  2  0  0  0
 28 30  1  0  0  0
 31 32  1  0  0  0
 32 33  1  0  0  0
 32 35  1  0  0  0
 33 34  2  0  0  0
 33 39  1  0  0  0
 35 36  1  0  0  0
 36 37  1  0  0  0
 36 38  1  0  0  0
 39 40  1  0  0  0
 40 41  1  0  0  0
 40 43  1  0  0  0
 41 42  2  0  0  0
 41 45  1  0  0  0
 43 44  1  0  0  0
 45 46  1  0  0  0
 46 47  1  0  0  0
 46 49  1  0  0  0
 47 48  2  0  0  0
 47 52  1  0  0  0
 49 50  1  0  0  0
 49 51  1  0  0  0
 52 53  1  0  0  0
 53 54  1  0  0  0
 53 56  1  0  0  0
 54 55  2  0  0  0
 54 63  1  0  0  0
 56 57  1  0  0  0
 57 58  1  0  0  0
 58 59  1  0  0  0
 59 60  1  0  0  0
 60 61  2  0  0  0
 60 62  1  0  0  0
 63 64  1  0  0  0
 64 65  1  0  0  0
 64 67  1  0  0  0
 65 66  2  0  0  0
 65 74  1  0  0  0
 67 68  1  0  0  0
 68 69  1  0  0  0
 69 70  1  0  0  0
 70 71  1  0  0  0
 71 72  2  0  0  0
 71 73  1  0  0  0
 74 75  1  0  0  0
 75 76  1  0  0  0
 75 78  1  0  0  0
 76 77  2  0  0  0
 76 82  1  0  0  0
 78 79  1  0  0  0
 79 80  1  0  0  0
 79 81  1  0  0  0
 82 83  1  0  0  0
 83 84  1  0  0  0
 83 86  1  0  0  0
 84 85  2  0  0  0
 84 91  1  0  0  0
 86 87  1  0  0  0
 87 88  1  0  0  0
 88 89  1  0  0  0
 89 90  1  0  0  0
 91 92  1  0  0  0
 92 93  1  0  0  0
 93 94  2  0  0  0
  2 96  1  0  0  0
  5 97  1  0  0  0
  6 98  1  0  0  0
  9 99  1  0  0  0
  9100  1  0  0  0
 10101  1  0  0  0
 10102  1  0  0  0
 13103  1  0  0  0
 13104  1  0  0  0
 14105  1  0  0  0
 15106  1  0  0  0
 18107  1  0  0  0
 18108  1  0  0  0
 19109  1  0  0  0
 19110  1  0  0  0
 22111  1  0  0  0
 22112  1  0  0  0
 23113  1  0  0  0
 24114  1  0  0  0
 27115  1  0  0  0
 27116  1  0  0  0
 30117  1  0  0  0
 31118  1  0  0  0
 32119  1  0  0  0
 35120  1  0  0  0
 35121  1  0  0  0
 36122  1  0  0  0
 37123  1  0  0  0
 37124  1  0  0  0
 37125  1  0  0  0
 38126  1  0  0  0
 38127  1  0  0  0
 38128  1  0  0  0
 39129  1  0  0  0
 40130  1  0  0  0
 43131  1  0  0  0
 43132  1  0  0  0
 44133  1  0  0  0
 45134  1  0  0  0
 46135  1  0  0  0
 49136  1  0  0  0
 50137  1  0  0  0
 51138  1  0  0  0
 51139  1  0  0  0
 51140  1  0  0  0
 52141  1  0  0  0
 53142  1  0  0  0
 56143  1  0  0  0
 56144  1  0  0  0
 57145  1  0  0  0
 57146  1  0  0  0
 58147  1  0  0  0
 58148  1  0  0  0
 59149  1  0  0  0
 61150  1  0  0  0
 62151  1  0  0  0
 62152  1  0  0  0
 63153  1  0  0  0
 64154  1  0  0  0
 67155  1  0  0  0
 67156  1  0  0  0
 68157  1  0  0  0
 68158  1  0  0  0
 69159  1  0  0  0
 69160  1  0  0  0
 70161  1  0  0  0
 72162  1  0  0  0
 73163  1  0  0  0
 73164  1  0  0  0
 74165  1  0  0  0
 75166  1  0  0  0
 78167  1  0  0  0
 78168  1  0  0  0
 79169  1  0  0  0
 80170  1  0  0  0
 80171  1  0  0  0
 80172  1  0  0  0
 81173  1  0  0  0
 81174  1  0  0  0
 81175  1  0  0  0
 82176  1  0  0  0
 83177  1  0  0  0
 86178  1  0  0  0
 86179  1  0  0  0
 87180  1  0  0  0
 87181  1  0  0  0
 88182  1  0  0  0
 88183  1  0  0  0
 89184  1  0  0  0
 89185  1  0  0  0
 90186  1  0  0  0
 90187  1  0  0  0
 90188  1  0  0  0
 91189  1  0  0  0
 92190  1  0  0  0
 92191  1  0  0  0
M  END
$$$$
