### 
### Created by X-TOOL on Mon Sep 10 21:13:26 2018
### 

@<TRIPOS>MOLECULE
5i2i_ligand
  192   193     1     0     0
SMALL
GAST_HUCK


@<TRIPOS>ATOM
      1 N          15.4470   31.9470  -29.4780 N.am      1 GLY        -0.0895
      2 CA         15.6550   32.4470  -28.1290 C.3       1 GLY         0.2896
      3 C          14.9150   33.7240  -27.7720 C.2       1 GLY         0.2370
      4 O          14.6660   33.9900  -26.5950 O.2       1 GLY        -0.3915
      5 N          14.5710   34.5200  -28.7840 N.am      1 GLN        -0.2614
      6 CA         13.8660   35.7790  -28.5920 C.3       1 GLN         0.1331
      7 C          12.4050   35.6430  -28.9830 C.2       1 GLN         0.2040
      8 O          12.0510   34.9010  -29.9030 O.2       1 GLN        -0.3944
      9 CB         14.5010   36.9010  -29.4090 C.3       1 GLN         0.0045
     10 CG         15.6060   37.6500  -28.6900 C.3       1 GLN         0.0412
     11 CD         15.9740   38.9460  -29.3960 C.2       1 GLN         0.1737
     12 OE1        15.4160   39.2730  -30.4440 O.2       1 GLN        -0.3973
     13 NE2        16.9140   39.6920  -28.8200 N.am      1 GLN        -0.3009
     14 N          11.5520   36.3700  -28.2750 N.am      1 GLN        -0.2636
     15 CA         10.1410   36.2970  -28.5930 C.3       1 GLN         0.1330
     16 C           9.8310   37.1490  -29.8160 C.2       1 GLN         0.2041
     17 O          10.4720   38.1670  -30.0770 O.2       1 GLN        -0.3944
     18 CB          9.2810   36.7350  -27.4150 C.3       1 GLN         0.0045
     19 CG          7.9100   36.1000  -27.4460 C.3       1 GLN         0.0412
     20 CD          6.8190   37.1040  -27.2100 C.2       1 GLN         0.1737
     21 OE1         7.0830   38.2680  -26.9170 O.2       1 GLN        -0.3973
     22 NE2         5.5820   36.6640  -27.3320 N.am      1 GLN        -0.3009
     23 N           8.8540   36.6880  -30.5870 N.am      1 ASP        -0.2622
     24 CA          8.4800   37.2840  -31.8660 C.3       1 ASP         0.1423
     25 C           7.0820   37.8600  -31.7140 C.2       1 ASP         0.2056
     26 O           6.1280   37.1100  -31.4910 O.2       1 ASP        -0.3943
     27 CB          8.5500   36.2230  -32.9720 C.3       1 ASP         0.0406
     28 CG          7.9390   36.6680  -34.2940 C.2       1 ASP         0.0393
     29 OD1         7.5680   37.8450  -34.4490 O.co2     1 ASP        -0.5688
     30 OD2         7.8460   35.8220  -35.2070 O.co2     1 ASP        -0.5688
     31 N           6.9630   39.1880  -31.8310 N.am      1 LEU        -0.2636
     32 CA          5.6870   39.8420  -31.5500 C.3       1 LEU         0.1312
     33 C           4.6130   39.5050  -32.5760 C.2       1 LEU         0.2040
     34 O           3.4260   39.6910  -32.2920 O.2       1 LEU        -0.3944
     35 CB          5.8690   41.3560  -31.4750 C.3       1 LEU        -0.0101
     36 CG          6.9560   41.8160  -30.5060 C.3       1 LEU        -0.0425
     37 CD1         6.9560   43.3250  -30.4030 C.3       1 LEU        -0.0625
     38 CD2         6.7930   41.1770  -29.1330 C.3       1 LEU        -0.0625
     39 N           4.9970   39.0060  -33.7550 N.am      1 SER        -0.2616
     40 CA          4.0010   38.6170  -34.7530 C.3       1 SER         0.1539
     41 C           3.2340   37.3730  -34.3130 C.2       1 SER         0.2063
     42 O           2.0070   37.2980  -34.4590 O.2       1 SER        -0.3943
     43 CB          4.6690   38.3650  -36.1090 C.3       1 SER         0.0843
     44 OG          5.2280   39.5460  -36.6620 O.3       1 SER        -0.3903
     45 N           3.9410   36.3900  -33.7680 N.am      1 THR        -0.2613
     46 CA          3.3540   35.1100  -33.4120 C.3       1 THR         0.1565
     47 C           3.2520   34.8870  -31.9150 C.2       1 THR         0.2065
     48 O           2.5880   33.9330  -31.4950 O.2       1 THR        -0.3943
     49 CB          4.1760   33.9700  -34.0230 C.3       1 THR         0.0924
     50 OG1         5.5180   34.0420  -33.5220 O.3       1 THR        -0.3874
     51 CG2         4.1970   34.1000  -35.5460 C.3       1 THR        -0.0346
     52 N           3.8870   35.7330  -31.1100 N.am      1 ARG        -0.2636
     53 CA          3.9720   35.5740  -29.6610 C.3       1 ARG         0.1311
     54 C           4.6970   34.2960  -29.2620 C.2       1 ARG         0.2039
     55 O           4.4880   33.7760  -28.1620 O.2       1 ARG        -0.3944
     56 CB          2.5900   35.6220  -29.0100 C.3       1 ARG        -0.0092
     57 CG          1.8450   36.9070  -29.2730 C.3       1 ARG        -0.0156
     58 CD          0.5770   36.9450  -28.4760 C.3       1 ARG         0.0627
     59 NE         -0.1850   38.1620  -28.7150 N.pl3     1 ARG        -0.2723
     60 CZ         -1.2210   38.5390  -27.9760 C.cat     1 ARG         0.2882
     61 NH1        -1.5900   37.7800  -26.9460 N.pl3     1 ARG        -0.2849
     62 NH2        -1.8720   39.6650  -28.2630 N.pl3     1 ARG        -0.2849
     63 N           5.5560   33.7870  -30.1370 N.am      1 ARG        -0.2637
     64 CA          6.2750   32.5490  -29.9100 C.3       1 ARG         0.1311
     65 C           7.7670   32.8200  -29.9580 C.2       1 ARG         0.2039
     66 O           8.2140   33.7600  -30.6130 O.2       1 ARG        -0.3944
     67 CB          5.9030   31.4910  -30.9440 C.3       1 ARG        -0.0092
     68 CG          4.4830   30.9850  -30.8110 C.3       1 ARG        -0.0156
     69 CD          4.2590   30.3170  -29.4710 C.3       1 ARG         0.0627
     70 NE          5.2110   29.2400  -29.2740 N.pl3     1 ARG        -0.2723
     71 CZ          5.1090   28.0520  -29.8520 C.cat     1 ARG         0.2882
     72 NH1         4.0830   27.7970  -30.6540 N.pl3     1 ARG        -0.2849
     73 NH2         6.0300   27.1220  -29.6260 N.pl3     1 ARG        -0.2849
     74 N           8.5310   31.9920  -29.2520 N.am      1 LEU        -0.2637
     75 CA          9.9750   32.1530  -29.1950 C.3       1 LEU         0.1312
     76 C          10.5910   31.6650  -30.4940 C.2       1 LEU         0.2039
     77 O          10.2850   30.5660  -30.9640 O.2       1 LEU        -0.3944
     78 CB         10.5600   31.3930  -28.0030 C.3       1 LEU        -0.0101
     79 CG         10.2290   31.9720  -26.6220 C.3       1 LEU        -0.0425
     80 CD1        10.6710   31.0280  -25.5180 C.3       1 LEU        -0.0625
     81 CD2        10.8630   33.3390  -26.4460 C.3       1 LEU        -0.0625
     82 N          11.4440   32.4970  -31.0760 N.am      1 LYS        -0.2637
     83 CA         12.0980   32.2210  -32.3490 C.3       1 LYS         0.1310
     84 C          13.5720   32.5720  -32.1760 C.2       1 LYS         0.2037
     85 O          13.9260   33.7520  -32.0860 O.2       1 LYS        -0.3944
     86 CB         11.4460   33.0220  -33.4840 C.3       1 LYS        -0.0122
     87 CG         12.0770   32.8180  -34.8500 C.3       1 LYS        -0.0440
     88 CD         11.1880   33.3170  -35.9840 C.3       1 LYS        -0.0124
     89 CE         11.7770   32.8790  -37.3220 C.3       1 LYS        -0.0354
     90 NZ         11.0030   33.3850  -38.4800 N.4       1 LYS         0.2185
     91 N          14.4220   31.5540  -32.1000 N.am      1 GLY        -0.2664
     92 CA         15.8340   31.7740  -31.8610 C.3       1 GLY         0.1222
     93 C          16.0990   32.4440  -30.5280 C.2       1 GLY         0.2295
     94 O          16.8690   33.4000  -30.4520 O.2       1 GLY        -0.3942
     95 OXT        15.5470   32.0400  -29.5060 O.3       1 GLY        -0.1970
     96 H1         16.2461   32.0148  -27.3081 H         1 GLY         0.1177
     97 H2         14.8072   34.2406  -29.7147 H         1 GLN         0.1884
     98 H3         13.9222   36.0465  -27.5265 H         1 GLN         0.0801
     99 H4         13.7134   37.6214  -29.6748 H         1 GLN         0.0337
    100 H5         14.9222   36.4632  -30.3260 H         1 GLN         0.0337
    101 H6         16.4972   37.0070  -28.6424 H         1 GLN         0.0504
    102 H7         15.2688   37.8856  -27.6698 H         1 GLN         0.0504
    103 H8         17.1953   40.5545  -29.2407 H         1 GLN         0.1814
    104 H9         17.3388   39.3899  -27.9666 H         1 GLN         0.1814
    105 H10        11.8770   36.9583  -27.5346 H         1 GLN         0.1883
    106 H11         9.8956   35.2506  -28.8270 H         1 GLN         0.0801
    107 H12         9.1663   37.8285  -27.4466 H         1 GLN         0.0337
    108 H13         9.7849   36.4459  -26.4809 H         1 GLN         0.0337
    109 H14         7.8581   35.3289  -26.6633 H         1 GLN         0.0504
    110 H15         7.7567   35.6341  -28.4306 H         1 GLN         0.0504
    111 H16         4.8132   37.2867  -27.1866 H         1 GLN         0.1814
    112 H17         5.4127   35.7076  -27.5699 H         1 GLN         0.1814
    113 H18         8.3448   35.8863  -30.2738 H         1 ASP         0.1884
    114 H19         9.1792   38.0966  -32.1125 H         1 ASP         0.0819
    115 H20         8.0134   35.3270  -32.6268 H         1 ASP         0.0478
    116 H21         9.6070   35.9732  -33.1458 H         1 ASP         0.0478
    117 H22         7.7513   39.7353  -32.1121 H         1 LEU         0.1883
    118 H23         5.3387   39.4871  -30.5688 H         1 LEU         0.0800
    119 H24         4.9147   41.8014  -31.1573 H         1 LEU         0.0315
    120 H25         6.1277   41.7212  -32.4799 H         1 LEU         0.0315
    121 H26         7.9286   41.5002  -30.9113 H         1 LEU         0.0298
    122 H27         7.7421   43.6447  -29.7031 H         1 LEU         0.0232
    123 H28         5.9771   43.6675  -30.0363 H         1 LEU         0.0232
    124 H29         7.1488   43.7602  -31.3946 H         1 LEU         0.0232
    125 H30         6.7962   40.0818  -29.2356 H         1 LEU         0.0232
    126 H31         5.8403   41.5008  -28.6886 H         1 LEU         0.0232
    127 H32         7.6248   41.4868  -28.4833 H         1 LEU         0.0232
    128 H33         5.9707   38.8980  -33.9559 H         1 SER         0.1884
    129 H34         3.2847   39.4442  -34.8651 H         1 SER         0.0823
    130 H35         3.9156   37.9702  -36.8065 H         1 SER         0.0606
    131 H36         5.4702   37.6231  -35.9762 H         1 SER         0.0606
    132 H37         4.5421   40.1913  -36.7868 H         1 SER         0.2097
    133 H38         4.9151   36.5366  -33.5960 H         1 THR         0.1884
    134 H39         2.3377   35.0777  -33.8315 H         1 THR         0.0826
    135 H40         3.7288   33.0044  -33.7443 H         1 THR         0.0639
    136 H41         6.0332   33.3375  -33.8972 H         1 THR         0.2101
    137 H42         4.7887   33.2784  -35.9760 H         1 THR         0.0257
    138 H43         4.6493   35.0629  -35.8256 H         1 THR         0.0257
    139 H44         3.1682   34.0521  -35.9323 H         1 THR         0.0257
    140 H45         4.3339   36.5270  -31.5220 H         1 ARG         0.1883
    141 H46         4.5550   36.4219  -29.2722 H         1 ARG         0.0800
    142 H47         2.7130   35.5072  -27.9230 H         1 ARG         0.0313
    143 H48         1.9915   34.7863  -29.4016 H         1 ARG         0.0313
    144 H49         1.6026   36.9734  -30.3439 H         1 ARG         0.0301
    145 H50         2.4790   37.7592  -28.9870 H         1 ARG         0.0301
    146 H51         0.8286   36.8886  -27.4067 H         1 ARG         0.0689
    147 H52        -0.0420   36.0790  -28.7532 H         1 ARG         0.0689
    148 H53         0.0956   38.7645  -29.5019 H         1 ARG         0.2642
    149 H54        -2.3918   38.0582  -26.3624 H         1 ARG         0.2615
    150 H55        -1.0736   36.9147  -26.7329 H         1 ARG         0.2615
    151 H56        -1.5751   40.2419  -29.0629 H         1 ARG         0.2615
    152 H57        -2.6723   39.9588  -27.6850 H         1 ARG         0.2615
    153 H58         5.7143   34.2805  -30.9922 H         1 ARG         0.1883
    154 H59         6.0135   32.1684  -28.9116 H         1 ARG         0.0800
    155 H60         6.5880   30.6379  -30.8302 H         1 ARG         0.0313
    156 H61         6.0240   31.9272  -31.9465 H         1 ARG         0.0313
    157 H62         4.2859   30.2568  -31.6115 H         1 ARG         0.0301
    158 H63         3.7899   31.8336  -30.9084 H         1 ARG         0.0301
    159 H64         3.2383   29.9085  -29.4364 H         1 ARG         0.0689
    160 H65         4.3836   31.0610  -28.6704 H         1 ARG         0.0689
    161 H66         6.0121   29.4085  -28.6490 H         1 ARG         0.2642
    162 H67         3.9991   26.8751  -31.1057 H         1 ARG         0.2615
    163 H68         3.3705   28.5209  -30.8248 H         1 ARG         0.2615
    164 H69         6.8245   27.3248  -29.0027 H         1 ARG         0.2615
    165 H70         5.9497   26.1980  -30.0741 H         1 ARG         0.2615
    166 H71         8.1028   31.2414  -28.7487 H         1 LEU         0.1883
    167 H72        10.2060   33.2217  -29.0741 H         1 LEU         0.0800
    168 H73        11.6545   31.3825  -28.1122 H         1 LEU         0.0315
    169 H74        10.1781   30.3621  -28.0383 H         1 LEU         0.0315
    170 H75         9.1375   32.0899  -26.5539 H         1 LEU         0.0298
    171 H76        10.4226   31.4658  -24.5399 H         1 LEU         0.0232
    172 H77        11.7576   30.8701  -25.5837 H         1 LEU         0.0232
    173 H78        10.1530   30.0642  -25.6304 H         1 LEU         0.0232
    174 H79        10.5292   34.0049  -27.2554 H         1 LEU         0.0232
    175 H80        11.9582   33.2423  -26.4790 H         1 LEU         0.0232
    176 H81        10.5612   33.7611  -25.4761 H         1 LEU         0.0232
    177 H82        11.6498   33.3610  -30.6164 H         1 LYS         0.1883
    178 H83        12.0063   31.1500  -32.5826 H         1 LYS         0.0800
    179 H84        11.5137   34.0905  -33.2318 H         1 LYS         0.0312
    180 H85        10.3884   32.7266  -33.5479 H         1 LYS         0.0312
    181 H86        12.2644   31.7439  -34.9952 H         1 LYS         0.0269
    182 H87        13.0311   33.3645  -34.8831 H         1 LYS         0.0269
    183 H88        11.1318   34.4150  -35.9499 H         1 LYS         0.0317
    184 H89        10.1786   32.8945  -35.8718 H         1 LYS         0.0317
    185 H90        11.7876   31.7797  -37.3590 H         1 LYS         0.0813
    186 H91        12.8070   33.2583  -37.3943 H         1 LYS         0.0813
    187 H92        11.4324   33.0685  -39.3353 H         1 LYS         0.1994
    188 H93        10.9921   34.3928  -38.4624 H         1 LYS         0.1994
    189 H94        10.0580   33.0378  -38.4301 H         1 LYS         0.1994
    190 H95        14.0816   30.6201  -32.2096 H         1 GLY         0.1880
    191 H96        16.2321   32.4135  -32.6626 H         1 GLY         0.0763
    192 H97        16.3500   30.8027  -31.8764 H         1 GLY         0.0763
@<TRIPOS>BOND
     1    1    2 1  
     2    1   93 am 
     3    1   95 1  
     4    2    3 1  
     5    2   95 1  
     6    3    4 2  
     7    3    5 am 
     8    5    6 1  
     9    6    7 1  
    10    6    9 1  
    11    7    8 2  
    12    7   14 am 
    13    9   10 1  
    14   10   11 1  
    15   11   12 2  
    16   11   13 am 
    17   14   15 1  
    18   15   16 1  
    19   15   18 1  
    20   16   17 2  
    21   16   23 am 
    22   18   19 1  
    23   19   20 1  
    24   20   21 2  
    25   20   22 am 
    26   23   24 1  
    27   24   25 1  
    28   24   27 1  
    29   25   26 2  
    30   25   31 am 
    31   27   28 1  
    32   28   29 ar 
    33   28   30 ar 
    34   31   32 1  
    35   32   33 1  
    36   32   35 1  
    37   33   34 2  
    38   33   39 am 
    39   35   36 1  
    40   36   37 1  
    41   36   38 1  
    42   39   40 1  
    43   40   41 1  
    44   40   43 1  
    45   41   42 2  
    46   41   45 am 
    47   43   44 1  
    48   45   46 1  
    49   46   47 1  
    50   46   49 1  
    51   47   48 2  
    52   47   52 am 
    53   49   50 1  
    54   49   51 1  
    55   52   53 1  
    56   53   54 1  
    57   53   56 1  
    58   54   55 2  
    59   54   63 am 
    60   56   57 1  
    61   57   58 1  
    62   58   59 1  
    63   59   60 ar 
    64   60   61 ar 
    65   60   62 ar 
    66   63   64 1  
    67   64   65 1  
    68   64   67 1  
    69   65   66 2  
    70   65   74 am 
    71   67   68 1  
    72   68   69 1  
    73   69   70 1  
    74   70   71 ar 
    75   71   72 ar 
    76   71   73 ar 
    77   74   75 1  
    78   75   76 1  
    79   75   78 1  
    80   76   77 2  
    81   76   82 am 
    82   78   79 1  
    83   79   80 1  
    84   79   81 1  
    85   82   83 1  
    86   83   84 1  
    87   83   86 1  
    88   84   85 2  
    89   84   91 am 
    90   86   87 1  
    91   87   88 1  
    92   88   89 1  
    93   89   90 1  
    94   91   92 1  
    95   92   93 1  
    96   93   94 2  
    97    2   96 1  
    98    5   97 1  
    99    6   98 1  
   100    9   99 1  
   101    9  100 1  
   102   10  101 1  
   103   10  102 1  
   104   13  103 1  
   105   13  104 1  
   106   14  105 1  
   107   15  106 1  
   108   18  107 1  
   109   18  108 1  
   110   19  109 1  
   111   19  110 1  
   112   22  111 1  
   113   22  112 1  
   114   23  113 1  
   115   24  114 1  
   116   27  115 1  
   117   27  116 1  
   118   31  117 1  
   119   32  118 1  
   120   35  119 1  
   121   35  120 1  
   122   36  121 1  
   123   37  122 1  
   124   37  123 1  
   125   37  124 1  
   126   38  125 1  
   127   38  126 1  
   128   38  127 1  
   129   39  128 1  
   130   40  129 1  
   131   43  130 1  
   132   43  131 1  
   133   44  132 1  
   134   45  133 1  
   135   46  134 1  
   136   49  135 1  
   137   50  136 1  
   138   51  137 1  
   139   51  138 1  
   140   51  139 1  
   141   52  140 1  
   142   53  141 1  
   143   56  142 1  
   144   56  143 1  
   145   57  144 1  
   146   57  145 1  
   147   58  146 1  
   148   58  147 1  
   149   59  148 1  
   150   61  149 1  
   151   61  150 1  
   152   62  151 1  
   153   62  152 1  
   154   63  153 1  
   155   64  154 1  
   156   67  155 1  
   157   67  156 1  
   158   68  157 1  
   159   68  158 1  
   160   69  159 1  
   161   69  160 1  
   162   70  161 1  
   163   72  162 1  
   164   72  163 1  
   165   73  164 1  
   166   73  165 1  
   167   74  166 1  
   168   75  167 1  
   169   78  168 1  
   170   78  169 1  
   171   79  170 1  
   172   80  171 1  
   173   80  172 1  
   174   80  173 1  
   175   81  174 1  
   176   81  175 1  
   177   81  176 1  
   178   82  177 1  
   179   83  178 1  
   180   86  179 1  
   181   86  180 1  
   182   87  181 1  
   183   87  182 1  
   184   88  183 1  
   185   88  184 1  
   186   89  185 1  
   187   89  186 1  
   188   90  187 1  
   189   90  188 1  
   190   90  189 1  
   191   91  190 1  
   192   92  191 1  
   193   92  192 1  
@<TRIPOS>SUBSTRUCTURE
     1 GLY         1

