4o2b_ligand
  -I-interpret- 

 54 56  0  0  0  0  0  0  0  0999 V2000
   15.6090   68.3360   45.7800 O   0  0  0  0  0
   16.6760   68.7360   46.2130 C   0  0  0  0  0
   16.7660   69.5870   47.4470 C   0  0  0  0  0
   17.8340   68.4440   45.6230 N   0  0  0  0  0
   17.9150   67.6000   44.4420 C   0  0  0  0  0
   17.7230   66.1490   44.7780 C   0  0  0  0  0
   18.0400   65.7600   46.0240 C   0  0  0  0  0
   19.2670   67.7930   43.7550 C   0  0  0  0  0
   19.5200   66.7940   42.6240 C   0  0  0  0  0
   18.2750   66.6600   41.7770 C   0  0  0  0  0
   18.2100   67.2280   40.5020 C   0  0  0  0  0
   17.0730   67.1230   39.6970 C   0  0  0  0  0
   15.8720   66.3970   40.1810 C   0  0  0  0  0
   15.8930   65.7740   41.5220 C   0  0  0  0  0
   14.7990   65.1000   41.9890 O   0  0  0  0  0
   13.8410   65.8010   42.7800 C   0  0  0  0  0
   14.7610   66.2850   39.3930 O   0  0  0  0  0
   14.6110   65.1000   38.6160 C   0  0  0  0  0
   17.0410   67.6920   38.4480 O   0  0  0  0  0
   18.2420   68.1330   37.8190 C   0  0  0  0  0
   17.1220   65.9150   42.3370 C   0  0  0  0  0
   17.2250   65.3020   43.7010 C   0  0  0  0  0
   16.8700   64.0090   43.7750 C   0  0  0  0  0
   16.8370   63.0840   44.9000 C   0  0  0  0  0
   17.3080   63.2450   46.1400 C   0  0  0  0  0
   17.9760   64.4320   46.6640 C   0  0  0  0  0
   18.5190   64.3150   47.7500 O   0  0  0  0  0
   17.1300   62.1310   47.0560 O   0  0  0  0  0
   16.6020   60.8970   46.5810 C   0  0  0  0  0
   16.2045   70.5085   47.2931 H   0  0  0  0  0
   16.3480   69.0424   48.2936 H   0  0  0  0  0
   17.8106   69.8257   47.6468 H   0  0  0  0  0
   18.6950   68.8264   46.0139 H   0  0  0  0  0
   17.1110   67.8977   43.7689 H   0  0  0  0  0
   18.4054   66.5583   46.6699 H   0  0  0  0  0
   20.0424   67.6430   44.5063 H   0  0  0  0  0
   19.2754   68.7922   43.3196 H   0  0  0  0  0
   19.7750   65.8231   43.0489 H   0  0  0  0  0
   20.3429   67.1498   42.0041 H   0  0  0  0  0
   19.0755   67.7713   40.1227 H   0  0  0  0  0
   14.3259   66.1904   43.6751 H   0  0  0  0  0
   13.4278   66.6267   42.2007 H   0  0  0  0  0
   13.0398   65.1197   43.0664 H   0  0  0  0  0
   15.4552   65.0056   37.9330 H   0  0  0  0  0
   14.5790   64.2346   39.2780 H   0  0  0  0  0
   13.6844   65.1565   38.0447 H   0  0  0  0  0
   18.7156   68.8955   38.4373 H   0  0  0  0  0
   18.9197   67.2877   37.6996 H   0  0  0  0  0
   18.0057   68.5518   36.8408 H   0  0  0  0  0
   16.5506   63.5756   42.8272 H   0  0  0  0  0
   16.3603   62.1240   44.7020 H   0  0  0  0  0
   15.6061   61.0634   46.1703 H   0  0  0  0  0
   17.2549   60.4989   45.8042 H   0  0  0  0  0
   16.5422   60.1872   47.4061 H   0  0  0  0  0
  1  2  2  0  0  0
  2  3  1  0  0  0
  2  4  1  0  0  0
  4  5  1  0  0  0
  5  6  1  0  0  0
  5  8  1  0  0  0
  6  7  2  0  0  0
  6 22  1  0  0  0
  7 26  1  0  0  0
  8  9  1  0  0  0
  9 10  1  0  0  0
 10 11  4  0  0  0
 10 21  4  0  0  0
 11 12  4  0  0  0
 12 13  4  0  0  0
 12 19  1  0  0  0
 13 14  4  0  0  0
 13 17  1  0  0  0
 14 15  1  0  0  0
 14 21  4  0  0  0
 15 16  1  0  0  0
 17 18  1  0  0  0
 19 20  1  0  0  0
 21 22  1  0  0  0
 22 23  2  0  0  0
 23 24  1  0  0  0
 24 25  2  0  0  0
 25 26  1  0  0  0
 25 28  1  0  0  0
 26 27  2  0  0  0
 28 29  1  0  0  0
  3 30  1  0  0  0
  3 31  1  0  0  0
  3 32  1  0  0  0
  4 33  1  0  0  0
  5 34  1  0  0  0
  7 35  1  0  0  0
  8 36  1  0  0  0
  8 37  1  0  0  0
  9 38  1  0  0  0
  9 39  1  0  0  0
 11 40  1  0  0  0
 16 41  1  0  0  0
 16 42  1  0  0  0
 16 43  1  0  0  0
 18 44  1  0  0  0
 18 45  1  0  0  0
 18 46  1  0  0  0
 20 47  1  0  0  0
 20 48  1  0  0  0
 20 49  1  0  0  0
 23 50  1  0  0  0
 24 51  1  0  0  0
 29 52  1  0  0  0
 29 53  1  0  0  0
 29 54  1  0  0  0
M  END
$$$$
