5trh_ligand
  -I-interpret- 

 43 45  0  0  0  0  0  0  0  0999 V2000
   21.8990    5.5610   10.2320 C   0  0  0  0  0
   24.2780    7.2850   13.9110 C   0  0  0  0  0
   20.7640    5.0440   10.8440 C   0  0  0  0  0
   19.5760    4.9990   10.1260 C   0  0  0  0  0
   24.6620    7.1770   12.5830 C   0  0  0  0  0
   23.8350    8.5200   14.3700 C   0  0  0  0  0
   21.8450    5.9990    8.9220 C   0  0  0  0  0
   19.5340    5.4270    8.8140 C   0  0  0  0  0
   24.5590    8.2530   11.7170 C   0  0  0  0  0
   24.1960    6.0550   14.7690 C   0  0  0  0  0
   22.7760    2.2640   16.3490 C   0  0  0  0  0
   24.0680    9.4520   12.1890 C   0  0  0  0  0
   23.8270   10.7760   11.0780 Cl  0  0  0  0  0
   22.1100    3.2110   13.8210 C   0  0  0  0  0
   22.9130    3.9800   14.6790 C   0  0  0  0  0
   21.5860    1.9840   14.2680 C   0  0  0  0  0
   21.8310    3.6690   12.5060 N   0  0  0  0  0
   23.0950    5.2800   14.2720 O   0  0  0  0  0
   23.2780    3.4850   15.9240 C   0  0  0  0  0
   21.9240    1.5270   15.5410 C   0  0  0  0  0
   20.6550    1.1900   13.4100 C   0  0  0  0  0
   20.8070    4.5090   12.2320 C   0  0  0  0  0
   21.2670    0.3930   12.5800 O   0  0  0  0  0
   19.4290    1.3190   13.4520 O   0  0  0  0  0
   19.9620    4.8360   13.0560 O   0  0  0  0  0
   23.7170    9.6040   13.5120 C   0  0  0  0  0
   20.6630    5.9350    8.2150 C   0  0  0  0  0
   22.8353    5.6215   10.7867 H   0  0  0  0  0
   18.6702    4.6231   10.6017 H   0  0  0  0  0
   25.0519    6.2284   12.2140 H   0  0  0  0  0
   23.5759    8.6389   15.4220 H   0  0  0  0  0
   22.7411    6.3968    8.4457 H   0  0  0  0  0
   18.6029    5.3621    8.2510 H   0  0  0  0  0
   24.8624    8.1532   10.6749 H   0  0  0  0  0
   24.0442    6.3200   15.8153 H   0  0  0  0  0
   25.1245    5.4859   14.7228 H   0  0  0  0  0
   23.0547    1.8792   17.3300 H   0  0  0  0  0
   22.4250    3.3526   11.7396 H   0  0  0  0  0
   23.9546    4.0524   16.5631 H   0  0  0  0  0
   21.5155    0.5837   15.9035 H   0  0  0  0  0
   22.2146    0.4513   12.7220 H   0  0  0  0  0
   23.3515   10.5627   13.8800 H   0  0  0  0  0
   20.6235    6.2862    7.1839 H   0  0  0  0  0
  3  1  4  0  0  0
  1  7  4  0  0  0
  2  5  4  0  0  0
  2  6  4  0  0  0
 10  2  1  0  0  0
  3  4  4  0  0  0
 22  3  1  0  0  0
  4  8  4  0  0  0
  5  9  4  0  0  0
  6 26  4  0  0  0
  7 27  4  0  0  0
  8 27  4  0  0  0
  9 12  4  0  0  0
 18 10  1  0  0  0
 19 11  4  0  0  0
 20 11  4  0  0  0
 12 13  1  0  0  0
 26 12  4  0  0  0
 14 15  4  0  0  0
 14 16  4  0  0  0
 17 14  1  0  0  0
 15 18  1  0  0  0
 15 19  4  0  0  0
 16 20  4  0  0  0
 16 21  1  0  0  0
 17 22  1  0  0  0
 21 23  1  0  0  0
 21 24  2  0  0  0
 22 25  2  0  0  0
  1 28  1  0  0  0
  4 29  1  0  0  0
  5 30  1  0  0  0
  6 31  1  0  0  0
  7 32  1  0  0  0
  8 33  1  0  0  0
  9 34  1  0  0  0
 10 35  1  0  0  0
 10 36  1  0  0  0
 11 37  1  0  0  0
 17 38  1  0  0  0
 19 39  1  0  0  0
 20 40  1  0  0  0
 23 41  1  0  0  0
 26 42  1  0  0  0
 27 43  1  0  0  0
M  END
$$$$
