6gjy_ligand
  -I-interpret- 

 39 39  0  0  0  0  0  0  0  0999 V2000
   -0.4370   17.2980   -6.2270 O   0  0  0  0  0
   -1.1170   17.9010   -5.4540 C   0  0  0  0  0
   -1.3070   17.4050   -4.2620 N   0  0  0  0  0
   -0.7820   16.1560   -3.8050 C   0  0  0  0  0
   -1.4430   14.9810   -4.4610 C   0  0  0  0  0
   -2.5490   15.0180   -4.8920 O   0  0  0  0  0
   -0.6350   13.8080   -4.5220 O   0  0  0  0  0
   -1.0960   12.5560   -4.9780 C   0  0  0  0  0
   -0.0150   11.5630   -4.6010 C   0  0  0  0  0
   -1.6970   19.0750   -5.6800 N   0  0  0  0  0
   -2.2260   19.9100   -4.6140 C   0  0  0  0  0
   -1.0840   20.6020   -3.9870 C   0  0  0  0  0
   -0.0460   21.1660   -3.5010 C   0  0  0  0  0
   -1.8710   19.7020   -6.9430 C   0  0  0  0  0
   -3.3140   19.6880   -7.3530 C   0  0  0  0  0
   -3.9770   18.4940   -7.3980 C   0  0  0  0  0
   -5.2920   18.4540   -7.8190 C   0  0  0  0  0
   -5.9450   19.5980   -8.1940 C   0  0  0  0  0
   -7.2110   19.5680   -8.6230 N   0  0  0  0  0
   -5.2790   20.8040   -8.1390 C   0  0  0  0  0
   -3.9560   20.8490   -7.7290 C   0  0  0  0  0
   -1.8713   17.9480   -3.6085 H   0  0  0  0  0
   -0.9623   16.0877   -2.7322 H   0  0  0  0  0
    0.2791   16.1264   -4.0525 H   0  0  0  0  0
   -1.2730   12.5637   -6.0535 H   0  0  0  0  0
   -2.0529   12.2946   -4.5262 H   0  0  0  0  0
    0.9198   11.8439   -5.0862 H   0  0  0  0  0
    0.1198   11.5678   -3.5194 H   0  0  0  0  0
   -0.3098   10.5656   -4.9273 H   0  0  0  0  0
   -2.7543   19.3022   -3.8794 H   0  0  0  0  0
   -2.9382   20.6325   -5.0126 H   0  0  0  0  0
   -1.2897   19.1581   -7.6875 H   0  0  0  0  0
   -1.5374   20.7371   -6.8695 H   0  0  0  0  0
   -3.4696   17.5757   -7.1025 H   0  0  0  0  0
   -5.8169   17.4993   -7.8532 H   0  0  0  0  0
   -7.7106   18.6803   -8.6762 H   0  0  0  0  0
   -7.6772   20.4328   -8.8971 H   0  0  0  0  0
   -5.7938   21.7233   -8.4184 H   0  0  0  0  0
   -3.4240   21.8000   -7.7038 H   0  0  0  0  0
  1  2  2  0  0  0
  2  3  1  0  0  0
  2 10  1  0  0  0
  3  4  1  0  0  0
  4  5  1  0  0  0
  5  6  2  0  0  0
  5  7  1  0  0  0
  7  8  1  0  0  0
  8  9  1  0  0  0
 10 11  1  0  0  0
 10 14  1  0  0  0
 11 12  1  0  0  0
 12 13  3  0  0  0
 14 15  1  0  0  0
 15 16  4  0  0  0
 15 21  4  0  0  0
 16 17  4  0  0  0
 17 18  4  0  0  0
 18 19  1  0  0  0
 18 20  4  0  0  0
 20 21  4  0  0  0
  3 22  1  0  0  0
  4 23  1  0  0  0
  4 24  1  0  0  0
  8 25  1  0  0  0
  8 26  1  0  0  0
  9 27  1  0  0  0
  9 28  1  0  0  0
  9 29  1  0  0  0
 11 30  1  0  0  0
 11 31  1  0  0  0
 14 32  1  0  0  0
 14 33  1  0  0  0
 16 34  1  0  0  0
 17 35  1  0  0  0
 19 36  1  0  0  0
 19 37  1  0  0  0
 20 38  1  0  0  0
 21 39  1  0  0  0
M  END
$$$$
