### 
### Created by X-TOOL on Tue Oct 16 15:17:56 2018
### 

@<TRIPOS>MOLECULE
5unj_ligand
  163   162     1     0     0
SMALL
GAST_HUCK


@<TRIPOS>ATOM
      1 N         -15.1570   -2.9490  -22.4920 N.4       1 SER         0.2396
      2 CA        -14.5420   -1.6560  -22.2150 C.3       1 SER         0.0885
      3 C         -15.5840   -0.5450  -22.2180 C.2       1 SER         0.2290
      4 O         -16.3070   -0.3610  -23.1970 O.2       1 SER        -0.3906
      5 CB        -13.4510   -1.3530  -23.2430 C.3       1 SER         0.1041
      6 OG        -13.0430    0.0010  -23.1730 O.3       1 SER        -0.3870
      7 N         -15.6570    0.1970  -21.1120 N.am      1 SER        -0.2609
      8 CA        -16.5950    1.3110  -21.0350 C.3       1 SER         0.1313
      9 C         -16.1890    2.4370  -21.9750 C.2       1 SER         0.2039
     10 O         -17.0470    3.0690  -22.6030 O.2       1 SER        -0.3944
     11 CB        -16.6860    1.8200  -19.5980 C.3       1 SER        -0.0101
     12 CG        -17.5400    3.0710  -19.3840 C.3       1 SER        -0.0425
     13 CD1       -18.9520    2.8560  -19.8980 C.3       1 SER        -0.0625
     14 CD2       -17.5540    3.4560  -17.9110 C.3       1 SER        -0.0625
     15 N         -14.8870    2.7040  -22.0840 N.am      1 SER        -0.2637
     16 CA        -14.4180    3.7430  -22.9940 C.3       1 SER         0.1312
     17 C         -14.8220    3.4270  -24.4270 C.2       1 SER         0.2039
     18 O         -15.3300    4.2930  -25.1480 O.2       1 SER        -0.3944
     19 CB        -12.9010    3.8940  -22.8780 C.3       1 SER        -0.0101
     20 CG        -12.2150    4.8520  -23.8570 C.3       1 SER        -0.0425
     21 CD1       -12.7800    6.2600  -23.7470 C.3       1 SER        -0.0625
     22 CD2       -10.7160    4.8640  -23.6160 C.3       1 SER        -0.0625
     23 N         -14.6090    2.1810  -24.8560 N.am      1 SER        -0.2637
     24 CA        -15.0060    1.7940  -26.2040 C.3       1 SER         0.1310
     25 C         -16.5100    1.9360  -26.3860 C.2       1 SER         0.2039
     26 O         -16.9810    2.3290  -27.4600 O.2       1 SER        -0.3944
     27 CB        -14.5550    0.3610  -26.4910 C.3       1 SER        -0.0122
     28 CG        -14.7750   -0.0770  -27.9310 C.3       1 SER        -0.0440
     29 CD        -13.8670   -1.2360  -28.3220 C.3       1 SER        -0.0124
     30 CE        -14.6640   -2.4810  -28.6720 C.3       1 SER        -0.0354
     31 NZ        -13.7930   -3.5680  -29.2010 N.4       1 SER         0.2185
     32 N         -17.2800    1.6360  -25.3380 N.am      1 SER        -0.2637
     33 CA        -18.7270    1.8050  -25.4040 C.3       1 SER         0.1310
     34 C         -19.0970    3.2690  -25.6170 C.2       1 SER         0.2039
     35 O         -20.0310    3.5800  -26.3670 O.2       1 SER        -0.3944
     36 CB        -19.3650    1.2610  -24.1250 C.3       1 SER        -0.0122
     37 CG        -20.8820    1.3000  -24.1010 C.3       1 SER        -0.0440
     38 CD        -21.4180    0.7100  -22.8050 C.3       1 SER        -0.0124
     39 CE        -22.9390    0.7530  -22.7550 C.3       1 SER        -0.0354
     40 NZ        -23.4720    0.1830  -21.4880 N.4       1 SER         0.2185
     41 N         -18.3660    4.1840  -24.9740 N.am      1 SER        -0.2637
     42 CA        -18.6360    5.6100  -25.1380 C.3       1 SER         0.1312
     43 C         -18.2930    6.0830  -26.5430 C.2       1 SER         0.2039
     44 O         -19.0260    6.8870  -27.1310 O.2       1 SER        -0.3944
     45 CB        -17.8400    6.4160  -24.1110 C.3       1 SER        -0.0101
     46 CG        -18.2340    6.2540  -22.6430 C.3       1 SER        -0.0425
     47 CD1       -17.2040    6.9280  -21.7560 C.3       1 SER        -0.0625
     48 CD2       -19.6130    6.8330  -22.3900 C.3       1 SER        -0.0625
     49 N         -17.1750    5.6070  -27.0930 N.am      1 SER        -0.2637
     50 CA        -16.7420    6.0700  -28.4060 C.3       1 SER         0.1312
     51 C         -17.5860    5.4720  -29.5250 C.2       1 SER         0.2039
     52 O         -17.6890    6.0660  -30.6040 O.2       1 SER        -0.3944
     53 CB        -15.2630    5.7350  -28.6050 C.3       1 SER        -0.0101
     54 CG        -14.3130    6.4000  -27.6040 C.3       1 SER        -0.0425
     55 CD1       -12.9240    5.7980  -27.7110 C.3       1 SER        -0.0625
     56 CD2       -14.2580    7.9070  -27.8160 C.3       1 SER        -0.0625
     57 N         -18.1980    4.3080  -29.2940 N.am      1 SER        -0.2637
     58 CA        -19.0390    3.6830  -30.3090 C.3       1 SER         0.1312
     59 C         -20.4520    4.2510  -30.3410 C.2       1 SER         0.2033
     60 O         -21.1610    4.0470  -31.3320 O.2       1 SER        -0.3944
     61 CB        -19.1150    2.1710  -30.0760 C.3       1 SER        -0.0101
     62 CG        -17.9130    1.3270  -30.5030 C.3       1 SER        -0.0425
     63 CD1       -18.0730   -0.1030  -30.0060 C.3       1 SER        -0.0625
     64 CD2       -17.7560    1.3450  -32.0120 C.3       1 SER        -0.0625
     65 N         -20.8780    4.9470  -29.2930 N.am      1 SER        -0.2698
     66 CA        -22.2450    5.4530  -29.2190 C.3       1 SER         0.0916
     67 C         -22.5120    6.4920  -30.3040 C.2       1 SER         0.0598
     68 O         -21.6150    7.2330  -30.7070 O.co2     1 SER        -0.5666
     69 CB        -22.5120    6.0410  -27.8440 C.3       1 SER        -0.0300
     70 OXT       -23.6310    6.6150  -30.8030 O.co2     1 SER        -0.5666
     71 H1        -14.4489   -3.6663  -22.4846 H         1 SER         0.2016
     72 H2        -15.5999   -2.9234  -23.3971 H         1 SER         0.2016
     73 H3        -15.8472   -3.1510  -21.7857 H         1 SER         0.2016
     74 H4        -14.0809   -1.6981  -21.2172 H         1 SER         0.1122
     75 H5        -13.8407   -1.5586  -24.2509 H         1 SER         0.0640
     76 H6        -12.5832   -1.9997  -23.0464 H         1 SER         0.0640
     77 H7        -12.7016    0.1832  -22.3054 H         1 SER         0.2099
     78 H8        -15.0662   -0.0114  -20.3326 H         1 SER         0.1884
     79 H9        -17.5880    0.9491  -21.3399 H         1 SER         0.0800
     80 H10       -15.6655    2.0463  -19.2555 H         1 SER         0.0315
     81 H11       -17.1094    1.0136  -18.9812 H         1 SER         0.0315
     82 H12       -17.0896    3.8978  -19.9528 H         1 SER         0.0298
     83 H13       -19.5450    3.7677  -19.7331 H         1 SER         0.0232
     84 H14       -19.4143    2.0155  -19.3595 H         1 SER         0.0232
     85 H15       -18.9200    2.6291  -20.9739 H         1 SER         0.0232
     86 H16       -16.5219    3.6063  -17.5615 H         1 SER         0.0232
     87 H17       -18.0257    2.6524  -17.3264 H         1 SER         0.0232
     88 H18       -18.1244    4.3875  -17.7808 H         1 SER         0.0232
     89 H19       -14.2272    2.1880  -21.5377 H         1 SER         0.1883
     90 H20       -14.8857    4.6959  -22.7054 H         1 SER         0.0800
     91 H21       -12.4573    2.8981  -23.0242 H         1 SER         0.0315
     92 H22       -12.6807    4.2478  -21.8600 H         1 SER         0.0315
     93 H23       -12.3991    4.4881  -24.8786 H         1 SER         0.0298
     94 H24       -12.2654    6.9185  -24.4623 H         1 SER         0.0232
     95 H25       -12.6269    6.6378  -22.7253 H         1 SER         0.0232
     96 H26       -13.8562    6.2420  -23.9739 H         1 SER         0.0232
     97 H27       -10.3231    3.8399  -23.6989 H         1 SER         0.0232
     98 H28       -10.5096    5.2555  -22.6090 H         1 SER         0.0232
     99 H29       -10.2292    5.5052  -24.3656 H         1 SER         0.0232
    100 H30       -14.1764    1.5120  -24.2516 H         1 SER         0.1883
    101 H31       -14.5076    2.4648  -26.9193 H         1 SER         0.0800
    102 H32       -15.1173   -0.3176  -25.8328 H         1 SER         0.0312
    103 H33       -13.4811    0.2841  -26.2657 H         1 SER         0.0312
    104 H34       -14.5696    0.7746  -28.5962 H         1 SER         0.0269
    105 H35       -15.8224   -0.3911  -28.0502 H         1 SER         0.0269
    106 H36       -13.1991   -1.4658  -27.4787 H         1 SER         0.0317
    107 H37       -13.2669   -0.9399  -29.1950 H         1 SER         0.0317
    108 H38       -15.4120   -2.2214  -29.4356 H         1 SER         0.0813
    109 H39       -15.1741   -2.8428  -27.7671 H         1 SER         0.0813
    110 H40       -14.3573   -4.3738  -29.4206 H         1 SER         0.1994
    111 H41       -13.1072   -3.8175  -28.5056 H         1 SER         0.1994
    112 H42       -13.3253   -3.2481  -30.0346 H         1 SER         0.1994
    113 H43       -16.8601    1.2916  -24.4983 H         1 SER         0.1883
    114 H44       -19.1077    1.2258  -26.2581 H         1 SER         0.0800
    115 H45       -18.9945    1.8571  -23.2780 H         1 SER         0.0312
    116 H46       -19.0482    0.2147  -24.0034 H         1 SER         0.0312
    117 H47       -21.2710    0.7185  -24.9498 H         1 SER         0.0269
    118 H48       -21.2172    2.3441  -24.1875 H         1 SER         0.0269
    119 H49       -21.0169    1.2860  -21.9581 H         1 SER         0.0317
    120 H50       -21.0880   -0.3363  -22.7260 H         1 SER         0.0317
    121 H51       -23.3385    0.1739  -23.6005 H         1 SER         0.0813
    122 H52       -23.2676    1.7994  -22.8394 H         1 SER         0.0813
    123 H53       -24.4789    0.2305  -21.4956 H         1 SER         0.1994
    124 H54       -23.1166    0.7110  -20.7063 H         1 SER         0.1994
    125 H55       -23.1817   -0.7786  -21.4038 H         1 SER         0.1994
    126 H56       -17.6239    3.8885  -24.3723 H         1 SER         0.1883
    127 H57       -19.7088    5.7816  -24.9658 H         1 SER         0.0800
    128 H58       -17.9489    7.4800  -24.3680 H         1 SER         0.0315
    129 H59       -16.7842    6.1222  -24.2052 H         1 SER         0.0315
    130 H60       -18.2572    5.1809  -22.4023 H         1 SER         0.0298
    131 H61       -17.4933    6.8078  -20.7016 H         1 SER         0.0232
    132 H62       -17.1525    7.9988  -22.0023 H         1 SER         0.0232
    133 H63       -16.2195    6.4660  -21.9210 H         1 SER         0.0232
    134 H64       -20.3456    6.3331  -23.0408 H         1 SER         0.0232
    135 H65       -19.6038    7.9110  -22.6086 H         1 SER         0.0232
    136 H66       -19.8897    6.6747  -21.3372 H         1 SER         0.0232
    137 H67       -16.6300    4.9278  -26.6014 H         1 SER         0.1883
    138 H68       -16.8584    7.1633  -28.4404 H         1 SER         0.0800
    139 H69       -14.9728    6.0551  -29.6166 H         1 SER         0.0315
    140 H70       -15.1442    4.6450  -28.5171 H         1 SER         0.0315
    141 H71       -14.6949    6.2100  -26.5901 H         1 SER         0.0298
    142 H72       -12.2559    6.2864  -26.9863 H         1 SER         0.0232
    143 H73       -12.5355    5.9508  -28.7287 H         1 SER         0.0232
    144 H74       -12.9737    4.7205  -27.4954 H         1 SER         0.0232
    145 H75       -15.2719    8.3259  -27.7351 H         1 SER         0.0232
    146 H76       -13.8511    8.1222  -28.8150 H         1 SER         0.0232
    147 H77       -13.6114    8.3616  -27.0510 H         1 SER         0.0232
    148 H78       -18.0777    3.8568  -28.4097 H         1 SER         0.1883
    149 H79       -18.5754    3.8647  -31.2898 H         1 SER         0.0800
    150 H80       -19.9914    1.7970  -30.6256 H         1 SER         0.0315
    151 H81       -19.2627    2.0113  -28.9977 H         1 SER         0.0315
    152 H82       -17.0061    1.7562  -30.0521 H         1 SER         0.0298
    153 H83       -17.2033   -0.6994  -30.3190 H         1 SER         0.0232
    154 H84       -18.9888   -0.5389  -30.4317 H         1 SER         0.0232
    155 H85       -18.1423   -0.1041  -28.9082 H         1 SER         0.0232
    156 H86       -17.6415    2.3834  -32.3563 H         1 SER         0.0232
    157 H87       -18.6472    0.9001  -32.4787 H         1 SER         0.0232
    158 H88       -16.8655    0.7646  -32.2950 H         1 SER         0.0232
    159 H89       -20.2481    5.1284  -28.5378 H         1 SER         0.1875
    160 H90       -22.9331    4.6092  -29.3754 H         1 SER         0.0723
    161 H91       -23.5443    6.4185  -27.8008 H         1 SER         0.0270
    162 H92       -21.8111    6.8678  -27.6563 H         1 SER         0.0270
    163 H93       -22.3741    5.2625  -27.0792 H         1 SER         0.0270
@<TRIPOS>BOND
     1    1    2 1  
     2    2    3 1  
     3    2    5 1  
     4    3    4 2  
     5    3    7 am 
     6    5    6 1  
     7    7    8 1  
     8    8    9 1  
     9    8   11 1  
    10    9   10 2  
    11    9   15 am 
    12   11   12 1  
    13   12   13 1  
    14   12   14 1  
    15   15   16 1  
    16   16   17 1  
    17   16   19 1  
    18   17   18 2  
    19   17   23 am 
    20   19   20 1  
    21   20   21 1  
    22   20   22 1  
    23   23   24 1  
    24   24   25 1  
    25   24   27 1  
    26   25   26 2  
    27   25   32 am 
    28   27   28 1  
    29   28   29 1  
    30   29   30 1  
    31   30   31 1  
    32   32   33 1  
    33   33   34 1  
    34   33   36 1  
    35   34   35 2  
    36   34   41 am 
    37   36   37 1  
    38   37   38 1  
    39   38   39 1  
    40   39   40 1  
    41   41   42 1  
    42   42   43 1  
    43   42   45 1  
    44   43   44 2  
    45   43   49 am 
    46   45   46 1  
    47   46   47 1  
    48   46   48 1  
    49   49   50 1  
    50   50   51 1  
    51   50   53 1  
    52   51   52 2  
    53   51   57 am 
    54   53   54 1  
    55   54   55 1  
    56   54   56 1  
    57   57   58 1  
    58   58   59 1  
    59   58   61 1  
    60   59   60 2  
    61   59   65 am 
    62   61   62 1  
    63   62   63 1  
    64   62   64 1  
    65   65   66 1  
    66   66   67 1  
    67   66   69 1  
    68   67   68 ar 
    69   67   70 ar 
    70    1   71 1  
    71    1   72 1  
    72    1   73 1  
    73    2   74 1  
    74    5   75 1  
    75    5   76 1  
    76    6   77 1  
    77    7   78 1  
    78    8   79 1  
    79   11   80 1  
    80   11   81 1  
    81   12   82 1  
    82   13   83 1  
    83   13   84 1  
    84   13   85 1  
    85   14   86 1  
    86   14   87 1  
    87   14   88 1  
    88   15   89 1  
    89   16   90 1  
    90   19   91 1  
    91   19   92 1  
    92   20   93 1  
    93   21   94 1  
    94   21   95 1  
    95   21   96 1  
    96   22   97 1  
    97   22   98 1  
    98   22   99 1  
    99   23  100 1  
   100   24  101 1  
   101   27  102 1  
   102   27  103 1  
   103   28  104 1  
   104   28  105 1  
   105   29  106 1  
   106   29  107 1  
   107   30  108 1  
   108   30  109 1  
   109   31  110 1  
   110   31  111 1  
   111   31  112 1  
   112   32  113 1  
   113   33  114 1  
   114   36  115 1  
   115   36  116 1  
   116   37  117 1  
   117   37  118 1  
   118   38  119 1  
   119   38  120 1  
   120   39  121 1  
   121   39  122 1  
   122   40  123 1  
   123   40  124 1  
   124   40  125 1  
   125   41  126 1  
   126   42  127 1  
   127   45  128 1  
   128   45  129 1  
   129   46  130 1  
   130   47  131 1  
   131   47  132 1  
   132   47  133 1  
   133   48  134 1  
   134   48  135 1  
   135   48  136 1  
   136   49  137 1  
   137   50  138 1  
   138   53  139 1  
   139   53  140 1  
   140   54  141 1  
   141   55  142 1  
   142   55  143 1  
   143   55  144 1  
   144   56  145 1  
   145   56  146 1  
   146   56  147 1  
   147   57  148 1  
   148   58  149 1  
   149   61  150 1  
   150   61  151 1  
   151   62  152 1  
   152   63  153 1  
   153   63  154 1  
   154   63  155 1  
   155   64  156 1  
   156   64  157 1  
   157   64  158 1  
   158   65  159 1  
   159   66  160 1  
   160   69  161 1  
   161   69  162 1  
   162   69  163 1  
@<TRIPOS>SUBSTRUCTURE
     1 SER         1

