5unj_ligand
  -I-interpret- 

164163  0  0  0  0  0  0  0  0999 V2000
  -15.1570   -2.9490  -22.4920 N   0  3  0  0  0
  -14.5420   -1.6560  -22.2150 C   0  0  0  0  0
  -15.5840   -0.5450  -22.2180 C   0  0  0  0  0
  -16.3070   -0.3610  -23.1970 O   0  0  0  0  0
  -13.4510   -1.3530  -23.2430 C   0  0  0  0  0
  -13.0430    0.0010  -23.1730 O   0  0  0  0  0
  -15.6570    0.1970  -21.1120 N   0  0  0  0  0
  -16.5950    1.3110  -21.0350 C   0  0  0  0  0
  -16.1890    2.4370  -21.9750 C   0  0  0  0  0
  -17.0470    3.0690  -22.6030 O   0  0  0  0  0
  -16.6860    1.8200  -19.5980 C   0  0  0  0  0
  -17.5400    3.0710  -19.3840 C   0  0  0  0  0
  -18.9520    2.8560  -19.8980 C   0  0  0  0  0
  -17.5540    3.4560  -17.9110 C   0  0  0  0  0
  -14.8870    2.7040  -22.0840 N   0  0  0  0  0
  -14.4180    3.7430  -22.9940 C   0  0  0  0  0
  -14.8220    3.4270  -24.4270 C   0  0  0  0  0
  -15.3300    4.2930  -25.1480 O   0  0  0  0  0
  -12.9010    3.8940  -22.8780 C   0  0  0  0  0
  -12.2150    4.8520  -23.8570 C   0  0  0  0  0
  -12.7800    6.2600  -23.7470 C   0  0  0  0  0
  -10.7160    4.8640  -23.6160 C   0  0  0  0  0
  -14.6090    2.1810  -24.8560 N   0  0  0  0  0
  -15.0060    1.7940  -26.2040 C   0  0  0  0  0
  -16.5100    1.9360  -26.3860 C   0  0  0  0  0
  -16.9810    2.3290  -27.4600 O   0  0  0  0  0
  -14.5550    0.3610  -26.4910 C   0  0  0  0  0
  -14.7750   -0.0770  -27.9310 C   0  0  0  0  0
  -13.8670   -1.2360  -28.3220 C   0  0  0  0  0
  -14.6640   -2.4810  -28.6720 C   0  0  0  0  0
  -13.7930   -3.5680  -29.2010 N   0  3  0  0  0
  -17.2800    1.6360  -25.3380 N   0  0  0  0  0
  -18.7270    1.8050  -25.4040 C   0  0  0  0  0
  -19.0970    3.2690  -25.6170 C   0  0  0  0  0
  -20.0310    3.5800  -26.3670 O   0  0  0  0  0
  -19.3650    1.2610  -24.1250 C   0  0  0  0  0
  -20.8820    1.3000  -24.1010 C   0  0  0  0  0
  -21.4180    0.7100  -22.8050 C   0  0  0  0  0
  -22.9390    0.7530  -22.7550 C   0  0  0  0  0
  -23.4720    0.1830  -21.4880 N   0  3  0  0  0
  -18.3660    4.1840  -24.9740 N   0  0  0  0  0
  -18.6360    5.6100  -25.1380 C   0  0  0  0  0
  -18.2930    6.0830  -26.5430 C   0  0  0  0  0
  -19.0260    6.8870  -27.1310 O   0  0  0  0  0
  -17.8400    6.4160  -24.1110 C   0  0  0  0  0
  -18.2340    6.2540  -22.6430 C   0  0  0  0  0
  -17.2040    6.9280  -21.7560 C   0  0  0  0  0
  -19.6130    6.8330  -22.3900 C   0  0  0  0  0
  -17.1750    5.6070  -27.0930 N   0  0  0  0  0
  -16.7420    6.0700  -28.4060 C   0  0  0  0  0
  -17.5860    5.4720  -29.5250 C   0  0  0  0  0
  -17.6890    6.0660  -30.6040 O   0  0  0  0  0
  -15.2630    5.7350  -28.6050 C   0  0  0  0  0
  -14.3130    6.4000  -27.6040 C   0  0  0  0  0
  -12.9240    5.7980  -27.7110 C   0  0  0  0  0
  -14.2580    7.9070  -27.8160 C   0  0  0  0  0
  -18.1980    4.3080  -29.2940 N   0  0  0  0  0
  -19.0390    3.6830  -30.3090 C   0  0  0  0  0
  -20.4520    4.2510  -30.3410 C   0  0  0  0  0
  -21.1610    4.0470  -31.3320 O   0  0  0  0  0
  -19.1150    2.1710  -30.0760 C   0  0  0  0  0
  -17.9130    1.3270  -30.5030 C   0  0  0  0  0
  -18.0730   -0.1030  -30.0060 C   0  0  0  0  0
  -17.7560    1.3450  -32.0120 C   0  0  0  0  0
  -20.8780    4.9470  -29.2930 N   0  0  0  0  0
  -22.2450    5.4530  -29.2190 C   0  0  0  0  0
  -22.5120    6.4920  -30.3040 C   0  0  0  0  0
  -21.6150    7.2330  -30.7070 O   0  0  0  0  0
  -22.5120    6.0410  -27.8440 C   0  0  0  0  0
  -23.6310    6.6150  -30.8030 O   0  0  0  0  0
  -15.8812   -3.1353  -21.7983 H   0  0  0  0  0
  -15.5725   -2.9340  -23.4234 H   0  0  0  0  0
  -14.4459   -3.6789  -22.4474 H   0  0  0  0  0
  -14.0917   -1.7029  -21.2235 H   0  0  0  0  0
  -13.8489   -1.5453  -24.2394 H   0  0  0  0  0
  -12.5896   -1.9871  -23.0332 H   0  0  0  0  0
  -12.3595    0.1623  -23.8275 H   0  0  0  0  0
  -15.0544   -0.0156  -20.3170 H   0  0  0  0  0
  -17.5764    0.9541  -21.3472 H   0  0  0  0  0
  -15.6714    2.0872  -19.3026 H   0  0  0  0  0
  -17.1570    1.0247  -19.0203 H   0  0  0  0  0
  -17.0980    3.8903  -19.9510 H   0  0  0  0  0
  -18.9189    2.6312  -20.9641 H   0  0  0  0  0
  -19.4089    2.0230  -19.3637 H   0  0  0  0  0
  -19.5386    3.7600  -19.7340 H   0  0  0  0  0
  -17.9707    2.6358  -17.3264 H   0  0  0  0  0
  -16.5355    3.6590  -17.5801 H   0  0  0  0  0
  -18.1659    4.3479  -17.7757 H   0  0  0  0  0
  -14.2140    2.1777  -21.5268 H   0  0  0  0  0
  -14.8844    4.6881  -22.7158 H   0  0  0  0  0
  -12.4886    2.9079  -23.0914 H   0  0  0  0  0
  -12.7200    4.3062  -21.8853 H   0  0  0  0  0
  -12.4102    4.4940  -24.8678 H   0  0  0  0  0
  -13.8463    6.2408  -23.9720 H   0  0  0  0  0
  -12.6277    6.6331  -22.7342 H   0  0  0  0  0
  -12.2694    6.9115  -24.4562 H   0  0  0  0  0
  -10.5159    5.1919  -22.5959 H   0  0  0  0  0
  -10.3180    3.8597  -23.7609 H   0  0  0  0  0
  -10.2418    5.5490  -24.3188 H   0  0  0  0  0
  -14.1677    1.4987  -24.2395 H   0  0  0  0  0
  -14.5202    2.4608  -26.9164 H   0  0  0  0  0
  -15.1476   -0.2987  -25.8571 H   0  0  0  0  0
  -13.4834    0.3133  -26.2975 H   0  0  0  0  0
  -14.5481    0.7674  -28.5818 H   0  0  0  0  0
  -15.8092   -0.4060  -28.0323 H   0  0  0  0  0
  -13.2222   -1.4681  -27.4744 H   0  0  0  0  0
  -13.2903   -0.9399  -29.1982 H   0  0  0  0  0
  -15.3881   -2.2177  -29.4430 H   0  0  0  0  0
  -15.1489   -2.8425  -27.7652 H   0  0  0  0  0
  -14.3651   -4.3828  -29.4229 H   0  0  0  0  0
  -13.3202   -3.2431  -30.0444 H   0  0  0  0  0
  -13.0995   -3.8196  -28.4966 H   0  0  0  0  0
  -16.8517    1.2847  -24.4815 H   0  0  0  0  0
  -19.1091    1.2437  -26.2567 H   0  0  0  0  0
  -19.0201    1.8932  -23.3068 H   0  0  0  0  0
  -19.0751    0.2130  -24.0488 H   0  0  0  0  0
  -21.2617    0.7132  -24.9374 H   0  0  0  0  0
  -21.2079    2.3375  -24.1758 H   0  0  0  0  0
  -21.0298    1.2977  -21.9731 H   0  0  0  0  0
  -21.1012   -0.3312  -22.7442 H   0  0  0  0  0
  -23.3240    0.1593  -23.5841 H   0  0  0  0  0
  -23.2526    1.7950  -22.8182 H   0  0  0  0  0
  -24.4908    0.2316  -21.4968 H   0  0  0  0  0
  -23.1776   -0.7900  -21.4039 H   0  0  0  0  0
  -23.1117    0.7180  -20.6978 H   0  0  0  0  0
  -17.6091    3.8826  -24.3603 H   0  0  0  0  0
  -19.7025    5.7685  -24.9783 H   0  0  0  0  0
  -18.0187    7.4638  -24.3526 H   0  0  0  0  0
  -16.8130    6.0583  -24.1841 H   0  0  0  0  0
  -18.2654    5.1909  -22.4046 H   0  0  0  0  0
  -16.2290    6.4694  -21.9205 H   0  0  0  0  0
  -17.1539    7.9889  -22.0010 H   0  0  0  0  0
  -17.4918    6.8082  -20.7115 H   0  0  0  0  0
  -19.6116    7.8940  -22.6396 H   0  0  0  0  0
  -20.3432    6.3135  -23.0104 H   0  0  0  0  0
  -19.8717    6.7061  -21.3388 H   0  0  0  0  0
  -16.6191    4.9143  -26.5916 H   0  0  0  0  0
  -16.8771    7.1508  -28.4480 H   0  0  0  0  0
  -14.9863    6.0999  -29.5941 H   0  0  0  0  0
  -15.1616    4.6582  -28.4699 H   0  0  0  0  0
  -14.6979    6.2154  -26.6010 H   0  0  0  0  0
  -12.9747    4.7304  -27.4972 H   0  0  0  0  0
  -12.5402    5.9500  -28.7198 H   0  0  0  0  0
  -12.2630    6.2827  -26.9925 H   0  0  0  0  0
  -13.9045    8.1180  -28.8253 H   0  0  0  0  0
  -15.2547    8.3279  -27.6833 H   0  0  0  0  0
  -13.5756    8.3500  -27.0906 H   0  0  0  0  0
  -18.0753    3.8477  -28.3921 H   0  0  0  0  0
  -18.5730    3.8990  -31.2704 H   0  0  0  0  0
  -19.9485    1.8226  -30.6858 H   0  0  0  0  0
  -19.1921    2.0449  -28.9961 H   0  0  0  0  0
  -17.0144    1.7557  -30.0592 H   0  0  0  0  0
  -18.1416   -0.1027  -28.9182 H   0  0  0  0  0
  -18.9808   -0.5337  -30.4285 H   0  0  0  0  0
  -17.2107   -0.6929  -30.3168 H   0  0  0  0  0
  -18.6555    0.9386  -32.4745 H   0  0  0  0  0
  -17.6049    2.3708  -32.3481 H   0  0  0  0  0
  -16.8953    0.7385  -32.2937 H   0  0  0  0  0
  -20.2355    5.1320  -28.5227 H   0  0  0  0  0
  -22.9241    4.6168  -29.3852 H   0  0  0  0  0
  -22.3749    5.2687  -27.0871 H   0  0  0  0  0
  -21.8169    6.8600  -27.6593 H   0  0  0  0  0
  -23.5351    6.4147  -27.8025 H   0  0  0  0  0
  -24.2305    5.9817  -30.4016 H   0  0  0  0  0
  1  2  1  0  0  0
  2  3  1  0  0  0
  2  5  1  0  0  0
  3  4  2  0  0  0
  3  7  1  0  0  0
  5  6  1  0  0  0
  7  8  1  0  0  0
  8  9  1  0  0  0
  8 11  1  0  0  0
  9 10  2  0  0  0
  9 15  1  0  0  0
 11 12  1  0  0  0
 12 13  1  0  0  0
 12 14  1  0  0  0
 15 16  1  0  0  0
 16 17  1  0  0  0
 16 19  1  0  0  0
 17 18  2  0  0  0
 17 23  1  0  0  0
 19 20  1  0  0  0
 20 21  1  0  0  0
 20 22  1  0  0  0
 23 24  1  0  0  0
 24 25  1  0  0  0
 24 27  1  0  0  0
 25 26  2  0  0  0
 25 32  1  0  0  0
 27 28  1  0  0  0
 28 29  1  0  0  0
 29 30  1  0  0  0
 30 31  1  0  0  0
 32 33  1  0  0  0
 33 34  1  0  0  0
 33 36  1  0  0  0
 34 35  2  0  0  0
 34 41  1  0  0  0
 36 37  1  0  0  0
 37 38  1  0  0  0
 38 39  1  0  0  0
 39 40  1  0  0  0
 41 42  1  0  0  0
 42 43  1  0  0  0
 42 45  1  0  0  0
 43 44  2  0  0  0
 43 49  1  0  0  0
 45 46  1  0  0  0
 46 47  1  0  0  0
 46 48  1  0  0  0
 49 50  1  0  0  0
 50 51  1  0  0  0
 50 53  1  0  0  0
 51 52  2  0  0  0
 51 57  1  0  0  0
 53 54  1  0  0  0
 54 55  1  0  0  0
 54 56  1  0  0  0
 57 58  1  0  0  0
 58 59  1  0  0  0
 58 61  1  0  0  0
 59 60  2  0  0  0
 59 65  1  0  0  0
 61 62  1  0  0  0
 62 63  1  0  0  0
 62 64  1  0  0  0
 65 66  1  0  0  0
 66 67  1  0  0  0
 66 69  1  0  0  0
 67 68  2  0  0  0
 67 70  1  0  0  0
  1 71  1  0  0  0
  1 72  1  0  0  0
  1 73  1  0  0  0
  2 74  1  0  0  0
  5 75  1  0  0  0
  5 76  1  0  0  0
  6 77  1  0  0  0
  7 78  1  0  0  0
  8 79  1  0  0  0
 11 80  1  0  0  0
 11 81  1  0  0  0
 12 82  1  0  0  0
 13 83  1  0  0  0
 13 84  1  0  0  0
 13 85  1  0  0  0
 14 86  1  0  0  0
 14 87  1  0  0  0
 14 88  1  0  0  0
 15 89  1  0  0  0
 16 90  1  0  0  0
 19 91  1  0  0  0
 19 92  1  0  0  0
 20 93  1  0  0  0
 21 94  1  0  0  0
 21 95  1  0  0  0
 21 96  1  0  0  0
 22 97  1  0  0  0
 22 98  1  0  0  0
 22 99  1  0  0  0
 23100  1  0  0  0
 24101  1  0  0  0
 27102  1  0  0  0
 27103  1  0  0  0
 28104  1  0  0  0
 28105  1  0  0  0
 29106  1  0  0  0
 29107  1  0  0  0
 30108  1  0  0  0
 30109  1  0  0  0
 31110  1  0  0  0
 31111  1  0  0  0
 31112  1  0  0  0
 32113  1  0  0  0
 33114  1  0  0  0
 36115  1  0  0  0
 36116  1  0  0  0
 37117  1  0  0  0
 37118  1  0  0  0
 38119  1  0  0  0
 38120  1  0  0  0
 39121  1  0  0  0
 39122  1  0  0  0
 40123  1  0  0  0
 40124  1  0  0  0
 40125  1  0  0  0
 41126  1  0  0  0
 42127  1  0  0  0
 45128  1  0  0  0
 45129  1  0  0  0
 46130  1  0  0  0
 47131  1  0  0  0
 47132  1  0  0  0
 47133  1  0  0  0
 48134  1  0  0  0
 48135  1  0  0  0
 48136  1  0  0  0
 49137  1  0  0  0
 50138  1  0  0  0
 53139  1  0  0  0
 53140  1  0  0  0
 54141  1  0  0  0
 55142  1  0  0  0
 55143  1  0  0  0
 55144  1  0  0  0
 56145  1  0  0  0
 56146  1  0  0  0
 56147  1  0  0  0
 57148  1  0  0  0
 58149  1  0  0  0
 61150  1  0  0  0
 61151  1  0  0  0
 62152  1  0  0  0
 63153  1  0  0  0
 63154  1  0  0  0
 63155  1  0  0  0
 64156  1  0  0  0
 64157  1  0  0  0
 64158  1  0  0  0
 65159  1  0  0  0
 66160  1  0  0  0
 69161  1  0  0  0
 69162  1  0  0  0
 69163  1  0  0  0
 70164  1  0  0  0
M  END
$$$$
