3mg6_ligand
  -I-interpret- 

 82 85  0  0  0  0  0  0  0  0999 V2000
   13.9130 -135.7030   23.8450 C   0  0  0  0  0
   13.3750 -136.0610   25.0750 C   0  0  0  0  0
   14.0710 -135.7200   26.2180 C   0  0  0  0  0
   13.5200 -136.1000   27.4020 O   0  0  0  0  0
   14.2460 -135.4720   28.4220 C   0  0  0  0  0
   15.2780 -135.0090   26.1260 C   0  0  0  0  0
   15.8060 -134.6320   24.8830 C   0  0  0  0  0
   15.1060 -134.9770   23.7270 C   0  0  0  0  0
   15.3220 -134.7970   22.3530 C   0  0  0  0  0
   15.9660 -133.8840   21.8380 O   0  0  0  0  0
   14.6280 -135.9500   21.5880 C   0  0  0  0  0
   13.3690 -135.8410   22.4330 C   0  0  0  0  0
   12.2350 -136.8890   22.3930 C   0  0  0  0  0
    7.9100 -131.2320   13.2820 C   0  0  0  0  0
    8.5870 -132.6020   13.1240 C   0  0  0  0  0
    8.0670 -133.7370   13.7410 C   0  0  0  0  0
    8.6980 -134.9640   13.5670 C   0  0  0  0  0
    9.8490 -135.0300   12.7720 C   0  0  0  0  0
   10.3590 -133.9010   12.1510 C   0  0  0  0  0
    9.7250 -132.6860   12.3320 C   0  0  0  0  0
   10.5790 -136.3520   12.5520 C   0  0  0  0  0
   11.3630 -136.6520   13.7410 N   0  0  0  0  0
   10.8810 -137.4650   14.6650 C   0  0  0  0  0
    9.7650 -137.9870   14.5690 O   0  0  0  0  0
   11.8250 -137.6960   15.8800 C   0  0  0  0  0
   12.5820 -139.0080   15.7310 C   0  0  0  0  0
   11.0400 -137.7150   17.1240 N   0  0  0  0  0
   13.4250 -139.2660   16.9850 C   0  0  0  0  0
   11.1050 -136.7740   18.0620 C   0  0  0  0  0
   11.8310 -135.7900   18.0370 O   0  0  0  0  0
   10.1700 -137.0320   19.2240 C   0  0  0  0  0
   10.7180 -136.6750   20.5470 N   0  0  0  0  0
    8.8070 -136.3740   19.0170 C   0  0  0  0  0
    7.9450 -136.9120   19.9990 O   0  0  0  0  0
    8.2200 -136.6960   17.6550 C   0  0  0  0  0
   14.6910 -138.4150   16.9490 C   0  0  0  0  0
   15.5470 -138.4810   15.8420 C   0  0  0  0  0
   14.9830 -137.5680   18.0120 C   0  0  0  0  0
   16.7160 -137.7160   15.7950 C   0  0  0  0  0
   17.0130 -136.8740   16.8630 C   0  0  0  0  0
   16.1520 -136.8020   17.9590 C   0  0  0  0  0
   11.8070 -137.2660   21.0100 C   0  0  0  0  0
   12.4760 -138.0910   20.4000 O   0  0  0  0  0
   12.4280 -136.5972   25.1362 H   0  0  0  0  0
   15.2892 -135.7832   28.3683 H   0  0  0  0  0
   14.1813 -134.3908   28.2996 H   0  0  0  0  0
   13.8304 -135.7549   29.3891 H   0  0  0  0  0
   15.8145 -134.7452   27.0375 H   0  0  0  0  0
   16.7442 -134.0806   24.8214 H   0  0  0  0  0
   15.1333 -136.9139   21.5271 H   0  0  0  0  0
   14.5367 -135.8762   20.5043 H   0  0  0  0  0
   12.8038 -135.0165   21.9984 H   0  0  0  0  0
   11.3706 -136.4507   22.8918 H   0  0  0  0  0
   12.6110 -137.7922   22.8736 H   0  0  0  0  0
    6.8915 -131.2849   12.8974 H   0  0  0  0  0
    7.8876 -130.9587   14.3370 H   0  0  0  0  0
    8.4723 -130.4837   12.7234 H   0  0  0  0  0
    7.1706 -133.6641   14.3568 H   0  0  0  0  0
    8.3024 -135.8615   14.0426 H   0  0  0  0  0
   11.2500 -133.9702   11.5269 H   0  0  0  0  0
   10.1195 -131.7907   11.8515 H   0  0  0  0  0
   11.2345 -136.2745   11.6846 H   0  0  0  0  0
    9.8577 -137.1491   12.3718 H   0  0  0  0  0
   12.2857 -136.2343   13.8614 H   0  0  0  0  0
   12.5470 -136.8803   15.9173 H   0  0  0  0  0
   13.2372 -138.9495   14.8619 H   0  0  0  0  0
   11.8695 -139.8227   15.6017 H   0  0  0  0  0
   10.4059 -138.4992   17.2769 H   0  0  0  0  0
   13.7026 -140.3195   17.0192 H   0  0  0  0  0
   12.8424 -139.0039   17.8682 H   0  0  0  0  0
   10.0457 -138.1149   19.2327 H   0  0  0  0  0
   10.2516 -135.9644   21.1108 H   0  0  0  0  0
    8.9175 -135.2919   19.0878 H   0  0  0  0  0
    7.0722 -136.5234   19.9046 H   0  0  0  0  0
    8.8932 -136.3370   16.8765 H   0  0  0  0  0
    8.0953 -137.7747   17.5603 H   0  0  0  0  0
    7.2513 -136.2067   17.5534 H   0  0  0  0  0
   15.2985 -139.1366   15.0074 H   0  0  0  0  0
   14.3140 -137.5022   18.8700 H   0  0  0  0  0
   17.3842 -137.7778   14.9360 H   0  0  0  0  0
   17.9199 -136.2697   16.8432 H   0  0  0  0  0
   16.3948 -136.1373   18.7880 H   0  0  0  0  0
  1  2  4  0  0  0
  1  8  4  0  0  0
 12  1  1  0  0  0
  2  3  4  0  0  0
  3  4  1  0  0  0
  3  6  4  0  0  0
  4  5  1  0  0  0
  7  6  4  0  0  0
  8  7  4  0  0  0
  9  8  1  0  0  0
  9 10  2  0  0  0
 11  9  1  0  0  0
 12 11  1  0  0  0
 13 12  1  0  0  0
 42 13  1  0  0  0
 15 14  1  0  0  0
 16 15  4  0  0  0
 20 15  4  0  0  0
 17 16  4  0  0  0
 18 17  4  0  0  0
 18 19  4  0  0  0
 21 18  1  0  0  0
 19 20  4  0  0  0
 22 21  1  0  0  0
 23 22  1  0  0  0
 23 24  2  0  0  0
 25 23  1  0  0  0
 25 26  1  0  0  0
 27 25  1  0  0  0
 26 28  1  0  0  0
 29 27  1  0  0  0
 28 36  1  0  0  0
 29 30  2  0  0  0
 31 29  1  0  0  0
 32 31  1  0  0  0
 31 33  1  0  0  0
 32 42  1  0  0  0
 33 34  1  0  0  0
 33 35  1  0  0  0
 36 37  4  0  0  0
 36 38  4  0  0  0
 37 39  4  0  0  0
 38 41  4  0  0  0
 39 40  4  0  0  0
 40 41  4  0  0  0
 42 43  2  0  0  0
  2 44  1  0  0  0
  5 45  1  0  0  0
  5 46  1  0  0  0
  5 47  1  0  0  0
  6 48  1  0  0  0
  7 49  1  0  0  0
 11 50  1  0  0  0
 11 51  1  0  0  0
 12 52  1  0  0  0
 13 53  1  0  0  0
 13 54  1  0  0  0
 14 55  1  0  0  0
 14 56  1  0  0  0
 14 57  1  0  0  0
 16 58  1  0  0  0
 17 59  1  0  0  0
 19 60  1  0  0  0
 20 61  1  0  0  0
 21 62  1  0  0  0
 21 63  1  0  0  0
 22 64  1  0  0  0
 25 65  1  0  0  0
 26 66  1  0  0  0
 26 67  1  0  0  0
 27 68  1  0  0  0
 28 69  1  0  0  0
 28 70  1  0  0  0
 31 71  1  0  0  0
 32 72  1  0  0  0
 33 73  1  0  0  0
 34 74  1  0  0  0
 35 75  1  0  0  0
 35 76  1  0  0  0
 35 77  1  0  0  0
 37 78  1  0  0  0
 38 79  1  0  0  0
 39 80  1  0  0  0
 40 81  1  0  0  0
 41 82  1  0  0  0
M  END
$$$$
