1ebz_ligand
  -I-interpret- 

 89 92  0  0  0  0  0  0  0  0999 V2000
    9.7610   24.2260    2.2630 C   0  0  0  0  0
    9.1790   25.4450    1.8530 C   0  0  0  0  0
    7.7780   25.6490    1.9890 C   0  0  0  0  0
    6.9560   24.6220    2.5410 C   0  0  0  0  0
    7.5370   23.3920    2.9570 C   0  0  0  0  0
    8.9420   23.1930    2.8180 C   0  0  0  0  0
   16.4360   22.2180    8.7480 C   0  0  0  0  0
   15.7560   21.1840    9.4800 C   0  0  0  0  0
   16.4880   20.0480    9.9520 C   0  0  0  0  0
   17.8850   19.9480    9.6910 C   0  0  0  0  0
   18.5560   20.9680    8.9670 C   0  0  0  0  0
   17.8340   22.1060    8.4910 C   0  0  0  0  0
   15.6530   23.4230    8.2230 C   0  0  0  0  0
   14.6060   23.0810    7.2720 O   0  0  0  0  0
   15.0820   22.6700    5.9440 C   0  0  0  0  0
   13.9900   23.0200    4.9360 C   0  0  0  0  0
   13.5660   24.4580    4.9970 C   0  0  0  0  0
   12.1520   24.6650    4.3340 C   0  0  0  0  0
   11.0080   24.7130    5.3480 C   0  0  0  0  0
   10.7460   23.6860    5.9880 O   0  0  0  0  0
   10.3370   25.8620    5.4890 N   0  0  0  0  0
   11.8960   23.5860    3.3560 O   0  0  0  0  0
   11.2600   24.0120    2.1290 C   0  0  0  0  0
   14.6290   25.1940    4.3310 O   0  0  0  0  0
   14.4880   22.7520    3.5710 O   0  0  0  0  0
   15.2540   21.1910    5.8510 C   0  0  0  0  0
   14.2730   20.5030    6.1260 O   0  0  0  0  0
   16.4220   20.6990    5.5050 N   0  0  0  0  0
   16.7770   19.2960    5.3840 C   0  0  0  0  0
   16.7260   18.8500    3.9360 C   0  0  0  0  0
   17.6880   17.8480    3.6580 C   0  0  0  0  0
   15.8680   19.3060    2.8900 C   0  0  0  0  0
   15.9940   18.7440    1.5810 C   0  0  0  0  0
   16.9780   17.7310    1.3270 C   0  0  0  0  0
   18.1720   18.8000    5.7720 C   0  0  0  0  0
   19.0750   19.8480    5.4190 O   0  0  0  0  0
   17.8370   17.2720    2.3640 C   0  0  0  0  0
   18.4690   17.5380    4.9150 C   0  0  0  0  0
    9.2230   26.0330    6.4170 C   0  0  0  0  0
    9.3910   26.4240    7.9540 C   0  0  0  0  0
    8.6010   27.6850    8.4190 C   0  0  0  0  0
   10.8780   26.5090    8.4220 C   0  0  0  0  0
    8.2840   26.9760    5.6730 C   0  0  0  0  0
    8.7460   28.0030    5.1260 O   0  0  0  0  0
    6.9590   26.6040    5.6740 N   0  0  0  0  0
    6.0160   27.4650    4.9860 C   0  0  0  0  0
    9.8047   26.2316    1.4313 H   0  0  0  0  0
    7.3318   26.5913    1.6710 H   0  0  0  0  0
    5.8824   24.7798    2.6440 H   0  0  0  0  0
    6.9114   22.6058    3.3798 H   0  0  0  0  0
    9.3925   22.2525    3.1351 H   0  0  0  0  0
   14.6866   21.2649    9.6749 H   0  0  0  0  0
   15.9782   19.2621   10.5093 H   0  0  0  0  0
   18.4422   19.0825   10.0496 H   0  0  0  0  0
   19.6253   20.8831    8.7734 H   0  0  0  0  0
   18.3510   22.8865    7.9328 H   0  0  0  0  0
   16.3623   24.0680    7.7044 H   0  0  0  0  0
   15.1701   23.8927    9.0799 H   0  0  0  0  0
   16.0339   23.1671    5.7573 H   0  0  0  0  0
   13.1257   22.4049    5.1864 H   0  0  0  0  0
   13.4372   24.8147    6.0189 H   0  0  0  0  0
   12.1796   25.6361    3.8397 H   0  0  0  0  0
   10.6183   26.6595    4.9187 H   0  0  0  0  0
   11.7025   24.9671    1.8461 H   0  0  0  0  0
   11.4130   23.2245    1.3911 H   0  0  0  0  0
   14.4190   26.1307    4.3347 H   0  0  0  0  0
   13.8044   22.9707    2.9335 H   0  0  0  0  0
   17.1581   21.3745    5.2994 H   0  0  0  0  0
   16.0511   18.8974    6.0927 H   0  0  0  0  0
   15.1227   20.0765    3.0875 H   0  0  0  0  0
   15.3426   19.0851    0.7764 H   0  0  0  0  0
   17.0685   17.3077    0.3266 H   0  0  0  0  0
   18.2603   18.5526    6.8299 H   0  0  0  0  0
   19.9709   19.5860    5.6432 H   0  0  0  0  0
   18.5860   16.5033    2.1741 H   0  0  0  0  0
   19.5310   17.3645    4.7413 H   0  0  0  0  0
   18.1784   16.6030    5.3939 H   0  0  0  0  0
    8.8807   25.0211    6.6337 H   0  0  0  0  0
    8.9242   25.5763    8.4555 H   0  0  0  0  0
    8.9301   28.5507    7.8443 H   0  0  0  0  0
    7.5350   27.5242    8.2579 H   0  0  0  0  0
    8.7875   27.8586    9.4788 H   0  0  0  0  0
   11.3586   25.5412    8.2786 H   0  0  0  0  0
   11.3995   27.2655    7.8355 H   0  0  0  0  0
   10.9105   26.7795    9.4774 H   0  0  0  0  0
    6.6507   25.7520    6.1425 H   0  0  0  0  0
    6.0356   28.4570    5.4373 H   0  0  0  0  0
    6.2926   27.5374    3.9342 H   0  0  0  0  0
    5.0137   27.0453    5.0713 H   0  0  0  0  0
  1  2  4  0  0  0
  1  6  4  0  0  0
 23  1  1  0  0  0
  2  3  4  0  0  0
  3  4  4  0  0  0
  5  4  4  0  0  0
  6  5  4  0  0  0
  7  8  4  0  0  0
  7 12  4  0  0  0
 13  7  1  0  0  0
  8  9  4  0  0  0
  9 10  4  0  0  0
 11 10  4  0  0  0
 12 11  4  0  0  0
 14 13  1  0  0  0
 15 14  1  0  0  0
 16 15  1  0  0  0
 17 16  1  0  0  0
 18 17  1  0  0  0
 18 19  1  0  0  0
 22 18  1  0  0  0
 19 20  2  0  0  0
 19 21  1  0  0  0
 23 22  1  0  0  0
 17 24  1  0  0  0
 16 25  1  0  0  0
 15 26  1  0  0  0
 26 27  2  0  0  0
 26 28  1  0  0  0
 28 29  1  0  0  0
 29 30  1  0  0  0
 29 35  1  0  0  0
 30 31  4  0  0  0
 30 32  4  0  0  0
 31 37  4  0  0  0
 31 38  1  0  0  0
 32 33  4  0  0  0
 33 34  4  0  0  0
 34 37  4  0  0  0
 35 36  1  0  0  0
 35 38  1  0  0  0
 21 39  1  0  0  0
 39 40  1  0  0  0
 39 43  1  0  0  0
 40 41  1  0  0  0
 40 42  1  0  0  0
 43 44  2  0  0  0
 43 45  1  0  0  0
 45 46  1  0  0  0
  2 47  1  0  0  0
  3 48  1  0  0  0
  4 49  1  0  0  0
  5 50  1  0  0  0
  6 51  1  0  0  0
  8 52  1  0  0  0
  9 53  1  0  0  0
 10 54  1  0  0  0
 11 55  1  0  0  0
 12 56  1  0  0  0
 13 57  1  0  0  0
 13 58  1  0  0  0
 15 59  1  0  0  0
 16 60  1  0  0  0
 17 61  1  0  0  0
 18 62  1  0  0  0
 21 63  1  0  0  0
 23 64  1  0  0  0
 23 65  1  0  0  0
 24 66  1  0  0  0
 25 67  1  0  0  0
 28 68  1  0  0  0
 29 69  1  0  0  0
 32 70  1  0  0  0
 33 71  1  0  0  0
 34 72  1  0  0  0
 35 73  1  0  0  0
 36 74  1  0  0  0
 37 75  1  0  0  0
 38 76  1  0  0  0
 38 77  1  0  0  0
 39 78  1  0  0  0
 40 79  1  0  0  0
 41 80  1  0  0  0
 41 81  1  0  0  0
 41 82  1  0  0  0
 42 83  1  0  0  0
 42 84  1  0  0  0
 42 85  1  0  0  0
 45 86  1  0  0  0
 46 87  1  0  0  0
 46 88  1  0  0  0
 46 89  1  0  0  0
M  END
$$$$
