6s56_ligand
  -I-interpret- 

 56 59  0  0  0  0  0  0  0  0999 V2000
  -23.3810   44.7190    9.7960 C   0  0  0  0  0
  -25.1530   49.8170    7.1980 C   0  0  0  0  0
  -26.7280   44.1550    9.5690 C   0  0  0  0  0
  -25.8980   44.2130   10.7810 N   0  0  0  0  0
  -26.2640   45.2280   11.7800 C   0  0  0  0  0
  -24.3930   43.6000   10.7550 S   0  0  0  0  0
  -24.4550   42.3700   10.0300 O   0  0  0  0  0
  -23.9250   43.5970   12.1100 O   0  0  0  0  0
  -23.9840   45.8800    9.3090 C   0  0  0  0  0
  -23.2520   46.8020    8.5610 C   0  0  0  0  0
  -23.7630   47.9950    7.9820 N   0  0  0  0  0
  -25.0060   48.5450    8.0370 C   0  0  0  0  0
  -25.9410   48.0690    8.6720 O   0  0  0  0  0
  -26.1950   50.8340    7.3570 N   0  0  0  0  0
  -26.4090   51.5820    8.5060 C   0  0  0  0  0
  -25.8300   51.4450    9.5690 O   0  0  0  0  0
  -27.4060   52.4620    8.2340 N   0  0  0  0  0
  -27.8860   52.4180    6.8510 C   0  0  0  0  0
  -27.5180   53.7100    6.0880 C   0  0  0  0  0
  -28.6030   54.7730    6.1020 C   0  0  0  0  0
  -29.8300   54.2210    5.4190 C   0  0  0  0  0
  -30.2830   52.9550    6.0890 C   0  0  0  0  0
  -31.6340   52.6160    6.0520 C   0  0  0  0  0
  -32.0960   51.4640    6.6590 C   0  0  0  0  0
  -31.2190   50.6350    7.3150 C   0  0  0  0  0
  -29.8700   50.9510    7.3680 C   0  0  0  0  0
  -29.3810   52.1020    6.7510 C   0  0  0  0  0
  -27.0180   51.2450    6.3300 C   0  0  0  0  0
  -27.0100   50.8030    5.1950 O   0  0  0  0  0
  -21.9200   46.5420    8.2630 C   0  0  0  0  0
  -21.3080   45.3990    8.7360 C   0  0  0  0  0
  -22.0210   44.4880    9.4960 C   0  0  0  0  0
  -21.1870   43.0580   10.0320 Cl  0  0  0  0  0
  -25.3813   49.4120    6.2121 H   0  0  0  0  0
  -24.2539   50.3708    7.4682 H   0  0  0  0  0
  -26.2319   44.6975    8.7642 H   0  0  0  0  0
  -26.8678   43.1146    9.2754 H   0  0  0  0  0
  -27.6975   44.6100    9.7720 H   0  0  0  0  0
  -26.1304   44.8161   12.7803 H   0  0  0  0  0
  -25.6257   46.1030   11.6577 H   0  0  0  0  0
  -27.3063   45.5146   11.6399 H   0  0  0  0  0
  -25.0377   46.0679    9.5154 H   0  0  0  0  0
  -23.0860   48.5267    7.4348 H   0  0  0  0  0
  -27.7881   53.0992    8.9328 H   0  0  0  0  0
  -27.3536   53.4325    5.0468 H   0  0  0  0  0
  -26.6442   54.1363    6.5808 H   0  0  0  0  0
  -28.2560   55.6631    5.5772 H   0  0  0  0  0
  -28.8422   55.0444    7.1302 H   0  0  0  0  0
  -29.5875   54.0031    4.3789 H   0  0  0  0  0
  -30.6301   54.9587    5.4796 H   0  0  0  0  0
  -32.3373   53.2698    5.5362 H   0  0  0  0  0
  -33.1559   51.2132    6.6173 H   0  0  0  0  0
  -31.5842   49.7270    7.7948 H   0  0  0  0  0
  -29.1832   50.2915    7.8985 H   0  0  0  0  0
  -21.3547   47.2454    7.6516 H   0  0  0  0  0
  -20.2581   45.2128    8.5100 H   0  0  0  0  0
  1  6  1  0  0  0
  9  1  4  0  0  0
  1 32  4  0  0  0
 12  2  1  0  0  0
  2 14  1  0  0  0
  4  3  1  0  0  0
  4  5  1  0  0  0
  6  4  1  0  0  0
  6  7  2  0  0  0
  6  8  2  0  0  0
 10  9  4  0  0  0
 11 10  1  0  0  0
 10 30  4  0  0  0
 11 12  1  0  0  0
 12 13  2  0  0  0
 14 15  1  0  0  0
 14 28  1  0  0  0
 15 16  2  0  0  0
 15 17  1  0  0  0
 17 18  1  0  0  0
 18 19  1  0  0  0
 18 27  1  0  0  0
 18 28  1  0  0  0
 19 20  1  0  0  0
 20 21  1  0  0  0
 21 22  1  0  0  0
 22 23  4  0  0  0
 22 27  4  0  0  0
 23 24  4  0  0  0
 24 25  4  0  0  0
 25 26  4  0  0  0
 26 27  4  0  0  0
 28 29  2  0  0  0
 30 31  4  0  0  0
 31 32  4  0  0  0
 32 33  1  0  0  0
  2 34  1  0  0  0
  2 35  1  0  0  0
  3 36  1  0  0  0
  3 37  1  0  0  0
  3 38  1  0  0  0
  5 39  1  0  0  0
  5 40  1  0  0  0
  5 41  1  0  0  0
  9 42  1  0  0  0
 11 43  1  0  0  0
 17 44  1  0  0  0
 19 45  1  0  0  0
 19 46  1  0  0  0
 20 47  1  0  0  0
 20 48  1  0  0  0
 21 49  1  0  0  0
 21 50  1  0  0  0
 23 51  1  0  0  0
 24 52  1  0  0  0
 25 53  1  0  0  0
 26 54  1  0  0  0
 30 55  1  0  0  0
 31 56  1  0  0  0
M  END
$$$$
