4qz6_ligand
  -I-interpret- 

 87 89  0  0  0  0  0  0  0  0999 V2000
   59.2050 -134.4830   34.5070 C   0  0  0  0  0
   59.1640 -135.7070   34.6300 O   0  0  0  0  0
   58.0900 -133.7270   33.7680 C   0  0  0  0  0
   56.8270 -134.0850   34.4130 N   0  3  0  0  0
   54.3460 -133.0810   35.1910 O   0  0  0  0  0
   55.7490 -133.8880   33.4130 C   0  0  0  0  0
   56.6350 -133.2460   35.6180 C   0  0  0  0  0
   54.4190 -133.9830   34.0730 C   0  0  0  0  0
   55.2840 -133.4150   36.2320 C   0  0  0  0  0
   60.1950 -133.7010   34.9670 N   0  0  0  0  0
   61.3390 -134.2280   35.7160 C   0  0  0  0  0
   60.9320 -134.3190   37.1830 C   0  0  0  0  0
   60.2320 -133.4410   37.6850 O   0  0  0  0  0
   62.5190 -133.2650   35.5670 C   0  0  0  0  0
   61.3740 -135.4010   37.8410 N   0  0  0  0  0
   61.0460 -135.6130   39.2590 C   0  0  0  0  0
   60.4550 -136.9780   39.4740 C   0  0  0  0  0
   59.1200 -136.9000   39.0850 C   0  0  0  0  0
   58.7520 -137.1620   37.7680 C   0  0  0  0  0
   57.4180 -137.0890   37.3840 C   0  0  0  0  0
   56.4330 -136.7590   38.3080 C   0  0  0  0  0
   55.1450 -136.7070   37.8450 O   0  0  0  0  0
   54.0510 -136.5160   38.7770 C   0  0  0  0  0
   56.8090 -136.4950   39.6320 C   0  0  0  0  0
   58.1420 -136.5690   40.0170 C   0  0  0  0  0
   62.3180 -135.5210   40.0950 C   0  0  0  0  0
   63.4310 -135.6030   39.5770 O   0  0  0  0  0
   62.0820 -135.3770   41.4040 N   0  0  0  0  0
   63.1410 -135.2340   42.3980 C   0  0  0  0  0
   62.9970 -136.2860   43.5180 C   0  0  0  0  0
   61.6570 -136.2450   44.0310 O   0  0  0  0  0
   63.3750 -137.8060   43.1550 C   0  0  0  0  0
   64.4260 -137.8710   41.9890 C   0  0  0  0  0
   62.0780 -138.4830   42.6890 C   0  0  0  0  0
   62.4400 -139.6010   41.8630 O   0  0  0  0  0
   62.9650 -133.8710   43.0510 C   0  0  0  0  0
   63.7250 -132.8360   42.4580 C   0  0  0  0  0
   64.4510 -132.9420   41.2630 C   0  0  0  0  0
   65.1500 -131.8440   40.7650 C   0  0  0  0  0
   65.1310 -130.6270   41.4420 C   0  0  0  0  0
   64.4080 -130.5050   42.6240 C   0  0  0  0  0
   63.7120 -131.6040   43.1190 C   0  0  0  0  0
   58.0741 -134.0000   32.7129 H   0  0  0  0  0
   58.2562 -132.6509   33.8182 H   0  0  0  0  0
   56.8196 -135.0567   34.7231 H   0  0  0  0  0
   55.8251 -134.6597   32.6470 H   0  0  0  0  0
   55.8553 -132.9020   32.9608 H   0  0  0  0  0
   56.7372 -132.2030   35.3182 H   0  0  0  0  0
   57.3774 -133.5481   36.3567 H   0  0  0  0  0
   53.6460 -133.7168   33.3521 H   0  0  0  0  0
   54.2729 -135.0024   34.4302 H   0  0  0  0  0
   55.1337 -134.4317   36.5950 H   0  0  0  0  0
   55.1581 -132.7743   37.1048 H   0  0  0  0  0
   60.1488 -132.6980   34.7875 H   0  0  0  0  0
   61.6310 -135.2096   35.3427 H   0  0  0  0  0
   62.7802 -133.1729   34.5128 H   0  0  0  0  0
   62.2404 -132.2874   35.9604 H   0  0  0  0  0
   63.3739 -133.6513   36.1221 H   0  0  0  0  0
   61.9467 -136.0877   37.3502 H   0  0  0  0  0
   60.3261 -134.8499   39.5548 H   0  0  0  0  0
   60.5390 -137.2782   40.5185 H   0  0  0  0  0
   60.9872 -137.7288   38.8899 H   0  0  0  0  0
   59.5138 -137.4257   37.0343 H   0  0  0  0  0
   57.1418 -137.2923   36.3494 H   0  0  0  0  0
   54.0419 -137.3341   39.4972 H   0  0  0  0  0
   54.1834 -135.5698   39.3017 H   0  0  0  0  0
   53.1081 -136.5009   38.2303 H   0  0  0  0  0
   56.0488 -136.2292   40.3665 H   0  0  0  0  0
   58.4217 -136.3673   41.0510 H   0  0  0  0  0
   61.1133 -135.3666   41.7233 H   0  0  0  0  0
   64.1073 -135.3541   41.9081 H   0  0  0  0  0
   63.7465 -135.9947   44.2539 H   0  0  0  0  0
   61.5624 -136.8980   44.7283 H   0  0  0  0  0
   63.8109 -138.2974   44.0249 H   0  0  0  0  0
   64.0110 -137.3949   41.1006 H   0  0  0  0  0
   65.3346 -137.3501   42.2911 H   0  0  0  0  0
   64.6590 -138.9129   41.7692 H   0  0  0  0  0
   61.4643 -137.7794   42.1265 H   0  0  0  0  0
   61.4963 -138.8188   43.5475 H   0  0  0  0  0
   61.6443 -140.0428   41.5577 H   0  0  0  0  0
   63.3031 -133.9649   44.0830 H   0  0  0  0  0
   61.9151 -133.5983   42.9438 H   0  0  0  0  0
   64.4687 -133.8876   40.7211 H   0  0  0  0  0
   65.7161 -131.9384   39.8383 H   0  0  0  0  0
   65.6809 -129.7729   41.0468 H   0  0  0  0  0
   64.3866 -129.5555   43.1588 H   0  0  0  0  0
   63.1436 -131.5018   44.0434 H   0  0  0  0  0
  1  2  2  0  0  0
  3  1  1  0  0  0
  1 10  1  0  0  0
  4  3  1  0  0  0
  6  4  1  0  0  0
  4  7  1  0  0  0
  8  5  1  0  0  0
  5  9  1  0  0  0
  6  8  1  0  0  0
  7  9  1  0  0  0
 10 11  1  0  0  0
 11 12  1  0  0  0
 11 14  1  0  0  0
 12 13  2  0  0  0
 12 15  1  0  0  0
 15 16  1  0  0  0
 16 17  1  0  0  0
 16 26  1  0  0  0
 17 18  1  0  0  0
 18 19  4  0  0  0
 18 25  4  0  0  0
 19 20  4  0  0  0
 20 21  4  0  0  0
 21 22  1  0  0  0
 21 24  4  0  0  0
 22 23  1  0  0  0
 24 25  4  0  0  0
 26 27  2  0  0  0
 26 28  1  0  0  0
 28 29  1  0  0  0
 29 30  1  0  0  0
 29 36  1  0  0  0
 30 31  1  0  0  0
 30 32  1  0  0  0
 32 33  1  0  0  0
 32 34  1  0  0  0
 34 35  1  0  0  0
 36 37  1  0  0  0
 37 38  4  0  0  0
 37 42  4  0  0  0
 38 39  4  0  0  0
 39 40  4  0  0  0
 40 41  4  0  0  0
 41 42  4  0  0  0
  3 43  1  0  0  0
  3 44  1  0  0  0
  4 45  1  0  0  0
  6 46  1  0  0  0
  6 47  1  0  0  0
  7 48  1  0  0  0
  7 49  1  0  0  0
  8 50  1  0  0  0
  8 51  1  0  0  0
  9 52  1  0  0  0
  9 53  1  0  0  0
 10 54  1  0  0  0
 11 55  1  0  0  0
 14 56  1  0  0  0
 14 57  1  0  0  0
 14 58  1  0  0  0
 15 59  1  0  0  0
 16 60  1  0  0  0
 17 61  1  0  0  0
 17 62  1  0  0  0
 19 63  1  0  0  0
 20 64  1  0  0  0
 23 65  1  0  0  0
 23 66  1  0  0  0
 23 67  1  0  0  0
 24 68  1  0  0  0
 25 69  1  0  0  0
 28 70  1  0  0  0
 29 71  1  0  0  0
 30 72  1  0  0  0
 31 73  1  0  0  0
 32 74  1  0  0  0
 33 75  1  0  0  0
 33 76  1  0  0  0
 33 77  1  0  0  0
 34 78  1  0  0  0
 34 79  1  0  0  0
 35 80  1  0  0  0
 36 81  1  0  0  0
 36 82  1  0  0  0
 38 83  1  0  0  0
 39 84  1  0  0  0
 40 85  1  0  0  0
 41 86  1  0  0  0
 42 87  1  0  0  0
M  END
$$$$
