### 
### Created by X-TOOL on Mon Aug  2 16:11:49 2021
### 

@<TRIPOS>MOLECULE
6uyx_ligand
  154   153     1     0     0
SMALL
GAST_HUCK


@<TRIPOS>ATOM
      1 N          11.9270  -15.7080    7.4130 N.4       1 ALA         0.2377
      2 CA         12.1380  -14.3620    6.8550 C.3       1 ALA         0.0621
      3 C          11.3350  -13.2980    7.5650 C.2       1 ALA         0.2264
      4 O          10.1770  -13.1830    7.2990 O.2       1 ALA        -0.3907
      5 CB         11.7700  -14.3500    5.3970 C.3       1 ALA        -0.0040
      6 N          11.9740  -12.5040    8.4220 N.am      1 ALA        -0.2609
      7 CA         11.2760  -11.6010    9.3210 C.3       1 ALA         0.1326
      8 C          11.1750  -10.1560    8.8080 C.2       1 ALA         0.2040
      9 O          12.0160   -9.6650    8.0650 O.2       1 ALA        -0.3944
     10 CB         11.9550  -11.6050   10.6980 C.3       1 ALA        -0.0008
     11 CG         11.9410  -12.9380   11.4010 C.3       1 ALA         0.0044
     12 CD         12.1560  -12.7970   12.8720 C.2       1 ALA         0.0350
     13 OE1        12.0370  -11.6960   13.3960 O.co2     1 ALA        -0.5690
     14 OE2        12.4480  -13.8010   13.5210 O.co2     1 ALA        -0.5690
     15 N          10.1020   -9.4860    9.2070 N.am      1 ALA        -0.2636
     16 CA          9.8600   -8.1170    8.7900 C.3       1 ALA         0.1325
     17 C          10.9120   -7.2100    9.3940 C.2       1 ALA         0.2040
     18 O          11.3880   -7.4060   10.5220 O.2       1 ALA        -0.3944
     19 CB          8.4540   -7.6740    9.2040 C.3       1 ALA        -0.0008
     20 CG          7.9460   -6.3270    8.6060 C.3       1 ALA         0.0044
     21 CD          6.5160   -5.9690    9.0430 C.2       1 ALA         0.0350
     22 OE1         6.0780   -6.3650   10.1280 O.co2     1 ALA        -0.5690
     23 OE2         5.8170   -5.2860    8.3040 O.co2     1 ALA        -0.5690
     24 N          11.2720   -6.2060    8.6150 N.am      1 ALA        -0.2637
     25 CA         12.3000   -5.2480    8.9820 C.3       1 ALA         0.1311
     26 C          11.7300   -3.8590    8.7970 C.2       1 ALA         0.2039
     27 O          11.3380   -3.5030    7.6810 O.2       1 ALA        -0.3944
     28 CB         13.5550   -5.4450    8.1350 C.3       1 ALA        -0.0092
     29 CG         14.2620   -6.7260    8.4410 C.3       1 ALA        -0.0156
     30 CD         15.4050   -6.8920    7.5020 C.3       1 ALA         0.0627
     31 NE         14.9980   -7.3600    6.1910 N.pl3     1 ALA        -0.2723
     32 CZ         15.8320   -7.5260    5.1820 C.cat     1 ALA         0.2882
     33 NH1        17.0960   -7.2420    5.3100 N.pl3     1 ALA        -0.2849
     34 NH2        15.3820   -7.9580    4.0370 N.pl3     1 ALA        -0.2849
     35 N          11.6730   -3.1070    9.9010 N.am      1 ALA        -0.2635
     36 CA         11.1560   -1.7430    9.9390 C.3       1 ALA         0.1335
     37 C          12.1830   -0.8470   10.6240 C.2       1 ALA         0.2042
     38 O          12.5210   -1.0510   11.7920 O.2       1 ALA        -0.3944
     39 CB          9.8060   -1.6500   10.6650 C.3       1 ALA        -0.0037
     40 CG1         8.7510   -2.5570   10.0160 C.3       1 ALA        -0.0491
     41 CG2         9.2990   -0.2050   10.6370 C.3       1 ALA        -0.0582
     42 CD1         7.3860   -2.6060   10.7320 C.3       1 ALA        -0.0648
     43 N          12.6310    0.1710    9.9110 N.am      1 ALA        -0.2635
     44 CA         13.6830    1.0740   10.3540 C.3       1 ALA         0.1335
     45 C          13.1610    2.5020   10.3040 C.2       1 ALA         0.2042
     46 O          12.6670    2.9450    9.2640 O.2       1 ALA        -0.3944
     47 CB         14.9390    0.8960    9.4850 C.3       1 ALA        -0.0037
     48 CG1        15.6610   -0.3760    9.8550 C.3       1 ALA        -0.0491
     49 CG2        15.8180    2.1010    9.6420 C.3       1 ALA        -0.0582
     50 CD1        16.2950   -0.9790    8.7180 C.3       1 ALA        -0.0648
     51 N          13.2960    3.2210   11.4170 N.am      1 ALA        -0.2635
     52 CA         12.7130    4.5460   11.5980 C.3       1 ALA         0.1332
     53 C          13.7620    5.6300   11.4030 C.2       1 ALA         0.2041
     54 O          14.6920    5.7470   12.2080 O.2       1 ALA        -0.3944
     55 CB         12.0880    4.6980   12.9910 C.3       1 ALA        -0.0063
     56 CG1        11.7570    6.1440   13.1690 C.3       1 ALA        -0.0584
     57 CG2        10.8950    3.8630   13.1390 C.3       1 ALA        -0.0584
     58 N          13.5500    6.4490   10.4070 N.am      1 ALA        -0.2637
     59 CA         14.3620    7.5140   10.0970 C.3       1 ALA         0.1312
     60 C          13.7460    8.8790   10.5940 C.2       1 ALA         0.2040
     61 O          12.6680    9.0360   10.6640 O.2       1 ALA        -0.3944
     62 CB         14.6790    7.5170    8.6050 C.3       1 ALA        -0.0101
     63 CG         15.2940    6.2840    7.9460 C.3       1 ALA        -0.0425
     64 CD1        15.3880    6.3080    6.5020 C.3       1 ALA        -0.0625
     65 CD2        16.6080    5.8820    8.4990 C.3       1 ALA        -0.0625
     66 N          14.6240    9.7610   10.9530 N.am      1 ALA        -0.2624
     67 CA         14.4870   11.1350   11.3640 C.3       1 ALA         0.1403
     68 CB         15.3800   11.4910   12.4990 C.3       1 ALA         0.1171
     69 OG         16.7760   11.6390   12.2490 O.3       1 ALA        -0.2713
     70 C          15.0580   11.7990   10.1830 C.2       1 ALA         0.1271
     71 O          16.2090   11.8260    9.8430 O.2       1 ALA        -0.3724
     72 P          17.8120   11.2330   13.3450 P.3       1 ALA         0.2010
     73 O1P        19.1030   11.4990   12.7260 O.co2     1 ALA        -0.5537
     74 O2P        17.3550    9.8180   13.4270 O.co2     1 ALA        -0.5537
     75 O3P        17.4270   12.0890   14.4580 O.co2     1 ALA        -0.5537
     76 H1         12.4852  -16.3745    6.9028 H         1 ALA         0.2015
     77 H2         10.9530  -15.9554    7.3345 H         1 ALA         0.2015
     78 H3         12.1984  -15.7157    8.3837 H         1 ALA         0.2015
     79 H4         13.2050  -14.1143    6.9556 H         1 ALA         0.1095
     80 H5         11.9300  -13.3420    4.9868 H         1 ALA         0.0310
     81 H6         10.7119  -14.6283    5.2836 H         1 ALA         0.0310
     82 H7         12.3990  -15.0708    4.8541 H         1 ALA         0.0310
     83 H8         12.9733  -12.5303    8.4478 H         1 ALA         0.1885
     84 H9         10.2510  -11.9824    9.4393 H         1 ALA         0.0801
     85 H10        11.4379  -10.8745   11.3376 H         1 ALA         0.0330
     86 H11        13.0030  -11.2986   10.5646 H         1 ALA         0.0330
     87 H12        12.7407  -13.5678   10.9840 H         1 ALA         0.0433
     88 H13        10.9673  -13.4200   11.2291 H         1 ALA         0.0433
     89 H14         9.4432   -9.9354    9.8103 H         1 ALA         0.1883
     90 H15         9.9348   -8.0622    7.6939 H         1 ALA         0.0801
     91 H16         8.4425   -7.5788   10.2998 H         1 ALA         0.0330
     92 H17         7.7510   -8.4624    8.8970 H         1 ALA         0.0330
     93 H18         7.9674   -6.4019    7.5088 H         1 ALA         0.0433
     94 H19         8.6223   -5.5231    8.9320 H         1 ALA         0.0433
     95 H20        10.8156   -6.1006    7.7315 H         1 ALA         0.1883
     96 H21        12.5659   -5.3907   10.0398 H         1 ALA         0.0800
     97 H22        14.2435   -4.6087    8.3262 H         1 ALA         0.0313
     98 H23        13.2665   -5.4472    7.0735 H         1 ALA         0.0313
     99 H24        13.5643   -7.5682    8.3234 H         1 ALA         0.0301
    100 H25        14.6363   -6.7015    9.4751 H         1 ALA         0.0301
    101 H26        16.1085   -7.6205    7.9314 H         1 ALA         0.0689
    102 H27        15.9080   -5.9205    7.3868 H         1 ALA         0.0689
    103 H28        14.0022   -7.5748    6.0390 H         1 ALA         0.2642
    104 H29        17.7370   -7.3759    4.5150 H         1 ALA         0.2615
    105 H30        17.4551   -6.8834    6.2063 H         1 ALA         0.2615
    106 H31        14.3831   -8.1846    3.9286 H         1 ALA         0.2615
    107 H32        16.0254   -8.0726    3.2409 H         1 ALA         0.2615
    108 H33        12.0061   -3.5050   10.7558 H         1 ALA         0.1883
    109 H34        11.0140   -1.3958    8.9049 H         1 ALA         0.0803
    110 H35         9.9476   -1.9626   11.7101 H         1 ALA         0.0345
    111 H36         9.1551   -3.5797    9.9868 H         1 ALA         0.0267
    112 H37         8.5824   -2.1998    8.9894 H         1 ALA         0.0267
    113 H38        10.0473    0.4551   11.0999 H         1 ALA         0.0235
    114 H39         8.3542   -0.1370   11.1962 H         1 ALA         0.0235
    115 H40         9.1315    0.1047    9.5949 H         1 ALA         0.0235
    116 H41         6.7099   -3.2809   10.1866 H         1 ALA         0.0230
    117 H42         6.9508   -1.5962   10.7613 H         1 ALA         0.0230
    118 H43         7.5235   -2.9760   11.7587 H         1 ALA         0.0230
    119 H44        12.2225    0.3308    9.0123 H         1 ALA         0.1883
    120 H45        13.9451    0.8324   11.3946 H         1 ALA         0.0803
    121 H46        14.6324    0.8230    8.4311 H         1 ALA         0.0345
    122 H47        14.9357   -1.0873   10.2769 H         1 ALA         0.0267
    123 H48        16.4279   -0.1438   10.6086 H         1 ALA         0.0267
    124 H49        15.2553    3.0041    9.3631 H         1 ALA         0.0235
    125 H50        16.6976    2.0008    8.9891 H         1 ALA         0.0235
    126 H51        16.1457    2.1820   10.6889 H         1 ALA         0.0235
    127 H52        16.8082   -1.9005    9.0302 H         1 ALA         0.0230
    128 H53        17.0276   -0.2777    8.2919 H         1 ALA         0.0230
    129 H54        15.5354   -1.2212    7.9602 H         1 ALA         0.0230
    130 H55        13.8261    2.8312   12.1700 H         1 ALA         0.1883
    131 H56        11.9236    4.6801   10.8438 H         1 ALA         0.0802
    132 H57        12.8217    4.3956   13.7527 H         1 ALA         0.0343
    133 H58        11.3045    6.2973   14.1598 H         1 ALA         0.0234
    134 H59        11.0467    6.4563   12.3893 H         1 ALA         0.0234
    135 H60        12.6761    6.7431   13.0890 H         1 ALA         0.0234
    136 H61        11.1681    2.8061   13.0033 H         1 ALA         0.0234
    137 H62        10.1506    4.1495   12.3816 H         1 ALA         0.0234
    138 H63        10.4698    4.0057   14.1434 H         1 ALA         0.0234
    139 H64        12.7459    6.2909    9.8339 H         1 ALA         0.1883
    140 H65        15.3120    7.3745   10.6336 H         1 ALA         0.0800
    141 H66        15.3769    8.3494    8.4316 H         1 ALA         0.0315
    142 H67        13.7327    7.7167    8.0810 H         1 ALA         0.0315
    143 H68        14.5992    5.4657    8.1860 H         1 ALA         0.0298
    144 H69        15.8444    5.3716    6.1487 H         1 ALA         0.0232
    145 H70        16.0098    7.1597    6.1891 H         1 ALA         0.0232
    146 H71        14.3813    6.4108    6.0707 H         1 ALA         0.0232
    147 H72        16.5521    5.8592    9.5973 H         1 ALA         0.0232
    148 H73        17.3746    6.6060    8.1859 H         1 ALA         0.0232
    149 H74        16.8731    4.8822    8.1246 H         1 ALA         0.0232
    150 H75        15.5670    9.4282   10.9431 H         1 ALA         0.1885
    151 H76        13.4431   11.4109   11.5739 H         1 ALA         0.0817
    152 H77        15.2685   10.7033   13.2587 H         1 ALA         0.0662
    153 H78        15.0205   12.4473   12.9068 H         1 ALA         0.0662
    154 H79        14.3546   12.3281    9.5418 H         1 ALA         0.1374
@<TRIPOS>BOND
     1    1    2 1  
     2    2    3 1  
     3    2    5 1  
     4    3    4 2  
     5    3    6 am 
     6    6    7 1  
     7    7    8 1  
     8    7   10 1  
     9    8    9 2  
    10    8   15 am 
    11   10   11 1  
    12   11   12 1  
    13   12   13 ar 
    14   12   14 ar 
    15   15   16 1  
    16   16   17 1  
    17   16   19 1  
    18   17   18 2  
    19   17   24 am 
    20   19   20 1  
    21   20   21 1  
    22   21   22 ar 
    23   21   23 ar 
    24   24   25 1  
    25   25   26 1  
    26   25   28 1  
    27   26   27 2  
    28   26   35 am 
    29   28   29 1  
    30   29   30 1  
    31   30   31 1  
    32   31   32 ar 
    33   32   33 ar 
    34   32   34 ar 
    35   35   36 1  
    36   36   37 1  
    37   36   39 1  
    38   37   38 2  
    39   37   43 am 
    40   39   40 1  
    41   39   41 1  
    42   40   42 1  
    43   43   44 1  
    44   44   45 1  
    45   44   47 1  
    46   45   46 2  
    47   45   51 am 
    48   47   48 1  
    49   47   49 1  
    50   48   50 1  
    51   51   52 1  
    52   52   53 1  
    53   52   55 1  
    54   53   54 2  
    55   53   58 am 
    56   55   56 1  
    57   55   57 1  
    58   58   59 1  
    59   59   60 1  
    60   59   62 1  
    61   60   61 2  
    62   60   66 am 
    63   62   63 1  
    64   63   64 1  
    65   63   65 1  
    66   66   67 1  
    67   67   68 1  
    68   67   70 1  
    69   68   69 1  
    70   69   72 1  
    71   70   71 2  
    72   72   73 ar 
    73   72   74 ar 
    74   72   75 ar 
    75    1   76 1  
    76    1   77 1  
    77    1   78 1  
    78    2   79 1  
    79    5   80 1  
    80    5   81 1  
    81    5   82 1  
    82    6   83 1  
    83    7   84 1  
    84   10   85 1  
    85   10   86 1  
    86   11   87 1  
    87   11   88 1  
    88   15   89 1  
    89   16   90 1  
    90   19   91 1  
    91   19   92 1  
    92   20   93 1  
    93   20   94 1  
    94   24   95 1  
    95   25   96 1  
    96   28   97 1  
    97   28   98 1  
    98   29   99 1  
    99   29  100 1  
   100   30  101 1  
   101   30  102 1  
   102   31  103 1  
   103   33  104 1  
   104   33  105 1  
   105   34  106 1  
   106   34  107 1  
   107   35  108 1  
   108   36  109 1  
   109   39  110 1  
   110   40  111 1  
   111   40  112 1  
   112   41  113 1  
   113   41  114 1  
   114   41  115 1  
   115   42  116 1  
   116   42  117 1  
   117   42  118 1  
   118   43  119 1  
   119   44  120 1  
   120   47  121 1  
   121   48  122 1  
   122   48  123 1  
   123   49  124 1  
   124   49  125 1  
   125   49  126 1  
   126   50  127 1  
   127   50  128 1  
   128   50  129 1  
   129   51  130 1  
   130   52  131 1  
   131   55  132 1  
   132   56  133 1  
   133   56  134 1  
   134   56  135 1  
   135   57  136 1  
   136   57  137 1  
   137   57  138 1  
   138   58  139 1  
   139   59  140 1  
   140   62  141 1  
   141   62  142 1  
   142   63  143 1  
   143   64  144 1  
   144   64  145 1  
   145   64  146 1  
   146   65  147 1  
   147   65  148 1  
   148   65  149 1  
   149   66  150 1  
   150   67  151 1  
   151   68  152 1  
   152   68  153 1  
   153   70  154 1  
@<TRIPOS>SUBSTRUCTURE
     1 ALA         1

