6uyx_ligand
  -I-interpret- 

157156  0  0  0  0  0  0  0  0999 V2000
   11.9270  -15.7080    7.4130 N   0  3  0  0  0
   12.1380  -14.3620    6.8550 C   0  0  0  0  0
   11.3350  -13.2980    7.5650 C   0  0  0  0  0
   10.1770  -13.1830    7.2990 O   0  0  0  0  0
   11.7700  -14.3500    5.3970 C   0  0  0  0  0
   11.9740  -12.5040    8.4220 N   0  0  0  0  0
   11.2760  -11.6010    9.3210 C   0  0  0  0  0
   11.1750  -10.1560    8.8080 C   0  0  0  0  0
   12.0160   -9.6650    8.0650 O   0  0  0  0  0
   11.9550  -11.6050   10.6980 C   0  0  0  0  0
   11.9410  -12.9380   11.4010 C   0  0  0  0  0
   12.1560  -12.7970   12.8720 C   0  0  0  0  0
   12.0370  -11.6960   13.3960 O   0  0  0  0  0
   12.4480  -13.8010   13.5210 O   0  0  0  0  0
   10.1020   -9.4860    9.2070 N   0  0  0  0  0
    9.8600   -8.1170    8.7900 C   0  0  0  0  0
   10.9120   -7.2100    9.3940 C   0  0  0  0  0
   11.3880   -7.4060   10.5220 O   0  0  0  0  0
    8.4540   -7.6740    9.2040 C   0  0  0  0  0
    7.9460   -6.3270    8.6060 C   0  0  0  0  0
    6.5160   -5.9690    9.0430 C   0  0  0  0  0
    6.0780   -6.3650   10.1280 O   0  0  0  0  0
    5.8170   -5.2860    8.3040 O   0  0  0  0  0
   11.2720   -6.2060    8.6150 N   0  0  0  0  0
   12.3000   -5.2480    8.9820 C   0  0  0  0  0
   11.7300   -3.8590    8.7970 C   0  0  0  0  0
   11.3380   -3.5030    7.6810 O   0  0  0  0  0
   13.5550   -5.4450    8.1350 C   0  0  0  0  0
   14.2620   -6.7260    8.4410 C   0  0  0  0  0
   15.4050   -6.8920    7.5020 C   0  0  0  0  0
   14.9980   -7.3600    6.1910 N   0  0  0  0  0
   15.8320   -7.5260    5.1820 C   0  0  0  0  0
   17.0960   -7.2420    5.3100 N   0  0  0  0  0
   15.3820   -7.9580    4.0370 N   0  0  0  0  0
   11.6730   -3.1070    9.9010 N   0  0  0  0  0
   11.1560   -1.7430    9.9390 C   0  0  0  0  0
   12.1830   -0.8470   10.6240 C   0  0  0  0  0
   12.5210   -1.0510   11.7920 O   0  0  0  0  0
    9.8060   -1.6500   10.6650 C   0  0  0  0  0
    8.7510   -2.5570   10.0160 C   0  0  0  0  0
    9.2990   -0.2050   10.6370 C   0  0  0  0  0
    7.3860   -2.6060   10.7320 C   0  0  0  0  0
   12.6310    0.1710    9.9110 N   0  0  0  0  0
   13.6830    1.0740   10.3540 C   0  0  0  0  0
   13.1610    2.5020   10.3040 C   0  0  0  0  0
   12.6670    2.9450    9.2640 O   0  0  0  0  0
   14.9390    0.8960    9.4850 C   0  0  0  0  0
   15.6610   -0.3760    9.8550 C   0  0  0  0  0
   15.8180    2.1010    9.6420 C   0  0  0  0  0
   16.2950   -0.9790    8.7180 C   0  0  0  0  0
   13.2960    3.2210   11.4170 N   0  0  0  0  0
   12.7130    4.5460   11.5980 C   0  0  0  0  0
   13.7620    5.6300   11.4030 C   0  0  0  0  0
   14.6920    5.7470   12.2080 O   0  0  0  0  0
   12.0880    4.6980   12.9910 C   0  0  0  0  0
   11.7570    6.1440   13.1690 C   0  0  0  0  0
   10.8950    3.8630   13.1390 C   0  0  0  0  0
   13.5500    6.4490   10.4070 N   0  0  0  0  0
   14.3620    7.5140   10.0970 C   0  0  0  0  0
   13.7460    8.8790   10.5940 C   0  0  0  0  0
   12.6680    9.0360   10.6640 O   0  0  0  0  0
   14.6790    7.5170    8.6050 C   0  0  0  0  0
   15.2940    6.2840    7.9460 C   0  0  0  0  0
   15.3880    6.3080    6.5020 C   0  0  0  0  0
   16.6080    5.8820    8.4990 C   0  0  0  0  0
   14.6240    9.7610   10.9530 N   0  0  0  0  0
   14.4870   11.1350   11.3640 C   0  0  0  0  0
   15.3800   11.4910   12.4990 C   0  0  0  0  0
   16.7760   11.6390   12.2490 O   0  0  0  0  0
   15.0580   11.7990   10.1830 C   0  0  0  0  0
   16.2090   11.8260    9.8430 O   0  0  0  0  0
   17.8120   11.2330   13.3450 P   0  0  0  0  0
   19.1030   11.4990   12.7260 O   0  0  0  0  0
   17.3550    9.8180   13.4270 O   0  0  0  0  0
   17.4270   12.0890   14.4580 O   0  0  0  0  0
   12.1786  -15.7082    8.4015 H   0  0  0  0  0
   10.9458  -15.9672    7.3106 H   0  0  0  0  0
   12.5109  -16.3778    6.9122 H   0  0  0  0  0
   13.1941  -14.1303    6.9933 H   0  0  0  0  0
   10.7049  -14.5561    5.2907 H   0  0  0  0  0
   11.9959  -13.3709    4.9746 H   0  0  0  0  0
   12.3434  -15.1144    4.8726 H   0  0  0  0  0
   12.9933  -12.5308    8.4483 H   0  0  0  0  0
   10.2553  -11.9776    9.3874 H   0  0  0  0  0
   11.4018  -10.9078   11.3273 H   0  0  0  0  0
   13.0003  -11.3409   10.5378 H   0  0  0  0  0
   12.7496  -13.5459   10.9951 H   0  0  0  0  0
   10.9653  -13.3971   11.2416 H   0  0  0  0  0
   12.4929  -14.5587   12.9333 H   0  0  0  0  0
    9.4300   -9.9444    9.8224 H   0  0  0  0  0
    9.9247   -8.0544    7.7037 H   0  0  0  0  0
    8.4879   -7.5314   10.2841 H   0  0  0  0  0
    7.7745   -8.4431    8.8367 H   0  0  0  0  0
    7.9433   -6.4284    7.5207 H   0  0  0  0  0
    8.6072   -5.5376    8.9633 H   0  0  0  0  0
    6.7524   -6.8821   10.5745 H   0  0  0  0  0
   10.8064   -6.0985    7.7138 H   0  0  0  0  0
   12.5937   -5.3928   10.0216 H   0  0  0  0  0
   14.2387   -4.6248    8.3538 H   0  0  0  0  0
   13.2517   -5.4718    7.0884 H   0  0  0  0  0
   13.5709   -7.5611    8.3266 H   0  0  0  0  0
   14.6317   -6.7034    9.4662 H   0  0  0  0  0
   16.0779   -7.6371    7.9264 H   0  0  0  0  0
   15.8750   -5.9167    7.3753 H   0  0  0  0  0
   14.0119   -7.5727    6.0405 H   0  0  0  0  0
   17.4516   -6.8869    6.1976 H   0  0  0  0  0
   16.0192   -8.0715    3.2486 H   0  0  0  0  0
   14.3928   -8.1824    3.9297 H   0  0  0  0  0
   12.0128   -3.5129   10.7729 H   0  0  0  0  0
   10.9860   -1.4147    8.9136 H   0  0  0  0  0
    9.9624   -1.9784   11.6925 H   0  0  0  0  0
    9.1528   -3.5698   10.0445 H   0  0  0  0  0
    8.5649   -2.1535    9.0207 H   0  0  0  0  0
   10.0214    0.4419   11.1347 H   0  0  0  0  0
    9.1749    0.1152    9.6025 H   0  0  0  0  0
    8.3411   -0.1473   11.1539 H   0  0  0  0  0
    7.5237   -2.9727   11.7492 H   0  0  0  0  0
    6.9559   -1.6048   10.7604 H   0  0  0  0  0
    6.7170   -3.2750   10.1907 H   0  0  0  0  0
   12.2143    0.3340    8.9944 H   0  0  0  0  0
   13.9665    0.8435   11.3809 H   0  0  0  0  0
   14.6550    0.8088    8.4363 H   0  0  0  0  0
   14.9312   -1.0805   10.2539 H   0  0  0  0  0
   16.4308   -0.1324   10.5872 H   0  0  0  0  0
   15.2737    2.9901    9.3237 H   0  0  0  0  0
   16.1064    2.2050   10.6880 H   0  0  0  0  0
   16.7105    1.9806    9.0280 H   0  0  0  0  0
   15.5413   -1.2184    7.9679 H   0  0  0  0  0
   17.0205   -0.2832    8.2967 H   0  0  0  0  0
   16.8031   -1.8919    9.0286 H   0  0  0  0  0
   13.8367    2.8234   12.1850 H   0  0  0  0  0
   11.9313    4.6566   10.8465 H   0  0  0  0  0
   12.7889    4.3658   13.7569 H   0  0  0  0  0
   12.6684    6.7365   13.0895 H   0  0  0  0  0
   11.0532    6.4522   12.3958 H   0  0  0  0  0
   11.3087    6.2946   14.1511 H   0  0  0  0  0
   10.1542    4.1548   12.3946 H   0  0  0  0  0
   11.1650    2.8169   12.9941 H   0  0  0  0  0
   10.4806    3.9976   14.1381 H   0  0  0  0  0
   12.7298    6.2878    9.8224 H   0  0  0  0  0
   15.3055    7.4014   10.6310 H   0  0  0  0  0
   15.4381    8.2910    8.4916 H   0  0  0  0  0
   13.7076    7.6251    8.1225 H   0  0  0  0  0
   14.5479    5.5338    8.2080 H   0  0  0  0  0
   14.3900    6.4100    6.0759 H   0  0  0  0  0
   16.0043    7.1524    6.1933 H   0  0  0  0  0
   15.8403    5.3797    6.1531 H   0  0  0  0  0
   17.3194    6.6980    8.3716 H   0  0  0  0  0
   16.5002    5.6545    9.5595 H   0  0  0  0  0
   16.9680    4.9988    7.9714 H   0  0  0  0  0
   15.5858    9.4216   10.9429 H   0  0  0  0  0
   13.4701   11.3815   11.6694 H   0  0  0  0  0
   15.3030   10.6549   13.1941 H   0  0  0  0  0
   15.0443   12.4748   12.8268 H   0  0  0  0  0
   14.3540   12.3286    9.5412 H   0  0  0  0  0
   19.2474   10.8766   12.0095 H   0  0  0  0  0
   17.6575    9.3398   12.6515 H   0  0  0  0  0
  1  2  1  0  0  0
  2  3  1  0  0  0
  2  5  1  0  0  0
  3  4  2  0  0  0
  3  6  1  0  0  0
  6  7  1  0  0  0
  7  8  1  0  0  0
  7 10  1  0  0  0
  8  9  2  0  0  0
  8 15  1  0  0  0
 10 11  1  0  0  0
 11 12  1  0  0  0
 12 13  2  0  0  0
 12 14  1  0  0  0
 15 16  1  0  0  0
 16 17  1  0  0  0
 16 19  1  0  0  0
 17 18  2  0  0  0
 17 24  1  0  0  0
 19 20  1  0  0  0
 20 21  1  0  0  0
 21 22  1  0  0  0
 21 23  2  0  0  0
 24 25  1  0  0  0
 25 26  1  0  0  0
 25 28  1  0  0  0
 26 27  2  0  0  0
 26 35  1  0  0  0
 28 29  1  0  0  0
 29 30  1  0  0  0
 30 31  1  0  0  0
 31 32  1  0  0  0
 32 33  2  0  0  0
 32 34  1  0  0  0
 35 36  1  0  0  0
 36 37  1  0  0  0
 36 39  1  0  0  0
 37 38  2  0  0  0
 37 43  1  0  0  0
 39 40  1  0  0  0
 39 41  1  0  0  0
 40 42  1  0  0  0
 43 44  1  0  0  0
 44 45  1  0  0  0
 44 47  1  0  0  0
 45 46  2  0  0  0
 45 51  1  0  0  0
 47 48  1  0  0  0
 47 49  1  0  0  0
 48 50  1  0  0  0
 51 52  1  0  0  0
 52 53  1  0  0  0
 52 55  1  0  0  0
 53 54  2  0  0  0
 53 58  1  0  0  0
 55 56  1  0  0  0
 55 57  1  0  0  0
 58 59  1  0  0  0
 59 60  1  0  0  0
 59 62  1  0  0  0
 60 61  2  0  0  0
 60 66  1  0  0  0
 62 63  1  0  0  0
 63 64  1  0  0  0
 63 65  1  0  0  0
 66 67  1  0  0  0
 67 68  1  0  0  0
 67 70  1  0  0  0
 68 69  1  0  0  0
 69 72  1  0  0  0
 70 71  2  0  0  0
 72 73  1  0  0  0
 72 74  1  0  0  0
 72 75  2  0  0  0
  1 76  1  0  0  0
  1 77  1  0  0  0
  1 78  1  0  0  0
  2 79  1  0  0  0
  5 80  1  0  0  0
  5 81  1  0  0  0
  5 82  1  0  0  0
  6 83  1  0  0  0
  7 84  1  0  0  0
 10 85  1  0  0  0
 10 86  1  0  0  0
 11 87  1  0  0  0
 11 88  1  0  0  0
 14 89  1  0  0  0
 15 90  1  0  0  0
 16 91  1  0  0  0
 19 92  1  0  0  0
 19 93  1  0  0  0
 20 94  1  0  0  0
 20 95  1  0  0  0
 22 96  1  0  0  0
 24 97  1  0  0  0
 25 98  1  0  0  0
 28 99  1  0  0  0
 28100  1  0  0  0
 29101  1  0  0  0
 29102  1  0  0  0
 30103  1  0  0  0
 30104  1  0  0  0
 31105  1  0  0  0
 33106  1  0  0  0
 34107  1  0  0  0
 34108  1  0  0  0
 35109  1  0  0  0
 36110  1  0  0  0
 39111  1  0  0  0
 40112  1  0  0  0
 40113  1  0  0  0
 41114  1  0  0  0
 41115  1  0  0  0
 41116  1  0  0  0
 42117  1  0  0  0
 42118  1  0  0  0
 42119  1  0  0  0
 43120  1  0  0  0
 44121  1  0  0  0
 47122  1  0  0  0
 48123  1  0  0  0
 48124  1  0  0  0
 49125  1  0  0  0
 49126  1  0  0  0
 49127  1  0  0  0
 50128  1  0  0  0
 50129  1  0  0  0
 50130  1  0  0  0
 51131  1  0  0  0
 52132  1  0  0  0
 55133  1  0  0  0
 56134  1  0  0  0
 56135  1  0  0  0
 56136  1  0  0  0
 57137  1  0  0  0
 57138  1  0  0  0
 57139  1  0  0  0
 58140  1  0  0  0
 59141  1  0  0  0
 62142  1  0  0  0
 62143  1  0  0  0
 63144  1  0  0  0
 64145  1  0  0  0
 64146  1  0  0  0
 64147  1  0  0  0
 65148  1  0  0  0
 65149  1  0  0  0
 65150  1  0  0  0
 66151  1  0  0  0
 67152  1  0  0  0
 68153  1  0  0  0
 68154  1  0  0  0
 70155  1  0  0  0
 73156  1  0  0  0
 74157  1  0  0  0
M  END
$$$$
