5gja_ligand
  -I-interpret- 

 14 14  0  0  0  0  0  0  0  0999 V2000
   37.4950    0.4980    5.0510 C   0  0  0  0  0
   37.1570   -1.8260    4.9410 C   0  0  0  0  0
   35.7790   -1.6310    4.9980 C   0  0  0  0  0
   38.4120    1.7030    5.0990 C   0  0  0  0  0
   35.2910   -0.3730    5.0840 C   0  0  0  0  0
   36.1140    0.7010    5.1100 C   0  0  0  0  0
   39.6930    1.5730    5.1060 O   0  0  0  0  0
   37.8430    2.8330    5.1880 O   0  0  0  0  0
   37.9860   -0.7560    4.9660 N   0  0  0  0  0
   37.5656   -2.8345    4.8766 H   0  0  0  0  0
   35.1009   -2.4840    4.9735 H   0  0  0  0  0
   34.2128   -0.2208    5.1334 H   0  0  0  0  0
   35.7055    1.7094    5.1760 H   0  0  0  0  0
   39.9196    0.6433    5.0293 H   0  0  0  0  0
  1  4  1  0  0  0
  1  6  4  0  0  0
  9  1  4  0  0  0
  2  3  4  0  0  0
  2  9  4  0  0  0
  3  5  4  0  0  0
  4  7  1  0  0  0
  4  8  2  0  0  0
  5  6  4  0  0  0
  2 10  1  0  0  0
  3 11  1  0  0  0
  5 12  1  0  0  0
  6 13  1  0  0  0
  7 14  1  0  0  0
M  END
$$$$
