### 
### Created by X-TOOL on Mon Sep 10 21:13:14 2018
### 

@<TRIPOS>MOLECULE
3zha_ligand
  220   229     1     0     0
SMALL
GAST_HUCK


@<TRIPOS>ATOM
      1 C         -13.6910 -117.7660 -186.1860 C.2       1 ACE         0.1776
      2 O         -13.2050 -116.9680 -185.3750 O.2       1 ACE        -0.3970
      3 CH3       -12.9550 -119.0310 -186.4910 C.3       1 ACE         0.0260
      4 N         -14.8580 -117.5720 -186.8220 N.am      1 PRO        -0.2519
      5 CA        -15.6730 -116.3610 -186.6120 C.3       1 PRO         0.1339
      6 C         -16.2450 -116.2320 -185.2040 C.2       1 PRO         0.2066
      7 O         -16.5180 -117.2430 -184.5570 O.2       1 PRO        -0.3942
      8 CB        -16.7870 -116.4870 -187.6520 C.3       1 PRO        -0.0104
      9 CG        -16.8890 -117.9370 -187.9270 C.3       1 PRO        -0.0281
     10 CD        -15.4800 -118.4460 -187.8360 C.3       1 PRO         0.0369
     11 N         -16.4520 -114.9980 -184.7050 N.am      1 PRO        -0.2498
     12 CA        -16.9940 -114.8540 -183.3490 C.3       1 PRO         0.1338
     13 C         -18.4230 -115.3470 -183.2490 C.2       1 PRO         0.2039
     14 O         -19.1220 -115.4990 -184.2600 O.2       1 PRO        -0.3944
     15 CB        -16.9020 -113.3400 -183.0830 C.3       1 PRO        -0.0104
     16 CG        -15.9600 -112.7970 -184.1360 C.3       1 PRO        -0.0281
     17 CD        -16.1980 -113.6780 -185.3180 C.3       1 PRO         0.0369
     18 N         -18.8410 -115.5780 -182.0130 N.am      1 GLY        -0.2664
     19 CA        -20.1900 -115.9870 -181.6820 C.3       1 GLY         0.1203
     20 C         -21.2160 -114.9120 -181.9690 C.2       1 GLY         0.2032
     21 O         -20.8610 -113.7620 -182.2500 O.2       1 GLY        -0.3945
     22 N         -22.5160 -115.2700 -181.9500 N.am      1 PRO        -0.2501
     23 CA        -23.5420 -114.2720 -182.2710 C.3       1 PRO         0.1340
     24 C         -23.6610 -113.2030 -181.1860 C.2       1 PRO         0.2066
     25 O         -23.3010 -113.4900 -180.0390 O.2       1 PRO        -0.3942
     26 CB        -24.8240 -115.1170 -182.3400 C.3       1 PRO        -0.0104
     27 CG        -24.5700 -116.2590 -181.3990 C.3       1 PRO        -0.0281
     28 CD        -23.1180 -116.5790 -181.6140 C.3       1 PRO         0.0369
     29 N         -24.2300 -111.9970 -181.4780 N.am      1 PRO        -0.2498
     30 CA        -24.5330 -111.0520 -180.3840 C.3       1 PRO         0.1338
     31 C         -25.5200 -111.7150 -179.4330 C.2       1 PRO         0.2039
     32 O         -26.3510 -112.5410 -179.8580 O.2       1 PRO        -0.3944
     33 CB        -25.2180 -109.8890 -181.1000 C.3       1 PRO        -0.0104
     34 CG        -24.8170 -110.0260 -182.5440 C.3       1 PRO        -0.0281
     35 CD        -24.7430 -111.4880 -182.7660 C.3       1 PRO         0.0369
     36 N         -25.3900 -111.3910 -178.1580 N.am      1 GLY        -0.2664
     37 CA        -26.2200 -111.9590 -177.1190 C.3       1 GLY         0.1203
     38 C         -27.6820 -111.5680 -177.2210 C.2       1 GLY         0.2032
     39 O         -28.0900 -110.7780 -178.0980 O.2       1 GLY        -0.3945
     40 N         -28.4910 -112.1200 -176.2840 N.am      1 PRO        -0.2501
     41 CA        -29.9020 -111.7810 -176.2310 C.3       1 PRO         0.1338
     42 C         -30.1480 -110.3100 -175.9490 C.2       1 PRO         0.2042
     43 O         -29.3200 -109.6560 -175.3100 O.2       1 PRO        -0.3944
     44 CB        -30.3890 -112.6100 -175.0370 C.3       1 PRO        -0.0104
     45 CG        -29.4360 -113.7140 -174.9160 C.3       1 PRO        -0.0281
     46 CD        -28.1450 -113.0510 -175.1940 C.3       1 PRO         0.0369
     47 N         -31.3150 -109.8010 -176.3970 N.am      1 THR        -0.2613
     48 CA        -31.7740 -108.4420 -176.0980 C.3       1 THR         0.1565
     49 C         -31.7730 -108.2820 -174.5540 C.2       1 THR         0.2063
     50 O         -32.0530 -109.2390 -173.8370 O.2       1 THR        -0.3943
     51 CB        -33.1980 -108.2390 -176.6490 C.3       1 THR         0.0924
     52 OG1       -33.1800 -108.4470 -178.0550 O.3       1 THR        -0.3874
     53 CG2       -33.7740 -106.8520 -176.3240 C.3       1 THR        -0.0346
     54 N         -31.4340 -107.0990 -174.0620 N.am      1 GLY        -0.2663
     55 CA        -31.4710 -106.8530 -172.6350 C.3       1 GLY         0.1203
     56 C         -32.8740 -106.9460 -172.0480 C.2       1 GLY         0.2032
     57 O         -33.8720 -107.0020 -172.7890 O.2       1 GLY        -0.3945
     58 N         -33.0190 -106.9890 -170.7130 N.am      1 PRO        -0.2501
     59 CA        -34.3890 -107.0100 -170.1560 C.3       1 PRO         0.1338
     60 C         -35.0910 -105.6520 -170.3560 C.2       1 PRO         0.2041
     61 O         -34.4130 -104.6230 -170.4740 O.2       1 PRO        -0.3944
     62 CB        -34.1630 -107.2970 -168.6650 C.3       1 PRO        -0.0104
     63 CG        -32.7790 -106.7780 -168.3870 C.3       1 PRO        -0.0281
     64 CD        -31.9860 -106.9240 -169.6570 C.3       1 PRO         0.0369
     65 N         -36.4380 -105.6540 -170.4230 N.am      1 ARG        -0.2637
     66 CA        -37.2440 -104.4310 -170.5370 C.3       1 ARG         0.1311
     67 C         -36.9440 -103.4970 -169.3330 C.2       1 ARG         0.2037
     68 O         -36.7160 -103.9680 -168.2180 O.2       1 ARG        -0.3944
     69 CB        -38.7390 -104.7790 -170.5920 C.3       1 ARG        -0.0092
     70 CG        -39.6110 -103.5550 -170.8060 C.3       1 ARG        -0.0156
     71 CD        -41.0590 -103.9060 -170.9700 C.3       1 ARG         0.0627
     72 NE        -41.3480 -104.5860 -172.2340 N.pl3     1 ARG        -0.2723
     73 CZ        -41.6140 -103.9590 -173.3720 C.cat     1 ARG         0.2882
     74 NH1       -41.5490 -102.6350 -173.4370 N.pl3     1 ARG        -0.2849
     75 NH2       -41.9510 -104.6500 -174.4560 N.pl3     1 ARG        -0.2849
     76 N         -36.9550 -102.2020 -169.5740 N.am      1 GLY        -0.2664
     77 CA        -36.6520 -101.2370 -168.5310 C.3       1 GLY         0.1203
     78 C         -37.6390 -101.2360 -167.3830 C.2       1 GLY         0.2032
     79 O         -38.7150 -101.8440 -167.4780 O.2       1 GLY        -0.3945
     80 N         -37.3080 -100.5130 -166.2830 N.am      1 PRO        -0.2501
     81 CA        -38.2650 -100.3910 -165.1740 C.3       1 PRO         0.1340
     82 C         -39.4650  -99.4890 -165.5450 C.2       1 PRO         0.2066
     83 O         -39.3730  -98.7020 -166.4960 O.2       1 PRO        -0.3942
     84 CB        -37.4150  -99.7770 -164.0650 C.3       1 PRO        -0.0104
     85 CG        -36.4200  -98.9720 -164.7820 C.3       1 PRO        -0.0281
     86 CD        -36.0830  -99.7300 -166.0170 C.3       1 PRO         0.0369
     87 N         -40.5950  -99.5730 -164.8150 N.am      1 PRO        -0.2498
     88 CA        -41.7280  -98.7040 -165.1390 C.3       1 PRO         0.1338
     89 C         -41.4520  -97.2370 -164.8570 C.2       1 PRO         0.2039
     90 O         -40.5920  -96.8980 -164.0460 O.2       1 PRO        -0.3944
     91 CB        -42.8650  -99.2280 -164.2450 C.3       1 PRO        -0.0104
     92 CG        -42.3880 -100.4530 -163.6220 C.3       1 PRO        -0.0281
     93 CD        -40.8990 -100.4200 -163.6470 C.3       1 PRO         0.0369
     94 N         -42.2100  -96.3780 -165.5170 N.am      1 GLY        -0.2664
     95 CA        -42.1050  -94.9460 -165.2990 C.3       1 GLY         0.1203
     96 C         -42.7460  -94.5200 -163.9910 C.2       1 GLY         0.2032
     97 O         -43.3980  -95.3230 -163.3060 O.2       1 GLY        -0.3945
     98 N         -42.5860  -93.2390 -163.6200 N.am      1 PRO        -0.2501
     99 CA        -43.2080  -92.7530 -162.3710 C.3       1 PRO         0.1339
    100 C         -44.7480  -92.6330 -162.4340 C.2       1 PRO         0.2060
    101 O         -45.2970  -92.5440 -163.5390 O.2       1 PRO        -0.3942
    102 CB        -42.5420  -91.3960 -162.1600 C.3       1 PRO        -0.0104
    103 CG        -42.1660  -90.9420 -163.5200 C.3       1 PRO        -0.0281
    104 CD        -41.8360  -92.1730 -164.3090 C.3       1 PRO         0.0369
    105 N         -45.4750  -92.6380 -161.2790 N.am      1 PRO        -0.2556
    106 CA        -46.9490  -92.5670 -161.3330 C.3       1 PRO         0.0972
    107 C         -47.4870  -91.2530 -161.8660 C.2       1 PRO         0.0603
    108 O         -48.2424  -91.2839 -162.8739 O.co2     1 PRO        -0.5666
    109 CB        -47.3800  -92.7910 -159.8800 C.3       1 PRO        -0.0159
    110 CG        -46.1960  -93.3650 -159.1990 C.3       1 PRO        -0.0288
    111 CD        -45.0120  -92.7670 -159.8830 C.3       1 PRO         0.0362
    112 O         -47.1867  -90.1600 -161.3157 O.co2     1 PRO        -0.5666
    113 H1        -13.5247 -119.6185 -187.2260 H         1 ACE         0.0467
    114 H2        -12.8342 -119.6167 -185.5678 H         1 ACE         0.0467
    115 H3        -11.9646 -118.7886 -186.9037 H         1 ACE         0.0467
    116 H4        -15.0639 -115.4681 -186.8163 H         1 PRO         0.0802
    117 H5        -16.5254 -115.9369 -188.5679 H         1 PRO         0.0313
    118 H6        -17.7360 -116.1015 -187.2512 H         1 PRO         0.0313
    119 H7        -17.3000 -118.1126 -188.9321 H         1 PRO         0.0287
    120 H8        -17.5276 -118.4291 -187.1786 H         1 PRO         0.0287
    121 H9        -15.4627 -119.4970 -187.5120 H         1 PRO         0.0524
    122 H10       -14.9656 -118.3521 -188.8038 H         1 PRO         0.0524
    123 H11       -16.3758 -115.4101 -182.6289 H         1 PRO         0.0802
    124 H12       -16.5019 -113.1509 -182.0760 H         1 PRO         0.0313
    125 H13       -17.8934 -112.8728 -183.1774 H         1 PRO         0.0313
    126 H14       -14.9149 -112.8667 -183.7999 H         1 PRO         0.0287
    127 H15       -16.1998 -111.7501 -184.3735 H         1 PRO         0.0287
    128 H16       -17.0694 -113.3366 -185.8961 H         1 PRO         0.0524
    129 H17       -15.3138 -113.7095 -185.9716 H         1 PRO         0.0524
    130 H18       -18.1868 -115.4632 -181.2654 H         1 GLY         0.1881
    131 H19       -20.2296 -116.2335 -180.6107 H         1 GLY         0.0763
    132 H20       -20.4417 -116.8798 -182.2733 H         1 GLY         0.0763
    133 H21       -23.3313 -113.7892 -183.2367 H         1 PRO         0.0802
    134 H22       -24.9927 -115.4855 -183.3626 H         1 PRO         0.0313
    135 H23       -25.6951 -114.5300 -182.0134 H         1 PRO         0.0313
    136 H24       -25.2035 -117.1226 -181.6497 H         1 PRO         0.0287
    137 H25       -24.7556 -115.9581 -180.3574 H         1 PRO         0.0287
    138 H26       -22.6685 -116.9944 -180.7000 H         1 PRO         0.0524
    139 H27       -22.9921 -117.2926 -182.4416 H         1 PRO         0.0524
    140 H28       -23.6269 -110.7304 -179.8497 H         1 PRO         0.0802
    141 H29       -24.8722 -108.9274 -180.6929 H         1 PRO         0.0313
    142 H30       -26.3106 -109.9603 -180.9944 H         1 PRO         0.0313
    143 H31       -23.8394 -109.5547 -182.7234 H         1 PRO         0.0287
    144 H32       -25.5705 -109.5695 -183.2027 H         1 PRO         0.0287
    145 H33       -25.7367 -111.9045 -182.9876 H         1 PRO         0.0524
    146 H34       -24.0531 -111.7280 -183.5884 H         1 PRO         0.0524
    147 H35       -24.6888 -110.7257 -177.9015 H         1 GLY         0.1881
    148 H36       -25.8374 -111.6196 -176.1451 H         1 GLY         0.0763
    149 H37       -26.1492 -113.0551 -177.1790 H         1 GLY         0.0763
    150 H38       -30.4113 -112.0687 -177.1626 H         1 PRO         0.0802
    151 H39       -31.4024 -112.9951 -175.2235 H         1 PRO         0.0313
    152 H40       -30.3909 -112.0011 -174.1209 H         1 PRO         0.0313
    153 H41       -29.6451 -114.5028 -175.6536 H         1 PRO         0.0287
    154 H42       -29.4523 -114.1446 -173.9039 H         1 PRO         0.0287
    155 H43       -27.7783 -112.5089 -174.3099 H         1 PRO         0.0524
    156 H44       -27.3866 -113.7786 -175.5187 H         1 PRO         0.0524
    157 H45       -31.8981 -110.3830 -176.9638 H         1 THR         0.1884
    158 H46       -31.0953 -107.7057 -176.5532 H         1 THR         0.0826
    159 H47       -33.8539 -108.9930 -176.1895 H         1 THR         0.0639
    160 H48       -32.8863 -109.3314 -178.2394 H         1 THR         0.2101
    161 H49       -34.7880 -106.7689 -176.7422 H         1 THR         0.0257
    162 H50       -33.1311 -106.0756 -176.7643 H         1 THR         0.0257
    163 H51       -33.8153 -106.7186 -175.2329 H         1 THR         0.0257
    164 H52       -31.1496 -106.3683 -174.6826 H         1 GLY         0.1881
    165 H53       -31.0778 -105.8437 -172.4435 H         1 GLY         0.0763
    166 H54       -30.8325 -107.5962 -172.1351 H         1 GLY         0.0763
    167 H55       -34.9901 -107.8044 -170.6224 H         1 PRO         0.0802
    168 H56       -34.2209 -108.3769 -168.4638 H         1 PRO         0.0313
    169 H57       -34.9069 -106.7690 -168.0503 H         1 PRO         0.0313
    170 H58       -32.3117 -107.3634 -167.5815 H         1 PRO         0.0287
    171 H59       -32.8257 -105.7195 -168.0914 H         1 PRO         0.0287
    172 H60       -31.3253 -106.0576 -169.8080 H         1 PRO         0.0524
    173 H61       -31.3848 -107.8450 -169.6398 H         1 PRO         0.0524
    174 H62       -36.9128 -106.5336 -170.3936 H         1 ARG         0.1883
    175 H63       -36.9700 -103.9103 -171.4664 H         1 ARG         0.0800
    176 H64       -39.0259 -105.2554 -169.6429 H         1 ARG         0.0313
    177 H65       -38.9077 -105.4821 -171.4210 H         1 ARG         0.0313
    178 H66       -39.2697 -103.0321 -171.7116 H         1 ARG         0.0301
    179 H67       -39.5052 -102.8896 -169.9365 H         1 ARG         0.0301
    180 H68       -41.6503 -102.9794 -170.9284 H         1 ARG         0.0689
    181 H69       -41.3545 -104.5670 -170.1419 H         1 ARG         0.0689
    182 H70       -41.3445 -105.6160 -172.2398 H         1 ARG         0.2642
    183 H71       -41.7564 -102.1521 -174.3228 H         1 ARG         0.2615
    184 H72       -41.2912 -102.0904 -172.6016 H         1 ARG         0.2615
    185 H73       -42.0042 -105.6778 -174.4156 H         1 ARG         0.2615
    186 H74       -42.1590 -104.1577 -175.3365 H         1 ARG         0.2615
    187 H75       -37.1763 -101.8766 -170.4933 H         1 GLY         0.1881
    188 H76       -36.6447 -100.2332 -168.9808 H         1 GLY         0.0763
    189 H77       -35.6543 -101.4657 -168.1283 H         1 GLY         0.0763
    190 H78       -38.6414 -101.3801 -164.8739 H         1 PRO         0.0802
    191 H79       -36.9263 -100.5610 -163.4679 H         1 PRO         0.0313
    192 H80       -38.0289  -99.1442 -163.4072 H         1 PRO         0.0313
    193 H81       -35.5219  -98.8352 -164.1618 H         1 PRO         0.0287
    194 H82       -36.8400  -97.9889 -165.0410 H         1 PRO         0.0287
    195 H83       -35.8637  -99.0467 -166.8507 H         1 PRO         0.0524
    196 H84       -35.2210 -100.3924 -165.8494 H         1 PRO         0.0524
    197 H85       -41.9934  -98.8135 -166.2009 H         1 PRO         0.0802
    198 H86       -43.7577  -99.4365 -164.8529 H         1 PRO         0.0313
    199 H87       -43.1123  -98.4838 -163.4737 H         1 PRO         0.0313
    200 H88       -42.7534 -101.3260 -164.1827 H         1 PRO         0.0287
    201 H89       -42.7446 -100.5090 -162.5829 H         1 PRO         0.0287
    202 H90       -40.4997  -99.9751 -162.7236 H         1 PRO         0.0524
    203 H91       -40.4851 -101.4310 -163.7756 H         1 PRO         0.0524
    204 H92       -42.8719  -96.7228 -166.1826 H         1 GLY         0.1881
    205 H93       -42.6066  -94.4233 -166.1267 H         1 GLY         0.0763
    206 H94       -41.0412  -94.6670 -165.2802 H         1 GLY         0.0763
    207 H95       -42.9546  -93.4319 -161.5435 H         1 PRO         0.0802
    208 H96       -41.6496  -91.4971 -161.5249 H         1 PRO         0.0313
    209 H97       -43.2442  -90.6879 -161.6957 H         1 PRO         0.0313
    210 H98       -41.2904  -90.2781 -163.4695 H         1 PRO         0.0287
    211 H99       -43.0059  -90.4065 -163.9867 H         1 PRO         0.0287
    212 H100      -42.1680  -92.0710 -165.3527 H         1 PRO         0.0524
    213 H101      -40.7551  -92.3758 -164.2862 H         1 PRO         0.0524
    214 H102      -47.3326  -93.3771 -161.9707 H         1 PRO         0.0728
    215 H103      -48.2269  -93.4915 -159.8340 H         1 PRO         0.0306
    216 H104      -47.6671  -91.8374 -159.4129 H         1 PRO         0.0306
    217 H105      -46.1867  -94.4601 -159.3022 H         1 PRO         0.0286
    218 H106      -46.1991  -93.0973 -158.1321 H         1 PRO         0.0286
    219 H107      -44.7613  -91.7849 -159.4558 H         1 PRO         0.0524
    220 H108      -44.1374  -93.4306 -159.8148 H         1 PRO         0.0524
@<TRIPOS>BOND
     1    1    2 2  
     2    1    3 1  
     3    1    4 am 
     4    4    5 1  
     5    4   10 1  
     6    5    6 1  
     7    5    8 1  
     8    6    7 2  
     9    6   11 am 
    10    8    9 1  
    11    9   10 1  
    12   11   12 1  
    13   11   17 1  
    14   12   13 1  
    15   12   15 1  
    16   13   14 2  
    17   13   18 am 
    18   15   16 1  
    19   16   17 1  
    20   18   19 1  
    21   19   20 1  
    22   20   21 2  
    23   20   22 am 
    24   22   23 1  
    25   22   28 1  
    26   23   24 1  
    27   23   26 1  
    28   24   25 2  
    29   24   29 am 
    30   26   27 1  
    31   27   28 1  
    32   29   30 1  
    33   29   35 1  
    34   30   31 1  
    35   30   33 1  
    36   31   32 2  
    37   31   36 am 
    38   33   34 1  
    39   34   35 1  
    40   36   37 1  
    41   37   38 1  
    42   38   39 2  
    43   38   40 am 
    44   40   41 1  
    45   40   46 1  
    46   41   42 1  
    47   41   44 1  
    48   42   43 2  
    49   42   47 am 
    50   44   45 1  
    51   45   46 1  
    52   47   48 1  
    53   48   49 1  
    54   48   51 1  
    55   49   50 2  
    56   49   54 am 
    57   51   52 1  
    58   51   53 1  
    59   54   55 1  
    60   55   56 1  
    61   56   57 2  
    62   56   58 am 
    63   58   59 1  
    64   58   64 1  
    65   59   60 1  
    66   59   62 1  
    67   60   61 2  
    68   60   65 am 
    69   62   63 1  
    70   63   64 1  
    71   65   66 1  
    72   66   67 1  
    73   66   69 1  
    74   67   68 2  
    75   67   76 am 
    76   69   70 1  
    77   70   71 1  
    78   71   72 1  
    79   72   73 ar 
    80   73   74 ar 
    81   73   75 ar 
    82   76   77 1  
    83   77   78 1  
    84   78   79 2  
    85   78   80 am 
    86   80   81 1  
    87   80   86 1  
    88   81   82 1  
    89   81   84 1  
    90   82   83 2  
    91   82   87 am 
    92   84   85 1  
    93   85   86 1  
    94   87   88 1  
    95   87   93 1  
    96   88   89 1  
    97   88   91 1  
    98   89   90 2  
    99   89   94 am 
   100   91   92 1  
   101   92   93 1  
   102   94   95 1  
   103   95   96 1  
   104   96   97 2  
   105   96   98 am 
   106   98   99 1  
   107   98  104 1  
   108   99  100 1  
   109   99  102 1  
   110  100  101 2  
   111  100  105 am 
   112  102  103 1  
   113  103  104 1  
   114  105  106 1  
   115  105  111 1  
   116  106  107 1  
   117  106  109 1  
   118  107  108 ar 
   119  109  110 1  
   120  110  111 1  
   121  107  112 ar 
   122    3  113 1  
   123    3  114 1  
   124    3  115 1  
   125    5  116 1  
   126    8  117 1  
   127    8  118 1  
   128    9  119 1  
   129    9  120 1  
   130   10  121 1  
   131   10  122 1  
   132   12  123 1  
   133   15  124 1  
   134   15  125 1  
   135   16  126 1  
   136   16  127 1  
   137   17  128 1  
   138   17  129 1  
   139   18  130 1  
   140   19  131 1  
   141   19  132 1  
   142   23  133 1  
   143   26  134 1  
   144   26  135 1  
   145   27  136 1  
   146   27  137 1  
   147   28  138 1  
   148   28  139 1  
   149   30  140 1  
   150   33  141 1  
   151   33  142 1  
   152   34  143 1  
   153   34  144 1  
   154   35  145 1  
   155   35  146 1  
   156   36  147 1  
   157   37  148 1  
   158   37  149 1  
   159   41  150 1  
   160   44  151 1  
   161   44  152 1  
   162   45  153 1  
   163   45  154 1  
   164   46  155 1  
   165   46  156 1  
   166   47  157 1  
   167   48  158 1  
   168   51  159 1  
   169   52  160 1  
   170   53  161 1  
   171   53  162 1  
   172   53  163 1  
   173   54  164 1  
   174   55  165 1  
   175   55  166 1  
   176   59  167 1  
   177   62  168 1  
   178   62  169 1  
   179   63  170 1  
   180   63  171 1  
   181   64  172 1  
   182   64  173 1  
   183   65  174 1  
   184   66  175 1  
   185   69  176 1  
   186   69  177 1  
   187   70  178 1  
   188   70  179 1  
   189   71  180 1  
   190   71  181 1  
   191   72  182 1  
   192   74  183 1  
   193   74  184 1  
   194   75  185 1  
   195   75  186 1  
   196   76  187 1  
   197   77  188 1  
   198   77  189 1  
   199   81  190 1  
   200   84  191 1  
   201   84  192 1  
   202   85  193 1  
   203   85  194 1  
   204   86  195 1  
   205   86  196 1  
   206   88  197 1  
   207   91  198 1  
   208   91  199 1  
   209   92  200 1  
   210   92  201 1  
   211   93  202 1  
   212   93  203 1  
   213   94  204 1  
   214   95  205 1  
   215   95  206 1  
   216   99  207 1  
   217  102  208 1  
   218  102  209 1  
   219  103  210 1  
   220  103  211 1  
   221  104  212 1  
   222  104  213 1  
   223  106  214 1  
   224  109  215 1  
   225  109  216 1  
   226  110  217 1  
   227  110  218 1  
   228  111  219 1  
   229  111  220 1  
@<TRIPOS>SUBSTRUCTURE
     1 ACE         1

