3zha_ligand
  -I-interpret- 

220229  0  0  0  0  0  0  0  0999 V2000
  -13.6910 -117.7660 -186.1860 C   0  0  0  0  0
  -13.2050 -116.9680 -185.3750 O   0  0  0  0  0
  -12.9550 -119.0310 -186.4910 C   0  0  0  0  0
  -14.8580 -117.5720 -186.8220 N   0  0  0  0  0
  -15.6730 -116.3610 -186.6120 C   0  0  0  0  0
  -16.2450 -116.2320 -185.2040 C   0  0  0  0  0
  -16.5180 -117.2430 -184.5570 O   0  0  0  0  0
  -16.7870 -116.4870 -187.6520 C   0  0  0  0  0
  -16.8890 -117.9370 -187.9270 C   0  0  0  0  0
  -15.4800 -118.4460 -187.8360 C   0  0  0  0  0
  -16.4520 -114.9980 -184.7050 N   0  0  0  0  0
  -16.9940 -114.8540 -183.3490 C   0  0  0  0  0
  -18.4230 -115.3470 -183.2490 C   0  0  0  0  0
  -19.1220 -115.4990 -184.2600 O   0  0  0  0  0
  -16.9020 -113.3400 -183.0830 C   0  0  0  0  0
  -15.9600 -112.7970 -184.1360 C   0  0  0  0  0
  -16.1980 -113.6780 -185.3180 C   0  0  0  0  0
  -18.8410 -115.5780 -182.0130 N   0  0  0  0  0
  -20.1900 -115.9870 -181.6820 C   0  0  0  0  0
  -21.2160 -114.9120 -181.9690 C   0  0  0  0  0
  -20.8610 -113.7620 -182.2500 O   0  0  0  0  0
  -22.5160 -115.2700 -181.9500 N   0  0  0  0  0
  -23.5420 -114.2720 -182.2710 C   0  0  0  0  0
  -23.6610 -113.2030 -181.1860 C   0  0  0  0  0
  -23.3010 -113.4900 -180.0390 O   0  0  0  0  0
  -24.8240 -115.1170 -182.3400 C   0  0  0  0  0
  -24.5700 -116.2590 -181.3990 C   0  0  0  0  0
  -23.1180 -116.5790 -181.6140 C   0  0  0  0  0
  -24.2300 -111.9970 -181.4780 N   0  0  0  0  0
  -24.5330 -111.0520 -180.3840 C   0  0  0  0  0
  -25.5200 -111.7150 -179.4330 C   0  0  0  0  0
  -26.3510 -112.5410 -179.8580 O   0  0  0  0  0
  -25.2180 -109.8890 -181.1000 C   0  0  0  0  0
  -24.8170 -110.0260 -182.5440 C   0  0  0  0  0
  -24.7430 -111.4880 -182.7660 C   0  0  0  0  0
  -25.3900 -111.3910 -178.1580 N   0  0  0  0  0
  -26.2200 -111.9590 -177.1190 C   0  0  0  0  0
  -27.6820 -111.5680 -177.2210 C   0  0  0  0  0
  -28.0900 -110.7780 -178.0980 O   0  0  0  0  0
  -28.4910 -112.1200 -176.2840 N   0  0  0  0  0
  -29.9020 -111.7810 -176.2310 C   0  0  0  0  0
  -30.1480 -110.3100 -175.9490 C   0  0  0  0  0
  -29.3200 -109.6560 -175.3100 O   0  0  0  0  0
  -30.3890 -112.6100 -175.0370 C   0  0  0  0  0
  -29.4360 -113.7140 -174.9160 C   0  0  0  0  0
  -28.1450 -113.0510 -175.1940 C   0  0  0  0  0
  -31.3150 -109.8010 -176.3970 N   0  0  0  0  0
  -31.7740 -108.4420 -176.0980 C   0  0  0  0  0
  -31.7730 -108.2820 -174.5540 C   0  0  0  0  0
  -32.0530 -109.2390 -173.8370 O   0  0  0  0  0
  -33.1980 -108.2390 -176.6490 C   0  0  0  0  0
  -33.1800 -108.4470 -178.0550 O   0  0  0  0  0
  -33.7740 -106.8520 -176.3240 C   0  0  0  0  0
  -31.4340 -107.0990 -174.0620 N   0  0  0  0  0
  -31.4710 -106.8530 -172.6350 C   0  0  0  0  0
  -32.8740 -106.9460 -172.0480 C   0  0  0  0  0
  -33.8720 -107.0020 -172.7890 O   0  0  0  0  0
  -33.0190 -106.9890 -170.7130 N   0  0  0  0  0
  -34.3890 -107.0100 -170.1560 C   0  0  0  0  0
  -35.0910 -105.6520 -170.3560 C   0  0  0  0  0
  -34.4130 -104.6230 -170.4740 O   0  0  0  0  0
  -34.1630 -107.2970 -168.6650 C   0  0  0  0  0
  -32.7790 -106.7780 -168.3870 C   0  0  0  0  0
  -31.9860 -106.9240 -169.6570 C   0  0  0  0  0
  -36.4380 -105.6540 -170.4230 N   0  0  0  0  0
  -37.2440 -104.4310 -170.5370 C   0  0  0  0  0
  -36.9440 -103.4970 -169.3330 C   0  0  0  0  0
  -36.7160 -103.9680 -168.2180 O   0  0  0  0  0
  -38.7390 -104.7790 -170.5920 C   0  0  0  0  0
  -39.6110 -103.5550 -170.8060 C   0  0  0  0  0
  -41.0590 -103.9060 -170.9700 C   0  0  0  0  0
  -41.3480 -104.5860 -172.2340 N   0  0  0  0  0
  -41.6140 -103.9590 -173.3720 C   0  0  0  0  0
  -41.5490 -102.6350 -173.4370 N   0  0  0  0  0
  -41.9510 -104.6500 -174.4560 N   0  0  0  0  0
  -36.9550 -102.2020 -169.5740 N   0  0  0  0  0
  -36.6520 -101.2370 -168.5310 C   0  0  0  0  0
  -37.6390 -101.2360 -167.3830 C   0  0  0  0  0
  -38.7150 -101.8440 -167.4780 O   0  0  0  0  0
  -37.3080 -100.5130 -166.2830 N   0  0  0  0  0
  -38.2650 -100.3910 -165.1740 C   0  0  0  0  0
  -39.4650  -99.4890 -165.5450 C   0  0  0  0  0
  -39.3730  -98.7020 -166.4960 O   0  0  0  0  0
  -37.4150  -99.7770 -164.0650 C   0  0  0  0  0
  -36.4200  -98.9720 -164.7820 C   0  0  0  0  0
  -36.0830  -99.7300 -166.0170 C   0  0  0  0  0
  -40.5950  -99.5730 -164.8150 N   0  0  0  0  0
  -41.7280  -98.7040 -165.1390 C   0  0  0  0  0
  -41.4520  -97.2370 -164.8570 C   0  0  0  0  0
  -40.5920  -96.8980 -164.0460 O   0  0  0  0  0
  -42.8650  -99.2280 -164.2450 C   0  0  0  0  0
  -42.3880 -100.4530 -163.6220 C   0  0  0  0  0
  -40.8990 -100.4200 -163.6470 C   0  0  0  0  0
  -42.2100  -96.3780 -165.5170 N   0  0  0  0  0
  -42.1050  -94.9460 -165.2990 C   0  0  0  0  0
  -42.7460  -94.5200 -163.9910 C   0  0  0  0  0
  -43.3980  -95.3230 -163.3060 O   0  0  0  0  0
  -42.5860  -93.2390 -163.6200 N   0  0  0  0  0
  -43.2080  -92.7530 -162.3710 C   0  0  0  0  0
  -44.7480  -92.6330 -162.4340 C   0  0  0  0  0
  -45.2970  -92.5440 -163.5390 O   0  0  0  0  0
  -42.5420  -91.3960 -162.1600 C   0  0  0  0  0
  -42.1660  -90.9420 -163.5200 C   0  0  0  0  0
  -41.8360  -92.1730 -164.3090 C   0  0  0  0  0
  -45.4750  -92.6380 -161.2790 N   0  0  0  0  0
  -46.9490  -92.5670 -161.3330 C   0  0  0  0  0
  -47.4870  -91.2530 -161.8660 C   0  0  0  0  0
  -48.2424  -91.2839 -162.8739 O   0  0  0  0  0
  -47.3800  -92.7910 -159.8800 C   0  0  0  0  0
  -46.1960  -93.3650 -159.1990 C   0  0  0  0  0
  -45.0120  -92.7670 -159.8830 C   0  0  0  0  0
  -47.1867  -90.1600 -161.3157 O   0  0  0  0  0
  -11.9739 -118.7895 -186.8998 H   0  0  0  0  0
  -12.8360 -119.6104 -185.5754 H   0  0  0  0  0
  -13.5204 -119.6123 -187.2194 H   0  0  0  0  0
  -15.0678 -115.4612 -186.7226 H   0  0  0  0  0
  -16.5639 -115.9185 -188.5549 H   0  0  0  0  0
  -17.7290 -116.0769 -187.2878 H   0  0  0  0  0
  -17.3287 -118.1341 -188.9047 H   0  0  0  0  0
  -17.5477 -118.4386 -187.2180 H   0  0  0  0  0
  -15.4352 -119.4998 -187.5610 H   0  0  0  0  0
  -14.9609 -118.4072 -188.7937 H   0  0  0  0  0
  -16.4463 -115.4501 -182.6190 H   0  0  0  0  0
  -16.5359 -113.1341 -182.0772 H   0  0  0  0  0
  -17.8814 -112.8653 -183.1422 H   0  0  0  0  0
  -14.9201 -112.8134 -183.8097 H   0  0  0  0  0
  -16.1478 -111.7465 -184.3578 H   0  0  0  0  0
  -17.0252 -113.3354 -185.9396 H   0  0  0  0  0
  -15.3571 -113.6898 -186.0114 H   0  0  0  0  0
  -18.1738 -115.4609 -181.2505 H   0  0  0  0  0
  -20.2211 -116.2014 -180.6138 H   0  0  0  0  0
  -20.4354 -116.8547 -182.2944 H   0  0  0  0  0
  -23.3219 -113.7228 -183.1864 H   0  0  0  0  0
  -25.0340 -115.4603 -183.3530 H   0  0  0  0  0
  -25.7076 -114.5439 -182.0591 H   0  0  0  0  0
  -25.2182 -117.1129 -181.5958 H   0  0  0  0  0
  -24.7909 -116.0020 -180.3630 H   0  0  0  0  0
  -22.6586 -117.0350 -180.7370 H   0  0  0  0  0
  -22.9675 -117.3196 -182.3994 H   0  0  0  0  0
  -23.6587 -110.7440 -179.8106 H   0  0  0  0  0
  -24.9145 -108.9269 -180.6872 H   0  0  0  0  0
  -26.3006 -109.9222 -180.9777 H   0  0  0  0  0
  -23.8695 -109.5304 -182.7556 H   0  0  0  0  0
  -25.5285 -109.5446 -183.2149 H   0  0  0  0  0
  -25.7052 -111.9222 -183.0375 H   0  0  0  0  0
  -24.1049 -111.7545 -183.6086 H   0  0  0  0  0
  -24.6748 -110.7124 -177.8963 H   0  0  0  0  0
  -25.8490 -111.5838 -176.1652 H   0  0  0  0  0
  -26.1660 -113.0433 -177.2163 H   0  0  0  0  0
  -30.4039 -111.9798 -177.1779 H   0  0  0  0  0
  -31.4052 -112.9733 -175.1898 H   0  0  0  0  0
  -30.4288 -112.0138 -174.1254 H   0  0  0  0  0
  -29.6484 -114.5391 -175.5959 H   0  0  0  0  0
  -29.4661 -114.2003 -173.9409 H   0  0  0  0  0
  -27.7264 -112.5495 -174.3214 H   0  0  0  0  0
  -27.3555 -113.7516 -175.4659 H   0  0  0  0  0
  -31.9098 -110.3947 -176.9751 H   0  0  0  0  0
  -31.1214 -107.7017 -176.5607 H   0  0  0  0  0
  -33.8504 -108.9636 -176.1618 H   0  0  0  0  0
  -34.0643 -108.3224 -178.4071 H   0  0  0  0  0
  -33.8144 -106.7210 -175.2426 H   0  0  0  0  0
  -33.1361 -106.0836 -176.7608 H   0  0  0  0  0
  -34.7787 -106.7709 -176.7389 H   0  0  0  0  0
  -31.1439 -106.3537 -174.6950 H   0  0  0  0  0
  -31.1073 -105.8398 -172.4643 H   0  0  0  0  0
  -30.8589 -107.6146 -172.1519 H   0  0  0  0  0
  -35.0315 -107.7460 -170.6393 H   0  0  0  0  0
  -34.2551 -108.3584 -168.4348 H   0  0  0  0  0
  -34.9134 -106.8155 -168.0380 H   0  0  0  0  0
  -32.3137 -107.3399 -167.5771 H   0  0  0  0  0
  -32.8158 -105.7342 -168.0752 H   0  0  0  0  0
  -31.2895 -106.0993 -169.8083 H   0  0  0  0  0
  -31.3464 -107.8066 -169.6475 H   0  0  0  0  0
  -36.9223 -106.5512 -170.3930 H   0  0  0  0  0
  -36.9824 -103.9139 -171.4602 H   0  0  0  0  0
  -39.0160 -105.2276 -169.6380 H   0  0  0  0  0
  -38.8968 -105.4562 -171.4314 H   0  0  0  0  0
  -39.2788 -103.0598 -171.7184 H   0  0  0  0  0
  -39.5164 -102.9161 -169.9280 H   0  0  0  0  0
  -41.6277 -102.9762 -170.9575 H   0  0  0  0  0
  -41.3281 -104.5848 -170.1607 H   0  0  0  0  0
  -41.3445 -105.6060 -172.2397 H   0  0  0  0  0
  -41.2937 -102.0957 -172.6097 H   0  0  0  0  0
  -42.1570 -104.1625 -175.3280 H   0  0  0  0  0
  -42.0037 -105.6679 -174.4160 H   0  0  0  0  0
  -37.1808 -101.8701 -170.5117 H   0  0  0  0  0
  -36.6874 -100.2477 -168.9872 H   0  0  0  0  0
  -35.6786 -101.5030 -168.1188 H   0  0  0  0  0
  -38.7196 -101.3408 -164.8922 H   0  0  0  0  0
  -36.9536 -100.5347 -163.4316 H   0  0  0  0  0
  -38.0086  -99.1789 -163.3736 H   0  0  0  0  0
  -35.5340  -98.8061 -164.1692 H   0  0  0  0  0
  -36.8137  -97.9845 -165.0227 H   0  0  0  0  0
  -35.8139  -99.0782 -166.8481 H   0  0  0  0  0
  -35.2018 -100.3597 -165.8945 H   0  0  0  0  0
  -41.9611  -98.7380 -166.2032 H   0  0  0  0  0
  -43.7614  -99.4196 -164.8347 H   0  0  0  0  0
  -43.1316  -98.4898 -163.4886 H   0  0  0  0  0
  -42.7584 -101.3240 -164.1627 H   0  0  0  0  0
  -42.7498 -100.5240 -162.5963 H   0  0  0  0  0
  -40.4735 -100.0276 -162.7234 H   0  0  0  0  0
  -40.4596 -101.4144 -163.7255 H   0  0  0  0  0
  -42.8851  -96.7297 -166.1959 H   0  0  0  0  0
  -42.6232  -94.4390 -166.1129 H   0  0  0  0  0
  -41.0476  -94.6842 -165.2609 H   0  0  0  0  0
  -43.0556  -93.4534 -161.5498 H   0  0  0  0  0
  -41.6756  -91.4675 -161.5025 H   0  0  0  0  0
  -43.2093  -90.6892 -161.6667 H   0  0  0  0  0
  -41.3126  -90.2650 -163.4814 H   0  0  0  0  0
  -42.9828  -90.3900 -163.9849 H   0  0  0  0  0
  -42.1127  -92.0811 -165.3593 H   0  0  0  0  0
  -40.7648  -92.3719 -164.3419 H   0  0  0  0  0
  -47.3469  -93.3054 -162.0291 H   0  0  0  0  0
  -48.2393  -93.4587 -159.8170 H   0  0  0  0  0
  -47.6984  -91.8604 -159.4102 H   0  0  0  0  0
  -46.1869  -94.4530 -159.2641 H   0  0  0  0  0
  -46.1988  -93.1360 -158.1333 H   0  0  0  0  0
  -44.7043  -91.8164 -159.4474 H   0  0  0  0  0
  -44.1131  -93.3761 -159.7876 H   0  0  0  0  0
  -46.6072  -90.3276 -160.5689 H   0  0  0  0  0
  1  2  2  0  0  0
  1  3  1  0  0  0
  1  4  1  0  0  0
  4  5  1  0  0  0
  4 10  1  0  0  0
  5  6  1  0  0  0
  5  8  1  0  0  0
  6  7  2  0  0  0
  6 11  1  0  0  0
  8  9  1  0  0  0
  9 10  1  0  0  0
 11 12  1  0  0  0
 11 17  1  0  0  0
 12 13  1  0  0  0
 12 15  1  0  0  0
 13 14  2  0  0  0
 13 18  1  0  0  0
 15 16  1  0  0  0
 16 17  1  0  0  0
 18 19  1  0  0  0
 19 20  1  0  0  0
 20 21  2  0  0  0
 20 22  1  0  0  0
 22 23  1  0  0  0
 22 28  1  0  0  0
 23 24  1  0  0  0
 23 26  1  0  0  0
 24 25  2  0  0  0
 24 29  1  0  0  0
 26 27  1  0  0  0
 27 28  1  0  0  0
 29 30  1  0  0  0
 29 35  1  0  0  0
 30 31  1  0  0  0
 30 33  1  0  0  0
 31 32  2  0  0  0
 31 36  1  0  0  0
 33 34  1  0  0  0
 34 35  1  0  0  0
 36 37  1  0  0  0
 37 38  1  0  0  0
 38 39  2  0  0  0
 38 40  1  0  0  0
 40 41  1  0  0  0
 40 46  1  0  0  0
 41 42  1  0  0  0
 41 44  1  0  0  0
 42 43  2  0  0  0
 42 47  1  0  0  0
 44 45  1  0  0  0
 45 46  1  0  0  0
 47 48  1  0  0  0
 48 49  1  0  0  0
 48 51  1  0  0  0
 49 50  2  0  0  0
 49 54  1  0  0  0
 51 52  1  0  0  0
 51 53  1  0  0  0
 54 55  1  0  0  0
 55 56  1  0  0  0
 56 57  2  0  0  0
 56 58  1  0  0  0
 58 59  1  0  0  0
 58 64  1  0  0  0
 59 60  1  0  0  0
 59 62  1  0  0  0
 60 61  2  0  0  0
 60 65  1  0  0  0
 62 63  1  0  0  0
 63 64  1  0  0  0
 65 66  1  0  0  0
 66 67  1  0  0  0
 66 69  1  0  0  0
 67 68  2  0  0  0
 67 76  1  0  0  0
 69 70  1  0  0  0
 70 71  1  0  0  0
 71 72  1  0  0  0
 72 73  1  0  0  0
 73 74  2  0  0  0
 73 75  1  0  0  0
 76 77  1  0  0  0
 77 78  1  0  0  0
 78 79  2  0  0  0
 78 80  1  0  0  0
 80 81  1  0  0  0
 80 86  1  0  0  0
 81 82  1  0  0  0
 81 84  1  0  0  0
 82 83  2  0  0  0
 82 87  1  0  0  0
 84 85  1  0  0  0
 85 86  1  0  0  0
 87 88  1  0  0  0
 87 93  1  0  0  0
 88 89  1  0  0  0
 88 91  1  0  0  0
 89 90  2  0  0  0
 89 94  1  0  0  0
 91 92  1  0  0  0
 92 93  1  0  0  0
 94 95  1  0  0  0
 95 96  1  0  0  0
 96 97  2  0  0  0
 96 98  1  0  0  0
 98 99  1  0  0  0
 98104  1  0  0  0
 99100  1  0  0  0
 99102  1  0  0  0
100101  2  0  0  0
100105  1  0  0  0
102103  1  0  0  0
103104  1  0  0  0
105106  1  0  0  0
105111  1  0  0  0
106107  1  0  0  0
106109  1  0  0  0
107108  2  0  0  0
109110  1  0  0  0
110111  1  0  0  0
107112  1  0  0  0
  3113  1  0  0  0
  3114  1  0  0  0
  3115  1  0  0  0
  5116  1  0  0  0
  8117  1  0  0  0
  8118  1  0  0  0
  9119  1  0  0  0
  9120  1  0  0  0
 10121  1  0  0  0
 10122  1  0  0  0
 12123  1  0  0  0
 15124  1  0  0  0
 15125  1  0  0  0
 16126  1  0  0  0
 16127  1  0  0  0
 17128  1  0  0  0
 17129  1  0  0  0
 18130  1  0  0  0
 19131  1  0  0  0
 19132  1  0  0  0
 23133  1  0  0  0
 26134  1  0  0  0
 26135  1  0  0  0
 27136  1  0  0  0
 27137  1  0  0  0
 28138  1  0  0  0
 28139  1  0  0  0
 30140  1  0  0  0
 33141  1  0  0  0
 33142  1  0  0  0
 34143  1  0  0  0
 34144  1  0  0  0
 35145  1  0  0  0
 35146  1  0  0  0
 36147  1  0  0  0
 37148  1  0  0  0
 37149  1  0  0  0
 41150  1  0  0  0
 44151  1  0  0  0
 44152  1  0  0  0
 45153  1  0  0  0
 45154  1  0  0  0
 46155  1  0  0  0
 46156  1  0  0  0
 47157  1  0  0  0
 48158  1  0  0  0
 51159  1  0  0  0
 52160  1  0  0  0
 53161  1  0  0  0
 53162  1  0  0  0
 53163  1  0  0  0
 54164  1  0  0  0
 55165  1  0  0  0
 55166  1  0  0  0
 59167  1  0  0  0
 62168  1  0  0  0
 62169  1  0  0  0
 63170  1  0  0  0
 63171  1  0  0  0
 64172  1  0  0  0
 64173  1  0  0  0
 65174  1  0  0  0
 66175  1  0  0  0
 69176  1  0  0  0
 69177  1  0  0  0
 70178  1  0  0  0
 70179  1  0  0  0
 71180  1  0  0  0
 71181  1  0  0  0
 72182  1  0  0  0
 74183  1  0  0  0
 75184  1  0  0  0
 75185  1  0  0  0
 76186  1  0  0  0
 77187  1  0  0  0
 77188  1  0  0  0
 81189  1  0  0  0
 84190  1  0  0  0
 84191  1  0  0  0
 85192  1  0  0  0
 85193  1  0  0  0
 86194  1  0  0  0
 86195  1  0  0  0
 88196  1  0  0  0
 91197  1  0  0  0
 91198  1  0  0  0
 92199  1  0  0  0
 92200  1  0  0  0
 93201  1  0  0  0
 93202  1  0  0  0
 94203  1  0  0  0
 95204  1  0  0  0
 95205  1  0  0  0
 99206  1  0  0  0
102207  1  0  0  0
102208  1  0  0  0
103209  1  0  0  0
103210  1  0  0  0
104211  1  0  0  0
104212  1  0  0  0
106213  1  0  0  0
109214  1  0  0  0
109215  1  0  0  0
110216  1  0  0  0
110217  1  0  0  0
111218  1  0  0  0
111219  1  0  0  0
112220  1  0  0  0
M  END
$$$$
