2vjx_ligand
  -I-interpret- 

 22 22  0  0  0  0  0  0  0  0999 V2000
   27.4990   49.6760    0.1600 O   0  0  0  0  0
   27.8660   48.5600   -0.6650 C   0  0  0  0  0
   28.0820   47.3490    0.2770 C   0  0  0  0  0
   29.4370   47.3890    0.7070 O   0  0  0  0  0
   27.8500   45.9500   -0.3650 C   0  0  0  0  0
   27.4610   45.9060   -1.6550 N   0  0  0  0  0
   27.1430   47.0500   -2.5230 C   0  0  0  0  0
   26.7460   48.2780   -1.6720 C   0  0  0  0  0
   26.3930   49.5350   -2.5100 C   0  0  0  0  0
   27.4550   49.8620   -3.3990 O   0  0  0  0  0
   28.0350   44.9030    0.2690 O   0  0  0  0  0
   28.2016   49.8513    0.7902 H   0  0  0  0  0
   28.7762   48.7622   -1.2296 H   0  0  0  0  0
   27.3448   47.4477    1.0738 H   0  0  0  0  0
   29.6185   48.2411    1.1103 H   0  0  0  0  0
   27.3783   44.9798   -2.0741 H   0  0  0  0  0
   26.3086   46.7826   -3.1714 H   0  0  0  0  0
   28.0216   47.2993   -3.1179 H   0  0  0  0  0
   25.8229   48.0353   -1.1456 H   0  0  0  0  0
   26.2286   50.3741   -1.8340 H   0  0  0  0  0
   25.4960   49.3286   -3.0938 H   0  0  0  0  0
   27.2171   50.6410   -3.9071 H   0  0  0  0  0
  1  2  1  0  0  0
  2  3  1  0  0  0
  2  8  1  0  0  0
  3  4  1  0  0  0
  3  5  1  0  0  0
  5  6  1  0  0  0
  5 11  2  0  0  0
  6  7  1  0  0  0
  7  8  1  0  0  0
  8  9  1  0  0  0
  9 10  1  0  0  0
  1 12  1  0  0  0
  2 13  1  0  0  0
  3 14  1  0  0  0
  4 15  1  0  0  0
  6 16  1  0  0  0
  7 17  1  0  0  0
  7 18  1  0  0  0
  8 19  1  0  0  0
  9 20  1  0  0  0
  9 21  1  0  0  0
 10 22  1  0  0  0
M  END
$$$$
