2qky_ligand
  -I-interpret- 

 56 57  0  0  0  0  0  0  0  0999 V2000
   12.3960  -12.9530    7.0110 C   0  0  0  0  0
   12.8370  -11.6890    7.7730 C   0  0  0  0  0
   13.5750  -12.2040    8.9670 C   0  0  0  0  0
   12.9850  -13.5560    9.2720 C   0  0  0  0  0
   11.4750  -15.1570    7.9750 C   0  0  0  0  0
   11.3960  -16.0890    9.1800 C   0  0  0  0  0
   13.4140  -13.3240    5.8540 C   0  0  0  0  0
   12.2470  -13.9770    8.0790 N   0  0  0  0  0
   11.9760  -15.0840    4.6740 N   0  0  0  0  0
   12.2770  -16.1780    3.8770 N   0  0  0  0  0
   12.6780  -16.8180    9.3920 N   0  3  0  0  0
   13.1080  -14.5330    5.0090 C   0  0  0  0  0
   14.5040  -17.1990    3.0220 C   0  0  0  0  0
   14.8710  -12.2940    8.6340 F   0  0  0  0  0
   10.8510  -15.4600    6.9750 O   0  0  0  0  0
   14.6990  -13.5980    6.4210 O   0  0  0  0  0
   13.5990  -16.2210    3.7740 C   0  0  0  0  0
   14.1940  -15.2010    4.4730 O   0  0  0  0  0
   15.1630  -18.1860    4.0010 C   0  0  0  0  0
   15.5990  -16.4290    2.2710 C   0  0  0  0  0
   13.7000  -17.9990    1.9770 C   0  0  0  0  0
   12.7850  -18.3220    9.3060 C   0  0  0  0  0
   14.0450  -18.7420   10.0700 C   0  0  0  0  0
   11.5360  -18.9900    9.9260 C   0  0  0  0  0
   12.9280  -18.6890    7.8040 C   0  0  0  0  0
   10.4730  -19.0480    8.9930 O   0  0  0  0  0
   11.4597  -12.8376    6.4651 H   0  0  0  0  0
   11.9874  -11.0679    8.0567 H   0  0  0  0  0
   13.4607  -11.0402    7.1580 H   0  0  0  0  0
   13.4909  -11.5607    9.8429 H   0  0  0  0  0
   12.3240  -13.5032   10.1371 H   0  0  0  0  0
   13.7683  -14.2738    9.5155 H   0  0  0  0  0
   10.6087  -16.8208    8.9992 H   0  0  0  0  0
   11.1890  -15.4898   10.0667 H   0  0  0  0  0
   13.3535  -12.4507    5.2045 H   0  0  0  0  0
   12.9004  -16.6225   10.3681 H   0  0  0  0  0
   13.2610  -16.4968    8.6191 H   0  0  0  0  0
   14.9645  -12.8634    6.9790 H   0  0  0  0  0
   15.7624  -17.6329    4.7241 H   0  0  0  0  0
   14.3894  -18.7489    4.5232 H   0  0  0  0  0
   15.8025  -18.8730    3.4468 H   0  0  0  0  0
   15.1372  -15.7459    1.5581 H   0  0  0  0  0
   16.1970  -15.8619    2.9844 H   0  0  0  0  0
   16.2376  -17.1342    1.7391 H   0  0  0  0  0
   12.9139  -18.5629    2.4792 H   0  0  0  0  0
   13.2534  -17.3108    1.2594 H   0  0  0  0  0
   14.3664  -18.6868    1.4565 H   0  0  0  0  0
   14.9173  -18.2721    9.6158 H   0  0  0  0  0
   13.9604  -18.4256   11.1096 H   0  0  0  0  0
   14.1505  -19.8260   10.0262 H   0  0  0  0  0
   11.2148  -18.4001   10.7844 H   0  0  0  0  0
   11.7952  -20.0062   10.2231 H   0  0  0  0  0
   12.0523  -18.3353    7.2599 H   0  0  0  0  0
   13.8236  -18.2172    7.3997 H   0  0  0  0  0
   13.0082  -19.7712    7.7018 H   0  0  0  0  0
    9.7119  -19.4661    9.4023 H   0  0  0  0  0
  1  2  1  0  0  0
  7  1  1  0  0  0
  1  8  1  0  0  0
  2  3  1  0  0  0
  4  3  1  0  0  0
  3 14  1  0  0  0
  8  4  1  0  0  0
  5  6  1  0  0  0
  8  5  1  0  0  0
  5 15  2  0  0  0
  6 11  1  0  0  0
 12  7  1  0  0  0
  7 16  1  0  0  0
  9 10  4  0  0  0
  9 12  4  0  0  0
 10 17  4  0  0  0
 11 22  1  0  0  0
 12 18  4  0  0  0
 17 13  1  0  0  0
 13 19  1  0  0  0
 13 20  1  0  0  0
 13 21  1  0  0  0
 17 18  4  0  0  0
 22 23  1  0  0  0
 22 24  1  0  0  0
 22 25  1  0  0  0
 24 26  1  0  0  0
  1 27  1  0  0  0
  2 28  1  0  0  0
  2 29  1  0  0  0
  3 30  1  0  0  0
  4 31  1  0  0  0
  4 32  1  0  0  0
  6 33  1  0  0  0
  6 34  1  0  0  0
  7 35  1  0  0  0
 11 36  1  0  0  0
 11 37  1  0  0  0
 16 38  1  0  0  0
 19 39  1  0  0  0
 19 40  1  0  0  0
 19 41  1  0  0  0
 20 42  1  0  0  0
 20 43  1  0  0  0
 20 44  1  0  0  0
 21 45  1  0  0  0
 21 46  1  0  0  0
 21 47  1  0  0  0
 23 48  1  0  0  0
 23 49  1  0  0  0
 23 50  1  0  0  0
 24 51  1  0  0  0
 24 52  1  0  0  0
 25 53  1  0  0  0
 25 54  1  0  0  0
 25 55  1  0  0  0
 26 56  1  0  0  0
M  END
$$$$
