### 
### Created by X-TOOL on Mon Sep 10 21:13:19 2018
### 

@<TRIPOS>MOLECULE
4tk1_ligand
  175   177     1     0     0
SMALL
GAST_HUCK


@<TRIPOS>ATOM
      1 N         -23.3710   22.2080  -27.2720 N.4       1 PHE         0.2394
      2 CA        -24.0610   21.2880  -26.3190 C.3       1 PHE         0.0744
      3 C         -23.2490   20.0160  -26.0660 C.2       1 PHE         0.2289
      4 O         -22.8380   19.3290  -26.9860 O.2       1 PHE        -0.3905
      5 CB        -25.4540   20.9030  -26.8340 C.3       1 PHE         0.0416
      6 CG        -26.1440   19.8770  -25.9820 C.ar      1 PHE        -0.0353
      7 CD1       -26.7650   20.2460  -24.7960 C.ar      1 PHE        -0.0600
      8 CD2       -26.1410   18.5370  -26.3480 C.ar      1 PHE        -0.0600
      9 CE1       -27.3790   19.3000  -23.9920 C.ar      1 PHE        -0.0686
     10 CE2       -26.7520   17.5860  -25.5500 C.ar      1 PHE        -0.0686
     11 CZ        -27.3740   17.9670  -24.3710 C.ar      1 PHE        -0.0687
     12 N         -23.0730   19.6920  -24.7970 N.am      1 ASN        -0.2587
     13 CA        -22.2820   18.5480  -24.3880 C.3       1 ASN         0.1477
     14 C         -23.0500   17.7200  -23.3380 C.2       1 ASN         0.2063
     15 O         -23.3060   18.2060  -22.2230 O.2       1 ASN        -0.3942
     16 CB        -20.9080   19.0180  -23.8480 C.3       1 ASN         0.0773
     17 CG        -21.0180   20.1240  -22.7780 C.2       1 ASN         0.1780
     18 OD1       -21.1990   21.3050  -23.1000 O.2       1 ASN        -0.3970
     19 ND2       -20.8930   19.7410  -21.5030 N.am      1 ASN        -0.3007
     20 N         -23.4290   16.4870  -23.6810 N.am      1 ILE        -0.2633
     21 CA        -24.0520   15.6250  -22.6930 C.3       1 ILE         0.1335
     22 C         -23.0520   15.0750  -21.6810 C.2       1 ILE         0.2042
     23 O         -23.4140   14.8420  -20.5450 O.2       1 ILE        -0.3944
     24 CB        -24.8520   14.4750  -23.3180 C.3       1 ILE        -0.0037
     25 CG1       -25.9310   13.9740  -22.3390 C.3       1 ILE        -0.0491
     26 CG2       -23.9360   13.3420  -23.7490 C.3       1 ILE        -0.0582
     27 CD1       -27.0980   14.9190  -22.1640 C.3       1 ILE        -0.0648
     28 N         -21.8050   14.8390  -22.0580 N.am      1 VAL        -0.2635
     29 CA        -20.8470   14.4600  -21.0280 C.3       1 VAL         0.1332
     30 C         -20.2810   15.7560  -20.4610 C.2       1 VAL         0.2039
     31 O         -20.0270   16.7070  -21.2040 O.2       1 VAL        -0.3944
     32 CB        -19.7490   13.4740  -21.4970 C.3       1 VAL        -0.0063
     33 CG1       -20.3560   12.3060  -22.2500 C.3       1 VAL        -0.0584
     34 CG2       -18.6840   14.1620  -22.3390 C.3       1 VAL        -0.0584
     35 N         -20.1140   15.8000  -19.1450 N.am      1 GLY        -0.2664
     36 CA        -19.6640   17.0130  -18.4840 C.3       1 GLY         0.1201
     37 C         -18.1870   17.3080  -18.6760 C.2       1 GLY         0.2008
     38 O         -17.3880   16.4080  -18.9610 O.2       1 GLY        -0.3947
     39 N         -17.8210   18.5740  -18.5110 N.am      1 THR        -0.2616
     40 CA        -16.4530   18.9890  -18.7420 C.3       1 THR         0.1565
     41 C         -15.8910   19.7380  -17.5630 C.2       1 THR         0.2065
     42 O         -16.6070   20.1700  -16.6620 O.2       1 THR        -0.3943
     43 CB        -16.3320   19.9160  -19.9640 C.3       1 THR         0.0924
     44 OG1       -17.0150   21.1430  -19.7070 O.3       1 THR        -0.3874
     45 CG2       -16.9360   19.2810  -21.1740 C.3       1 THR        -0.0346
     46 N         -14.5710   19.8300  -17.5860 N.am      1 THR        -0.2613
     47 CA        -13.8080   20.8170  -16.8560 C.3       1 THR         0.1565
     48 C         -12.7050   21.2350  -17.8250 C.2       1 THR         0.2066
     49 O         -12.4660   20.5560  -18.8180 O.2       1 THR        -0.3943
     50 CB        -13.2200   20.2360  -15.5590 C.3       1 THR         0.0924
     51 OG1       -12.4030   19.0940  -15.8600 O.3       1 THR        -0.3874
     52 CG2       -14.3500   19.8070  -14.6140 C.3       1 THR        -0.0346
     53 N         -12.0630   22.3640  -17.5680 N.am      1 TYR        -0.2620
     54 CA        -10.8970   22.7510  -18.3380 C.3       1 TYR         0.1392
     55 C         -10.0520   23.6880  -17.4950 C.2       1 TYR         0.2082
     56 O         -10.5930   24.5590  -16.8070 O.2       1 TYR        -0.3940
     57 CB        -11.3130   23.4170  -19.6400 C.3       1 TYR         0.0164
     58 CG        -10.2160   23.4640  -20.6780 C.ar      1 TYR        -0.0493
     59 CD1        -9.2430   24.4730  -20.6580 C.ar      1 TYR        -0.0685
     60 CD2       -10.1470   22.5020  -21.6850 C.ar      1 TYR        -0.0685
     61 CE1        -8.2390   24.5220  -21.6180 C.ar      1 TYR        -0.0398
     62 CE2        -9.1560   22.5440  -22.6510 C.ar      1 TYR        -0.0398
     63 CZ         -8.2060   23.5490  -22.6190 C.ar      1 TYR         0.0805
     64 OH         -7.2300   23.5740  -23.5850 O.3       1 TYR        -0.3376
     65 N          -8.7200   23.5140  -17.5240 N.am      1 PRO        -0.2497
     66 CA         -7.9210   24.3100  -16.5860 C.3       1 PRO         0.1338
     67 C          -7.8430   25.8040  -16.9420 C.2       1 PRO         0.2041
     68 O          -8.0240   26.1810  -18.1040 O.2       1 PRO        -0.3944
     69 CB         -6.5320   23.6450  -16.6490 C.3       1 PRO        -0.0104
     70 CG         -6.7540   22.3100  -17.2990 C.3       1 PRO        -0.0281
     71 CD         -7.8840   22.5430  -18.2550 C.3       1 PRO         0.0369
     72 N          -7.5970   26.6280  -15.9180 N.am      1 ILE        -0.2635
     73 CA         -7.3510   28.0680  -16.0770 C.3       1 ILE         0.1335
     74 C          -5.9910   28.5300  -15.5030 C.2       1 ILE         0.2037
     75 O          -5.5760   29.6550  -15.7680 O.2       1 ILE        -0.3944
     76 CB         -8.5180   28.8920  -15.4820 C.3       1 ILE        -0.0037
     77 CG1        -8.5900   28.7700  -13.9490 C.3       1 ILE        -0.0491
     78 CG2        -9.8410   28.4400  -16.0870 C.3       1 ILE        -0.0582
     79 CD1        -7.8550   29.8570  -13.1860 C.3       1 ILE        -0.0648
     80 N          -5.3070   27.6470  -14.7580 N.am      1 ASN        -0.2674
     81 CA         -4.0330   27.9140  -14.0200 C.3       1 ASN         0.1110
     82 C          -3.8460   29.2810  -13.3290 C.2       1 ASN         0.0624
     83 O          -2.9100   30.0490  -13.5710 O.co2     1 ASN        -0.5665
     84 CB         -2.8160   27.5860  -14.8970 C.3       1 ASN         0.0718
     85 CG         -2.5590   26.0910  -15.0070 C.2       1 ASN         0.1774
     86 OD1        -3.4770   25.2970  -15.2600 O.2       1 ASN        -0.3971
     87 ND2        -1.3020   25.6970  -14.8210 N.am      1 ASN        -0.3007
     88 OXT        -4.6230   29.6520  -12.4580 O.co2     1 ASN        -0.5665
     89 H         -23.9354   23.0313  -27.4124 H         1 PHE         0.2017
     90 H         -23.2361   21.7388  -28.1539 H         1 PHE         0.2017
     91 H         -22.4759   22.4749  -26.8929 H         1 PHE         0.2017
     92 H         -24.1784   21.8182  -25.3624 H         1 PHE         0.1122
     93 H         -25.3496   20.4978  -27.8513 H         1 PHE         0.0507
     94 H         -26.0776   21.8087  -26.8622 H         1 PHE         0.0507
     95 H         -26.7693   21.2876  -24.4957 H         1 PHE         0.0557
     96 H         -25.6550   18.2333  -27.2681 H         1 PHE         0.0557
     97 H         -27.8618   19.6013  -23.0694 H         1 PHE         0.0599
     98 H         -26.7443   16.5434  -25.8466 H         1 PHE         0.0599
     99 H         -27.8557   17.2233  -23.7465 H         1 PHE         0.0559
    100 H         -23.5016   20.2573  -24.0922 H         1 ASN         0.1886
    101 H         -22.1069   17.9113  -25.2677 H         1 ASN         0.0826
    102 H         -20.3158   19.4050  -24.6903 H         1 ASN         0.0551
    103 H         -20.3930   18.1532  -23.4043 H         1 ASN         0.0551
    104 H         -20.9561   20.4175  -20.7692 H         1 ASN         0.1814
    105 H         -20.7364   18.7781  -21.2832 H         1 ASN         0.1814
    106 H         -23.2844   16.1585  -24.6144 H         1 ILE         0.1883
    107 H         -24.7660   16.2502  -22.1369 H         1 ILE         0.0803
    108 H         -25.3585   14.8605  -24.2151 H         1 ILE         0.0345
    109 H         -25.4608   13.8214  -21.3564 H         1 ILE         0.0267
    110 H         -26.3175   13.0147  -22.7135 H         1 ILE         0.0267
    111 H         -23.1777   13.7285  -24.4459 H         1 ILE         0.0235
    112 H         -24.5285   12.5611  -24.2481 H         1 ILE         0.0235
    113 H         -23.4386   12.9162  -22.8651 H         1 ILE         0.0235
    114 H         -27.8169   14.4861  -21.4528 H         1 ILE         0.0230
    115 H         -27.5915   15.0759  -23.1345 H         1 ILE         0.0230
    116 H         -26.7348   15.8826  -21.7773 H         1 ILE         0.0230
    117 H         -21.5303   14.9181  -23.0163 H         1 VAL         0.1883
    118 H         -21.4017   13.9507  -20.2262 H         1 VAL         0.0802
    119 H         -19.2557   13.0752  -20.5983 H         1 VAL         0.0343
    120 H         -19.5568   11.6219  -22.5715 H         1 VAL         0.0234
    121 H         -20.8960   12.6795  -23.1326 H         1 VAL         0.0234
    122 H         -21.0554   11.7693  -21.5922 H         1 VAL         0.0234
    123 H         -18.2579   15.0045  -21.7745 H         1 VAL         0.0234
    124 H         -19.1368   14.5356  -23.2692 H         1 VAL         0.0234
    125 H         -17.8875   13.4432  -22.5818 H         1 VAL         0.0234
    126 H         -20.3013   14.9836  -18.5987 H         1 GLY         0.1881
    127 H         -19.8596   16.9128  -17.4062 H         1 GLY         0.0763
    128 H         -20.2409   17.8597  -18.8843 H         1 GLY         0.0763
    129 H         -18.4995   19.2500  -18.2233 H         1 THR         0.1884
    130 H         -15.8476   18.0871  -18.9157 H         1 THR         0.0826
    131 H         -15.2683   20.1211  -20.1546 H         1 THR         0.0639
    132 H         -17.9323   20.9639  -19.5366 H         1 THR         0.2101
    133 H         -16.8376   19.9612  -22.0328 H         1 THR         0.0257
    134 H         -18.0008   19.0769  -20.9881 H         1 THR         0.0257
    135 H         -16.4143   18.3374  -21.3920 H         1 THR         0.0257
    136 H         -14.0675   19.1723  -18.1462 H         1 THR         0.1884
    137 H         -14.4429   21.6793  -16.6042 H         1 THR         0.0826
    138 H         -12.6055   21.0038  -15.0662 H         1 THR         0.0639
    139 H         -12.0441   18.7416  -15.0541 H         1 THR         0.2101
    140 H         -13.9185   19.3934  -13.6906 H         1 THR         0.0257
    141 H         -14.9678   19.0408  -15.1052 H         1 THR         0.0257
    142 H         -14.9738   20.6792  -14.3686 H         1 THR         0.0257
    143 H         -12.3870   22.9585  -16.8321 H         1 TYR         0.1885
    144 H         -10.3081   21.8528  -18.5755 H         1 TYR         0.0821
    145 H         -11.6249   24.4482  -19.4180 H         1 TYR         0.0453
    146 H         -12.1633   22.8589  -20.0590 H         1 TYR         0.0453
    147 H          -9.2741   25.2278  -19.8806 H         1 TYR         0.0530
    148 H         -10.8829   21.7065  -21.7121 H         1 TYR         0.0530
    149 H          -7.4908   25.3059  -21.5899 H         1 TYR         0.0525
    150 H          -9.1247   21.7913  -23.4304 H         1 TYR         0.0525
    151 H          -6.6552   24.3151  -23.4337 H         1 TYR         0.2458
    152 H          -8.3403   24.2206  -15.5730 H         1 PRO         0.0802
    153 H          -6.1216   23.5158  -15.6366 H         1 PRO         0.0313
    154 H          -5.8411   24.2546  -17.2498 H         1 PRO         0.0313
    155 H          -7.0284   21.5531  -16.5494 H         1 PRO         0.0287
    156 H          -5.8511   21.9838  -17.8360 H         1 PRO         0.0287
    157 H          -7.5219   22.9644  -19.2044 H         1 PRO         0.0524
    158 H          -8.4358   21.6124  -18.4536 H         1 PRO         0.0524
    159 H          -7.5795   26.2438  -14.9949 H         1 ILE         0.1883
    160 H          -7.3247   28.2700  -17.1580 H         1 ILE         0.0803
    161 H          -8.3563   29.9496  -15.7375 H         1 ILE         0.0345
    162 H          -8.1578   27.7998  -13.6628 H         1 ILE         0.0267
    163 H          -9.6490   28.8013  -13.6531 H         1 ILE         0.0267
    164 H          -9.7917   28.5264  -17.1825 H         1 ILE         0.0235
    165 H         -10.6545   29.0745  -15.7054 H         1 ILE         0.0235
    166 H         -10.0321   27.3927  -15.8100 H         1 ILE         0.0235
    167 H          -7.9641   29.6841  -12.1052 H         1 ILE         0.0230
    168 H          -8.2797   30.8381  -13.4451 H         1 ILE         0.0230
    169 H          -6.7885   29.8366  -13.4547 H         1 ILE         0.0230
    170 H          -5.6847   26.7236  -14.6899 H         1 ASN         0.1877
    171 H          -4.0284   27.1824  -13.1986 H         1 ASN         0.0752
    172 H          -1.9275   28.0647  -14.4596 H         1 ASN         0.0544
    173 H          -2.9902   27.9884  -15.9058 H         1 ASN         0.0544
    174 H          -1.0682   24.7265  -14.8803 H         1 ASN         0.1814
    175 H          -0.5909   26.3713  -14.6219 H         1 ASN         0.1814
@<TRIPOS>BOND
     1    1    2 1  
     2    2    3 1  
     3    2    5 1  
     4    3    4 2  
     5    3   12 am 
     6    5    6 1  
     7    6    7 ar 
     8    6    8 ar 
     9    7    9 ar 
    10    8   10 ar 
    11    9   11 ar 
    12   10   11 ar 
    13   12   13 1  
    14   13   14 1  
    15   13   16 1  
    16   14   15 2  
    17   14   20 am 
    18   16   17 1  
    19   17   18 2  
    20   17   19 am 
    21   20   21 1  
    22   21   22 1  
    23   21   24 1  
    24   22   23 2  
    25   22   28 am 
    26   24   25 1  
    27   24   26 1  
    28   25   27 1  
    29   28   29 1  
    30   29   30 1  
    31   29   32 1  
    32   30   31 2  
    33   30   35 am 
    34   32   33 1  
    35   32   34 1  
    36   35   36 1  
    37   36   37 1  
    38   37   38 2  
    39   37   39 am 
    40   39   40 1  
    41   40   41 1  
    42   40   43 1  
    43   41   42 2  
    44   41   46 am 
    45   43   44 1  
    46   43   45 1  
    47   46   47 1  
    48   47   48 1  
    49   47   50 1  
    50   48   49 2  
    51   48   53 am 
    52   50   51 1  
    53   50   52 1  
    54   53   54 1  
    55   54   55 1  
    56   54   57 1  
    57   55   56 2  
    58   55   65 am 
    59   57   58 1  
    60   58   59 ar 
    61   58   60 ar 
    62   59   61 ar 
    63   60   62 ar 
    64   61   63 ar 
    65   62   63 ar 
    66   63   64 1  
    67   65   66 1  
    68   65   71 1  
    69   66   67 1  
    70   66   69 1  
    71   67   68 2  
    72   67   72 am 
    73   69   70 1  
    74   70   71 1  
    75   72   73 1  
    76   73   74 1  
    77   73   76 1  
    78   74   75 2  
    79   74   80 am 
    80   76   77 1  
    81   76   78 1  
    82   77   79 1  
    83   80   81 1  
    84   81   82 1  
    85   81   84 1  
    86   82   83 ar 
    87   82   88 ar 
    88   84   85 1  
    89   85   86 2  
    90   85   87 am 
    91    1   89 1  
    92    1   90 1  
    93    1   91 1  
    94    2   92 1  
    95    5   93 1  
    96    5   94 1  
    97    7   95 1  
    98    8   96 1  
    99    9   97 1  
   100   10   98 1  
   101   11   99 1  
   102   12  100 1  
   103   13  101 1  
   104   16  102 1  
   105   16  103 1  
   106   19  104 1  
   107   19  105 1  
   108   20  106 1  
   109   21  107 1  
   110   24  108 1  
   111   25  109 1  
   112   25  110 1  
   113   26  111 1  
   114   26  112 1  
   115   26  113 1  
   116   27  114 1  
   117   27  115 1  
   118   27  116 1  
   119   28  117 1  
   120   29  118 1  
   121   32  119 1  
   122   33  120 1  
   123   33  121 1  
   124   33  122 1  
   125   34  123 1  
   126   34  124 1  
   127   34  125 1  
   128   35  126 1  
   129   36  127 1  
   130   36  128 1  
   131   39  129 1  
   132   40  130 1  
   133   43  131 1  
   134   44  132 1  
   135   45  133 1  
   136   45  134 1  
   137   45  135 1  
   138   46  136 1  
   139   47  137 1  
   140   50  138 1  
   141   51  139 1  
   142   52  140 1  
   143   52  141 1  
   144   52  142 1  
   145   53  143 1  
   146   54  144 1  
   147   57  145 1  
   148   57  146 1  
   149   59  147 1  
   150   60  148 1  
   151   61  149 1  
   152   62  150 1  
   153   64  151 1  
   154   66  152 1  
   155   69  153 1  
   156   69  154 1  
   157   70  155 1  
   158   70  156 1  
   159   71  157 1  
   160   71  158 1  
   161   72  159 1  
   162   73  160 1  
   163   76  161 1  
   164   77  162 1  
   165   77  163 1  
   166   78  164 1  
   167   78  165 1  
   168   78  166 1  
   169   79  167 1  
   170   79  168 1  
   171   79  169 1  
   172   80  170 1  
   173   81  171 1  
   174   84  172 1  
   175   84  173 1  
   176   87  174 1  
   177   87  175 1  
@<TRIPOS>SUBSTRUCTURE
     1 PHE         1

