4tk1_ligand
  -I-interpret- 

176178  0  0  0  0  0  0  0  0999 V2000
  -23.3710   22.2080  -27.2720 N   0  3  0  0  0
  -24.0610   21.2880  -26.3190 C   0  0  0  0  0
  -23.2490   20.0160  -26.0660 C   0  0  0  0  0
  -22.8380   19.3290  -26.9860 O   0  0  0  0  0
  -25.4540   20.9030  -26.8340 C   0  0  0  0  0
  -26.1440   19.8770  -25.9820 C   0  0  0  0  0
  -26.7650   20.2460  -24.7960 C   0  0  0  0  0
  -26.1410   18.5370  -26.3480 C   0  0  0  0  0
  -27.3790   19.3000  -23.9920 C   0  0  0  0  0
  -26.7520   17.5860  -25.5500 C   0  0  0  0  0
  -27.3740   17.9670  -24.3710 C   0  0  0  0  0
  -23.0730   19.6920  -24.7970 N   0  0  0  0  0
  -22.2820   18.5480  -24.3880 C   0  0  0  0  0
  -23.0500   17.7200  -23.3380 C   0  0  0  0  0
  -23.3060   18.2060  -22.2230 O   0  0  0  0  0
  -20.9080   19.0180  -23.8480 C   0  0  0  0  0
  -21.0180   20.1240  -22.7780 C   0  0  0  0  0
  -21.1990   21.3050  -23.1000 O   0  0  0  0  0
  -20.8930   19.7410  -21.5030 N   0  0  0  0  0
  -23.4290   16.4870  -23.6810 N   0  0  0  0  0
  -24.0520   15.6250  -22.6930 C   0  0  0  0  0
  -23.0520   15.0750  -21.6810 C   0  0  0  0  0
  -23.4140   14.8420  -20.5450 O   0  0  0  0  0
  -24.8520   14.4750  -23.3180 C   0  0  0  0  0
  -25.9310   13.9740  -22.3390 C   0  0  0  0  0
  -23.9360   13.3420  -23.7490 C   0  0  0  0  0
  -27.0980   14.9190  -22.1640 C   0  0  0  0  0
  -21.8050   14.8390  -22.0580 N   0  0  0  0  0
  -20.8470   14.4600  -21.0280 C   0  0  0  0  0
  -20.2810   15.7560  -20.4610 C   0  0  0  0  0
  -20.0270   16.7070  -21.2040 O   0  0  0  0  0
  -19.7490   13.4740  -21.4970 C   0  0  0  0  0
  -20.3560   12.3060  -22.2500 C   0  0  0  0  0
  -18.6840   14.1620  -22.3390 C   0  0  0  0  0
  -20.1140   15.8000  -19.1450 N   0  0  0  0  0
  -19.6640   17.0130  -18.4840 C   0  0  0  0  0
  -18.1870   17.3080  -18.6760 C   0  0  0  0  0
  -17.3880   16.4080  -18.9610 O   0  0  0  0  0
  -17.8210   18.5740  -18.5110 N   0  0  0  0  0
  -16.4530   18.9890  -18.7420 C   0  0  0  0  0
  -15.8910   19.7380  -17.5630 C   0  0  0  0  0
  -16.6070   20.1700  -16.6620 O   0  0  0  0  0
  -16.3320   19.9160  -19.9640 C   0  0  0  0  0
  -17.0150   21.1430  -19.7070 O   0  0  0  0  0
  -16.9360   19.2810  -21.1740 C   0  0  0  0  0
  -14.5710   19.8300  -17.5860 N   0  0  0  0  0
  -13.8080   20.8170  -16.8560 C   0  0  0  0  0
  -12.7050   21.2350  -17.8250 C   0  0  0  0  0
  -12.4660   20.5560  -18.8180 O   0  0  0  0  0
  -13.2200   20.2360  -15.5590 C   0  0  0  0  0
  -12.4030   19.0940  -15.8600 O   0  0  0  0  0
  -14.3500   19.8070  -14.6140 C   0  0  0  0  0
  -12.0630   22.3640  -17.5680 N   0  0  0  0  0
  -10.8970   22.7510  -18.3380 C   0  0  0  0  0
  -10.0520   23.6880  -17.4950 C   0  0  0  0  0
  -10.5930   24.5590  -16.8070 O   0  0  0  0  0
  -11.3130   23.4170  -19.6400 C   0  0  0  0  0
  -10.2160   23.4640  -20.6780 C   0  0  0  0  0
   -9.2430   24.4730  -20.6580 C   0  0  0  0  0
  -10.1470   22.5020  -21.6850 C   0  0  0  0  0
   -8.2390   24.5220  -21.6180 C   0  0  0  0  0
   -9.1560   22.5440  -22.6510 C   0  0  0  0  0
   -8.2060   23.5490  -22.6190 C   0  0  0  0  0
   -7.2300   23.5740  -23.5850 O   0  0  0  0  0
   -8.7200   23.5140  -17.5240 N   0  0  0  0  0
   -7.9210   24.3100  -16.5860 C   0  0  0  0  0
   -7.8430   25.8040  -16.9420 C   0  0  0  0  0
   -8.0240   26.1810  -18.1040 O   0  0  0  0  0
   -6.5320   23.6450  -16.6490 C   0  0  0  0  0
   -6.7540   22.3100  -17.2990 C   0  0  0  0  0
   -7.8840   22.5430  -18.2550 C   0  0  0  0  0
   -7.5970   26.6280  -15.9180 N   0  0  0  0  0
   -7.3510   28.0680  -16.0770 C   0  0  0  0  0
   -5.9910   28.5300  -15.5030 C   0  0  0  0  0
   -5.5760   29.6550  -15.7680 O   0  0  0  0  0
   -8.5180   28.8920  -15.4820 C   0  0  0  0  0
   -8.5900   28.7700  -13.9490 C   0  0  0  0  0
   -9.8410   28.4400  -16.0870 C   0  0  0  0  0
   -7.8550   29.8570  -13.1860 C   0  0  0  0  0
   -5.3070   27.6470  -14.7580 N   0  0  0  0  0
   -4.0330   27.9140  -14.0200 C   0  0  0  0  0
   -3.8460   29.2810  -13.3290 C   0  0  0  0  0
   -2.9100   30.0490  -13.5710 O   0  0  0  0  0
   -2.8160   27.5860  -14.8970 C   0  0  0  0  0
   -2.5590   26.0910  -15.0070 C   0  0  0  0  0
   -3.4770   25.2970  -15.2600 O   0  0  0  0  0
   -1.3020   25.6970  -14.8210 N   0  0  0  0  0
   -4.6230   29.6520  -12.4580 O   0  0  0  0  0
  -22.4497   22.4469  -26.9053 H   0  0  0  0  0
  -23.2693   21.7458  -28.1755 H   0  0  0  0  0
  -23.9245   23.0574  -27.3837 H   0  0  0  0  0
  -24.1595   21.8304  -25.3787 H   0  0  0  0  0
  -25.3290   20.4735  -27.8280 H   0  0  0  0  0
  -26.0677   21.8037  -26.8244 H   0  0  0  0  0
  -26.7693   21.2933  -24.4940 H   0  0  0  0  0
  -25.6524   18.2316  -27.2732 H   0  0  0  0  0
  -27.8645   19.6029  -23.0643 H   0  0  0  0  0
  -26.7443   16.5376  -25.8482 H   0  0  0  0  0
  -27.8584   17.2192  -23.7431 H   0  0  0  0  0
  -23.5102   20.2686  -24.0781 H   0  0  0  0  0
  -22.1010   17.9068  -25.2506 H   0  0  0  0  0
  -20.3467   19.4272  -24.6880 H   0  0  0  0  0
  -20.4250   18.1580  -23.3841 H   0  0  0  0  0
  -20.9460   20.4326  -20.7552 H   0  0  0  0  0
  -20.7447   18.7572  -21.2782 H   0  0  0  0  0
  -23.2815   16.1519  -24.6330 H   0  0  0  0  0
  -24.7543   16.2689  -22.1636 H   0  0  0  0  0
  -25.3506   14.8527  -24.2107 H   0  0  0  0  0
  -25.4553   13.8673  -21.3641 H   0  0  0  0  0
  -26.3287   13.0449  -22.7475 H   0  0  0  0  0
  -23.2237   13.7127  -24.4860 H   0  0  0  0  0
  -23.3977   12.9615  -22.8809 H   0  0  0  0  0
  -24.5318   12.5418  -24.1881 H   0  0  0  0  0
  -26.7368   15.8734  -21.7809 H   0  0  0  0  0
  -27.5861   15.0736  -23.1263 H   0  0  0  0  0
  -27.8096   14.4890  -21.4591 H   0  0  0  0  0
  -21.5248   14.9197  -23.0354 H   0  0  0  0  0
  -21.3592   13.8860  -20.2557 H   0  0  0  0  0
  -19.2581   13.0922  -20.6019 H   0  0  0  0  0
  -21.0488   11.7751  -21.5971 H   0  0  0  0  0
  -20.8908   12.6774  -23.1242 H   0  0  0  0  0
  -19.5632   11.6289  -22.5680 H   0  0  0  0  0
  -19.1481   14.5999  -23.2227 H   0  0  0  0  0
  -18.2081   14.9464  -21.7505 H   0  0  0  0  0
  -17.9358   13.4307  -22.6446 H   0  0  0  0  0
  -20.3050   14.9673  -18.5878 H   0  0  0  0  0
  -19.8314   16.8804  -17.4151 H   0  0  0  0  0
  -20.2193   17.8439  -18.9191 H   0  0  0  0  0
  -18.5130   19.2635  -18.2175 H   0  0  0  0  0
  -15.8950   18.0679  -18.9100 H   0  0  0  0  0
  -15.2732   20.1011  -20.1450 H   0  0  0  0  0
  -16.9367   21.7178  -20.4719 H   0  0  0  0  0
  -16.4183   18.3462  -21.3889 H   0  0  0  0  0
  -17.9910   19.0792  -20.9885 H   0  0  0  0  0
  -16.8378   19.9559  -22.0242 H   0  0  0  0  0
  -14.0574   19.1591  -18.1574 H   0  0  0  0  0
  -14.4247   21.6580  -16.5390 H   0  0  0  0  0
  -12.6143   21.0038  -15.0777 H   0  0  0  0  0
  -12.0403   18.7379  -15.0456 H   0  0  0  0  0
  -14.9673   20.6720  -14.3717 H   0  0  0  0  0
  -14.9614   19.0479  -15.1019 H   0  0  0  0  0
  -13.9212   19.3974  -13.6994 H   0  0  0  0  0
  -12.3935   22.9704  -16.8174 H   0  0  0  0  0
  -10.3133   21.8674  -18.5960 H   0  0  0  0  0
  -11.5841   24.4466  -19.4065 H   0  0  0  0  0
  -12.1314   22.8309  -20.0581 H   0  0  0  0  0
   -9.2743   25.2320  -19.8763 H   0  0  0  0  0
  -10.8869   21.7021  -21.7122 H   0  0  0  0  0
   -7.4867   25.3102  -21.5898 H   0  0  0  0  0
   -9.1245   21.7871  -23.4347 H   0  0  0  0  0
   -7.3584   22.8374  -24.1871 H   0  0  0  0  0
   -8.3655   24.3128  -15.5908 H   0  0  0  0  0
   -6.0958   23.5375  -15.6559 H   0  0  0  0  0
   -5.8247   24.2514  -17.2148 H   0  0  0  0  0
   -6.9882   21.5341  -16.5702 H   0  0  0  0  0
   -5.8589   21.9472  -17.8043 H   0  0  0  0  0
   -7.5542   22.9081  -19.2276 H   0  0  0  0  0
   -8.4181   21.6299  -18.5179 H   0  0  0  0  0
   -7.5792   26.2362  -14.9764 H   0  0  0  0  0
   -7.2985   28.2528  -17.1499 H   0  0  0  0  0
   -8.3326   29.9375  -15.7284 H   0  0  0  0  0
   -8.1166   27.8242  -13.6852 H   0  0  0  0  0
   -9.6421   28.8488  -13.6753 H   0  0  0  0  0
   -9.8139   28.5858  -17.1669 H   0  0  0  0  0
   -9.9986   27.3845  -15.8654 H   0  0  0  0  0
  -10.6538   29.0275  -15.6601 H   0  0  0  0  0
   -6.7985   29.8357  -13.4532 H   0  0  0  0  0
   -8.2767   30.8285  -13.4436 H   0  0  0  0  0
   -7.9639   29.6846  -12.1152 H   0  0  0  0  0
   -5.6922   26.7051  -14.6885 H   0  0  0  0  0
   -4.1188   27.2347  -13.1719 H   0  0  0  0  0
   -2.3601   29.6735  -14.2625 H   0  0  0  0  0
   -1.9395   28.0438  -14.4385 H   0  0  0  0  0
   -3.0128   27.9668  -15.8992 H   0  0  0  0  0
   -1.0630   24.7074  -14.8847 H   0  0  0  0  0
   -0.5773   26.3845  -14.6147 H   0  0  0  0  0
  1  2  1  0  0  0
  2  3  1  0  0  0
  2  5  1  0  0  0
  3  4  2  0  0  0
  3 12  1  0  0  0
  5  6  1  0  0  0
  6  7  4  0  0  0
  6  8  4  0  0  0
  7  9  4  0  0  0
  8 10  4  0  0  0
  9 11  4  0  0  0
 10 11  4  0  0  0
 12 13  1  0  0  0
 13 14  1  0  0  0
 13 16  1  0  0  0
 14 15  2  0  0  0
 14 20  1  0  0  0
 16 17  1  0  0  0
 17 18  2  0  0  0
 17 19  1  0  0  0
 20 21  1  0  0  0
 21 22  1  0  0  0
 21 24  1  0  0  0
 22 23  2  0  0  0
 22 28  1  0  0  0
 24 25  1  0  0  0
 24 26  1  0  0  0
 25 27  1  0  0  0
 28 29  1  0  0  0
 29 30  1  0  0  0
 29 32  1  0  0  0
 30 31  2  0  0  0
 30 35  1  0  0  0
 32 33  1  0  0  0
 32 34  1  0  0  0
 35 36  1  0  0  0
 36 37  1  0  0  0
 37 38  2  0  0  0
 37 39  1  0  0  0
 39 40  1  0  0  0
 40 41  1  0  0  0
 40 43  1  0  0  0
 41 42  2  0  0  0
 41 46  1  0  0  0
 43 44  1  0  0  0
 43 45  1  0  0  0
 46 47  1  0  0  0
 47 48  1  0  0  0
 47 50  1  0  0  0
 48 49  2  0  0  0
 48 53  1  0  0  0
 50 51  1  0  0  0
 50 52  1  0  0  0
 53 54  1  0  0  0
 54 55  1  0  0  0
 54 57  1  0  0  0
 55 56  2  0  0  0
 55 65  1  0  0  0
 57 58  1  0  0  0
 58 59  4  0  0  0
 58 60  4  0  0  0
 59 61  4  0  0  0
 60 62  4  0  0  0
 61 63  4  0  0  0
 62 63  4  0  0  0
 63 64  1  0  0  0
 65 66  1  0  0  0
 65 71  1  0  0  0
 66 67  1  0  0  0
 66 69  1  0  0  0
 67 68  2  0  0  0
 67 72  1  0  0  0
 69 70  1  0  0  0
 70 71  1  0  0  0
 72 73  1  0  0  0
 73 74  1  0  0  0
 73 76  1  0  0  0
 74 75  2  0  0  0
 74 80  1  0  0  0
 76 77  1  0  0  0
 76 78  1  0  0  0
 77 79  1  0  0  0
 80 81  1  0  0  0
 81 82  1  0  0  0
 81 84  1  0  0  0
 82 83  1  0  0  0
 82 88  2  0  0  0
 84 85  1  0  0  0
 85 86  2  0  0  0
 85 87  1  0  0  0
  1 89  1  0  0  0
  1 90  1  0  0  0
  1 91  1  0  0  0
  2 92  1  0  0  0
  5 93  1  0  0  0
  5 94  1  0  0  0
  7 95  1  0  0  0
  8 96  1  0  0  0
  9 97  1  0  0  0
 10 98  1  0  0  0
 11 99  1  0  0  0
 12100  1  0  0  0
 13101  1  0  0  0
 16102  1  0  0  0
 16103  1  0  0  0
 19104  1  0  0  0
 19105  1  0  0  0
 20106  1  0  0  0
 21107  1  0  0  0
 24108  1  0  0  0
 25109  1  0  0  0
 25110  1  0  0  0
 26111  1  0  0  0
 26112  1  0  0  0
 26113  1  0  0  0
 27114  1  0  0  0
 27115  1  0  0  0
 27116  1  0  0  0
 28117  1  0  0  0
 29118  1  0  0  0
 32119  1  0  0  0
 33120  1  0  0  0
 33121  1  0  0  0
 33122  1  0  0  0
 34123  1  0  0  0
 34124  1  0  0  0
 34125  1  0  0  0
 35126  1  0  0  0
 36127  1  0  0  0
 36128  1  0  0  0
 39129  1  0  0  0
 40130  1  0  0  0
 43131  1  0  0  0
 44132  1  0  0  0
 45133  1  0  0  0
 45134  1  0  0  0
 45135  1  0  0  0
 46136  1  0  0  0
 47137  1  0  0  0
 50138  1  0  0  0
 51139  1  0  0  0
 52140  1  0  0  0
 52141  1  0  0  0
 52142  1  0  0  0
 53143  1  0  0  0
 54144  1  0  0  0
 57145  1  0  0  0
 57146  1  0  0  0
 59147  1  0  0  0
 60148  1  0  0  0
 61149  1  0  0  0
 62150  1  0  0  0
 64151  1  0  0  0
 66152  1  0  0  0
 69153  1  0  0  0
 69154  1  0  0  0
 70155  1  0  0  0
 70156  1  0  0  0
 71157  1  0  0  0
 71158  1  0  0  0
 72159  1  0  0  0
 73160  1  0  0  0
 76161  1  0  0  0
 77162  1  0  0  0
 77163  1  0  0  0
 78164  1  0  0  0
 78165  1  0  0  0
 78166  1  0  0  0
 79167  1  0  0  0
 79168  1  0  0  0
 79169  1  0  0  0
 80170  1  0  0  0
 81171  1  0  0  0
 83172  1  0  0  0
 84173  1  0  0  0
 84174  1  0  0  0
 87175  1  0  0  0
 87176  1  0  0  0
M  END
$$$$
