1sbg_ligand
  -I-interpret- 

 80 82  0  0  0  0  0  0  0  0999 V2000
   -9.3770   16.1320   32.9290 C   0  0  0  0  0
   -8.1940   15.2270   33.2470 C   0  0  0  0  0
   -8.8030   17.3840   32.3150 C   0  0  0  0  0
   -9.9550   16.4170   34.3030 C   0  0  0  0  0
  -10.3690   15.5620   32.1090 O   0  0  0  0  0
  -10.3410   15.5740   30.6980 C   0  0  0  0  0
   -9.4330   14.9910   30.0760 O   0  0  0  0  0
  -11.2880   16.2180   29.9740 N   0  0  0  0  0
  -11.2530   16.2170   28.4840 C   0  0  0  0  0
  -12.6630   15.8180   27.9700 C   0  0  0  0  0
  -13.1940   14.6250   28.7790 C   0  0  0  0  0
  -12.5660   13.3720   28.6980 C   0  0  0  0  0
  -12.9720   12.3190   29.5260 C   0  0  0  0  0
  -14.0090   12.5140   30.4280 C   0  0  0  0  0
  -14.6490   13.7610   30.5080 C   0  0  0  0  0
  -14.2500   14.8170   29.6910 C   0  0  0  0  0
  -10.7480   17.4760   27.7290 C   0  0  0  0  0
  -11.1280   18.6940   28.3500 O   0  0  0  0  0
   -9.2750   17.4280   27.8840 C   0  0  0  0  0
   -8.3950   18.0100   26.8520 C   0  0  0  0  0
   -7.0860   18.3190   27.6090 C   0  0  0  0  0
   -5.8530   18.5510   26.7390 C   0  0  0  0  0
   -5.6750   19.7570   26.0430 C   0  0  0  0  0
   -4.5370   19.9130   25.2450 C   0  0  0  0  0
   -3.5820   18.8760   25.1420 C   0  0  0  0  0
   -3.7630   17.6880   25.8340 C   0  0  0  0  0
   -4.8960   17.5280   26.6290 C   0  0  0  0  0
   -8.2370   17.0300   25.6550 C   0  0  0  0  0
   -8.2100   15.7820   25.7390 O   0  0  0  0  0
   -8.1120   17.6080   24.4690 N   0  0  0  0  0
   -7.9260   16.8390   23.2670 C   0  0  0  0  0
   -9.2330   16.6760   22.5340 C   0  0  0  0  0
   -9.0190   16.6450   21.0380 C   0  0  0  0  0
   -9.8750   15.3700   23.0100 C   0  0  0  0  0
   -6.9600   17.7470   22.5340 C   0  0  0  0  0
   -7.1040   19.0700   22.4050 N   0  0  0  0  0
   -5.9450   19.3470   21.8490 C   0  0  0  0  0
   -5.1310   18.2030   21.6420 C   0  0  0  0  0
   -5.8300   17.1880   22.1020 N   0  0  0  0  0
   -7.6548   14.9994   32.3275 H   0  0  0  0  0
   -7.5274   15.7341   33.9446 H   0  0  0  0  0
   -8.5561   14.3020   33.6957 H   0  0  0  0  0
   -8.1276   17.8593   33.0264 H   0  0  0  0  0
   -8.2549   17.1246   31.4092 H   0  0  0  0  0
   -9.6131   18.0699   32.0672 H   0  0  0  0  0
  -10.2542   15.4794   34.7715 H   0  0  0  0  0
   -9.2009   16.9078   34.9183 H   0  0  0  0  0
  -10.8236   17.0678   34.2025 H   0  0  0  0  0
  -12.0381   16.7122   30.4572 H   0  0  0  0  0
  -10.4680   15.4986   28.2478 H   0  0  0  0  0
  -12.5975   15.5394   26.9182 H   0  0  0  0  0
  -13.3415   16.6631   28.0869 H   0  0  0  0  0
  -11.7561   13.2180   27.9849 H   0  0  0  0  0
  -12.4762   11.3504   29.4628 H   0  0  0  0  0
  -14.3271   11.6970   31.0757 H   0  0  0  0  0
  -15.4655   13.9045   31.2157 H   0  0  0  0  0
  -14.7507   15.7830   29.7571 H   0  0  0  0  0
  -11.1438   17.4612   26.7135 H   0  0  0  0  0
  -10.7880   19.4321   27.8390 H   0  0  0  0  0
   -9.0378   16.3642   27.8707 H   0  0  0  0  0
   -9.0787   18.0267   28.7735 H   0  0  0  0  0
   -8.7840   18.9172   26.3898 H   0  0  0  0  0
   -6.8703   17.4429   28.2205 H   0  0  0  0  0
   -7.2575   19.2477   28.1532 H   0  0  0  0  0
   -6.4105   20.5575   26.1230 H   0  0  0  0  0
   -4.3851   20.8431   24.6973 H   0  0  0  0  0
   -2.6998   19.0107   24.5162 H   0  0  0  0  0
   -3.0268   16.8879   25.7568 H   0  0  0  0  0
   -5.0422   16.5953   27.1738 H   0  0  0  0  0
   -8.1486   18.6254   24.4065 H   0  0  0  0  0
   -7.5689   15.8179   23.4012 H   0  0  0  0  0
   -9.8852   17.5229   22.7471 H   0  0  0  0  0
   -8.5543   17.5781   20.7193 H   0  0  0  0  0
   -8.3690   15.8081   20.7825 H   0  0  0  0  0
   -9.9799   16.5265   20.5372 H   0  0  0  0  0
   -9.2086   14.5367   22.7871 H   0  0  0  0  0
  -10.0469   15.4219   24.0851 H   0  0  0  0  0
  -10.8249   15.2249   22.4954 H   0  0  0  0  0
   -5.6394   20.3565   21.5740 H   0  0  0  0  0
   -4.1368   18.1720   21.1961 H   0  0  0  0  0
  1  5  1  0  0  0
  1  4  1  0  0  0
  1  3  1  0  0  0
  1  2  1  0  0  0
  5  6  1  0  0  0
  6  8  1  0  0  0
  6  7  2  0  0  0
  8  9  1  0  0  0
  9 17  1  0  0  0
  9 10  1  0  0  0
 10 11  1  0  0  0
 11 16  4  0  0  0
 11 12  4  0  0  0
 12 13  4  0  0  0
 13 14  4  0  0  0
 14 15  4  0  0  0
 15 16  4  0  0  0
 17 19  1  0  0  0
 17 18  1  0  0  0
 19 20  1  0  0  0
 20 28  1  0  0  0
 20 21  1  0  0  0
 21 22  1  0  0  0
 22 27  4  0  0  0
 22 23  4  0  0  0
 23 24  4  0  0  0
 24 25  4  0  0  0
 25 26  4  0  0  0
 26 27  4  0  0  0
 28 30  1  0  0  0
 28 29  2  0  0  0
 30 31  1  0  0  0
 31 35  1  0  0  0
 31 32  1  0  0  0
 32 34  1  0  0  0
 32 33  1  0  0  0
 35 39  4  0  0  0
 35 36  4  0  0  0
 36 37  4  0  0  0
 37 38  4  0  0  0
 38 39  4  0  0  0
  2 40  1  0  0  0
  2 41  1  0  0  0
  2 42  1  0  0  0
  3 43  1  0  0  0
  3 44  1  0  0  0
  3 45  1  0  0  0
  4 46  1  0  0  0
  4 47  1  0  0  0
  4 48  1  0  0  0
  8 49  1  0  0  0
  9 50  1  0  0  0
 10 51  1  0  0  0
 10 52  1  0  0  0
 12 53  1  0  0  0
 13 54  1  0  0  0
 14 55  1  0  0  0
 15 56  1  0  0  0
 16 57  1  0  0  0
 17 58  1  0  0  0
 18 59  1  0  0  0
 19 60  1  0  0  0
 19 61  1  0  0  0
 20 62  1  0  0  0
 21 63  1  0  0  0
 21 64  1  0  0  0
 23 65  1  0  0  0
 24 66  1  0  0  0
 25 67  1  0  0  0
 26 68  1  0  0  0
 27 69  1  0  0  0
 30 70  1  0  0  0
 31 71  1  0  0  0
 32 72  1  0  0  0
 33 73  1  0  0  0
 33 74  1  0  0  0
 33 75  1  0  0  0
 34 76  1  0  0  0
 34 77  1  0  0  0
 34 78  1  0  0  0
 37 79  1  0  0  0
 38 80  1  0  0  0
M  END
$$$$
