4no9_ligand
  -I-interpret- 

 87 87  0  0  0  0  0  0  0  0999 V2000
   58.8890 -135.3130   34.3600 C   0  0  0  0  0
   58.7430 -136.5100   34.6140 O   0  0  0  0  0
   57.9330 -134.6240   33.6620 O   0  0  0  0  0
   56.7830 -135.3700   33.2100 C   0  0  0  0  0
   55.7010 -135.1490   34.0680 C   0  0  0  0  0
   54.7510 -134.1720   33.7660 C   0  0  0  0  0
   53.6700 -133.9500   34.6170 C   0  0  0  0  0
   53.5330 -134.7080   35.7790 C   0  0  0  0  0
   54.4780 -135.6860   36.0850 C   0  0  0  0  0
   55.5590 -135.9070   35.2320 C   0  0  0  0  0
   59.9990 -134.6680   34.7720 N   0  0  0  0  0
   61.0620 -135.3510   35.5350 C   0  0  0  0  0
   60.5990 -135.5740   36.9790 C   0  0  0  0  0
   59.9240 -134.7240   37.5590 O   0  0  0  0  0
   62.3430 -134.5060   35.5800 C   0  0  0  0  0
   62.9630 -134.3060   34.1900 C   0  0  0  0  0
   64.2110 -133.4280   34.3350 C   0  0  0  0  0
   63.3590 -135.6480   33.5650 C   0  0  0  0  0
   60.9960 -136.7390   37.5240 N   0  0  0  0  0
   60.6570 -137.1190   38.9100 C   0  0  0  0  0
   61.9090 -136.9600   39.7800 C   0  0  0  0  0
   63.0000 -136.7060   39.2710 O   0  0  0  0  0
   60.1060 -138.5490   38.9430 C   0  0  0  0  0
   58.5720 -138.5160   39.0170 C   0  0  0  0  0
   57.9800 -137.7820   37.8070 C   0  0  0  0  0
   58.0510 -139.9540   39.0320 C   0  0  0  0  0
   61.6970 -137.0850   41.1030 N   0  0  0  0  0
   62.7630 -136.8260   42.0790 C   0  0  0  0  0
   62.5030 -135.3500   42.4730 C   0  0  0  0  0
   63.7620 -134.4800   42.4240 C   0  0  0  0  0
   63.4140 -133.0670   42.9250 C   0  0  0  0  0
   64.3310 -134.3930   40.9980 C   0  0  0  0  0
   62.7240 -137.7650   43.3160 C   0  0  0  0  0
   63.5220 -139.0770   43.0550 C   0  0  0  0  0
   64.7060 -138.5880   42.4840 C   0  0  0  0  0
   62.8970 -139.9640   41.9610 C   0  0  0  0  0
   61.5250 -140.2500   42.2520 O   0  0  0  0  0
   61.3510 -138.0530   43.6630 O   0  0  0  0  0
   57.0248 -136.4328   33.2048 H   0  0  0  0  0
   56.5160 -135.0428   32.2051 H   0  0  0  0  0
   54.8554 -133.5783   32.8579 H   0  0  0  0  0
   52.9326 -133.1848   34.3744 H   0  0  0  0  0
   52.6888 -134.5363   36.4468 H   0  0  0  0  0
   54.3718 -136.2794   36.9931 H   0  0  0  0  0
   56.2950 -136.6735   35.4746 H   0  0  0  0  0
   60.1074 -133.6784   34.5498 H   0  0  0  0  0
   61.2673 -136.2993   35.0383 H   0  0  0  0  0
   63.0701 -135.0295   36.2008 H   0  0  0  0  0
   62.0852 -133.5246   35.9781 H   0  0  0  0  0
   62.2288 -133.8304   33.5398 H   0  0  0  0  0
   63.9285 -132.4643   34.7588 H   0  0  0  0  0
   64.9258 -133.9207   34.9941 H   0  0  0  0  0
   64.6631 -133.2767   33.3548 H   0  0  0  0  0
   64.0886 -136.1442   34.2050 H   0  0  0  0  0
   62.4739 -136.2764   33.4658 H   0  0  0  0  0
   63.7952 -135.4746   32.5812 H   0  0  0  0  0
   61.5508 -137.3823   36.9594 H   0  0  0  0  0
   59.8768 -136.4695   39.3070 H   0  0  0  0  0
   60.4974 -139.0652   39.8196 H   0  0  0  0  0
   60.4113 -139.0731   38.0373 H   0  0  0  0  0
   58.2742 -137.9871   39.9224 H   0  0  0  0  0
   58.3521 -136.7577   37.7873 H   0  0  0  0  0
   58.2759 -138.2951   36.8920 H   0  0  0  0  0
   56.8928 -137.7735   37.8850 H   0  0  0  0  0
   58.3676 -140.4633   38.1218 H   0  0  0  0  0
   58.4531 -140.4757   39.9004 H   0  0  0  0  0
   56.9623 -139.9441   39.0844 H   0  0  0  0  0
   60.7746 -137.3661   41.4354 H   0  0  0  0  0
   63.7534 -137.0110   41.6631 H   0  0  0  0  0
   62.1368 -135.3424   43.4996 H   0  0  0  0  0
   61.7901 -134.9387   41.7584 H   0  0  0  0  0
   64.5206 -134.9346   43.0612 H   0  0  0  0  0
   62.6433 -132.6359   42.2860 H   0  0  0  0  0
   63.0470 -133.1263   43.9496 H   0  0  0  0  0
   64.3061 -132.4416   42.8929 H   0  0  0  0  0
   64.5880 -135.3932   40.6491 H   0  0  0  0  0
   63.5832 -133.9567   40.3358 H   0  0  0  0  0
   65.2238 -133.7676   41.0019 H   0  0  0  0  0
   63.2021 -137.2585   44.1545 H   0  0  0  0  0
   63.5929 -139.6685   43.9678 H   0  0  0  0  0
   64.4690 -138.0423   41.5706 H   0  0  0  0  0
   65.1996 -137.9202   43.1901 H   0  0  0  0  0
   65.3664 -139.4228   42.2491 H   0  0  0  0  0
   63.4476 -140.9036   41.9166 H   0  0  0  0  0
   62.9490 -139.4340   41.0099 H   0  0  0  0  0
   61.1601 -140.8026   41.5570 H   0  0  0  0  0
   61.3303 -138.6333   44.4275 H   0  0  0  0  0
  1  2  2  0  0  0
  1  3  1  0  0  0
  1 11  1  0  0  0
  3  4  1  0  0  0
  4  5  1  0  0  0
  5  6  4  0  0  0
  5 10  4  0  0  0
  6  7  4  0  0  0
  7  8  4  0  0  0
  8  9  4  0  0  0
  9 10  4  0  0  0
 11 12  1  0  0  0
 12 13  1  0  0  0
 12 15  1  0  0  0
 13 14  2  0  0  0
 13 19  1  0  0  0
 15 16  1  0  0  0
 16 17  1  0  0  0
 16 18  1  0  0  0
 19 20  1  0  0  0
 20 21  1  0  0  0
 20 23  1  0  0  0
 21 22  2  0  0  0
 21 27  1  0  0  0
 23 24  1  0  0  0
 24 25  1  0  0  0
 24 26  1  0  0  0
 27 28  1  0  0  0
 28 29  1  0  0  0
 28 33  1  0  0  0
 29 30  1  0  0  0
 30 31  1  0  0  0
 30 32  1  0  0  0
 33 34  1  0  0  0
 33 38  1  0  0  0
 34 35  1  0  0  0
 34 36  1  0  0  0
 36 37  1  0  0  0
  4 39  1  0  0  0
  4 40  1  0  0  0
  6 41  1  0  0  0
  7 42  1  0  0  0
  8 43  1  0  0  0
  9 44  1  0  0  0
 10 45  1  0  0  0
 11 46  1  0  0  0
 12 47  1  0  0  0
 15 48  1  0  0  0
 15 49  1  0  0  0
 16 50  1  0  0  0
 17 51  1  0  0  0
 17 52  1  0  0  0
 17 53  1  0  0  0
 18 54  1  0  0  0
 18 55  1  0  0  0
 18 56  1  0  0  0
 19 57  1  0  0  0
 20 58  1  0  0  0
 23 59  1  0  0  0
 23 60  1  0  0  0
 24 61  1  0  0  0
 25 62  1  0  0  0
 25 63  1  0  0  0
 25 64  1  0  0  0
 26 65  1  0  0  0
 26 66  1  0  0  0
 26 67  1  0  0  0
 27 68  1  0  0  0
 28 69  1  0  0  0
 29 70  1  0  0  0
 29 71  1  0  0  0
 30 72  1  0  0  0
 31 73  1  0  0  0
 31 74  1  0  0  0
 31 75  1  0  0  0
 32 76  1  0  0  0
 32 77  1  0  0  0
 32 78  1  0  0  0
 33 79  1  0  0  0
 34 80  1  0  0  0
 35 81  1  0  0  0
 35 82  1  0  0  0
 35 83  1  0  0  0
 36 84  1  0  0  0
 36 85  1  0  0  0
 37 86  1  0  0  0
 38 87  1  0  0  0
M  END
$$$$
