1di8_ligand
  -I-interpret- 

 37 39  0  0  0  0  0  0  0  0999 V2000
   -9.2640   52.3090   13.3720 N   0  0  0  0  0
  -10.2040   52.9720   12.5990 C   0  0  0  0  0
  -10.8280   52.3530   11.5200 N   0  0  0  0  0
  -10.5050   51.0150   11.1310 C   0  0  0  0  0
   -9.4320   50.2410   11.9370 C   0  0  0  0  0
   -8.8630   50.9420   13.1320 C   0  0  0  0  0
  -11.1780   50.3770    9.9930 C   0  0  0  0  0
  -10.8540   48.9910    9.5930 C   0  0  0  0  0
   -9.7510   48.2530   10.3090 C   0  0  0  0  0
   -9.0520   48.8980   11.4690 C   0  0  0  0  0
   -7.9420   50.3180   14.0110 N   0  0  0  0  0
   -7.2290   50.6820   15.1650 C   0  0  0  0  0
   -6.3650   49.6150   15.7210 C   0  0  0  0  0
   -5.5720   49.8430   16.9480 C   0  0  0  0  0
   -5.5700   51.1620   17.5920 C   0  0  0  0  0
   -6.4190   52.2450   17.0620 C   0  0  0  0  0
   -7.2620   52.0030   15.8780 C   0  0  0  0  0
   -4.8340   48.8240   17.5090 O   0  0  0  0  0
  -11.5470   48.2780    8.5820 O   0  0  0  0  0
  -12.3960   48.8920    7.6050 C   0  0  0  0  0
   -9.4630   46.9300    9.8550 O   0  0  0  0  0
   -8.4820   46.1170   10.5080 C   0  0  0  0  0
  -10.4608   54.0031   12.8420 H   0  0  0  0  0
  -11.9292   50.9345    9.4335 H   0  0  0  0  0
   -8.2483   48.3626   11.9745 H   0  0  0  0  0
   -7.7468   49.3561   13.7335 H   0  0  0  0  0
   -6.3131   48.6489   15.2190 H   0  0  0  0  0
   -4.9400   51.3412   18.4633 H   0  0  0  0  0
   -6.4229   53.2222   17.5449 H   0  0  0  0  0
   -7.9185   52.7937   15.5148 H   0  0  0  0  0
   -4.3867   49.1490   18.2938 H   0  0  0  0  0
  -13.2105   49.4124    8.1089 H   0  0  0  0  0
  -11.8162   49.6042    7.0179 H   0  0  0  0  0
  -12.8050   48.1249    6.9474 H   0  0  0  0  0
   -7.5129   46.6141   10.4648 H   0  0  0  0  0
   -8.7695   45.9685   11.5489 H   0  0  0  0  0
   -8.4193   45.1516   10.0058 H   0  0  0  0  0
  1  6  4  0  0  0
  1  2  4  0  0  0
  2  3  4  0  0  0
  3  4  4  0  0  0
  4  7  4  0  0  0
  4  5  4  0  0  0
  5 10  4  0  0  0
  5  6  4  0  0  0
  6 11  1  0  0  0
 11 12  1  0  0  0
 12 17  4  0  0  0
 12 13  4  0  0  0
 13 14  4  0  0  0
 14 18  1  0  0  0
 14 15  4  0  0  0
 15 16  4  0  0  0
 16 17  4  0  0  0
 10  9  4  0  0  0
  9 21  1  0  0  0
  9  8  4  0  0  0
  8 19  1  0  0  0
  8  7  4  0  0  0
 19 20  1  0  0  0
 21 22  1  0  0  0
  2 23  1  0  0  0
  7 24  1  0  0  0
 10 25  1  0  0  0
 11 26  1  0  0  0
 13 27  1  0  0  0
 15 28  1  0  0  0
 16 29  1  0  0  0
 17 30  1  0  0  0
 18 31  1  0  0  0
 20 32  1  0  0  0
 20 33  1  0  0  0
 20 34  1  0  0  0
 22 35  1  0  0  0
 22 36  1  0  0  0
 22 37  1  0  0  0
M  END
$$$$
