1h1h_ligand
  -I-interpret- 

 42 44  0  0  0  0  0  0  0  0999 V2000
   17.3840   45.0930   -1.9120 P   0  0  0  0  0
   16.5780   43.8740   -1.6950 O   0  0  0  0  0
   18.5900   45.0320   -1.0490 O   0  0  0  0  0
   16.5790   46.2910   -1.5680 O   0  0  0  0  0
   22.8280   47.7390   -2.0220 P   0  0  0  0  0
   22.2750   48.9570   -1.3680 O   0  0  0  0  0
   23.0750   46.6610   -1.0500 O   0  0  0  0  0
   24.0400   48.0830   -2.6690 O   0  0  0  0  0
   21.9260   47.2180   -3.2650 O   0  0  0  0  0
   21.2770   48.3480   -4.0130 C   0  0  0  0  0
   20.0390   47.8340   -4.7520 C   0  0  0  0  0
   20.4320   46.6240   -5.5320 O   0  0  0  0  0
   18.8240   47.3950   -3.9140 C   0  0  0  0  0
   17.5770   47.7890   -4.4180 O   0  0  0  0  0
   19.0460   45.8660   -3.8130 C   0  0  0  0  0
   17.8190   45.1750   -3.4900 O   0  0  0  0  0
   19.5110   45.5250   -5.1880 C   0  0  0  0  0
   20.2700   44.2190   -5.2680 N   0  0  0  0  0
   21.3070   43.7310   -4.4480 C   0  0  0  0  0
   21.7300   42.5290   -4.8360 N   0  0  0  0  0
   20.9610   42.2280   -5.9220 C   0  0  0  0  0
   20.9130   41.0590   -6.8180 C   0  0  0  0  0
   21.6950   40.0100   -6.6900 N   0  0  0  0  0
   19.9750   41.1250   -7.8340 N   0  0  0  0  0
   19.1290   42.2090   -8.0110 C   0  0  0  0  0
   19.1160   43.2950   -7.2410 N   0  0  0  0  0
   20.0330   43.2570   -6.2300 C   0  0  0  0  0
   19.1193   45.8214   -1.1845 H   0  0  0  0  0
   17.1059   47.0808   -1.7102 H   0  0  0  0  0
   21.4523   48.7357   -0.9256 H   0  0  0  0  0
   22.2517   46.4304   -0.6135 H   0  0  0  0  0
   20.9804   49.1246   -3.3080 H   0  0  0  0  0
   21.9844   48.7571   -4.7343 H   0  0  0  0  0
   19.7159   48.7015   -5.3275 H   0  0  0  0  0
   18.7745   47.8838   -2.9410 H   0  0  0  0  0
   17.5318   48.7476   -4.4436 H   0  0  0  0  0
   19.7454   45.5778   -3.0282 H   0  0  0  0  0
   18.6568   45.4090   -5.8550 H   0  0  0  0  0
   21.7154   44.2739   -3.5956 H   0  0  0  0  0
   22.3830   39.9755   -5.9377 H   0  0  0  0  0
   21.6138   39.2306   -7.3430 H   0  0  0  0  0
   18.4233   42.1692   -8.8408 H   0  0  0  0  0
  1 16  1  0  0  0
  1  4  1  0  0  0
  1  3  1  0  0  0
  1  2  2  0  0  0
 16 15  1  0  0  0
 15 17  1  0  0  0
 15 13  1  0  0  0
 13 14  1  0  0  0
 13 11  1  0  0  0
 11 12  1  0  0  0
 11 10  1  0  0  0
 10  9  1  0  0  0
  9  5  1  0  0  0
  5  8  2  0  0  0
  5  7  1  0  0  0
  5  6  1  0  0  0
 12 17  1  0  0  0
 17 18  1  0  0  0
 18 27  4  0  0  0
 18 19  4  0  0  0
 19 20  4  0  0  0
 20 21  4  0  0  0
 21 27  4  0  0  0
 21 22  4  0  0  0
 22 24  4  0  0  0
 22 23  1  0  0  0
 24 25  4  0  0  0
 25 26  4  0  0  0
 26 27  4  0  0  0
  3 28  1  0  0  0
  4 29  1  0  0  0
  6 30  1  0  0  0
  7 31  1  0  0  0
 10 32  1  0  0  0
 10 33  1  0  0  0
 11 34  1  0  0  0
 13 35  1  0  0  0
 14 36  1  0  0  0
 15 37  1  0  0  0
 17 38  1  0  0  0
 19 39  1  0  0  0
 23 40  1  0  0  0
 23 41  1  0  0  0
 25 42  1  0  0  0
M  END
$$$$
