### 
### Created by X-TOOL on Mon Sep 10 21:12:49 2018
### 

@<TRIPOS>MOLECULE
1h1h_ligand
   38    40     1     0     0
SMALL
GAST_HUCK


@<TRIPOS>ATOM
      1 P1         17.3840   45.0930   -1.9120 P.3       1 A2P         0.2015
      2 O1P        16.5780   43.8740   -1.6950 O.co2     1 A2P        -0.5537
      3 O2P        18.5900   45.0320   -1.0490 O.co2     1 A2P        -0.5537
      4 O3P        16.5790   46.2910   -1.5680 O.co2     1 A2P        -0.5537
      5 P2         22.8280   47.7390   -2.0220 P.3       1 A2P         0.2008
      6 O4P        22.2750   48.9570   -1.3680 O.co2     1 A2P        -0.5537
      7 O5P        23.0750   46.6610   -1.0500 O.co2     1 A2P        -0.5537
      8 O6P        24.0400   48.0830   -2.6690 O.co2     1 A2P        -0.5537
      9 O5'        21.9260   47.2180   -3.2650 O.3       1 A2P        -0.2734
     10 C5'        21.2770   48.3480   -4.0130 C.3       1 A2P         0.1072
     11 C4'        20.0390   47.8340   -4.7520 C.3       1 A2P         0.1185
     12 O4'        20.4320   46.6240   -5.5320 O.3       1 A2P        -0.3362
     13 C3'        18.8240   47.3950   -3.9140 C.3       1 A2P         0.1196
     14 O3'        17.5770   47.7890   -4.4180 O.3       1 A2P        -0.3860
     15 C2'        19.0460   45.8660   -3.8130 C.3       1 A2P         0.1722
     16 O2'        17.8190   45.1750   -3.4900 O.3       1 A2P        -0.2647
     17 C1'        19.5110   45.5250   -5.1880 C.3       1 A2P         0.2057
     18 N9         20.2700   44.2190   -5.2680 N.pl3     1 A2P        -0.1916
     19 C8         21.3070   43.7310   -4.4480 C.2       1 A2P         0.1123
     20 N7         21.7300   42.5290   -4.8360 N.2       1 A2P        -0.2958
     21 C5         20.9610   42.2280   -5.9220 C.ar      1 A2P         0.1045
     22 C6         20.9130   41.0590   -6.8180 C.ar      1 A2P         0.1298
     23 N6         21.6950   40.0100   -6.6900 N.pl3     1 A2P        -0.3152
     24 N1         19.9750   41.1250   -7.8340 N.ar      1 A2P        -0.2698
     25 C2         19.1290   42.2090   -8.0110 C.ar      1 A2P         0.0533
     26 N3         19.1160   43.2950   -7.2410 N.ar      1 A2P        -0.2714
     27 C4         20.0330   43.2570   -6.2300 C.ar      1 A2P         0.1613
     28 H1         20.9790   49.1332   -3.3026 H         1 A2P         0.0639
     29 H2         21.9908   48.7628   -4.7399 H         1 A2P         0.0639
     30 H3         19.7096   48.6310   -5.4348 H         1 A2P         0.0650
     31 H4         18.9050   47.8348   -2.9090 H         1 A2P         0.0651
     32 H5         16.8889   47.4533   -3.8555 H         1 A2P         0.2100
     33 H6         19.8116   45.6236   -3.0613 H         1 A2P         0.0732
     34 H7         18.6561   45.4904   -5.8794 H         1 A2P         0.1000
     35 H8         21.7150   44.2734   -3.5964 H         1 A2P         0.1349
     36 H9         21.6130   39.2230   -7.3494 H         1 A2P         0.1820
     37 H10        22.3897   39.9752   -5.9303 H         1 A2P         0.1820
     38 H11        18.4272   42.1694   -8.8362 H         1 A2P         0.0996
@<TRIPOS>BOND
     1    1   16 1  
     2    1    4 ar 
     3    1    3 ar 
     4    1    2 ar 
     5   16   15 1  
     6   15   17 1  
     7   15   13 1  
     8   13   14 1  
     9   13   11 1  
    10   11   12 1  
    11   11   10 1  
    12   10    9 1  
    13    9    5 1  
    14    5    8 ar 
    15    5    7 ar 
    16    5    6 ar 
    17   12   17 1  
    18   17   18 1  
    19   18   27 1  
    20   18   19 1  
    21   19   20 2  
    22   20   21 1  
    23   21   27 ar 
    24   21   22 ar 
    25   22   24 ar 
    26   22   23 1  
    27   24   25 ar 
    28   25   26 ar 
    29   26   27 ar 
    30   10   28 1  
    31   10   29 1  
    32   11   30 1  
    33   13   31 1  
    34   14   32 1  
    35   15   33 1  
    36   17   34 1  
    37   19   35 1  
    38   23   36 1  
    39   23   37 1  
    40   25   38 1  
@<TRIPOS>SUBSTRUCTURE
     1 A2P         1

