### 
### Created by X-TOOL on Mon Aug  2 16:14:21 2021
### 

@<TRIPOS>MOLECULE
6iph_ligand
   42    44     1     0     0
SMALL
GAST_HUCK


@<TRIPOS>ATOM
      1 PG          2.6200  -39.2630   -2.7780 P.3       1 DTP         0.1879
      2 O1G         2.7420  -39.5300   -4.2560 O.co2     1 DTP        -0.6091
      3 O2G         3.5430  -40.1130   -1.9450 O.co2     1 DTP        -0.6091
      4 O3G         1.2030  -39.2630   -2.2430 O.co2     1 DTP        -0.6091
      5 PB          2.1480  -36.4620   -2.5130 P.3       1 DTP         0.3553
      6 O1B         0.8600  -36.7280   -3.2470 O.co2     1 DTP        -0.5652
      7 O2B         2.9530  -35.2260   -2.8200 O.co2     1 DTP        -0.5652
      8 O3B         3.1350  -37.7340   -2.6350 O.3       1 DTP        -0.1546
      9 PA          0.4190  -36.4100   -0.1620 P.3       1 DTP         0.3266
     10 O1A        -0.6880  -37.1430   -0.8990 O.co2     1 DTP        -0.5692
     11 O2A         0.6820  -36.8950    1.2300 O.co2     1 DTP        -0.5692
     12 O3A         1.8510  -36.4870   -0.9220 O.3       1 DTP        -0.1171
     13 O5'         0.1300  -34.8200   -0.1010 O.3       1 DTP        -0.2441
     14 C5'         0.3840  -33.9500   -1.2110 C.3       1 DTP         0.1130
     15 C4'        -0.0760  -32.5290   -0.9440 C.3       1 DTP         0.1164
     16 O4'        -1.4930  -32.5050   -0.7950 O.3       1 DTP        -0.3389
     17 C3'         0.5330  -31.9830    0.3390 C.3       1 DTP         0.0890
     18 O3'         1.0780  -30.6760    0.1240 O.3       1 DTP        -0.3889
     19 C2'        -0.6070  -31.9920    1.3470 C.3       1 DTP         0.0315
     20 C1'        -1.8670  -32.3940    0.5810 C.3       1 DTP         0.1751
     21 N9         -2.4730  -33.6770    1.0620 N.pl3     1 DTP        -0.1945
     22 C8         -2.5980  -34.8350    0.3620 C.2       1 DTP         0.1122
     23 N7         -3.1960  -35.8070    1.1010 N.2       1 DTP        -0.2958
     24 C5         -3.4750  -35.2700    2.3020 C.ar      1 DTP         0.1045
     25 C6         -4.1160  -35.7460    3.5510 C.ar      1 DTP         0.1298
     26 N6         -4.5780  -37.0170    3.6420 N.pl3     1 DTP        -0.3152
     27 N1         -4.2120  -34.8710    4.5870 N.ar      1 DTP        -0.2698
     28 C2         -3.7540  -33.5990    4.5030 C.ar      1 DTP         0.0533
     29 N3         -3.1650  -33.1010    3.3910 N.ar      1 DTP        -0.2714
     30 C4         -3.0000  -33.8710    2.2770 C.ar      1 DTP         0.1612
     31 H1         -0.1499  -34.3352   -2.0922 H         1 DTP         0.0648
     32 H2          1.4653  -33.9400   -1.4128 H         1 DTP         0.0648
     33 H3          0.2200  -31.8910   -1.7898 H         1 DTP         0.0650
     34 H4          1.3396  -32.6451    0.6868 H         1 DTP         0.0622
     35 H5          1.4527  -30.3530    0.9350 H         1 DTP         0.2099
     36 H6         -0.7332  -30.9912    1.7857 H         1 DTP         0.0345
     37 H7         -0.4009  -32.7193    2.1461 H         1 DTP         0.0345
     38 H8         -2.6186  -31.5986    0.6927 H         1 DTP         0.0969
     39 H9         -2.2606  -34.9681   -0.6648 H         1 DTP         0.1349
     40 H10        -5.0225  -37.3423    4.5123 H         1 DTP         0.1820
     41 H11        -4.4846  -37.6575    2.8408 H         1 DTP         0.1820
     42 H12        -3.8642  -32.9510    5.3650 H         1 DTP         0.0996
@<TRIPOS>BOND
     1    1    2 ar 
     2    1    3 ar 
     3    1    4 ar 
     4    8    1 1  
     5    5    6 ar 
     6    5    7 ar 
     7    5    8 1  
     8   12    5 1  
     9    9   10 ar 
    10    9   11 ar 
    11    9   12 1  
    12    9   13 1  
    13   13   14 1  
    14   14   15 1  
    15   15   16 1  
    16   15   17 1  
    17   16   20 1  
    18   17   18 1  
    19   17   19 1  
    20   19   20 1  
    21   20   21 1  
    22   21   22 1  
    23   21   30 1  
    24   22   23 2  
    25   23   24 1  
    26   24   25 ar 
    27   24   30 ar 
    28   25   26 1  
    29   25   27 ar 
    30   27   28 ar 
    31   28   29 ar 
    32   29   30 ar 
    33   14   31 1  
    34   14   32 1  
    35   15   33 1  
    36   17   34 1  
    37   18   35 1  
    38   19   36 1  
    39   19   37 1  
    40   20   38 1  
    41   22   39 1  
    42   26   40 1  
    43   26   41 1  
    44   28   42 1  
@<TRIPOS>SUBSTRUCTURE
     1 DTP         1

