6iph_ligand
  -I-interpret- 

 46 48  0  0  0  0  0  0  0  0999 V2000
    2.6200  -39.2630   -2.7780 P   0  0  0  0  0
    2.7420  -39.5300   -4.2560 O   0  0  0  0  0
    3.5430  -40.1130   -1.9450 O   0  0  0  0  0
    1.2030  -39.2630   -2.2430 O   0  0  0  0  0
    2.1480  -36.4620   -2.5130 P   0  0  0  0  0
    0.8600  -36.7280   -3.2470 O   0  0  0  0  0
    2.9530  -35.2260   -2.8200 O   0  0  0  0  0
    3.1350  -37.7340   -2.6350 O   0  0  0  0  0
    0.4190  -36.4100   -0.1620 P   0  0  0  0  0
   -0.6880  -37.1430   -0.8990 O   0  0  0  0  0
    0.6820  -36.8950    1.2300 O   0  0  0  0  0
    1.8510  -36.4870   -0.9220 O   0  0  0  0  0
    0.1300  -34.8200   -0.1010 O   0  0  0  0  0
    0.3840  -33.9500   -1.2110 C   0  0  0  0  0
   -0.0760  -32.5290   -0.9440 C   0  0  0  0  0
   -1.4930  -32.5050   -0.7950 O   0  0  0  0  0
    0.5330  -31.9830    0.3390 C   0  0  0  0  0
    1.0780  -30.6760    0.1240 O   0  0  0  0  0
   -0.6070  -31.9920    1.3470 C   0  0  0  0  0
   -1.8670  -32.3940    0.5810 C   0  0  0  0  0
   -2.4730  -33.6770    1.0620 N   0  0  0  0  0
   -2.5980  -34.8350    0.3620 C   0  0  0  0  0
   -3.1960  -35.8070    1.1010 N   0  0  0  0  0
   -3.4750  -35.2700    2.3020 C   0  0  0  0  0
   -4.1160  -35.7460    3.5510 C   0  0  0  0  0
   -4.5780  -37.0170    3.6420 N   0  0  0  0  0
   -4.2120  -34.8710    4.5870 N   0  0  0  0  0
   -3.7540  -33.5990    4.5030 C   0  0  0  0  0
   -3.1650  -33.1010    3.3910 N   0  0  0  0  0
   -3.0000  -33.8710    2.2770 C   0  0  0  0  0
    2.1330  -38.9622   -4.7339 H   0  0  0  0  0
    0.6511  -38.7110   -2.8019 H   0  0  0  0  0
    3.7378  -35.2112   -2.2673 H   0  0  0  0  0
   -0.7879  -36.7693   -1.7776 H   0  0  0  0  0
   -0.1679  -34.3286   -2.0713 H   0  0  0  0  0
    1.4596  -33.9304   -1.3868 H   0  0  0  0  0
    0.2419  -31.9161   -1.7874 H   0  0  0  0  0
    1.3708  -32.5798    0.6996 H   0  0  0  0  0
    1.4567  -30.3496    0.9436 H   0  0  0  0  0
   -0.7277  -31.0106    1.8057 H   0  0  0  0  0
   -0.4042  -32.6931    2.1566 H   0  0  0  0  0
   -2.6355  -31.6373    0.7387 H   0  0  0  0  0
   -2.2603  -34.9682   -0.6658 H   0  0  0  0  0
   -4.4855  -37.6513    2.8486 H   0  0  0  0  0
   -5.0182  -37.3392    4.5039 H   0  0  0  0  0
   -3.8648  -32.9474    5.3698 H   0  0  0  0  0
  1  2  1  0  0  0
  1  3  2  0  0  0
  1  4  1  0  0  0
  8  1  1  0  0  0
  5  6  2  0  0  0
  5  7  1  0  0  0
  5  8  1  0  0  0
 12  5  1  0  0  0
  9 10  1  0  0  0
  9 11  2  0  0  0
  9 12  1  0  0  0
  9 13  1  0  0  0
 13 14  1  0  0  0
 14 15  1  0  0  0
 15 16  1  0  0  0
 15 17  1  0  0  0
 16 20  1  0  0  0
 17 18  1  0  0  0
 17 19  1  0  0  0
 19 20  1  0  0  0
 20 21  1  0  0  0
 21 22  4  0  0  0
 21 30  4  0  0  0
 22 23  4  0  0  0
 23 24  4  0  0  0
 24 25  4  0  0  0
 24 30  4  0  0  0
 25 26  1  0  0  0
 25 27  4  0  0  0
 27 28  4  0  0  0
 28 29  4  0  0  0
 29 30  4  0  0  0
  2 31  1  0  0  0
  4 32  1  0  0  0
  7 33  1  0  0  0
 10 34  1  0  0  0
 14 35  1  0  0  0
 14 36  1  0  0  0
 15 37  1  0  0  0
 17 38  1  0  0  0
 18 39  1  0  0  0
 19 40  1  0  0  0
 19 41  1  0  0  0
 20 42  1  0  0  0
 22 43  1  0  0  0
 26 44  1  0  0  0
 26 45  1  0  0  0
 28 46  1  0  0  0
M  END
$$$$
