5eld_ligand
  -I-interpret- 

118122  0  0  0  0  0  0  0  0999 V2000
   -5.9450   -5.3450  -32.2180 C   0  0  0  0  0
   -4.9240   -6.4630  -32.1670 C   0  0  0  0  0
   -3.8340   -6.1840  -31.1330 C   0  0  0  0  0
   -3.2540   -4.7450  -31.3030 C   0  0  0  0  0
   -4.3880   -3.7370  -31.3530 C   0  0  0  0  0
   -3.9150   -2.2900  -31.4730 C   0  0  0  0  0
   -5.7070   -8.6900  -32.8070 C   0  0  0  0  0
   -6.4290   -9.9940  -32.4160 C   0  0  0  0  0
   -5.2360   -4.1320  -32.4510 O   0  0  0  0  0
   -2.7930   -7.1540  -31.3030 O   0  0  0  0  0
   -2.3840   -4.4020  -30.2160 O   0  0  0  0  0
   -3.3470   -2.1350  -32.7930 O   0  0  0  0  0
   -5.1930   -8.5940  -33.9240 O   0  0  0  0  0
   -5.6360   -7.7280  -31.8820 N   0  0  0  0  0
   -6.7220   -5.3640  -31.0140 O   0  0  0  0  0
   -1.1130   -3.8610  -30.6480 C   0  0  0  0  0
   -0.5440   -3.1090  -29.4680 C   0  0  0  0  0
    0.8610   -2.6190  -29.8280 C   0  0  0  0  0
    1.7050   -3.8270  -30.2850 C   0  0  0  0  0
    0.9670   -4.5200  -31.4670 C   0  0  0  0  0
    1.6960   -5.7100  -32.0560 C   0  0  0  0  0
   -1.3940   -1.9880  -29.1950 O   0  0  0  0  0
    1.3600   -1.8980  -28.6960 O   0  0  0  0  0
    1.9390   -4.7600  -29.1870 O   0  0  0  0  0
   -0.3290   -4.9400  -31.0520 O   0  0  0  0  0
    0.9880   -6.0950  -33.2710 O   0  0  0  0  0
    2.7310   -0.5810  -30.0260 O   0  0  0  0  0
    2.7050   -1.5130  -28.9190 C   0  0  0  0  0
    3.2790   -0.8630  -27.7160 C   0  0  0  0  0
    3.1730   -1.7330  -26.5390 N   0  0  0  0  0
    2.5770    0.4000  -27.4010 C   0  0  0  0  0
    3.2470    1.0050  -26.2720 O   0  0  0  0  0
    2.5870    1.3230  -28.6440 C   0  0  0  0  0
    3.9710    1.6230  -28.9410 O   0  0  0  0  0
    1.9250    0.5260  -29.7750 C   0  0  0  0  0
    1.6990    1.3090  -31.0790 C   0  0  0  0  0
    1.7350    0.3140  -32.1710 O   0  0  0  0  0
    4.2830   -2.1520  -25.9320 C   0  0  0  0  0
    5.4250   -1.9530  -26.3410 O   0  0  0  0  0
    4.0900   -2.9120  -24.6400 C   0  0  0  0  0
   -1.4390   -1.4960  -27.8640 C   0  0  0  0  0
   -2.0700   -0.1460  -27.8520 C   0  0  0  0  0
   -3.5340   -0.2160  -28.3300 C   0  0  0  0  0
   -4.3190   -1.3460  -27.5970 C   0  0  0  0  0
   -3.5390   -2.6370  -27.7050 C   0  0  0  0  0
   -4.2780   -3.7550  -26.9560 C   0  0  0  0  0
   -1.3290    0.7040  -28.7790 O   0  0  0  0  0
   -4.1380    1.0730  -28.1290 O   0  0  0  0  0
   -4.4960   -0.9850  -26.2060 O   0  0  0  0  0
   -2.2600   -2.4490  -27.1160 O   0  0  0  0  0
   -2.8980   -8.3840  -30.5310 C   0  0  0  0  0
   -1.9890   -9.4380  -31.1040 C   0  0  0  0  0
   -0.5400   -8.9710  -31.0790 C   0  0  0  0  0
   -0.1460   -8.5310  -29.6570 C   0  0  0  0  0
   -1.1370   -7.5280  -29.1270 C   0  0  0  0  0
   -0.8850   -7.2470  -27.6410 C   0  0  0  0  0
   -2.4170   -9.7230  -32.4770 O   0  0  0  0  0
    0.3110  -10.0400  -31.4840 O   0  0  0  0  0
   -0.0540   -9.6900  -28.7660 O   0  0  0  0  0
   -2.4830   -8.0330  -29.2040 O   0  0  0  0  0
   -6.6640   -5.4597  -33.0291 H   0  0  0  0  0
   -4.4156   -6.5383  -33.1282 H   0  0  0  0  0
   -4.2599   -6.2532  -30.1320 H   0  0  0  0  0
   -2.6840   -4.7241  -32.2318 H   0  0  0  0  0
   -4.9356   -3.7484  -30.4106 H   0  0  0  0  0
   -3.1737   -2.0634  -30.7067 H   0  0  0  0  0
   -4.7471   -1.6007  -31.3294 H   0  0  0  0  0
   -7.2515  -10.1740  -33.1082 H   0  0  0  0  0
   -5.7254  -10.8252  -32.4619 H   0  0  0  0  0
   -6.8190   -9.9020  -31.4023 H   0  0  0  0  0
   -3.0381   -1.2328  -32.9033 H   0  0  0  0  0
   -6.0762   -7.8671  -30.9724 H   0  0  0  0  0
   -7.1649   -6.2119  -30.9337 H   0  0  0  0  0
   -1.1780   -3.1694  -31.4880 H   0  0  0  0  0
   -0.4886   -3.7520  -28.5896 H   0  0  0  0  0
    0.8866   -1.9272  -30.6699 H   0  0  0  0  0
    2.6857   -3.4836  -30.6141 H   0  0  0  0  0
    0.9131   -3.7663  -32.2526 H   0  0  0  0  0
    1.7152   -6.5368  -31.3460 H   0  0  0  0  0
    2.7307   -5.4517  -32.2815 H   0  0  0  0  0
    2.4653   -5.4983  -29.5026 H   0  0  0  0  0
    1.4268   -6.8498  -33.6702 H   0  0  0  0  0
    3.2999   -2.3988  -29.1417 H   0  0  0  0  0
    4.3261   -0.6644  -27.9445 H   0  0  0  0  0
    2.2575   -2.0147  -26.1884 H   0  0  0  0  0
    1.5333    0.2225  -27.1416 H   0  0  0  0  0
    2.8099    1.8293  -26.0460 H   0  0  0  0  0
    2.0515    2.2613  -28.4996 H   0  0  0  0  0
    4.0151    2.1961  -29.7099 H   0  0  0  0  0
    0.9244    0.2553  -29.4379 H   0  0  0  0  0
    2.4662    2.0709  -31.2171 H   0  0  0  0  0
    0.7451    1.8360  -31.0598 H   0  0  0  0  0
    1.5977    0.7576  -33.0112 H   0  0  0  0  0
    4.5239   -3.9072  -24.7371 H   0  0  0  0  0
    4.5828   -2.3770  -23.8282 H   0  0  0  0  0
    3.0246   -2.9980  -24.4262 H   0  0  0  0  0
   -0.4448   -1.4002  -27.4275 H   0  0  0  0  0
   -2.0502    0.2475  -26.8357 H   0  0  0  0  0
   -3.5639   -0.4663  -29.3904 H   0  0  0  0  0
   -5.2993   -1.4776  -28.0550 H   0  0  0  0  0
   -3.4347   -2.9147  -28.7539 H   0  0  0  0  0
   -4.3798   -3.4814  -25.9058 H   0  0  0  0  0
   -5.2664   -3.8925  -27.3944 H   0  0  0  0  0
   -3.7106   -4.6821  -27.0379 H   0  0  0  0  0
   -1.7186    1.5814  -28.7881 H   0  0  0  0  0
   -5.0517    1.0462  -28.4222 H   0  0  0  0  0
   -4.9794   -1.6810  -25.7549 H   0  0  0  0  0
   -3.9088   -8.7916  -30.5462 H   0  0  0  0  0
   -2.0513  -10.3447  -30.5022 H   0  0  0  0  0
   -0.4321   -8.1273  -31.7606 H   0  0  0  0  0
    0.8347   -8.0572  -29.6992 H   0  0  0  0  0
   -1.0157   -6.6309  -29.7341 H   0  0  0  0  0
   -0.9849   -8.1734  -27.0753 H   0  0  0  0  0
    0.1216   -6.8486  -27.5135 H   0  0  0  0  0
   -1.6131   -6.5199  -27.2815 H   0  0  0  0  0
   -1.8455  -10.3947  -32.8562 H   0  0  0  0  0
    1.2242   -9.7443  -31.4678 H   0  0  0  0  0
    0.1922   -9.3967  -27.8857 H   0  0  0  0  0
  2  1  1  0  0  0
  1  9  1  0  0  0
  1 15  1  0  0  0
  2  3  1  0  0  0
 14  2  1  0  0  0
  3  4  1  0  0  0
  3 10  1  0  0  0
  4  5  1  0  0  0
  4 11  1  0  0  0
  5  6  1  0  0  0
  9  5  1  0  0  0
  6 12  1  0  0  0
  7  8  1  0  0  0
  7 13  2  0  0  0
  7 14  1  0  0  0
 10 51  1  0  0  0
 11 16  1  0  0  0
 16 17  1  0  0  0
 16 25  1  0  0  0
 17 18  1  0  0  0
 17 22  1  0  0  0
 18 19  1  0  0  0
 18 23  1  0  0  0
 19 20  1  0  0  0
 19 24  1  0  0  0
 20 21  1  0  0  0
 20 25  1  0  0  0
 21 26  1  0  0  0
 22 41  1  0  0  0
 23 28  1  0  0  0
 28 27  1  0  0  0
 27 35  1  0  0  0
 28 29  1  0  0  0
 29 30  1  0  0  0
 29 31  1  0  0  0
 30 38  1  0  0  0
 31 32  1  0  0  0
 31 33  1  0  0  0
 33 34  1  0  0  0
 33 35  1  0  0  0
 35 36  1  0  0  0
 36 37  1  0  0  0
 38 39  2  0  0  0
 38 40  1  0  0  0
 41 42  1  0  0  0
 41 50  1  0  0  0
 42 43  1  0  0  0
 42 47  1  0  0  0
 43 44  1  0  0  0
 43 48  1  0  0  0
 44 45  1  0  0  0
 44 49  1  0  0  0
 45 46  1  0  0  0
 45 50  1  0  0  0
 51 52  1  0  0  0
 51 60  1  0  0  0
 52 53  1  0  0  0
 52 57  1  0  0  0
 53 54  1  0  0  0
 53 58  1  0  0  0
 54 55  1  0  0  0
 54 59  1  0  0  0
 55 56  1  0  0  0
 55 60  1  0  0  0
  1 61  1  0  0  0
  2 62  1  0  0  0
  3 63  1  0  0  0
  4 64  1  0  0  0
  5 65  1  0  0  0
  6 66  1  0  0  0
  6 67  1  0  0  0
  8 68  1  0  0  0
  8 69  1  0  0  0
  8 70  1  0  0  0
 12 71  1  0  0  0
 14 72  1  0  0  0
 15 73  1  0  0  0
 16 74  1  0  0  0
 17 75  1  0  0  0
 18 76  1  0  0  0
 19 77  1  0  0  0
 20 78  1  0  0  0
 21 79  1  0  0  0
 21 80  1  0  0  0
 24 81  1  0  0  0
 26 82  1  0  0  0
 28 83  1  0  0  0
 29 84  1  0  0  0
 30 85  1  0  0  0
 31 86  1  0  0  0
 32 87  1  0  0  0
 33 88  1  0  0  0
 34 89  1  0  0  0
 35 90  1  0  0  0
 36 91  1  0  0  0
 36 92  1  0  0  0
 37 93  1  0  0  0
 40 94  1  0  0  0
 40 95  1  0  0  0
 40 96  1  0  0  0
 41 97  1  0  0  0
 42 98  1  0  0  0
 43 99  1  0  0  0
 44100  1  0  0  0
 45101  1  0  0  0
 46102  1  0  0  0
 46103  1  0  0  0
 46104  1  0  0  0
 47105  1  0  0  0
 48106  1  0  0  0
 49107  1  0  0  0
 51108  1  0  0  0
 52109  1  0  0  0
 53110  1  0  0  0
 54111  1  0  0  0
 55112  1  0  0  0
 56113  1  0  0  0
 56114  1  0  0  0
 56115  1  0  0  0
 57116  1  0  0  0
 58117  1  0  0  0
 59118  1  0  0  0
M  END
$$$$
