5fsc_ligand
  -I-interpret- 

 34 34  0  0  0  0  0  0  0  0999 V2000
  -25.9090  -14.1090   23.3250 O   0  0  0  0  0
  -25.6160  -14.5800   24.5950 C   0  0  0  0  0
  -26.8700  -14.9740   25.4190 C   0  0  0  0  0
  -26.6030  -15.2280   26.9540 C   0  0  0  0  0
  -26.3210  -14.0140   27.6120 O   0  0  0  0  0
  -25.0140  -13.9710   28.0820 C   0  0  0  0  0
  -27.7210  -15.9010   27.7460 C   0  0  0  0  0
  -27.3030  -16.2610   29.0380 O   0  0  0  0  0
  -28.2150  -17.1430   26.9410 C   0  0  0  0  0
  -27.2820  -18.1840   26.9880 O   0  0  0  0  0
  -27.4730  -16.1230   24.8070 O   0  0  0  0  0
  -28.5760  -16.6690   25.4980 C   0  0  0  0  0
  -29.5830  -15.7820   25.6830 O   0  0  0  0  0
  -30.0290  -14.9670   24.6350 C   0  0  0  0  0
  -30.5620  -13.6390   25.2140 C   0  0  0  0  0
  -31.0510  -13.4160   26.4810 C   0  0  0  0  0
  -25.0929  -13.8846   22.8720 H   0  0  0  0  0
  -25.1123  -13.7765   25.1323 H   0  0  0  0  0
  -25.0082  -15.4771   24.4776 H   0  0  0  0  0
  -27.5441  -14.1176   25.4013 H   0  0  0  0  0
  -25.7639  -15.9235   26.9380 H   0  0  0  0  0
  -24.8558  -14.7870   28.7871 H   0  0  0  0  0
  -24.3244  -14.0742   27.2442 H   0  0  0  0  0
  -24.8402  -13.0182   28.5821 H   0  0  0  0  0
  -28.5425  -15.1970   27.8785 H   0  0  0  0  0
  -27.0058  -15.4778   29.5068 H   0  0  0  0  0
  -29.1137  -17.5674   27.3886 H   0  0  0  0  0
  -27.6131  -18.9318   26.4853 H   0  0  0  0  0
  -28.8782  -17.4971   24.8569 H   0  0  0  0  0
  -30.8260  -15.4744   24.0915 H   0  0  0  0  0
  -29.2027  -14.7630   23.9540 H   0  0  0  0  0
  -30.5497  -12.7801   24.5430 H   0  0  0  0  0
  -31.0908  -14.2330   27.2014 H   0  0  0  0  0
  -31.3985  -12.4224   26.7640 H   0  0  0  0  0
  1  2  1  0  0  0
  2  3  1  0  0  0
  3  4  1  0  0  0
  3 11  1  0  0  0
  4  5  1  0  0  0
  4  7  1  0  0  0
  5  6  1  0  0  0
  7  8  1  0  0  0
  7  9  1  0  0  0
  9 10  1  0  0  0
  9 12  1  0  0  0
 11 12  1  0  0  0
 12 13  1  0  0  0
 13 14  1  0  0  0
 14 15  1  0  0  0
 15 16  2  0  0  0
  1 17  1  0  0  0
  2 18  1  0  0  0
  2 19  1  0  0  0
  3 20  1  0  0  0
  4 21  1  0  0  0
  6 22  1  0  0  0
  6 23  1  0  0  0
  6 24  1  0  0  0
  7 25  1  0  0  0
  8 26  1  0  0  0
  9 27  1  0  0  0
 10 28  1  0  0  0
 12 29  1  0  0  0
 14 30  1  0  0  0
 14 31  1  0  0  0
 15 32  1  0  0  0
 16 33  1  0  0  0
 16 34  1  0  0  0
M  END
$$$$
