4cg9_ligand
  -I-interpret- 

 43 45  0  0  0  0  0  0  0  0999 V2000
  -20.6390   14.3650    9.3450 C   0  0  0  0  0
  -20.7810   12.8960    9.3040 N   0  3  0  0  0
  -22.0750   12.2690    8.9680 C   0  0  0  0  0
  -19.7030   12.1060    9.4620 C   0  0  0  0  0
  -19.8650   10.7210    9.4210 C   0  0  0  0  0
  -18.7550    9.8960    9.5500 C   0  0  0  0  0
  -18.4150   12.6370    9.6320 C   0  0  0  0  0
  -17.2880   11.8180    9.7770 C   0  0  0  0  0
  -17.4590   10.4270    9.7490 N   0  0  0  0  0
  -16.3030    9.4930    9.8580 C   0  0  0  0  0
  -16.3180    8.7750    8.6490 C   0  0  0  0  0
  -15.8360    9.3570    7.4740 C   0  0  0  0  0
  -15.8910    8.6350    6.2720 C   0  0  0  0  0
  -16.8850    7.4990    8.6050 C   0  0  0  0  0
  -16.9460    6.7750    7.4130 C   0  0  0  0  0
  -16.4510    7.3440    6.2380 C   0  0  0  0  0
  -16.5140    6.6330    5.0300 C   0  0  0  0  0
  -17.6670    5.9030    4.7140 C   0  0  0  0  0
  -17.7570    5.1960    3.5170 C   0  0  0  0  0
  -15.4440    6.6620    4.1260 C   0  0  0  0  0
  -15.5370    5.9600    2.9200 C   0  0  0  0  0
  -16.6880    5.2290    2.6140 C   0  0  0  0  0
  -20.2359   14.6629   10.3129 H   0  0  0  0  0
  -19.9615   14.6855    8.5536 H   0  0  0  0  0
  -21.6152   14.8273    9.1987 H   0  0  0  0  0
  -21.9831   11.7327    8.0235 H   0  0  0  0  0
  -22.3552   11.5716    9.7575 H   0  0  0  0  0
  -22.8385   13.0414    8.8759 H   0  0  0  0  0
  -20.8568   10.2888    9.2885 H   0  0  0  0  0
  -18.8855    8.8152    9.4967 H   0  0  0  0  0
  -18.2879   13.7194    9.6518 H   0  0  0  0  0
  -16.2976   12.2537    9.9090 H   0  0  0  0  0
  -16.3868    8.8372   10.7246 H   0  0  0  0  0
  -15.3620   10.0221   10.0082 H   0  0  0  0  0
  -15.4203   10.3645    7.4908 H   0  0  0  0  0
  -15.4969    9.0775    5.3571 H   0  0  0  0  0
  -17.2872    7.0606    9.5183 H   0  0  0  0  0
  -17.3765    5.7737    7.3997 H   0  0  0  0  0
  -18.5034    5.8880    5.4127 H   0  0  0  0  0
  -18.6536    4.6211    3.2852 H   0  0  0  0  0
  -14.5434    7.2290    4.3615 H   0  0  0  0  0
  -14.7066    5.9832    2.2144 H   0  0  0  0  0
  -16.7533    4.6845    1.6720 H   0  0  0  0  0
  1  2  1  0  0  0
  2  3  1  0  0  0
  2  4  2  0  0  0
  4  5  1  0  0  0
  4  7  1  0  0  0
  5  6  2  0  0  0
  6  9  1  0  0  0
  7  8  2  0  0  0
  8  9  1  0  0  0
  9 10  1  0  0  0
 10 11  1  0  0  0
 11 12  4  0  0  0
 11 14  4  0  0  0
 12 13  4  0  0  0
 13 16  4  0  0  0
 14 15  4  0  0  0
 15 16  4  0  0  0
 16 17  1  0  0  0
 17 18  4  0  0  0
 17 20  4  0  0  0
 18 19  4  0  0  0
 19 22  4  0  0  0
 20 21  4  0  0  0
 21 22  4  0  0  0
  1 23  1  0  0  0
  1 24  1  0  0  0
  1 25  1  0  0  0
  3 26  1  0  0  0
  3 27  1  0  0  0
  3 28  1  0  0  0
  5 29  1  0  0  0
  6 30  1  0  0  0
  7 31  1  0  0  0
  8 32  1  0  0  0
 10 33  1  0  0  0
 10 34  1  0  0  0
 12 35  1  0  0  0
 13 36  1  0  0  0
 14 37  1  0  0  0
 15 38  1  0  0  0
 18 39  1  0  0  0
 19 40  1  0  0  0
 20 41  1  0  0  0
 21 42  1  0  0  0
 22 43  1  0  0  0
M  END
$$$$
