4u6w_ligand
  -I-interpret- 

 34 33  0  0  0  0  0  0  0  0999 V2000
   22.0220   -2.2030   12.4430 O   0  0  0  0  0
   21.6350   -2.6570   11.1120 P   0  0  0  0  0
   20.1820   -3.3310   11.0440 O   0  0  0  0  0
   21.6640   -1.3300   10.2850 O   0  0  0  0  0
   22.8070   -3.7730   10.2500 C   0  0  0  0  0
   23.7650   -2.9880    9.4270 N   0  3  0  0  0
   23.4800   -4.8010   11.1860 C   0  0  0  0  0
   24.8790   -5.0420   10.6530 C   0  0  0  0  0
   25.5980   -6.1730   11.3510 C   0  0  0  0  0
   26.9400   -5.7560   11.8320 C   0  0  0  0  0
   22.7200   -6.1250   11.3060 C   0  0  0  0  0
   23.3580   -7.4170   10.7300 C   0  0  0  0  0
   22.3710   -8.4360   10.2640 C   0  0  0  0  0
   19.9985   -3.6029   10.1418 H   0  0  0  0  0
   21.4203   -1.5159    9.3752 H   0  0  0  0  0
   22.2283   -4.3914    9.5638 H   0  0  0  0  0
   23.2492   -2.3341    8.8381 H   0  0  0  0  0
   24.3945   -2.4709   10.0408 H   0  0  0  0  0
   24.3061   -3.6224    8.8396 H   0  0  0  0  0
   23.4908   -4.3899   12.1955 H   0  0  0  0  0
   25.4561   -4.1324   10.8193 H   0  0  0  0  0
   24.7889   -5.3090    9.6001 H   0  0  0  0  0
   25.7260   -6.9894   10.6403 H   0  0  0  0  0
   25.0038   -6.4784   12.2123 H   0  0  0  0  0
   27.5450   -5.4352   10.9840 H   0  0  0  0  0
   26.8320   -4.9307   12.5358 H   0  0  0  0  0
   27.4243   -6.5972   12.3280 H   0  0  0  0  0
   21.8100   -5.9789   10.7240 H   0  0  0  0  0
   22.6409   -6.3060   12.3780 H   0  0  0  0  0
   23.9357   -7.8745   11.5331 H   0  0  0  0  0
   23.9489   -7.1232    9.8625 H   0  0  0  0  0
   21.7396   -8.7372   11.0999 H   0  0  0  0  0
   21.7523   -8.0069    9.4758 H   0  0  0  0  0
   22.9031   -9.3051    9.8773 H   0  0  0  0  0
  1  2  2  0  0  0
  2  3  1  0  0  0
  2  4  1  0  0  0
  2  5  1  0  0  0
  5  6  1  0  0  0
  5  7  1  0  0  0
  7  8  1  0  0  0
  7 11  1  0  0  0
  8  9  1  0  0  0
  9 10  1  0  0  0
 11 12  1  0  0  0
 12 13  1  0  0  0
  3 14  1  0  0  0
  4 15  1  0  0  0
  5 16  1  0  0  0
  6 17  1  0  0  0
  6 18  1  0  0  0
  6 19  1  0  0  0
  7 20  1  0  0  0
  8 21  1  0  0  0
  8 22  1  0  0  0
  9 23  1  0  0  0
  9 24  1  0  0  0
 10 25  1  0  0  0
 10 26  1  0  0  0
 10 27  1  0  0  0
 11 28  1  0  0  0
 11 29  1  0  0  0
 12 30  1  0  0  0
 12 31  1  0  0  0
 13 32  1  0  0  0
 13 33  1  0  0  0
 13 34  1  0  0  0
M  END
$$$$
