2piy_ligand
  -I-interpret- 

 67 68  0  0  0  0  0  0  0  0999 V2000
   39.2930   14.7300   68.2480 C   0  0  0  0  0
   40.5210   15.4400   68.2960 C   0  0  0  0  0
   41.6140   15.0210   67.4950 C   0  0  0  0  0
   41.4810   13.8940   66.6460 C   0  0  0  0  0
   40.2540   13.1820   66.5960 C   0  0  0  0  0
   39.1560   13.5980   67.3970 C   0  0  0  0  0
   37.8210   12.8160   67.3520 C   0  0  0  0  0
   36.6920   13.6000   66.6520 C   0  0  0  0  0
   36.9240   13.7190   65.1400 C   0  0  0  0  0
   35.7810   14.8830   64.3390 S   0  0  0  0  0
   34.3600   14.4580   64.5980 O   0  0  0  0  0
   36.0000   16.2510   64.9040 O   0  0  0  0  0
   36.0790   14.9090   62.7190 N   0  0  0  0  0
   35.0830   14.6060   61.7260 C   0  0  0  0  0
   34.8910   15.7800   60.7300 C   0  0  0  0  0
   36.1750   16.1800   59.9940 C   0  0  0  0  0
   34.3310   17.0000   61.4690 C   0  0  0  0  0
   35.3560   12.9430   60.9630 P   0  0  0  0  0
   34.4320   12.7930   59.8150 O   0  0  0  0  0
   35.2360   11.9750   62.0800 O   0  0  0  0  0
   37.0720   12.9060   60.3390 C   0  0  0  0  0
   37.4970   11.4490   60.0160 C   0  0  0  0  0
   37.7360   10.6200   61.3020 C   0  0  0  0  0
   37.3990    9.4200   61.2670 O   0  0  0  0  0
   38.2560   11.2070   62.2820 O   0  0  0  0  0
   38.7870   11.4110   59.1630 C   0  0  0  0  0
   38.8010   10.6340   57.9820 C   0  0  0  0  0
   39.9820   12.0610   59.5900 C   0  0  0  0  0
   41.1750   11.9180   58.8420 C   0  0  0  0  0
   41.1830   11.1330   57.6660 C   0  0  0  0  0
   39.9950   10.4920   57.2370 C   0  0  0  0  0
   40.0030    9.6280   55.9820 C   0  0  0  0  0
   40.1050    8.2160   56.3740 N   0  3  0  0  0
   38.4536   15.0524   68.8640 H   0  0  0  0  0
   40.6241   16.3071   68.9483 H   0  0  0  0  0
   42.5571   15.5663   67.5324 H   0  0  0  0  0
   42.3218   13.5736   66.0308 H   0  0  0  0  0
   40.1537   12.3153   65.9426 H   0  0  0  0  0
   37.5095   12.6282   68.3795 H   0  0  0  0  0
   37.9902   11.8991   66.7875 H   0  0  0  0  0
   36.6650   14.6054   67.0721 H   0  0  0  0  0
   35.7563   13.0640   66.8114 H   0  0  0  0  0
   36.7606   12.7354   64.6996 H   0  0  0  0  0
   37.9378   14.0890   64.9867 H   0  0  0  0  0
   37.0180   15.1525   62.4037 H   0  0  0  0  0
   34.1149   14.5136   62.2183 H   0  0  0  0  0
   34.1907   15.4270   59.9730 H   0  0  0  0  0
   36.9271   16.4891   60.7199 H   0  0  0  0  0
   36.5463   15.3279   59.4246 H   0  0  0  0  0
   35.9613   17.0063   59.3161 H   0  0  0  0  0
   33.3700   16.7435   61.9149 H   0  0  0  0  0
   35.0276   17.3004   62.2517 H   0  0  0  0  0
   34.1985   17.8208   60.7642 H   0  0  0  0  0
   35.8878   12.1829   62.7535 H   0  0  0  0  0
   37.7369   13.3094   61.1027 H   0  0  0  0  0
   37.1327   13.5040   59.4297 H   0  0  0  0  0
   36.6723   11.0113   59.4535 H   0  0  0  0  0
   38.4197   12.1250   62.0537 H   0  0  0  0  0
   37.8885   10.1426   57.6444 H   0  0  0  0  0
   39.9768   12.6693   60.4944 H   0  0  0  0  0
   42.0880   12.4132   59.1726 H   0  0  0  0  0
   42.1019   11.0213   57.0905 H   0  0  0  0  0
   40.8531    9.8978   55.3554 H   0  0  0  0  0
   39.0829    9.7878   55.4199 H   0  0  0  0  0
   40.1109    7.6318   55.5379 H   0  0  0  0  0
   40.9684    8.0712   56.8974 H   0  0  0  0  0
   39.3063    7.9679   56.9579 H   0  0  0  0  0
  1  2  4  0  0  0
  1  6  4  0  0  0
  2  3  4  0  0  0
  3  4  4  0  0  0
  4  5  4  0  0  0
  5  6  4  0  0  0
  6  7  1  0  0  0
  7  8  1  0  0  0
  8  9  1  0  0  0
  9 10  1  0  0  0
 10 11  2  0  0  0
 10 12  2  0  0  0
 10 13  1  0  0  0
 13 14  1  0  0  0
 14 15  1  0  0  0
 14 18  1  0  0  0
 15 16  1  0  0  0
 15 17  1  0  0  0
 18 19  2  0  0  0
 18 20  1  0  0  0
 18 21  1  0  0  0
 21 22  1  0  0  0
 22 23  1  0  0  0
 22 26  1  0  0  0
 23 24  2  0  0  0
 23 25  1  0  0  0
 26 27  4  0  0  0
 26 28  4  0  0  0
 27 31  4  0  0  0
 28 29  4  0  0  0
 29 30  4  0  0  0
 30 31  4  0  0  0
 31 32  1  0  0  0
 32 33  1  0  0  0
  1 34  1  0  0  0
  2 35  1  0  0  0
  3 36  1  0  0  0
  4 37  1  0  0  0
  5 38  1  0  0  0
  7 39  1  0  0  0
  7 40  1  0  0  0
  8 41  1  0  0  0
  8 42  1  0  0  0
  9 43  1  0  0  0
  9 44  1  0  0  0
 13 45  1  0  0  0
 14 46  1  0  0  0
 15 47  1  0  0  0
 16 48  1  0  0  0
 16 49  1  0  0  0
 16 50  1  0  0  0
 17 51  1  0  0  0
 17 52  1  0  0  0
 17 53  1  0  0  0
 20 54  1  0  0  0
 21 55  1  0  0  0
 21 56  1  0  0  0
 22 57  1  0  0  0
 25 58  1  0  0  0
 27 59  1  0  0  0
 28 60  1  0  0  0
 29 61  1  0  0  0
 30 62  1  0  0  0
 32 63  1  0  0  0
 32 64  1  0  0  0
 33 65  1  0  0  0
 33 66  1  0  0  0
 33 67  1  0  0  0
M  END
$$$$
