### 
### Created by X-TOOL on Mon Sep 10 21:12:57 2018
### 

@<TRIPOS>MOLECULE
2piy_ligand
   65    66     1     0     0
SMALL
GAST_HUCK


@<TRIPOS>ATOM
      1 C37        39.2930   14.7300   68.2480 C.ar      1 528        -0.0603
      2 C38        40.5210   15.4400   68.2960 C.ar      1 528        -0.0686
      3 C41        41.6140   15.0210   67.4950 C.ar      1 528        -0.0687
      4 C40        41.4810   13.8940   66.6460 C.ar      1 528        -0.0686
      5 C39        40.2540   13.1820   66.5960 C.ar      1 528        -0.0603
      6 C36        39.1560   13.5980   67.3970 C.ar      1 528        -0.0430
      7 C35        37.8210   12.8160   67.3520 C.3       1 528        -0.0176
      8 C34        36.6920   13.6000   66.6520 C.3       1 528        -0.0221
      9 C33        36.9240   13.7190   65.1400 C.3       1 528         0.0862
     10 S32        35.7810   14.8830   64.3390 S.o2      1 528         0.0407
     11 O32        34.3600   14.4580   64.5980 O.2       1 528        -0.1554
     12 O33        36.0000   16.2510   64.9040 O.2       1 528        -0.1554
     13 N31        36.0790   14.9090   62.7190 N.am      1 528        -0.2318
     14 C27        35.0830   14.6060   61.7260 C.3       1 528         0.1039
     15 C28        34.8910   15.7800   60.7300 C.3       1 528        -0.0107
     16 C30        36.1750   16.1800   59.9940 C.3       1 528        -0.0594
     17 C29        34.3310   17.0000   61.4690 C.3       1 528        -0.0594
     18 P24        35.3560   12.9430   60.9630 P.3       1 528         0.0106
     19 O25        34.4320   12.7930   59.8150 O.co2     1 528        -0.6177
     20 O26        35.2360   11.9750   62.0800 O.co2     1 528        -0.6177
     21 C15        37.0720   12.9060   60.3390 C.3       1 528         0.0387
     22 C1         37.4970   11.4490   60.0160 C.3       1 528         0.0592
     23 C2         37.7360   10.6200   61.3020 C.2       1 528         0.0508
     24 O14        37.3990    9.4200   61.2670 O.co2     1 528        -0.5660
     25 O13        38.2560   11.2070   62.2820 O.co2     1 528        -0.5660
     26 C3         38.7870   11.4110   59.1630 C.ar      1 528        -0.0322
     27 C8         38.8010   10.6340   57.9820 C.ar      1 528        -0.0522
     28 C4         39.9820   12.0610   59.5900 C.ar      1 528        -0.0653
     29 C5         41.1750   11.9180   58.8420 C.ar      1 528        -0.0748
     30 C6         41.1830   11.1330   57.6660 C.ar      1 528        -0.0621
     31 C7         39.9950   10.4920   57.2370 C.ar      1 528        -0.0052
     32 C9         40.0030    9.6280   55.9820 C.3       1 528        -0.0032
     33 N10        40.1050    8.2160   56.3740 N.4       1 528         0.2307
     34 H1         38.4582   15.0507   68.8606 H         1 528         0.0557
     35 H2         40.6236   16.3024   68.9447 H         1 528         0.0599
     36 H3         42.5519   15.5633   67.5322 H         1 528         0.0559
     37 H4         42.3172   13.5754   66.0342 H         1 528         0.0599
     38 H5         40.1543   12.3201   65.9462 H         1 528         0.0557
     39 H6         37.5082   12.5950   68.3832 H         1 528         0.0426
     40 H7         37.9838   11.8737   66.8083 H         1 528         0.0426
     41 H8         36.6413   14.6105   67.0837 H         1 528         0.0303
     42 H9         35.7386   13.0792   66.8247 H         1 528         0.0303
     43 H10        36.7901   12.7265   64.6851 H         1 528         0.0520
     44 H11        37.9541   14.0648   64.9690 H         1 528         0.0520
     45 H12        36.9996   15.1477   62.4099 H         1 528         0.1689
     46 H13        34.1285   14.5241   62.2665 H         1 528         0.0720
     47 H14        34.1572   15.4608   59.9753 H         1 528         0.0330
     48 H15        35.9606   17.0139   59.3095 H         1 528         0.0233
     49 H16        36.5508   15.3209   59.4189 H         1 528         0.0233
     50 H17        36.9349   16.4922   60.7255 H         1 528         0.0233
     51 H18        33.4093   16.7167   61.9985 H         1 528         0.0233
     52 H19        34.1074   17.7969   60.7444 H         1 528         0.0233
     53 H20        35.0741   17.3621   62.1947 H         1 528         0.0233
     54 H21        37.7454   13.3190   61.1045 H         1 528         0.0508
     55 H22        37.1389   13.5144   59.4250 H         1 528         0.0508
     56 H23        36.6842   10.9786   59.4433 H         1 528         0.0638
     57 H24        37.8935   10.1453   57.6462 H         1 528         0.0499
     58 H25        39.9768   12.6660   60.4895 H         1 528         0.0502
     59 H26        42.0830   12.4105   59.1708 H         1 528         0.0582
     60 H27        42.0969   11.0219   57.0937 H         1 528         0.0503
     61 H28        40.8637    9.8992   55.3530 H         1 528         0.0978
     62 H29        39.0721    9.7878   55.4183 H         1 528         0.0978
     63 H30        40.1109    7.6377   55.5484 H         1 528         0.2008
     64 H31        39.3162    7.9697   56.9511 H         1 528         0.2008
     65 H32        40.9580    8.0717   56.8914 H         1 528         0.2008
@<TRIPOS>BOND
     1    1    2 ar 
     2    1    6 ar 
     3    2    3 ar 
     4    3    4 ar 
     5    4    5 ar 
     6    5    6 ar 
     7    6    7 1  
     8    7    8 1  
     9    8    9 1  
    10    9   10 1  
    11   10   11 2  
    12   10   12 2  
    13   10   13 am 
    14   13   14 1  
    15   14   15 1  
    16   14   18 1  
    17   15   16 1  
    18   15   17 1  
    19   18   19 ar 
    20   18   20 ar 
    21   18   21 1  
    22   21   22 1  
    23   22   23 1  
    24   22   26 1  
    25   23   24 ar 
    26   23   25 ar 
    27   26   27 ar 
    28   26   28 ar 
    29   27   31 ar 
    30   28   29 ar 
    31   29   30 ar 
    32   30   31 ar 
    33   31   32 1  
    34   32   33 1  
    35    1   34 1  
    36    2   35 1  
    37    3   36 1  
    38    4   37 1  
    39    5   38 1  
    40    7   39 1  
    41    7   40 1  
    42    8   41 1  
    43    8   42 1  
    44    9   43 1  
    45    9   44 1  
    46   13   45 1  
    47   14   46 1  
    48   15   47 1  
    49   16   48 1  
    50   16   49 1  
    51   16   50 1  
    52   17   51 1  
    53   17   52 1  
    54   17   53 1  
    55   21   54 1  
    56   21   55 1  
    57   22   56 1  
    58   27   57 1  
    59   28   58 1  
    60   29   59 1  
    61   30   60 1  
    62   32   61 1  
    63   32   62 1  
    64   33   63 1  
    65   33   64 1  
    66   33   65 1  
@<TRIPOS>SUBSTRUCTURE
     1 528         1

