3gtc_ligand
  -I-interpret- 

 27 28  0  0  0  0  0  0  0  0999 V2000
   21.2240    4.0880   11.3600 C   0  0  0  0  0
   23.6620    4.6150   11.5230 C   0  0  0  0  0
   21.1460    5.6220   11.2740 C   0  0  0  0  0
   22.1070    6.1300   10.2010 C   0  0  0  0  0
   18.6190    2.1690    9.9100 C   0  0  0  0  0
   19.1490    5.9570    9.9930 O   0  0  0  0  0
   19.7450    6.1510   11.0740 C   0  0  0  0  0
   19.2200    6.7880   12.0160 O   0  0  0  0  0
   23.5410    5.8760   10.6680 C   0  0  0  0  0
   22.6380    3.5700   11.1020 C   0  0  0  0  0
   20.2660    3.3940   10.4610 C   0  0  0  0  0
   20.1930    3.3820    9.0980 N   0  0  0  0  0
   19.1030    2.5740    8.7200 N   0  0  0  0  0
   19.2820    2.6300   10.9610 N   0  0  0  0  0
   17.2270    1.1000   10.1730 S   0  0  0  0  0
   20.9398    3.8519   12.3855 H   0  0  0  0  0
   23.4827    4.8804   12.5649 H   0  0  0  0  0
   24.6607    4.1984   11.3923 H   0  0  0  0  0
   21.4540    6.0134   12.2436 H   0  0  0  0  0
   21.9530    7.1971   10.0409 H   0  0  0  0  0
   21.9248    5.6064    9.2625 H   0  0  0  0  0
   19.8325    6.8283   12.7541 H   0  0  0  0  0
   24.1648    5.7445    9.7839 H   0  0  0  0  0
   23.8529    6.7258   11.2752 H   0  0  0  0  0
   22.7548    3.3625   10.0383 H   0  0  0  0  0
   22.7969    2.6598   11.6802 H   0  0  0  0  0
   17.0465    0.9228   11.4787 H   0  0  0  0  0
  1  3  1  0  0  0
  1 10  1  0  0  0
 11  1  1  0  0  0
  2  9  1  0  0  0
 10  2  1  0  0  0
  3  4  1  0  0  0
  3  7  1  0  0  0
  4  9  1  0  0  0
  5 13  4  0  0  0
 14  5  4  0  0  0
  5 15  1  0  0  0
  7  6  2  0  0  0
  7  8  1  0  0  0
 11 12  4  0  0  0
 11 14  4  0  0  0
 12 13  4  0  0  0
  1 16  1  0  0  0
  2 17  1  0  0  0
  2 18  1  0  0  0
  3 19  1  0  0  0
  4 20  1  0  0  0
  4 21  1  0  0  0
  8 22  1  0  0  0
  9 23  1  0  0  0
  9 24  1  0  0  0
 10 25  1  0  0  0
 10 26  1  0  0  0
 15 27  1  0  0  0
M  END
$$$$
