4pkb_ligand
  -I-interpret- 

 14 13  0  0  0  0  0  0  0  0999 V2000
   13.9670  -31.3260  -10.3090 C   0  0  0  0  0
   14.0580  -29.0620  -11.5870 O   0  0  0  0  0
   14.0740  -30.5420  -11.7610 P   0  0  0  0  0
   15.0510  -30.9110   -9.4320 C   0  0  0  0  0
   12.8300  -31.2940  -12.7560 O   0  0  0  0  0
   12.4200  -32.6980  -12.5630 C   0  0  0  0  0
   14.0367  -32.4005  -10.4781 H   0  0  0  0  0
   13.0146  -31.0792   -9.8399 H   0  0  0  0  0
   16.0063  -31.1518   -9.8983 H   0  0  0  0  0
   14.9885  -29.8360   -9.2629 H   0  0  0  0  0
   14.9675  -31.4353   -8.4801 H   0  0  0  0  0
   13.2805  -33.3502  -12.7122 H   0  0  0  0  0
   12.0357  -32.8271  -11.5512 H   0  0  0  0  0
   11.6420  -32.9503  -13.2835 H   0  0  0  0  0
  1  3  1  0  0  0
  1  4  1  0  0  0
  3  2  2  0  0  0
  3  5  1  0  0  0
  5  6  1  0  0  0
  1  7  1  0  0  0
  1  8  1  0  0  0
  4  9  1  0  0  0
  4 10  1  0  0  0
  4 11  1  0  0  0
  6 12  1  0  0  0
  6 13  1  0  0  0
  6 14  1  0  0  0
M  END
$$$$
