5ccl_ligand
  -I-interpret- 

 37 39  0  0  0  0  0  0  0  0999 V2000
   16.2170    4.5520   14.4640 O   0  0  0  0  0
   16.2430    4.6490   15.7010 C   0  0  0  0  0
   17.1730    3.9350   16.3710 N   0  0  0  0  0
   18.2170    3.1400   15.6830 C   0  0  0  0  0
   17.6640    1.8030   15.2500 C   0  0  0  0  0
   18.7560    0.9550   14.6350 C   0  0  0  0  0
   19.9210    0.8300   15.5210 N   0  3  0  0  0
   20.4930    2.1100   15.8990 C   0  0  0  0  0
   19.4330    2.9660   16.5820 C   0  0  0  0  0
   15.1960    5.4370   16.3980 C   0  0  0  0  0
   14.7520    6.5820   15.7280 C   0  0  0  0  0
   13.7500    7.3470   16.2930 C   0  0  0  0  0
   13.1420    6.9110   17.4600 C   0  0  0  0  0
   12.1350    7.8060   17.8140 N   0  0  0  0  0
   11.9920    8.8110   16.8700 C   0  0  0  0  0
   11.1320    9.6670   16.8590 O   0  0  0  0  0
   13.0470    8.5700   15.8210 C   0  0  0  0  0
   13.5230    5.7570   18.1540 C   0  0  0  0  0
   14.5490    5.0140   17.5680 C   0  0  0  0  0
   17.1561    3.9433   17.3908 H   0  0  0  0  0
   18.5332    3.6785   14.7896 H   0  0  0  0  0
   16.8810    1.9656   14.5093 H   0  0  0  0  0
   17.2613    1.2863   16.1212 H   0  0  0  0  0
   19.0803    1.4345   13.7114 H   0  0  0  0  0
   18.3539   -0.0426   14.4582 H   0  0  0  0  0
   20.6379    0.3082   15.0168 H   0  0  0  0  0
   19.6113    0.3659   16.3749 H   0  0  0  0  0
   20.8511    2.6230   15.0064 H   0  0  0  0  0
   21.3224    1.9456   16.5869 H   0  0  0  0  0
   19.1218    2.4720   17.5024 H   0  0  0  0  0
   19.8568    3.9476   16.7938 H   0  0  0  0  0
   15.1912    6.8670   14.7720 H   0  0  0  0  0
   11.5730    7.7312   18.6619 H   0  0  0  0  0
   12.6196    8.4433   14.8263 H   0  0  0  0  0
   13.7222    9.4186   15.7112 H   0  0  0  0  0
   13.0501    5.4584   19.0896 H   0  0  0  0  0
   14.8563    4.0775   18.0334 H   0  0  0  0  0
  1  2  2  0  0  0
  2  3  1  0  0  0
  2 10  1  0  0  0
  3  4  1  0  0  0
  4  5  1  0  0  0
  4  9  1  0  0  0
  5  6  1  0  0  0
  6  7  1  0  0  0
  7  8  1  0  0  0
  8  9  1  0  0  0
 10 11  4  0  0  0
 10 19  4  0  0  0
 11 12  4  0  0  0
 12 13  4  0  0  0
 12 17  1  0  0  0
 13 14  1  0  0  0
 13 18  4  0  0  0
 14 15  1  0  0  0
 15 16  2  0  0  0
 15 17  1  0  0  0
 18 19  4  0  0  0
  3 20  1  0  0  0
  4 21  1  0  0  0
  5 22  1  0  0  0
  5 23  1  0  0  0
  6 24  1  0  0  0
  6 25  1  0  0  0
  7 26  1  0  0  0
  7 27  1  0  0  0
  8 28  1  0  0  0
  8 29  1  0  0  0
  9 30  1  0  0  0
  9 31  1  0  0  0
 11 32  1  0  0  0
 14 33  1  0  0  0
 17 34  1  0  0  0
 17 35  1  0  0  0
 18 36  1  0  0  0
 19 37  1  0  0  0
M  END
$$$$
