2ay3_ligand
  -I-interpret- 

 29 29  0  0  0  0  0  0  0  0999 V2000
   92.0080   16.8320   -4.2230 C   0  0  0  0  0
   92.1300   15.3500   -3.9350 C   0  0  0  0  0
   91.2610   14.7920   -3.2330 O   0  0  0  0  0
   93.1080   14.7260   -4.3990 O   0  0  0  0  0
   93.3610   17.5360   -4.2810 C   0  0  0  0  0
   94.0380   17.7460   -2.9390 C   0  0  0  0  0
   93.9850   18.9910   -2.2980 C   0  0  0  0  0
   94.7680   16.7190   -2.3280 C   0  0  0  0  0
   94.6760   19.2180   -1.0970 C   0  0  0  0  0
   94.6880   20.4440   -0.4440 O   0  0  0  0  0
   93.9380   21.3280   -1.0440 C   0  0  0  0  0
   95.4350   16.9250   -1.1170 C   0  0  0  0  0
   95.3980   18.1790   -0.5160 C   0  0  0  0  0
   96.0770   18.4080    0.6580 O   0  0  0  0  0
   97.3640   18.2390    0.4810 C   0  0  0  0  0
   91.4312   17.2828   -3.4154 H   0  0  0  0  0
   91.5307   16.9449   -5.1964 H   0  0  0  0  0
   93.6575   15.3269   -4.9075 H   0  0  0  0  0
   93.1809   18.5264   -4.6991 H   0  0  0  0  0
   94.0211   16.8976   -4.8681 H   0  0  0  0  0
   93.3977   19.7964   -2.7390 H   0  0  0  0  0
   94.8170   15.7405   -2.8058 H   0  0  0  0  0
   94.3010   21.4808   -2.0604 H   0  0  0  0  0
   92.9092   20.9692   -1.0743 H   0  0  0  0  0
   93.9797   22.2696   -0.4965 H   0  0  0  0  0
   95.9811   16.1076   -0.6462 H   0  0  0  0  0
   97.5533   17.2166    0.1541 H   0  0  0  0  0
   97.7198   18.9362   -0.2776 H   0  0  0  0  0
   97.8860   18.4242    1.4198 H   0  0  0  0  0
  1  2  1  0  0  0
  1  5  1  0  0  0
  2  3  2  0  0  0
  2  4  1  0  0  0
  5  6  1  0  0  0
  6  7  4  0  0  0
  6  8  4  0  0  0
  7  9  4  0  0  0
  8 12  4  0  0  0
  9 10  1  0  0  0
  9 13  4  0  0  0
 10 11  1  0  0  0
 12 13  4  0  0  0
 13 14  1  0  0  0
 14 15  1  0  0  0
  1 16  1  0  0  0
  1 17  1  0  0  0
  4 18  1  0  0  0
  5 19  1  0  0  0
  5 20  1  0  0  0
  7 21  1  0  0  0
  8 22  1  0  0  0
 11 23  1  0  0  0
 11 24  1  0  0  0
 11 25  1  0  0  0
 12 26  1  0  0  0
 15 27  1  0  0  0
 15 28  1  0  0  0
 15 29  1  0  0  0
M  END
$$$$
