4km0_ligand
  -I-interpret- 

 30 31  0  0  0  0  0  0  0  0999 V2000
    2.4240   -1.7970    0.3350 N   0  0  0  0  0
    3.0380   -2.2150   -0.8020 C   0  0  0  0  0
    1.8430   -2.7720    1.0950 C   0  0  0  0  0
    1.8670   -4.1600    0.7880 C   0  0  0  0  0
    2.4790   -4.4960   -0.3900 C   0  0  0  0  0
    2.9790   -3.5270   -1.2070 N   0  0  0  0  0
    1.3090   -5.1380    1.7200 C   0  0  0  0  0
   -0.0500   -5.1380    2.1050 C   0  0  0  0  0
   -0.5340   -6.0670    3.0670 C   0  0  0  0  0
    0.4260   -6.9640    3.6340 C   0  0  0  0  0
    1.8110   -6.9680    3.3340 C   0  0  0  0  0
    2.1880   -6.0620    2.3300 C   0  0  0  0  0
    1.2210   -2.3370    2.2350 N   0  0  0  0  0
    3.6380   -1.3800   -1.5720 N   0  0  0  0  0
    2.5710   -5.9080   -0.9780 C   0  0  0  0  0
    4.0500   -6.3660   -1.0000 C   0  0  0  0  0
   -0.1810   -8.1160    4.7940 Cl  0  0  0  0  0
   -0.7359   -4.4175    1.6595 H   0  0  0  0  0
   -1.5841   -6.0944    3.3580 H   0  0  0  0  0
    2.5234   -7.6195    3.8400 H   0  0  0  0  0
    3.2265   -6.0716    1.9991 H   0  0  0  0  0
    1.2146   -1.3433    2.4650 H   0  0  0  0  0
    0.7642   -3.0067    2.8540 H   0  0  0  0  0
    3.6575   -0.3887   -1.3326 H   0  0  0  0  0
    4.0949   -1.7083   -2.4228 H   0  0  0  0  0
    2.1781   -5.9033   -1.9947 H   0  0  0  0  0
    1.9882   -6.5947   -0.3641 H   0  0  0  0  0
    4.6327   -5.6788   -1.6134 H   0  0  0  0  0
    4.4429   -6.3700    0.0167 H   0  0  0  0  0
    4.1118   -7.3705   -1.4187 H   0  0  0  0  0
  1  2  4  0  0  0
  1  3  4  0  0  0
  2  6  4  0  0  0
  2 14  1  0  0  0
  3  4  4  0  0  0
  3 13  1  0  0  0
  4  5  4  0  0  0
  4  7  1  0  0  0
  5  6  4  0  0  0
  5 15  1  0  0  0
  7  8  4  0  0  0
  7 12  4  0  0  0
  8  9  4  0  0  0
  9 10  4  0  0  0
 10 11  4  0  0  0
 10 17  1  0  0  0
 11 12  4  0  0  0
 15 16  1  0  0  0
  8 18  1  0  0  0
  9 19  1  0  0  0
 11 20  1  0  0  0
 12 21  1  0  0  0
 13 22  1  0  0  0
 13 23  1  0  0  0
 14 24  1  0  0  0
 14 25  1  0  0  0
 15 26  1  0  0  0
 15 27  1  0  0  0
 16 28  1  0  0  0
 16 29  1  0  0  0
 16 30  1  0  0  0
M  END
$$$$
