3vid_ligand
  -I-interpret- 

 28 31  0  0  0  0  0  0  0  0999 V2000
   -1.3620   19.9310  -28.5670 C   0  0  0  0  0
   -0.1970   17.7050  -29.1820 C   0  0  0  0  0
   -2.2100   16.6350  -31.3580 C   0  0  0  0  0
   -0.4890   20.4680  -27.6210 C   0  0  0  0  0
   -3.0710   16.0200  -32.2650 C   0  0  0  0  0
   -2.8150   21.8490  -28.3520 C   0  0  0  0  0
   -1.9530   22.3900  -27.3970 C   0  0  0  0  0
   -3.1710   19.8810  -29.8720 N   0  0  0  0  0
   -2.5240   20.6150  -28.9460 C   0  0  0  0  0
   -0.7940   21.6980  -27.0280 C   0  0  0  0  0
   -2.4310   18.7850  -30.0720 C   0  0  0  0  0
   -2.8660   17.8170  -30.9880 C   0  0  0  0  0
   -4.0590   17.9710  -31.5940 N   0  0  0  0  0
   -4.1510   16.8190  -32.3890 N   0  0  0  0  0
   -1.2860   18.7420  -29.2780 C   0  0  0  0  0
    0.1100   17.1470  -30.5570 C   0  0  0  0  0
   -0.8870   16.0590  -30.9160 C   0  0  0  0  0
   -0.5292   16.8952  -28.5324 H   0  0  0  0  0
    0.7021   18.1660  -28.7731 H   0  0  0  0  0
    0.4213   19.9350  -27.3466 H   0  0  0  0  0
   -2.9035   15.0726  -32.7773 H   0  0  0  0  0
   -3.7180   22.3891  -28.6365 H   0  0  0  0  0
   -2.1826   23.3518  -26.9384 H   0  0  0  0  0
   -0.1265   22.1187  -26.2760 H   0  0  0  0  0
    1.1145   16.7237  -30.5542 H   0  0  0  0  0
    0.0419   17.9497  -31.2912 H   0  0  0  0  0
   -0.4753   15.4751  -31.7392 H   0  0  0  0  0
   -1.0586   15.4460  -30.0312 H   0  0  0  0  0
  1  4  4  0  0  0
  9  1  4  0  0  0
  1 15  4  0  0  0
 15  2  1  0  0  0
  2 16  1  0  0  0
  3  5  4  0  0  0
 12  3  4  0  0  0
  3 17  1  0  0  0
  4 10  4  0  0  0
  5 14  4  0  0  0
  6  7  4  0  0  0
  9  6  4  0  0  0
  7 10  4  0  0  0
  8  9  4  0  0  0
 11  8  4  0  0  0
 11 12  1  0  0  0
 11 15  4  0  0  0
 12 13  4  0  0  0
 13 14  4  0  0  0
 16 17  1  0  0  0
  2 18  1  0  0  0
  2 19  1  0  0  0
  4 20  1  0  0  0
  5 21  1  0  0  0
  6 22  1  0  0  0
  7 23  1  0  0  0
 10 24  1  0  0  0
 16 25  1  0  0  0
 16 26  1  0  0  0
 17 27  1  0  0  0
 17 28  1  0  0  0
M  END
$$$$
