5u6c_ligand
  -I-interpret- 

 54 57  0  0  0  0  0  0  0  0999 V2000
   -2.1210  -22.9260  -18.0730 N   0  0  0  0  0
   -2.2160  -22.0300  -17.0810 C   0  0  0  0  0
   -3.0450  -20.9150  -17.1620 C   0  0  0  0  0
   -3.0270  -19.8550  -16.1140 C   0  0  0  0  0
   -2.7320  -20.0390  -14.6800 C   0  0  0  0  0
   -4.6980  -17.9050  -20.2690 C   0  0  0  0  0
   -5.3750  -20.3620  -20.5020 C   0  0  0  0  0
   -3.7140  -19.1320  -22.0670 C   0  0  0  0  0
   -3.0040  -18.0000  -22.4510 C   0  0  0  0  0
   -3.1210  -16.8220  -21.7570 C   0  0  0  0  0
   -3.0910  -16.5390  -14.6190 C   0  0  0  0  0
   -3.7330  -21.6160  -19.2360 C   0  0  0  0  0
   -2.8530  -22.7620  -19.1990 C   0  0  0  0  0
   -3.8160  -20.7400  -18.2460 N   0  0  0  0  0
   -2.7770  -18.8790  -14.0620 N   0  0  0  0  0
   -3.0790  -17.9450  -15.0240 N   0  0  0  0  0
   -3.2480  -18.4910  -16.2620 C   0  0  0  0  0
   -3.6410  -17.7230  -17.5370 C   0  0  0  0  0
   -5.0670  -17.6540  -17.8480 N   0  0  0  0  0
   -5.6110  -17.7580  -19.0750 C   0  0  0  0  0
   -4.5820  -19.1180  -20.9680 C   0  0  0  0  0
   -4.4890  -21.4700  -20.3440 O   0  0  0  0  0
   -6.4990  -20.7770  -21.4290 C   0  0  0  0  0
   -3.9760  -16.7720  -20.6710 C   0  0  0  0  0
   -2.2080  -18.0290  -23.5420 F   0  0  0  0  0
   -3.4620  -20.5750  -22.9900 Cl  0  0  0  0  0
   -6.8210  -17.7460  -19.2590 O   0  0  0  0  0
   -5.9730  -17.4070  -16.7290 C   0  0  0  0  0
   -1.6970  -15.9510  -14.5510 C   0  0  0  0  0
   -1.0950  -16.0970  -15.8230 O   0  0  0  0  0
   -2.4520  -21.2790  -13.8980 C   0  0  0  0  0
   -2.6880  -23.6470  -20.1910 N   0  0  0  0  0
   -1.6230  -22.1798  -16.1788 H   0  0  0  0  0
   -5.8356  -20.0724  -19.5575 H   0  0  0  0  0
   -2.5509  -15.9424  -22.0559 H   0  0  0  0  0
   -3.5343  -16.4762  -13.6252 H   0  0  0  0  0
   -3.6600  -15.9776  -15.3601 H   0  0  0  0  0
   -3.1786  -18.2597  -18.3654 H   0  0  0  0  0
   -3.3179  -16.6940  -17.3794 H   0  0  0  0  0
   -7.2151  -19.9601  -21.5181 H   0  0  0  0  0
   -6.0898  -21.0120  -22.4116 H   0  0  0  0  0
   -6.9980  -21.6564  -21.0219 H   0  0  0  0  0
   -4.0903  -15.8386  -20.1197 H   0  0  0  0  0
   -5.8684  -18.2062  -15.9952 H   0  0  0  0  0
   -5.7245  -16.4521  -16.2659 H   0  0  0  0  0
   -6.9998  -17.3791  -17.0938 H   0  0  0  0  0
   -1.1074  -16.4694  -13.7949 H   0  0  0  0  0
   -1.7471  -14.8969  -14.2782 H   0  0  0  0  0
   -0.2085  -15.7294  -15.8003 H   0  0  0  0  0
   -3.3066  -21.9520  -13.9681 H   0  0  0  0  0
   -1.5670  -21.7701  -14.3026 H   0  0  0  0  0
   -2.2786  -21.0173  -12.8542 H   0  0  0  0  0
   -2.0260  -24.4156  -20.0839 H   0  0  0  0  0
   -3.2243  -23.5523  -21.0534 H   0  0  0  0  0
  2  1  4  0  0  0
  1 13  4  0  0  0
  3  2  4  0  0  0
  4  3  1  0  0  0
  3 14  4  0  0  0
  5  4  4  0  0  0
  4 17  4  0  0  0
 15  5  4  0  0  0
  5 31  1  0  0  0
  6 20  1  0  0  0
 21  6  4  0  0  0
  6 24  4  0  0  0
  7 21  1  0  0  0
 22  7  1  0  0  0
  7 23  1  0  0  0
  8  9  4  0  0  0
 21  8  4  0  0  0
  8 26  1  0  0  0
  9 10  4  0  0  0
  9 25  1  0  0  0
 24 10  4  0  0  0
 16 11  1  0  0  0
 11 29  1  0  0  0
 12 13  4  0  0  0
 14 12  4  0  0  0
 12 22  1  0  0  0
 13 32  1  0  0  0
 15 16  4  0  0  0
 16 17  4  0  0  0
 17 18  1  0  0  0
 18 19  1  0  0  0
 19 20  1  0  0  0
 19 28  1  0  0  0
 20 27  2  0  0  0
 29 30  1  0  0  0
  2 33  1  0  0  0
  7 34  1  0  0  0
 10 35  1  0  0  0
 11 36  1  0  0  0
 11 37  1  0  0  0
 18 38  1  0  0  0
 18 39  1  0  0  0
 23 40  1  0  0  0
 23 41  1  0  0  0
 23 42  1  0  0  0
 24 43  1  0  0  0
 28 44  1  0  0  0
 28 45  1  0  0  0
 28 46  1  0  0  0
 29 47  1  0  0  0
 29 48  1  0  0  0
 30 49  1  0  0  0
 31 50  1  0  0  0
 31 51  1  0  0  0
 31 52  1  0  0  0
 32 53  1  0  0  0
 32 54  1  0  0  0
M  END
$$$$
