5e88_ligand
  -I-interpret- 

 69 74  0  0  0  0  0  0  0  0999 V2000
   20.5320   -5.6140   -0.1510 C   0  0  0  0  0
   19.9560   -6.7750   -0.9560 C   0  0  0  0  0
   21.0890  -10.5030   -0.7020 S   0  0  0  0  0
   18.6810   -9.3730   -1.1740 C   0  0  0  0  0
   14.3290   -8.0710   -1.9610 N   0  0  0  0  0
   18.4600   -6.9310   -0.7420 C   0  0  0  0  0
   24.5830  -10.5200   -2.4940 C   0  0  0  0  0
   25.5360  -10.7350   -1.3190 C   0  0  0  0  0
   26.8530  -11.0130    2.8220 N   0  0  0  0  0
   23.6290  -10.2540    0.2110 C   0  0  0  0  0
   25.9600   -9.9590    1.0440 N   0  0  0  0  0
   24.9970  -11.3470   -3.7090 C   0  0  0  0  0
   21.9190   -5.4760   -0.4740 O   0  0  0  0  0
   20.6090   -7.9840   -0.5630 O   0  0  0  0  0
   18.1880   -7.1180    0.6500 O   0  0  0  0  0
   17.9130   -8.1120   -1.5370 C   0  0  0  0  0
   16.4600   -8.2310   -1.2690 N   0  0  0  0  0
   15.6600   -7.9360   -2.3850 N   0  0  0  0  0
   14.4230   -8.4160   -0.6620 C   0  0  0  0  0
   13.2050   -8.6530    0.1680 C   0  0  0  0  0
   11.9510   -8.7120   -0.4180 C   0  0  0  0  0
   13.2590   -8.8060    1.5360 C   0  0  0  0  0
   11.6670   -9.0650    2.1970 S   0  0  0  0  0
   11.0200   -8.9340    0.5810 C   0  0  0  0  0
   15.7190   -8.5220   -0.1890 C   0  0  0  0  0
   18.2640  -10.4340   -2.0400 O   0  0  0  0  0
   20.1810   -9.1220   -1.3170 C   0  0  0  0  0
   22.7580  -10.0540   -1.0300 C   0  0  0  0  0
   23.2450  -10.8610   -2.1130 O   0  0  0  0  0
   24.1960  -10.9720   -4.8340 O   0  0  0  0  0
   23.1500   -9.4680    1.3140 O   0  0  0  0  0
   25.0650   -9.8740   -0.1450 C   0  0  0  0  0
   25.5760  -12.1230   -0.9620 O   0  0  0  0  0
   25.9590  -11.1740    1.7460 N   0  0  0  0  0
   27.3090   -9.7530    2.6840 C   0  0  0  0  0
   26.7780   -9.0680    1.6170 C   0  0  0  0  0
   28.2720   -9.1470    3.6540 C   0  0  0  0  0
   28.4470   -7.7740    3.7080 C   0  0  0  0  0
   28.9630   -9.9370    4.5540 C   0  0  0  0  0
   29.9510   -8.8840    5.5360 S   0  0  0  0  0
   29.3630   -7.4640    4.6980 C   0  0  0  0  0
   20.4176   -5.8097    0.9152 H   0  0  0  0  0
   20.0013   -4.6940   -0.3960 H   0  0  0  0  0
   20.1242   -6.5649   -2.0123 H   0  0  0  0  0
   18.4763   -9.6516   -0.1403 H   0  0  0  0  0
   17.9674   -6.0243   -1.0933 H   0  0  0  0  0
   24.6280   -9.4660   -2.7680 H   0  0  0  0  0
   26.5477  -10.4386   -1.5959 H   0  0  0  0  0
   23.5872  -11.2976    0.5227 H   0  0  0  0  0
   24.8517  -12.4059   -3.4954 H   0  0  0  0  0
   26.0479  -11.1640   -3.9331 H   0  0  0  0  0
   22.2922   -4.7474    0.0275 H   0  0  0  0  0
   18.5342   -6.3722    1.1456 H   0  0  0  0  0
   18.0456   -7.9580   -2.6079 H   0  0  0  0  0
   11.7355   -8.6026   -1.4809 H   0  0  0  0  0
   14.1747   -8.7699    2.1261 H   0  0  0  0  0
    9.9536   -9.0213    0.3729 H   0  0  0  0  0
   16.0556   -8.7790    0.8154 H   0  0  0  0  0
   18.7445  -11.2348   -1.8174 H   0  0  0  0  0
   20.3648   -8.9556   -2.3784 H   0  0  0  0  0
   22.8025   -8.9992   -1.3010 H   0  0  0  0  0
   24.4561  -11.4918   -5.5981 H   0  0  0  0  0
   23.7139   -9.6127    2.0773 H   0  0  0  0  0
   25.1033   -8.8316   -0.4612 H   0  0  0  0  0
   26.1773  -12.2451   -0.2237 H   0  0  0  0  0
   26.9764   -8.0411    1.3099 H   0  0  0  0  0
   27.9414   -7.0497    3.0694 H   0  0  0  0  0
   28.9020  -11.0222    4.6359 H   0  0  0  0  0
   29.6829   -6.4482    4.9302 H   0  0  0  0  0
  2  1  1  0  0  0
  1 13  1  0  0  0
  6  2  1  0  0  0
  2 14  1  0  0  0
 27  3  1  0  0  0
  3 28  1  0  0  0
 16  4  1  0  0  0
  4 26  1  0  0  0
  4 27  1  0  0  0
 18  5  4  0  0  0
  5 19  4  0  0  0
  6 15  1  0  0  0
 16  6  1  0  0  0
  8  7  1  0  0  0
  7 12  1  0  0  0
  7 29  1  0  0  0
 32  8  1  0  0  0
  8 33  1  0  0  0
 34  9  4  0  0  0
  9 35  4  0  0  0
 28 10  1  0  0  0
 10 31  1  0  0  0
 10 32  1  0  0  0
 32 11  1  0  0  0
 11 34  4  0  0  0
 11 36  4  0  0  0
 12 30  1  0  0  0
 27 14  1  0  0  0
 17 16  1  0  0  0
 17 18  4  0  0  0
 17 25  4  0  0  0
 19 20  1  0  0  0
 19 25  4  0  0  0
 20 21  4  0  0  0
 20 22  4  0  0  0
 21 24  4  0  0  0
 22 23  4  0  0  0
 23 24  4  0  0  0
 28 29  1  0  0  0
 35 36  4  0  0  0
 35 37  1  0  0  0
 37 38  4  0  0  0
 37 39  4  0  0  0
 38 41  4  0  0  0
 39 40  4  0  0  0
 40 41  4  0  0  0
  1 42  1  0  0  0
  1 43  1  0  0  0
  2 44  1  0  0  0
  4 45  1  0  0  0
  6 46  1  0  0  0
  7 47  1  0  0  0
  8 48  1  0  0  0
 10 49  1  0  0  0
 12 50  1  0  0  0
 12 51  1  0  0  0
 13 52  1  0  0  0
 15 53  1  0  0  0
 16 54  1  0  0  0
 21 55  1  0  0  0
 22 56  1  0  0  0
 24 57  1  0  0  0
 25 58  1  0  0  0
 26 59  1  0  0  0
 27 60  1  0  0  0
 28 61  1  0  0  0
 30 62  1  0  0  0
 31 63  1  0  0  0
 32 64  1  0  0  0
 33 65  1  0  0  0
 36 66  1  0  0  0
 38 67  1  0  0  0
 39 68  1  0  0  0
 41 69  1  0  0  0
M  END
$$$$
