3rxf_ligand
  -I-interpret- 

 13 13  0  0  0  0  0  0  0  0999 V2000
   -1.6380  -15.8820   14.7300 N   0  0  0  0  0
   -0.9730  -14.7160   14.6380 C   0  0  0  0  0
   -0.9560  -13.8260   15.7110 C   0  0  0  0  0
   -1.6340  -14.1470   16.8820 C   0  0  0  0  0
   -2.3100  -15.3610   16.9500 C   0  0  0  0  0
   -2.2980  -16.2160   15.8510 C   0  0  0  0  0
   -1.6370  -13.3020   17.9420 N   0  0  0  0  0
   -0.4440  -14.4655   13.7185 H   0  0  0  0  0
   -0.4141  -12.8835   15.6325 H   0  0  0  0  0
   -2.8453  -15.6410   17.8573 H   0  0  0  0  0
   -2.8298  -17.1662   15.9010 H   0  0  0  0  0
   -1.1367  -12.4148   17.8884 H   0  0  0  0  0
   -2.1396  -13.5534   18.7932 H   0  0  0  0  0
  1  2  4  0  0  0
  1  6  4  0  0  0
  2  3  4  0  0  0
  3  4  4  0  0  0
  4  5  4  0  0  0
  4  7  1  0  0  0
  5  6  4  0  0  0
  2  8  1  0  0  0
  3  9  1  0  0  0
  5 10  1  0  0  0
  6 11  1  0  0  0
  7 12  1  0  0  0
  7 13  1  0  0  0
M  END
$$$$
