### 
### Created by X-TOOL on Wed Jan  1 15:39:37 2020
### 

@<TRIPOS>MOLECULE
5yjy_ligand
   40    41     1     0     0
SMALL
GAST_HUCK


@<TRIPOS>ATOM
      1 C1          4.7350   14.0080   62.9660 C.ar      1 8WF         0.1884
      2 O1          5.0950   14.3750   61.7110 O.3       1 8WF        -0.2741
      3 C2          4.3390   15.0000   63.8610 C.ar      1 8WF         0.0664
      4 C3          3.9420   14.7020   65.1740 C.ar      1 8WF         0.1101
      5 N1          3.9580   13.4150   65.6200 N.ar      1 8WF        -0.1117
      6 O4          3.5970   13.2330   66.7920 O.2       1 8WF        -0.1622
      7 C5          4.3520   12.2990   64.7860 C.ar      1 8WF         0.1396
      8 C6          4.3800   10.9510   65.1980 C.ar      1 8WF         0.0160
      9 C7          4.7790    9.9250   64.3250 C.ar      1 8WF        -0.0027
     10 C8          5.1560   10.1960   63.0070 C.ar      1 8WF        -0.0026
     11 C9          5.1590   11.5140   62.5400 C.ar      1 8WF         0.0097
     12 C10         4.7690   12.5730   63.3860 C.ar      1 8WF         0.1130
     13 C11         3.5160   15.8630   66.0910 C.3       1 8WF         0.0142
     14 C12         1.7650   16.8390   64.4560 C.3       1 8WF        -0.0506
     15 C13         2.0590   16.3350   65.8830 C.3       1 8WF        -0.0378
     16 C14         0.2920   17.1620   64.1680 C.3       1 8WF        -0.0529
     17 C15        -0.5420   15.9050   63.8540 C.3       1 8WF        -0.0533
     18 C16        -1.7200   16.0600   62.8880 C.3       1 8WF        -0.0559
     19 C17        -1.6260   17.2230   61.9270 C.3       1 8WF        -0.0653
     20 H1          5.3394   13.6029   61.2143 H         1 8WF         0.2860
     21 H2          4.3375   16.0333   63.5333 H         1 8WF         0.0916
     22 H3          4.0871   10.7005   66.2112 H         1 8WF         0.1086
     23 H4          4.7947    8.9014   64.6815 H         1 8WF         0.0858
     24 H5          5.4457    9.3858   62.3477 H         1 8WF         0.0924
     25 H6          5.4631   11.7233   61.5208 H         1 8WF         0.1066
     26 H7          4.1848   16.7154   65.9012 H         1 8WF         0.0502
     27 H8          3.6264   15.5357   67.1354 H         1 8WF         0.0502
     28 H9          2.0880   16.0622   63.7473 H         1 8WF         0.0267
     29 H10         2.3528   17.7539   64.2902 H         1 8WF         0.0267
     30 H11         1.8559   17.1541   66.5886 H         1 8WF         0.0295
     31 H12         1.3872   15.4909   66.0977 H         1 8WF         0.0295
     32 H13         0.2431   17.8415   63.3044 H         1 8WF         0.0265
     33 H14        -0.1384   17.6585   65.0502 H         1 8WF         0.0265
     34 H15        -0.9446   15.5304   64.8067 H         1 8WF         0.0265
     35 H16         0.1398   15.1563   63.4243 H         1 8WF         0.0265
     36 H17        -2.6341   16.1881   63.4863 H         1 8WF         0.0263
     37 H18        -1.7960   15.1364   62.2955 H         1 8WF         0.0263
     38 H19        -2.5182   17.2402   61.2838 H         1 8WF         0.0230
     39 H20        -0.7267   17.1117   61.3035 H         1 8WF         0.0230
     40 H21        -1.5648   18.1634   62.4943 H         1 8WF         0.0230
@<TRIPOS>BOND
     1    1    2 1  
     2    1    3 ar 
     3    1   12 ar 
     4    3    4 ar 
     5    4    5 ar 
     6    4   13 1  
     7    5    6 2  
     8    5    7 ar 
     9    7    8 ar 
    10    7   12 ar 
    11    8    9 ar 
    12    9   10 ar 
    13   10   11 ar 
    14   11   12 ar 
    15   13   15 1  
    16   15   14 1  
    17   14   16 1  
    18   16   17 1  
    19   17   18 1  
    20   18   19 1  
    21    2   20 1  
    22    3   21 1  
    23    8   22 1  
    24    9   23 1  
    25   10   24 1  
    26   11   25 1  
    27   13   26 1  
    28   13   27 1  
    29   14   28 1  
    30   14   29 1  
    31   15   30 1  
    32   15   31 1  
    33   16   32 1  
    34   16   33 1  
    35   17   34 1  
    36   17   35 1  
    37   18   36 1  
    38   18   37 1  
    39   19   38 1  
    40   19   39 1  
    41   19   40 1  
@<TRIPOS>SUBSTRUCTURE
     1 8WF         1

