5yjy_ligand
  -I-interpret- 

 40 41  0  0  0  0  0  0  0  0999 V2000
    4.7350   14.0080   62.9660 C   0  0  0  0  0
    5.0950   14.3750   61.7110 O   0  0  0  0  0
    4.3390   15.0000   63.8610 C   0  0  0  0  0
    3.9420   14.7020   65.1740 C   0  0  0  0  0
    3.9580   13.4150   65.6200 N   0  0  0  0  0
    3.5970   13.2330   66.7920 O   0  0  0  0  0
    4.3520   12.2990   64.7860 C   0  0  0  0  0
    4.3800   10.9510   65.1980 C   0  0  0  0  0
    4.7790    9.9250   64.3250 C   0  0  0  0  0
    5.1560   10.1960   63.0070 C   0  0  0  0  0
    5.1590   11.5140   62.5400 C   0  0  0  0  0
    4.7690   12.5730   63.3860 C   0  0  0  0  0
    3.5160   15.8630   66.0910 C   0  0  0  0  0
    1.7650   16.8390   64.4560 C   0  0  0  0  0
    2.0590   16.3350   65.8830 C   0  0  0  0  0
    0.2920   17.1620   64.1680 C   0  0  0  0  0
   -0.5420   15.9050   63.8540 C   0  0  0  0  0
   -1.7200   16.0600   62.8880 C   0  0  0  0  0
   -1.6260   17.2230   61.9270 C   0  0  0  0  0
    5.3419   13.5948   61.2091 H   0  0  0  0  0
    4.3375   16.0390   63.5315 H   0  0  0  0  0
    4.0855   10.6991   66.2168 H   0  0  0  0  0
    4.7948    8.8957   64.6834 H   0  0  0  0  0
    5.4473    9.3813   62.3440 H   0  0  0  0  0
    5.4648   11.7244   61.5152 H   0  0  0  0  0
    4.1635   16.7088   65.8599 H   0  0  0  0  0
    3.5944   15.5063   67.1180 H   0  0  0  0  0
    2.0483   16.0359   63.7757 H   0  0  0  0  0
    2.3196   17.7691   64.3319 H   0  0  0  0  0
    1.8875   17.1689   66.5637 H   0  0  0  0  0
    1.4109   15.4776   66.0646 H   0  0  0  0  0
    0.2568   17.8137   63.2950 H   0  0  0  0  0
   -0.1286   17.6288   65.0587 H   0  0  0  0  0
   -0.9804   15.5994   64.8040 H   0  0  0  0  0
    0.1449   15.2111   63.3695 H   0  0  0  0  0
   -2.6034   16.2357   63.5019 H   0  0  0  0  0
   -1.7429   15.1560   62.2794 H   0  0  0  0  0
   -1.5654   18.1542   62.4903 H   0  0  0  0  0
   -0.7345   17.1115   61.3098 H   0  0  0  0  0
   -2.5106   17.2390   61.2903 H   0  0  0  0  0
  1  2  1  0  0  0
  1  3  4  0  0  0
  1 12  4  0  0  0
  3  4  4  0  0  0
  4  5  4  0  0  0
  4 13  1  0  0  0
  5  6  2  0  0  0
  5  7  4  0  0  0
  7  8  4  0  0  0
  7 12  4  0  0  0
  8  9  4  0  0  0
  9 10  4  0  0  0
 10 11  4  0  0  0
 11 12  4  0  0  0
 13 15  1  0  0  0
 15 14  1  0  0  0
 14 16  1  0  0  0
 16 17  1  0  0  0
 17 18  1  0  0  0
 18 19  1  0  0  0
  2 20  1  0  0  0
  3 21  1  0  0  0
  8 22  1  0  0  0
  9 23  1  0  0  0
 10 24  1  0  0  0
 11 25  1  0  0  0
 13 26  1  0  0  0
 13 27  1  0  0  0
 14 28  1  0  0  0
 14 29  1  0  0  0
 15 30  1  0  0  0
 15 31  1  0  0  0
 16 32  1  0  0  0
 16 33  1  0  0  0
 17 34  1  0  0  0
 17 35  1  0  0  0
 18 36  1  0  0  0
 18 37  1  0  0  0
 19 38  1  0  0  0
 19 39  1  0  0  0
 19 40  1  0  0  0
M  END
$$$$
