### 
### Created by X-TOOL on Mon Sep 10 21:12:53 2018
### 

@<TRIPOS>MOLECULE
1z6f_ligand
   81    81     1     0     0
SMALL
GAST_HUCK


@<TRIPOS>ATOM
      1 O36        50.5290    7.9210   32.8920 O.2       1 BO9        -0.3775
      2 C35        49.6190    8.3030   33.6150 C.2       1 BO9         0.3217
      3 O37        49.8660    9.4050   34.5530 O.3       1 BO9        -0.2581
      4 C38        50.6820   10.5630   34.2990 C.3       1 BO9         0.0905
      5 C41        50.2610   11.2330   32.9940 C.3       1 BO9        -0.0320
      6 C40        50.4650   11.5430   35.4470 C.3       1 BO9        -0.0320
      7 C39        52.1610   10.1880   34.2260 C.3       1 BO9        -0.0320
      8 N34        48.4240    7.7060   33.5630 N.am      1 BO9        -0.2468
      9 C30        47.2680    8.0830   34.3770 C.3       1 BO9         0.0983
     10 C31        47.5380    7.9650   35.8840 C.2       1 BO9         0.0602
     11 O33        47.8050    6.8440   36.3800 O.co2     1 BO9        -0.5666
     12 O32        47.4910    9.0090   36.5760 O.co2     1 BO9        -0.5666
     13 C29        46.1140    7.1580   33.9580 C.3       1 BO9        -0.0010
     14 C28        46.1090    6.8440   32.4610 C.3       1 BO9         0.0410
     15 C26        44.7340    6.7940   31.8190 C.2       1 BO9         0.1784
     16 O27        44.3620    5.7700   31.2560 O.2       1 BO9        -0.3969
     17 N25        43.9820    7.8970   31.8700 N.am      1 BO9        -0.2656
     18 C9         42.6660    7.9680   31.2440 C.3       1 BO9         0.1307
     19 C7         42.8980    8.4860   29.8470 C.2       1 BO9         0.2008
     20 O8         43.5670    9.4990   29.6700 O.2       1 BO9        -0.3946
     21 N6         42.4130    7.7700   28.8280 N.am      1 BO9        -0.2921
     22 C4         42.6230    8.2050   27.4490 C.3       1 BO9         0.0504
     23 C5         41.2890    8.6660   26.8640 C.3       1 BO9        -0.0510
     24 B1         43.2480    6.9960   26.5980 B         1 BO9         0.7161
     25 O3         44.6600    6.6510   27.1080 O.3       1 BO9        -0.4967
     26 O2         42.3690    5.7460   26.6750 O.3       1 BO9        -0.4967
     27 C10        41.9120    8.9960   32.0810 C.3       1 BO9        -0.0123
     28 C11        40.4110    8.7790   32.1820 C.3       1 BO9        -0.0470
     29 C12        39.8550    9.7290   33.2470 C.3       1 BO9        -0.0326
     30 C13        39.3700    8.9940   34.4990 C.3       1 BO9         0.0328
     31 N14        40.2180    9.3850   35.6190 N.am      1 BO9        -0.2624
     32 C15        39.9930   10.2740   36.5960 C.2       1 BO9         0.3216
     33 O16        40.8190   10.4730   37.4770 O.2       1 BO9        -0.3774
     34 O17        38.7540   11.0480   36.6480 O.3       1 BO9        -0.2507
     35 C18        38.5810   12.2080   35.8280 C.3       1 BO9         0.1113
     36 C19        37.8760   13.3220   36.5690 C.ar      1 BO9        -0.0130
     37 C24        38.1680   14.6500   36.2550 C.ar      1 BO9        -0.0578
     38 C23        37.5290   15.6920   36.9280 C.ar      1 BO9        -0.0685
     39 C22        36.5870   15.4050   37.9170 C.ar      1 BO9        -0.0687
     40 C21        36.2900   14.0780   38.2330 C.ar      1 BO9        -0.0685
     41 C20        36.9340   13.0370   37.5600 C.ar      1 BO9        -0.0578
     42 H1         50.8931   12.1151   32.8142 H         1 BO9         0.0260
     43 H2         49.2084   11.5445   33.0647 H         1 BO9         0.0260
     44 H3         50.3781   10.5224   32.1626 H         1 BO9         0.0260
     45 H4         51.0770   12.4421   35.2822 H         1 BO9         0.0260
     46 H5         50.7587   11.0683   36.3948 H         1 BO9         0.0260
     47 H6         49.4029   11.8256   35.4921 H         1 BO9         0.0260
     48 H7         52.7589   11.0906   34.0314 H         1 BO9         0.0260
     49 H8         52.3159    9.4633   33.4131 H         1 BO9         0.0260
     50 H9         52.4733    9.7402   35.1809 H         1 BO9         0.0260
     51 H10        48.3121    6.9470   32.9215 H         1 BO9         0.1891
     52 H11        46.9993    9.1266   34.1563 H         1 BO9         0.0727
     53 H12        45.1627    7.6462   34.2163 H         1 BO9         0.0330
     54 H13        46.2038    6.2128   34.5135 H         1 BO9         0.0330
     55 H14        46.5886    5.8647   32.3164 H         1 BO9         0.0504
     56 H15        46.6968    7.6194   31.9480 H         1 BO9         0.0504
     57 H16        44.3323    8.6997   32.3527 H         1 BO9         0.1883
     58 H17        42.1497    6.9968   31.2302 H         1 BO9         0.0800
     59 H18        41.9023    6.9299   29.0108 H         1 BO9         0.1840
     60 H19        43.3282    9.0492   27.4373 H         1 BO9         0.0429
     61 H20        40.8894    9.4930   27.4693 H         1 BO9         0.0239
     62 H21        40.5761    7.8283   26.8717 H         1 BO9         0.0239
     63 H22        41.4409    9.0087   25.8299 H         1 BO9         0.0239
     64 H23        45.0318    5.9643   26.5671 H         1 BO9         0.1667
     65 H24        42.3204    5.4495   27.5762 H         1 BO9         0.1667
     66 H25        42.0825    9.9873   31.6357 H         1 BO9         0.0312
     67 H26        42.3273    8.9751   33.0994 H         1 BO9         0.0312
     68 H27        40.2048    7.7374   32.4695 H         1 BO9         0.0268
     69 H28        39.9388    8.9919   31.2116 H         1 BO9         0.0268
     70 H29        39.0095   10.2850   32.8157 H         1 BO9         0.0285
     71 H30        40.6475   10.4342   33.5378 H         1 BO9         0.0285
     72 H31        39.4391    7.9074   34.3422 H         1 BO9         0.0519
     73 H32        38.3259    9.2684   34.7100 H         1 BO9         0.0519
     74 H33        41.1016    8.9189   35.6649 H         1 BO9         0.1867
     75 H34        37.9838   11.9341   34.9458 H         1 BO9         0.0776
     76 H35        39.5697   12.5658   35.5049 H         1 BO9         0.0776
     77 H36        38.8958   14.8735   35.4834 H         1 BO9         0.0557
     78 H37        37.7636   16.7216   36.6833 H         1 BO9         0.0599
     79 H38        36.0862   16.2120   38.4395 H         1 BO9         0.0559
     80 H39        35.5587   13.8552   39.0016 H         1 BO9         0.0599
     81 H40        36.7025   12.0072   37.8071 H         1 BO9         0.0557
@<TRIPOS>BOND
     1    1    2 2  
     2    2    3 1  
     3    2    8 am 
     4    3    4 1  
     5    4    5 1  
     6    4    6 1  
     7    4    7 1  
     8    8    9 1  
     9    9   10 1  
    10    9   13 1  
    11   10   11 ar 
    12   10   12 ar 
    13   13   14 1  
    14   14   15 1  
    15   15   16 2  
    16   15   17 am 
    17   17   18 1  
    18   18   19 1  
    19   18   27 1  
    20   19   20 2  
    21   19   21 am 
    22   21   22 1  
    23   22   23 1  
    24   22   24 1  
    25   24   25 1  
    26   24   26 1  
    27   27   28 1  
    28   28   29 1  
    29   29   30 1  
    30   30   31 1  
    31   31   32 am 
    32   32   33 2  
    33   32   34 1  
    34   34   35 1  
    35   35   36 1  
    36   36   37 ar 
    37   36   41 ar 
    38   37   38 ar 
    39   38   39 ar 
    40   39   40 ar 
    41   40   41 ar 
    42    5   42 1  
    43    5   43 1  
    44    5   44 1  
    45    6   45 1  
    46    6   46 1  
    47    6   47 1  
    48    7   48 1  
    49    7   49 1  
    50    7   50 1  
    51    8   51 1  
    52    9   52 1  
    53   13   53 1  
    54   13   54 1  
    55   14   55 1  
    56   14   56 1  
    57   17   57 1  
    58   18   58 1  
    59   21   59 1  
    60   22   60 1  
    61   23   61 1  
    62   23   62 1  
    63   23   63 1  
    64   25   64 1  
    65   26   65 1  
    66   27   66 1  
    67   27   67 1  
    68   28   68 1  
    69   28   69 1  
    70   29   70 1  
    71   29   71 1  
    72   30   72 1  
    73   30   73 1  
    74   31   74 1  
    75   35   75 1  
    76   35   76 1  
    77   37   77 1  
    78   38   78 1  
    79   39   79 1  
    80   40   80 1  
    81   41   81 1  
@<TRIPOS>SUBSTRUCTURE
     1 BO9         1

