1z6f_ligand
  -I-interpret- 

 82 82  0  0  0  0  0  0  0  0999 V2000
   50.5290    7.9210   32.8920 O   0  0  0  0  0
   49.6190    8.3030   33.6150 C   0  0  0  0  0
   49.8660    9.4050   34.5530 O   0  0  0  0  0
   50.6820   10.5630   34.2990 C   0  0  0  0  0
   50.2610   11.2330   32.9940 C   0  0  0  0  0
   50.4650   11.5430   35.4470 C   0  0  0  0  0
   52.1610   10.1880   34.2260 C   0  0  0  0  0
   48.4240    7.7060   33.5630 N   0  0  0  0  0
   47.2680    8.0830   34.3770 C   0  0  0  0  0
   47.5380    7.9650   35.8840 C   0  0  0  0  0
   47.8050    6.8440   36.3800 O   0  0  0  0  0
   47.4910    9.0090   36.5760 O   0  0  0  0  0
   46.1140    7.1580   33.9580 C   0  0  0  0  0
   46.1090    6.8440   32.4610 C   0  0  0  0  0
   44.7340    6.7940   31.8190 C   0  0  0  0  0
   44.3620    5.7700   31.2560 O   0  0  0  0  0
   43.9820    7.8970   31.8700 N   0  0  0  0  0
   42.6660    7.9680   31.2440 C   0  0  0  0  0
   42.8980    8.4860   29.8470 C   0  0  0  0  0
   43.5670    9.4990   29.6700 O   0  0  0  0  0
   42.4130    7.7700   28.8280 N   0  0  0  0  0
   42.6230    8.2050   27.4490 C   0  0  0  0  0
   41.2890    8.6660   26.8640 C   0  0  0  0  0
   43.2480    6.9960   26.5980 B   0  0  0  0  0
   44.6600    6.6510   27.1080 O   0  0  0  0  0
   42.3690    5.7460   26.6750 O   0  0  0  0  0
   41.9120    8.9960   32.0810 C   0  0  0  0  0
   40.4110    8.7790   32.1820 C   0  0  0  0  0
   39.8550    9.7290   33.2470 C   0  0  0  0  0
   39.3700    8.9940   34.4990 C   0  0  0  0  0
   40.2180    9.3850   35.6190 N   0  0  0  0  0
   39.9930   10.2740   36.5960 C   0  0  0  0  0
   40.8190   10.4730   37.4770 O   0  0  0  0  0
   38.7540   11.0480   36.6480 O   0  0  0  0  0
   38.5810   12.2080   35.8280 C   0  0  0  0  0
   37.8760   13.3220   36.5690 C   0  0  0  0  0
   38.1680   14.6500   36.2550 C   0  0  0  0  0
   37.5290   15.6920   36.9280 C   0  0  0  0  0
   36.5870   15.4050   37.9170 C   0  0  0  0  0
   36.2900   14.0780   38.2330 C   0  0  0  0  0
   36.9340   13.0370   37.5600 C   0  0  0  0  0
   50.8570   12.1325   32.8401 H   0  0  0  0  0
   50.4208   10.5435   32.1650 H   0  0  0  0  0
   49.2055   11.4998   33.0481 H   0  0  0  0  0
   50.7699   11.0765   36.3838 H   0  0  0  0  0
   51.0608   12.4395   35.2753 H   0  0  0  0  0
   49.4098   11.8110   35.4997 H   0  0  0  0  0
   52.7543   11.0864   34.0560 H   0  0  0  0  0
   52.4635    9.7235   35.1645 H   0  0  0  0  0
   52.3168    9.4875   33.4056 H   0  0  0  0  0
   48.3098    6.9319   32.9087 H   0  0  0  0  0
   47.0269    9.1322   34.2061 H   0  0  0  0  0
   47.7913    6.1780   35.6887 H   0  0  0  0  0
   45.1795    7.6678   34.1924 H   0  0  0  0  0
   46.2338    6.2161   34.4933 H   0  0  0  0  0
   46.5454    5.8517   32.3467 H   0  0  0  0  0
   46.6562    7.6484   31.9694 H   0  0  0  0  0
   44.3393    8.7157   32.3623 H   0  0  0  0  0
   42.1201    7.0259   31.1940 H   0  0  0  0  0
   41.8921    6.9131   29.0144 H   0  0  0  0  0
   43.3225    9.0402   27.4148 H   0  0  0  0  0
   40.5793    7.8390   26.8851 H   0  0  0  0  0
   40.9009    9.4946   27.4563 H   0  0  0  0  0
   41.4384    8.9921   25.8347 H   0  0  0  0  0
   45.0185    5.9273   26.5890 H   0  0  0  0  0
   42.7684    5.0429   26.1576 H   0  0  0  0  0
   42.0552    9.9602   31.5933 H   0  0  0  0  0
   42.3063    8.9221   33.0945 H   0  0  0  0  0
   40.2016    7.7456   32.4584 H   0  0  0  0  0
   39.9397    8.9807   31.2201 H   0  0  0  0  0
   39.0024   10.2534   32.8154 H   0  0  0  0  0
   40.6572   10.4041   33.5449 H   0  0  0  0  0
   39.4282    7.9165   34.3452 H   0  0  0  0  0
   38.3326    9.2559   34.7071 H   0  0  0  0  0
   41.1192    8.9096   35.6658 H   0  0  0  0  0
   37.9719   11.9307   34.9676 H   0  0  0  0  0
   39.5664   12.5659   35.5297 H   0  0  0  0  0
   38.8999   14.8747   35.4791 H   0  0  0  0  0
   37.7649   16.7273   36.6820 H   0  0  0  0  0
   36.0835   16.2165   38.4424 H   0  0  0  0  0
   35.5547   13.8539   39.0058 H   0  0  0  0  0
   36.7012   12.0015   37.8084 H   0  0  0  0  0
  1  2  2  0  0  0
  2  3  1  0  0  0
  2  8  1  0  0  0
  3  4  1  0  0  0
  4  5  1  0  0  0
  4  6  1  0  0  0
  4  7  1  0  0  0
  8  9  1  0  0  0
  9 10  1  0  0  0
  9 13  1  0  0  0
 10 11  1  0  0  0
 10 12  2  0  0  0
 13 14  1  0  0  0
 14 15  1  0  0  0
 15 16  2  0  0  0
 15 17  1  0  0  0
 17 18  1  0  0  0
 18 19  1  0  0  0
 18 27  1  0  0  0
 19 20  2  0  0  0
 19 21  1  0  0  0
 21 22  1  0  0  0
 22 23  1  0  0  0
 22 24  1  0  0  0
 24 25  1  0  0  0
 24 26  1  0  0  0
 27 28  1  0  0  0
 28 29  1  0  0  0
 29 30  1  0  0  0
 30 31  1  0  0  0
 31 32  1  0  0  0
 32 33  2  0  0  0
 32 34  1  0  0  0
 34 35  1  0  0  0
 35 36  1  0  0  0
 36 37  4  0  0  0
 36 41  4  0  0  0
 37 38  4  0  0  0
 38 39  4  0  0  0
 39 40  4  0  0  0
 40 41  4  0  0  0
  5 42  1  0  0  0
  5 43  1  0  0  0
  5 44  1  0  0  0
  6 45  1  0  0  0
  6 46  1  0  0  0
  6 47  1  0  0  0
  7 48  1  0  0  0
  7 49  1  0  0  0
  7 50  1  0  0  0
  8 51  1  0  0  0
  9 52  1  0  0  0
 11 53  1  0  0  0
 13 54  1  0  0  0
 13 55  1  0  0  0
 14 56  1  0  0  0
 14 57  1  0  0  0
 17 58  1  0  0  0
 18 59  1  0  0  0
 21 60  1  0  0  0
 22 61  1  0  0  0
 23 62  1  0  0  0
 23 63  1  0  0  0
 23 64  1  0  0  0
 25 65  1  0  0  0
 26 66  1  0  0  0
 27 67  1  0  0  0
 27 68  1  0  0  0
 28 69  1  0  0  0
 28 70  1  0  0  0
 29 71  1  0  0  0
 29 72  1  0  0  0
 30 73  1  0  0  0
 30 74  1  0  0  0
 31 75  1  0  0  0
 35 76  1  0  0  0
 35 77  1  0  0  0
 37 78  1  0  0  0
 38 79  1  0  0  0
 39 80  1  0  0  0
 40 81  1  0  0  0
 41 82  1  0  0  0
M  END
$$$$
