5k8n_ligand
  -I-interpret- 

 19 19  0  0  0  0  0  0  0  0999 V2000
   65.2230  100.2640  -70.5390 C   0  0  0  0  0
   65.1380  100.8300  -69.2810 C   0  0  0  0  0
   66.1740  101.6080  -68.8150 C   0  0  0  0  0
   67.2980  101.8270  -69.6030 C   0  0  0  0  0
   67.3820  101.2580  -70.8610 C   0  0  0  0  0
   66.3380  100.4800  -71.3210 C   0  0  0  0  0
   66.3950   99.8710  -72.6230 N   0  0  0  0  0
   65.9630   98.7940  -72.7300 O   0  0  0  0  0
   66.9440  100.5230  -73.7360 O   0  0  0  0  0
   68.4540  102.6860  -69.0970 C   0  0  0  0  0
   68.5180  102.9330  -67.8650 O   0  0  0  0  0
   69.3280  103.1380  -69.8970 O   0  0  0  0  0
   66.0570  102.1710  -67.4900 N   0  0  0  0  0
   64.4072   99.6458  -70.9137 H   0  0  0  0  0
   64.2568  100.6616  -68.6620 H   0  0  0  0  0
   68.2625  101.4219  -71.4823 H   0  0  0  0  0
   69.1215  102.8519  -70.7898 H   0  0  0  0  0
   65.2247  101.9876  -66.9296 H   0  0  0  0  0
   66.8067  102.7520  -67.1147 H   0  0  0  0  0
  1  2  4  0  0  0
  1  6  4  0  0  0
  2  3  4  0  0  0
  3  4  4  0  0  0
  3 13  1  0  0  0
  4  5  4  0  0  0
  4 10  1  0  0  0
  5  6  4  0  0  0
  6  7  1  0  0  0
  7  8  2  0  0  0
  7  9  2  0  0  0
 10 11  2  0  0  0
 10 12  1  0  0  0
  1 14  1  0  0  0
  2 15  1  0  0  0
  5 16  1  0  0  0
 12 17  1  0  0  0
 13 18  1  0  0  0
 13 19  1  0  0  0
M  END
$$$$
