4mot_ligand
  -I-interpret- 

 51 53  0  0  0  0  0  0  0  0999 V2000
   17.3410   24.7710    7.5040 C   0  0  0  0  0
   16.9490   25.2050    6.0970 C   0  0  0  0  0
   18.0980   25.9330    5.4100 C   0  0  0  0  0
   15.0000   28.2980    7.2210 N   0  0  0  0  0
   13.9380   28.2930    8.0940 C   0  0  0  0  0
   12.9760   29.4440    8.0510 C   0  0  0  0  0
   13.1740   30.4420    7.1660 C   0  0  0  0  0
   14.2830   30.4150    6.2790 C   0  0  0  0  0
   15.1430   29.3640    6.3530 C   0  0  0  0  0
   15.7120   31.0180    4.7270 C   0  0  0  0  0
   19.1940   32.3240    1.5770 C   0  0  0  0  0
   19.8440   33.6390    1.4570 C   0  0  0  0  0
   19.2530   34.7780    1.8210 C   0  0  0  0  0
   11.0080   28.3350    9.0150 C   0  0  0  0  0
   15.7450   26.1430    6.2170 C   0  0  0  0  0
   15.9630   27.1970    7.2770 C   0  0  0  0  0
   13.7930   27.3560    8.8840 O   0  0  0  0  0
   16.4320   29.5110    5.2070 S   0  0  0  0  0
   14.6140   31.3610    5.3540 N   0  0  0  0  0
   16.2370   31.8000    3.7270 N   0  0  0  0  0
   17.4640   31.4930    3.1430 C   0  0  0  0  0
   18.1330   30.5290    3.5110 O   0  0  0  0  0
   17.8230   32.3620    2.1500 N   0  0  0  0  0
   11.8230   29.4480    8.9690 C   0  0  0  0  0
    9.9500   28.3670    9.9040 C   0  0  0  0  0
    9.7670   29.4800   10.6880 C   0  0  0  0  0
   10.5230   30.5890   10.6770 N   0  0  0  0  0
   11.5360   30.5090    9.7910 C   0  0  0  0  0
   17.6017   25.6494    8.0944 H   0  0  0  0  0
   16.5023   24.2541    7.9703 H   0  0  0  0  0
   18.1984   24.1002    7.4503 H   0  0  0  0  0
   16.7043   24.3283    5.4974 H   0  0  0  0  0
   17.7835   26.2486    4.4152 H   0  0  0  0  0
   18.3764   26.8071    5.9987 H   0  0  0  0  0
   18.9531   25.2623    5.3264 H   0  0  0  0  0
   12.4757   31.2782    7.1310 H   0  0  0  0  0
   19.6788   31.3971    1.2705 H   0  0  0  0  0
   20.8550   33.6842    1.0520 H   0  0  0  0  0
   18.3408   34.9143    1.2401 H   0  0  0  0  0
   19.0066   34.7351    2.8819 H   0  0  0  0  0
   19.9303   35.6121    1.6374 H   0  0  0  0  0
   11.1906   27.4692    8.3785 H   0  0  0  0  0
   14.8737   25.5503    6.4955 H   0  0  0  0  0
   15.6018   26.6431    5.2591 H   0  0  0  0  0
   15.8471   26.7124    8.2464 H   0  0  0  0  0
   16.9533   27.6223    7.1141 H   0  0  0  0  0
   15.7200   32.6189    3.4068 H   0  0  0  0  0
   17.1460   33.0402    1.8005 H   0  0  0  0  0
    9.2692   27.5193    9.9820 H   0  0  0  0  0
    8.9289   29.4608   11.3847 H   0  0  0  0  0
   12.1941   31.3751    9.7203 H   0  0  0  0  0
  2  1  1  0  0  0
  2  3  1  0  0  0
 15  2  1  0  0  0
  4  5  1  0  0  0
  9  4  1  0  0  0
  4 16  1  0  0  0
  6  5  1  0  0  0
  5 17  2  0  0  0
  7  6  2  0  0  0
  6 24  1  0  0  0
  8  7  1  0  0  0
  8  9  4  0  0  0
 19  8  4  0  0  0
 18  9  4  0  0  0
 10 18  4  0  0  0
 10 19  4  0  0  0
 20 10  1  0  0  0
 11 12  2  0  0  0
 23 11  1  0  0  0
 12 13  1  0  0  0
 24 14  4  0  0  0
 14 25  4  0  0  0
 16 15  1  0  0  0
 21 20  1  0  0  0
 21 22  2  0  0  0
 21 23  1  0  0  0
 24 28  4  0  0  0
 25 26  4  0  0  0
 26 27  4  0  0  0
 27 28  4  0  0  0
  1 29  1  0  0  0
  1 30  1  0  0  0
  1 31  1  0  0  0
  2 32  1  0  0  0
  3 33  1  0  0  0
  3 34  1  0  0  0
  3 35  1  0  0  0
  7 36  1  0  0  0
 11 37  1  0  0  0
 12 38  1  0  0  0
 13 39  1  0  0  0
 13 40  1  0  0  0
 13 41  1  0  0  0
 14 42  1  0  0  0
 15 43  1  0  0  0
 15 44  1  0  0  0
 16 45  1  0  0  0
 16 46  1  0  0  0
 20 47  1  0  0  0
 23 48  1  0  0  0
 25 49  1  0  0  0
 26 50  1  0  0  0
 28 51  1  0  0  0
M  END
$$$$
