2nmb_ligand
  -I-interpret- 

120122  0  0  0  0  0  0  0  0999 V2000
  -13.0810   -5.9220    0.9010 N   0  3  0  0  0
  -12.7090   -4.5860    0.3710 C   0  0  0  0  0
  -12.8320   -4.5470   -1.1500 C   0  0  0  0  0
  -13.7160   -3.8830   -1.6930 O   0  0  0  0  0
  -11.2920   -4.2250    0.7940 C   0  0  0  0  0
  -11.9430   -5.2620   -1.8300 N   0  0  0  0  0
  -11.9550   -5.3100   -3.2890 C   0  0  0  0  0
  -11.1300   -6.4860   -3.8080 C   0  0  0  0  0
  -11.6570   -7.5810   -4.0070 O   0  0  0  0  0
  -11.4380   -3.9950   -3.8980 C   0  0  0  0  0
  -10.6410   -3.1180   -2.9490 C   0  0  0  0  0
   -9.7140   -3.6630   -2.0630 C   0  0  0  0  0
  -10.7970   -1.7370   -2.9620 C   0  0  0  0  0
   -8.9890   -2.8570   -1.2050 C   0  0  0  0  0
  -10.0720   -0.9260   -2.1110 C   0  0  0  0  0
   -9.1690   -1.4900   -1.2350 C   0  0  0  0  0
   -8.4450   -0.6860   -0.3860 O   0  0  0  0  0
   -9.8380   -6.2600   -4.0370 N   0  0  0  0  0
   -8.9590   -7.3130   -4.5330 C   0  0  0  0  0
   -7.9860   -7.7620   -3.4490 C   0  0  0  0  0
   -7.8850   -8.9510   -3.1460 O   0  0  0  0  0
   -8.1580   -6.8600   -5.7730 C   0  0  0  0  0
   -8.9710   -5.8770   -6.6210 C   0  0  0  0  0
   -7.7530   -8.0660   -6.6060 C   0  0  0  0  0
  -10.3510   -6.3850   -6.9830 C   0  0  0  0  0
   -7.2810   -6.8040   -2.8570 N   0  0  0  0  0
   -6.3300   -7.1240   -1.8090 C   0  0  0  0  0
   -6.9380   -7.9850   -0.7170 C   0  0  0  0  0
   -6.6930   -9.1900   -0.6670 O   0  0  0  0  0
   -7.7710   -7.3970    0.1580 N   0  0  0  0  0
   -8.4080   -8.1180    1.2730 C   0  0  0  0  0
   -9.4970   -9.0930    0.8210 C   0  0  0  0  0
  -10.6110   -9.0610    1.3430 O   0  0  0  0  0
   -9.0380   -6.9970    2.1150 C   0  0  0  0  0
   -8.4180   -5.7320    1.6280 C   0  0  0  0  0
   -8.1020   -5.9670    0.1810 C   0  0  0  0  0
   -9.1680   -9.9700   -0.1280 N   0  0  0  0  0
  -10.1190  -10.9630   -0.6260 C   0  0  0  0  0
   -9.4980  -11.7890   -1.7460 C   0  0  0  0  0
   -9.2600  -12.9880   -1.5910 O   0  0  0  0  0
  -11.3970  -10.2870   -1.1420 C   0  0  0  0  0
  -12.5490  -11.2440   -1.3820 C   0  0  0  0  0
  -12.5570  -12.5150   -0.8160 C   0  0  0  0  0
  -13.7170  -10.8040   -1.9910 C   0  0  0  0  0
  -13.7270  -13.2460   -0.7240 C   0  0  0  0  0
  -14.9120  -11.4720   -1.8000 C   0  0  0  0  0
  -14.9140  -12.6840   -1.1400 C   0  0  0  0  0
  -16.1630  -13.3230   -0.8180 O   0  0  0  0  0
  -16.8220  -13.1520    0.6630 P   0  0  0  0  0
  -15.7150  -13.4880    1.6500 O   0  0  0  0  0
  -17.9800  -14.1350    0.7180 O   0  0  0  0  0
  -17.2720  -11.7030    0.7510 O   0  0  0  0  0
   -9.2470  -11.1400   -2.8760 N   0  0  0  0  0
   -8.6630  -11.8080   -4.0340 C   0  0  0  0  0
   -7.1490  -11.6210   -4.0620 C   0  0  0  0  0
   -6.6930  -10.5520   -4.5210 O   0  0  0  0  0
   -9.2810  -11.2710   -5.3300 C   0  0  0  0  0
  -10.6630  -10.6250   -5.1820 C   0  0  0  0  0
  -11.1600  -10.1150   -6.5270 C   0  0  0  0  0
  -11.6520  -11.6150   -4.5850 C   0  0  0  0  0
   -6.4320  -12.5430   -3.6200 O   0  0  0  0  0
  -14.0317   -6.1494    0.6096 H   0  0  0  0  0
  -12.4356   -6.6228    0.5366 H   0  0  0  0  0
  -13.0304   -5.9085    1.9197 H   0  0  0  0  0
  -13.3995   -3.8524    0.7872 H   0  0  0  0  0
  -10.5918   -4.9391    0.3607 H   0  0  0  0  0
  -11.0537   -3.2213    0.4421 H   0  0  0  0  0
  -11.2194   -4.2570    1.8811 H   0  0  0  0  0
  -11.2347   -5.7904   -1.3205 H   0  0  0  0  0
  -12.9911   -5.4478   -3.5981 H   0  0  0  0  0
  -12.3148   -3.4202   -4.1962 H   0  0  0  0  0
  -10.7671   -4.2679   -4.7126 H   0  0  0  0  0
   -9.5580   -4.7416   -2.0461 H   0  0  0  0  0
  -11.5049   -1.2854   -3.6570 H   0  0  0  0  0
   -8.2780   -3.3002   -0.5077 H   0  0  0  0  0
  -10.2130    0.1546   -2.1318 H   0  0  0  0  0
   -8.6866    0.2315   -0.5323 H   0  0  0  0  0
   -9.4549   -5.3310   -3.8619 H   0  0  0  0  0
   -9.6001   -8.1465   -4.8200 H   0  0  0  0  0
   -7.2583   -6.3491   -5.4302 H   0  0  0  0  0
   -8.4260   -5.7204   -7.5519 H   0  0  0  0  0
   -9.1012   -4.9685   -6.0330 H   0  0  0  0  0
   -7.1336   -8.7306   -6.0037 H   0  0  0  0  0
   -8.6470   -8.5972   -6.9325 H   0  0  0  0  0
   -7.1891   -7.7317   -7.4768 H   0  0  0  0  0
  -10.2585   -7.3089   -7.5540 H   0  0  0  0  0
  -10.9175   -6.5750   -6.0714 H   0  0  0  0  0
  -10.8668   -5.6355   -7.5833 H   0  0  0  0  0
   -7.4097   -5.8332   -3.1423 H   0  0  0  0  0
   -6.0007   -6.1888   -1.3562 H   0  0  0  0  0
   -5.5082   -7.6812   -2.2588 H   0  0  0  0  0
   -7.6812   -8.7315    1.8054 H   0  0  0  0  0
   -8.8540   -7.1468    3.1789 H   0  0  0  0  0
  -10.1222   -6.9773    2.0044 H   0  0  0  0  0
   -7.5213   -5.4840    2.1959 H   0  0  0  0  0
   -9.0910   -4.8841    1.7557 H   0  0  0  0  0
   -8.9257   -5.7079   -0.4842 H   0  0  0  0  0
   -7.2944   -5.3351   -0.1885 H   0  0  0  0  0
   -8.2257   -9.9476   -0.5179 H   0  0  0  0  0
  -10.3753  -11.6199    0.2052 H   0  0  0  0  0
  -11.1546   -9.8269   -2.0999 H   0  0  0  0  0
  -11.7190   -9.5794   -0.3780 H   0  0  0  0  0
  -11.6270  -12.9408   -0.4395 H   0  0  0  0  0
  -13.6911   -9.9200   -2.6282 H   0  0  0  0  0
  -13.7103  -14.2602   -0.3250 H   0  0  0  0  0
  -15.8451  -11.0450   -2.1676 H   0  0  0  0  0
  -15.4699  -14.4110    1.5522 H   0  0  0  0  0
  -17.6407  -15.0311    0.6588 H   0  0  0  0  0
   -9.4686  -10.1462   -2.9366 H   0  0  0  0  0
   -8.8791  -12.8733   -3.9539 H   0  0  0  0  0
   -7.4190   -9.9904   -4.8023 H   0  0  0  0  0
   -9.4074  -12.1274   -5.9923 H   0  0  0  0  0
   -8.6112  -10.4922   -5.6945 H   0  0  0  0  0
  -10.5766   -9.7756   -4.5044 H   0  0  0  0  0
  -10.4613   -9.3730   -6.9135 H   0  0  0  0  0
  -11.2310  -10.9481   -7.2263 H   0  0  0  0  0
  -12.1424   -9.6599   -6.4011 H   0  0  0  0  0
  -11.7343  -12.4834   -5.2386 H   0  0  0  0  0
  -11.3004  -11.9301   -3.6026 H   0  0  0  0  0
  -12.6274  -11.1383   -4.4876 H   0  0  0  0  0
  1  2  1  0  0  0
  2  3  1  0  0  0
  2  5  1  0  0  0
  3  4  2  0  0  0
  3  6  1  0  0  0
  6  7  1  0  0  0
  7  8  1  0  0  0
  7 10  1  0  0  0
  8  9  2  0  0  0
  8 18  1  0  0  0
 10 11  1  0  0  0
 11 12  4  0  0  0
 11 13  4  0  0  0
 12 14  4  0  0  0
 13 15  4  0  0  0
 14 16  4  0  0  0
 15 16  4  0  0  0
 16 17  1  0  0  0
 18 19  1  0  0  0
 19 20  1  0  0  0
 19 22  1  0  0  0
 20 21  2  0  0  0
 20 26  1  0  0  0
 22 23  1  0  0  0
 22 24  1  0  0  0
 23 25  1  0  0  0
 26 27  1  0  0  0
 27 28  1  0  0  0
 28 29  2  0  0  0
 28 30  1  0  0  0
 30 31  1  0  0  0
 30 36  1  0  0  0
 31 32  1  0  0  0
 31 34  1  0  0  0
 32 33  2  0  0  0
 32 37  1  0  0  0
 34 35  1  0  0  0
 35 36  1  0  0  0
 37 38  1  0  0  0
 38 39  1  0  0  0
 38 41  1  0  0  0
 39 40  2  0  0  0
 39 53  1  0  0  0
 41 42  1  0  0  0
 42 43  4  0  0  0
 42 44  4  0  0  0
 43 45  4  0  0  0
 44 46  4  0  0  0
 45 47  4  0  0  0
 46 47  4  0  0  0
 47 48  1  0  0  0
 48 49  1  0  0  0
 49 50  1  0  0  0
 49 51  1  0  0  0
 49 52  2  0  0  0
 53 54  1  0  0  0
 54 55  1  0  0  0
 54 57  1  0  0  0
 55 56  1  0  0  0
 55 61  2  0  0  0
 57 58  1  0  0  0
 58 59  1  0  0  0
 58 60  1  0  0  0
  1 62  1  0  0  0
  1 63  1  0  0  0
  1 64  1  0  0  0
  2 65  1  0  0  0
  5 66  1  0  0  0
  5 67  1  0  0  0
  5 68  1  0  0  0
  6 69  1  0  0  0
  7 70  1  0  0  0
 10 71  1  0  0  0
 10 72  1  0  0  0
 12 73  1  0  0  0
 13 74  1  0  0  0
 14 75  1  0  0  0
 15 76  1  0  0  0
 17 77  1  0  0  0
 18 78  1  0  0  0
 19 79  1  0  0  0
 22 80  1  0  0  0
 23 81  1  0  0  0
 23 82  1  0  0  0
 24 83  1  0  0  0
 24 84  1  0  0  0
 24 85  1  0  0  0
 25 86  1  0  0  0
 25 87  1  0  0  0
 25 88  1  0  0  0
 26 89  1  0  0  0
 27 90  1  0  0  0
 27 91  1  0  0  0
 31 92  1  0  0  0
 34 93  1  0  0  0
 34 94  1  0  0  0
 35 95  1  0  0  0
 35 96  1  0  0  0
 36 97  1  0  0  0
 36 98  1  0  0  0
 37 99  1  0  0  0
 38100  1  0  0  0
 41101  1  0  0  0
 41102  1  0  0  0
 43103  1  0  0  0
 44104  1  0  0  0
 45105  1  0  0  0
 46106  1  0  0  0
 50107  1  0  0  0
 51108  1  0  0  0
 53109  1  0  0  0
 54110  1  0  0  0
 56111  1  0  0  0
 57112  1  0  0  0
 57113  1  0  0  0
 58114  1  0  0  0
 59115  1  0  0  0
 59116  1  0  0  0
 59117  1  0  0  0
 60118  1  0  0  0
 60119  1  0  0  0
 60120  1  0  0  0
M  END
$$$$
