### 
### Created by X-TOOL on Mon Sep 10 21:12:46 2018
### 

@<TRIPOS>MOLECULE
2nmb_ligand
  117   119     1     0     0
SMALL
GAST_HUCK


@<TRIPOS>ATOM
      1 N         -13.0810   -5.9220    0.9010 N.4       1 ALA         0.2377
      2 CA        -12.7090   -4.5860    0.3710 C.3       1 ALA         0.0621
      3 C         -12.8320   -4.5470   -1.1500 C.2       1 ALA         0.2265
      4 O         -13.7160   -3.8830   -1.6930 O.2       1 ALA        -0.3907
      5 CB        -11.2920   -4.2250    0.7940 C.3       1 ALA        -0.0040
      6 H1        -12.9917   -5.9219    1.9050 H         1 ALA         0.2015
      7 H2        -12.4694   -6.6211    0.5094 H         1 ALA         0.2015
      8 H3        -14.0344   -6.1301    0.6485 H         1 ALA         0.2015
      9 H4        -13.3996   -3.8414    0.7936 H         1 ALA         0.1095
     10 H5        -11.0313   -3.2339    0.3943 H         1 ALA         0.0310
     11 H6        -10.5897   -4.9750    0.4012 H         1 ALA         0.0310
     12 H7        -11.2310   -4.2051    1.8921 H         1 ALA         0.0310
     13 N         -11.9430   -5.2620   -1.8300 N.am      1 TYR        -0.2594
     14 CA        -11.9550   -5.3100   -3.2890 C.3       1 TYR         0.1391
     15 C         -11.1300   -6.4860   -3.8080 C.2       1 TYR         0.2057
     16 O         -11.6570   -7.5810   -4.0070 O.2       1 TYR        -0.3942
     17 CB        -11.4380   -3.9950   -3.8980 C.3       1 TYR         0.0164
     18 CG        -10.6410   -3.1180   -2.9490 C.ar      1 TYR        -0.0493
     19 CD1        -9.7140   -3.6630   -2.0630 C.ar      1 TYR        -0.0685
     20 CD2       -10.7970   -1.7370   -2.9620 C.ar      1 TYR        -0.0685
     21 CE1        -8.9890   -2.8570   -1.2050 C.ar      1 TYR        -0.0398
     22 CE2       -10.0720   -0.9260   -2.1110 C.ar      1 TYR        -0.0398
     23 CZ         -9.1690   -1.4900   -1.2350 C.ar      1 TYR         0.0805
     24 OH         -8.4450   -0.6860   -0.3860 O.3       1 TYR        -0.3376
     25 H8        -11.2486   -5.7800   -1.3305 H         1 TYR         0.1886
     26 H9        -12.9963   -5.4514   -3.6141 H         1 TYR         0.0821
     27 H10       -12.3057   -3.4172   -4.2491 H         1 TYR         0.0453
     28 H11       -10.7936   -4.2453   -4.7536 H         1 TYR         0.0453
     29 H12        -9.5588   -4.7357   -2.0462 H         1 TYR         0.0530
     30 H13       -11.5010   -1.2879   -3.6532 H         1 TYR         0.0530
     31 H14        -8.2820   -3.2977   -0.5115 H         1 TYR         0.0525
     32 H15       -10.2123    0.1487   -2.1317 H         1 TYR         0.0525
     33 H16        -7.8730   -1.2249    0.1477 H         1 TYR         0.2458
     34 N          -9.8380   -6.2600   -4.0370 N.am      1 ILE        -0.2633
     35 CA         -8.9590   -7.3130   -4.5330 C.3       1 ILE         0.1335
     36 C          -7.9860   -7.7620   -3.4490 C.2       1 ILE         0.2040
     37 O          -7.8850   -8.9510   -3.1460 O.2       1 ILE        -0.3944
     38 CB         -8.1580   -6.8600   -5.7730 C.3       1 ILE        -0.0037
     39 CG1        -8.9710   -5.8770   -6.6210 C.3       1 ILE        -0.0491
     40 CG2        -7.7530   -8.0660   -6.6060 C.3       1 ILE        -0.0582
     41 CD1       -10.3510   -6.3850   -6.9830 C.3       1 ILE        -0.0648
     42 H17        -9.4624   -5.3492   -3.8653 H         1 ILE         0.1883
     43 H18        -9.5847   -8.1711   -4.8195 H         1 ILE         0.0803
     44 H19        -7.2458   -6.3500   -5.4298 H         1 ILE         0.0345
     45 H20        -8.4179   -5.6803   -7.5513 H         1 ILE         0.0267
     46 H21        -9.0827   -4.9400   -6.0557 H         1 ILE         0.0267
     47 H22        -7.1706   -8.7621   -5.9844 H         1 ILE         0.0235
     48 H23        -7.1405   -7.7346   -7.4575 H         1 ILE         0.0235
     49 H24        -8.6548   -8.5738   -6.9786 H         1 ILE         0.0235
     50 H25       -10.8726   -5.6294   -7.5889 H         1 ILE         0.0230
     51 H26       -10.9238   -6.5771   -6.0638 H         1 ILE         0.0230
     52 H27       -10.2590   -7.3174   -7.5593 H         1 ILE         0.0230
     53 N          -7.2810   -6.8040   -2.8570 N.am      1 GLY        -0.2664
     54 CA         -6.3300   -7.1240   -1.8090 C.3       1 GLY         0.1203
     55 C          -6.9380   -7.9850   -0.7170 C.2       1 GLY         0.2032
     56 O          -6.6930   -9.1900   -0.6670 O.2       1 GLY        -0.3945
     57 H28        -7.4072   -5.8522   -3.1367 H         1 GLY         0.1881
     58 H29        -5.9707   -6.1863   -1.3601 H         1 GLY         0.0763
     59 H30        -5.4826   -7.6655   -2.2546 H         1 GLY         0.0763
     60 N          -7.7710   -7.3970    0.1580 N.am      1 PRO        -0.2501
     61 CA         -8.4080   -8.1180    1.2730 C.3       1 PRO         0.1338
     62 C          -9.4970   -9.0930    0.8210 C.2       1 PRO         0.2043
     63 O         -10.6110   -9.0610    1.3430 O.2       1 PRO        -0.3944
     64 CB         -9.0380   -6.9970    2.1150 C.3       1 PRO        -0.0104
     65 CG         -8.4180   -5.7320    1.6280 C.3       1 PRO        -0.0281
     66 CD         -8.1020   -5.9670    0.1810 C.3       1 PRO         0.0369
     67 H31        -7.6513   -8.6679    1.8517 H         1 PRO         0.0802
     68 H32        -8.8161   -7.1473    3.1818 H         1 PRO         0.0313
     69 H33       -10.1277   -6.9720    1.9671 H         1 PRO         0.0313
     70 H34        -7.4985   -5.5138    2.1910 H         1 PRO         0.0287
     71 H35        -9.1217   -4.8935    1.7358 H         1 PRO         0.0287
     72 H36        -8.9717   -5.7497   -0.4565 H         1 PRO         0.0524
     73 H37        -7.2473   -5.3555   -0.1439 H         1 PRO         0.0524
     74 N          -9.1680   -9.9700   -0.1280 N.am      1 PTR        -0.2607
     75 CA        -10.1190  -10.9630   -0.6260 C.3       1 PTR         0.1468
     76 C          -9.4980  -11.7890   -1.7460 C.2       1 PTR         0.2069
     77 O          -9.2600  -12.9880   -1.5910 O.2       1 PTR        -0.3941
     78 CB        -11.3970  -10.2870   -1.1420 C.3       1 PTR         0.0400
     79 CG        -12.5490  -11.2440   -1.3820 C.ar      1 PTR        -0.0004
     80 CD1       -12.5570  -12.5150   -0.8160 C.ar      1 PTR        -0.0239
     81 CD2       -13.7170  -10.8040   -1.9910 C.ar      1 PTR        -0.0239
     82 CE1       -13.7270  -13.2460   -0.7240 C.ar      1 PTR         0.0115
     83 CE2       -14.9120  -11.4720   -1.8000 C.ar      1 PTR         0.0115
     84 CZ        -14.9140  -12.6840   -1.1400 C.ar      1 PTR         0.1728
     85 OH        -16.1630  -13.3230   -0.8180 O.3       1 PTR        -0.2040
     86 P         -16.8220  -13.1520    0.6630 P.3       1 PTR         0.1348
     87 O1P       -15.7150  -13.4880    1.6500 O.co2     1 PTR        -0.6653
     88 O2P       -17.9800  -14.1350    0.7180 O.co2     1 PTR        -0.6653
     89 O3P       -17.2720  -11.7030    0.7510 O.co2     1 PTR        -0.6653
     90 H38        -8.2442   -9.9480   -0.5102 H         1 PTR         0.1886
     91 H39       -10.3857  -11.6353    0.2028 H         1 PTR         0.0840
     92 H40       -11.1625   -9.7835   -2.0914 H         1 PTR         0.0584
     93 H41       -11.7168   -9.5404   -0.4002 H         1 PTR         0.0584
     94 H42       -11.6321  -12.9385   -0.4415 H         1 PTR         0.0703
     95 H43       -13.6912   -9.9249   -2.6247 H         1 PTR         0.0703
     96 H44       -13.7104  -14.2546   -0.3272 H         1 PTR         0.0736
     97 H45       -15.8399  -11.0473   -2.1656 H         1 PTR         0.0736
     98 N          -9.2470  -11.1400   -2.8760 N.am      1 LEU        -0.2692
     99 CA         -8.6630  -11.8080   -4.0340 C.3       1 LEU         0.0946
    100 C          -7.1490  -11.6210   -4.0620 C.2       1 LEU         0.0601
    101 O          -6.6930  -10.5520   -4.5210 O.co2     1 LEU        -0.5666
    102 CB         -9.2810  -11.2710   -5.3300 C.3       1 LEU        -0.0156
    103 CG        -10.6630  -10.6250   -5.1820 C.3       1 LEU        -0.0431
    104 CD1       -11.1600  -10.1150   -6.5270 C.3       1 LEU        -0.0625
    105 CD2       -11.6520  -11.6150   -4.5850 C.3       1 LEU        -0.0625
    106 OXT        -6.4320  -12.5430   -3.6200 O.co2     1 LEU        -0.5666
    107 H46        -9.4643  -10.1657   -2.9354 H         1 LEU         0.1875
    108 H47        -8.8808  -12.8838   -3.9612 H         1 LEU         0.0726
    109 H48        -9.3727  -12.1102   -6.0352 H         1 LEU         0.0308
    110 H49        -8.5966  -10.5164   -5.7449 H         1 LEU         0.0308
    111 H50       -10.5743   -9.7683   -4.4978 H         1 LEU         0.0297
    112 H51       -12.1515   -9.6554   -6.4012 H         1 LEU         0.0232
    113 H52       -11.2322  -10.9548   -7.2337 H         1 LEU         0.0232
    114 H53       -10.4557   -9.3660   -6.9182 H         1 LEU         0.0232
    115 H54       -11.2744  -11.9707   -3.6150 H         1 LEU         0.0232
    116 H55       -11.7726  -12.4695   -5.2672 H         1 LEU         0.0232
    117 H56       -12.6241  -11.1207   -4.4411 H         1 LEU         0.0232
@<TRIPOS>BOND
     1    1    2 1  
     2    1    6 1  
     3    1    7 1  
     4    1    8 1  
     5    2    3 1  
     6    2    5 1  
     7    2    9 1  
     8    3    4 2  
     9    3   13 am 
    10    5   10 1  
    11    5   11 1  
    12    5   12 1  
    13   13   14 1  
    14   13   25 1  
    15   14   15 1  
    16   14   17 1  
    17   14   26 1  
    18   15   16 2  
    19   15   34 am 
    20   17   18 1  
    21   17   27 1  
    22   17   28 1  
    23   18   19 ar 
    24   18   20 ar 
    25   19   21 ar 
    26   19   29 1  
    27   20   22 ar 
    28   20   30 1  
    29   21   23 ar 
    30   21   31 1  
    31   22   23 ar 
    32   22   32 1  
    33   23   24 1  
    34   24   33 1  
    35   34   35 1  
    36   34   42 1  
    37   35   36 1  
    38   35   38 1  
    39   35   43 1  
    40   36   37 2  
    41   36   53 am 
    42   38   39 1  
    43   38   40 1  
    44   38   44 1  
    45   39   41 1  
    46   39   45 1  
    47   39   46 1  
    48   40   47 1  
    49   40   48 1  
    50   40   49 1  
    51   41   50 1  
    52   41   51 1  
    53   41   52 1  
    54   53   54 1  
    55   53   57 1  
    56   54   55 1  
    57   54   58 1  
    58   54   59 1  
    59   55   56 2  
    60   55   60 am 
    61   60   61 1  
    62   60   66 1  
    63   61   62 1  
    64   61   64 1  
    65   61   67 1  
    66   62   63 2  
    67   62   74 am 
    68   64   65 1  
    69   64   68 1  
    70   64   69 1  
    71   65   66 1  
    72   65   70 1  
    73   65   71 1  
    74   66   72 1  
    75   66   73 1  
    76   74   75 1  
    77   74   90 1  
    78   75   76 1  
    79   75   78 1  
    80   75   91 1  
    81   76   77 2  
    82   76   98 am 
    83   78   79 1  
    84   78   92 1  
    85   78   93 1  
    86   79   80 ar 
    87   79   81 ar 
    88   80   82 ar 
    89   80   94 1  
    90   81   83 ar 
    91   81   95 1  
    92   82   84 ar 
    93   82   96 1  
    94   83   84 ar 
    95   83   97 1  
    96   84   85 1  
    97   85   86 1  
    98   86   87 ar 
    99   86   88 ar 
   100   86   89 ar 
   101   98   99 1  
   102   98  107 1  
   103   99  100 1  
   104   99  102 1  
   105   99  108 1  
   106  100  101 ar 
   107  100  106 ar 
   108  102  103 1  
   109  102  109 1  
   110  102  110 1  
   111  103  104 1  
   112  103  105 1  
   113  103  111 1  
   114  104  112 1  
   115  104  113 1  
   116  104  114 1  
   117  105  115 1  
   118  105  116 1  
   119  105  117 1  
@<TRIPOS>SUBSTRUCTURE
     1 ALA         1

