1bim_ligand
  -I-interpret- 

 92 95  0  0  0  0  0  0  0  0999 V2000
   39.5920   60.1220   46.4970 N   0  0  0  0  0
   38.6110   60.9360   46.0590 C   0  0  0  0  0
   38.4800   62.0600   46.4600 O   0  0  0  0  0
   40.4930   60.5570   47.5680 C   0  0  0  0  0
   39.6150   58.7620   46.0070 C   0  0  0  0  0
   41.0300   58.5410   45.4730 C   0  0  0  0  0
   39.1830   57.8390   47.1730 C   0  0  0  0  0
   39.9930   56.8620   47.5970 C   0  0  0  0  0
   38.0190   58.0380   47.8010 C   0  0  0  0  0
   39.6280   56.0880   48.6330 C   0  0  0  0  0
   37.6500   57.2460   48.8200 C   0  0  0  0  0
   38.4480   56.2730   49.2350 C   0  0  0  0  0
   36.1270   60.9350   43.2480 C   0  0  0  0  0
   36.4230   60.0650   42.4830 O   0  0  0  0  0
   37.2820   61.5240   44.0390 C   0  0  0  0  0
   37.6760   60.3910   44.9980 C   0  0  0  0  0
   38.4440   61.7430   43.0450 C   0  0  0  0  0
   38.2710   63.1290   42.3880 C   0  0  0  0  0
   37.8130   63.2570   41.1440 C   0  0  0  0  0
   37.6750   64.9940   40.7120 S   0  0  0  0  0
   38.2670   65.3290   42.3370 C   0  0  0  0  0
   38.5120   64.2890   43.0470 N   0  0  0  0  0
   38.3810   66.5610   42.7250 N   0  0  0  0  0
   32.8300   61.7010   41.9250 C   0  0  0  0  0
   33.6700   60.6620   42.7430 C   0  0  0  0  0
   32.7340   59.9840   43.8030 C   0  0  0  0  0
   33.5630   59.1690   44.8190 C   0  0  0  0  0
   32.9620   59.2690   46.2580 C   0  0  0  0  0
   33.7150   58.3510   47.2640 C   0  0  0  0  0
   33.6750   56.8850   46.7780 C   0  0  0  0  0
   34.2870   56.7900   45.3440 C   0  0  0  0  0
   33.5140   57.7030   44.3480 C   0  0  0  0  0
   34.8120   61.2980   43.4700 N   0  0  0  0  0
   32.5860   62.8260   42.7790 O   0  0  0  0  0
   32.8920   62.1410   38.3470 N   0  0  0  0  0
   33.2300   61.3470   39.4030 C   0  0  0  0  0
   33.3560   60.0740   39.3260 O   0  0  0  0  0
   33.6080   62.1480   40.6410 C   0  0  0  0  0
   33.2880   63.6170   40.1620 C   0  0  0  0  0
   32.8100   63.5250   38.6600 C   0  0  0  0  0
   32.4770   61.6360   37.0810 C   0  0  0  0  0
   31.3000   63.8770   38.4600 C   0  0  0  0  0
   33.6980   64.4360   37.7510 C   0  0  0  0  0
   40.3056   59.9628   48.4624 H   0  0  0  0  0
   41.5265   60.4205   47.2495 H   0  0  0  0  0
   40.3146   61.6100   47.7858 H   0  0  0  0  0
   38.9236   58.5428   45.1933 H   0  0  0  0  0
   41.7495   58.7054   46.2751 H   0  0  0  0  0
   41.1223   57.5195   45.1041 H   0  0  0  0  0
   41.2237   59.2411   44.6603 H   0  0  0  0  0
   40.9494   56.6939   47.1018 H   0  0  0  0  0
   37.3648   58.8497   47.4828 H   0  0  0  0  0
   40.2982   55.3039   48.9853 H   0  0  0  0  0
   36.6886   57.4041   49.3088 H   0  0  0  0  0
   38.1453   55.6286   50.0603 H   0  0  0  0  0
   37.0465   62.4570   44.5510 H   0  0  0  0  0
   36.7818   59.9866   45.4723 H   0  0  0  0  0
   38.1774   59.5993   44.4413 H   0  0  0  0  0
   38.4325   60.9651   42.2816 H   0  0  0  0  0
   39.3976   61.6967   43.5710 H   0  0  0  0  0
   37.5589   62.4276   40.4840 H   0  0  0  0  0
   38.1293   67.3204   42.0922 H   0  0  0  0  0
   38.7223   66.7708   43.6630 H   0  0  0  0  0
   31.8891   61.2571   41.5997 H   0  0  0  0  0
   34.0776   59.9383   42.0372 H   0  0  0  0  0
   32.0468   59.3122   43.2886 H   0  0  0  0  0
   32.1853   60.7599   44.3369 H   0  0  0  0  0
   34.5819   59.5535   44.8649 H   0  0  0  0  0
   31.9204   58.9505   46.2171 H   0  0  0  0  0
   33.0570   60.3002   46.5980 H   0  0  0  0  0
   33.2326   58.4177   48.2392 H   0  0  0  0  0
   34.7530   58.6756   47.3363 H   0  0  0  0  0
   32.6413   56.5401   46.7537 H   0  0  0  0  0
   34.2534   56.2619   47.4601 H   0  0  0  0  0
   34.2161   55.7580   45.0005 H   0  0  0  0  0
   35.3262   57.1164   45.3843 H   0  0  0  0  0
   33.9776   57.6294   43.3643 H   0  0  0  0  0
   32.4744   57.3787   44.3011 H   0  0  0  0  0
   34.6129   62.0269   44.1552 H   0  0  0  0  0
   32.0712   63.4819   42.3031 H   0  0  0  0  0
   34.6406   62.0179   40.9648 H   0  0  0  0  0
   34.1722   64.2489   40.2453 H   0  0  0  0  0
   32.5127   64.0633   40.7848 H   0  0  0  0  0
   33.2717   61.0213   36.6582 H   0  0  0  0  0
   31.5782   61.0327   37.2088 H   0  0  0  0  0
   32.2647   62.4690   36.4108 H   0  0  0  0  0
   31.0145   63.6737   37.4279 H   0  0  0  0  0
   30.6944   63.2692   39.1323 H   0  0  0  0  0
   31.1420   64.9326   38.6808 H   0  0  0  0  0
   34.7427   64.1431   37.8553 H   0  0  0  0  0
   33.3893   64.3215   36.7119 H   0  0  0  0  0
   33.5789   65.4762   38.0543 H   0  0  0  0  0
  2  1  1  0  0  0
  1  4  1  0  0  0
  1  5  1  0  0  0
  2  3  2  0  0  0
 16  2  1  0  0  0
  5  6  1  0  0  0
  5  7  1  0  0  0
  7  8  4  0  0  0
  7  9  4  0  0  0
  8 10  4  0  0  0
  9 11  4  0  0  0
 10 12  4  0  0  0
 11 12  4  0  0  0
 13 14  2  0  0  0
 13 15  1  0  0  0
 33 13  1  0  0  0
 15 16  1  0  0  0
 15 17  1  0  0  0
 17 18  1  0  0  0
 18 19  4  0  0  0
 18 22  4  0  0  0
 19 20  4  0  0  0
 21 20  4  0  0  0
 22 21  4  0  0  0
 21 23  1  0  0  0
 24 25  1  0  0  0
 24 34  1  0  0  0
 38 24  1  0  0  0
 25 26  1  0  0  0
 25 33  1  0  0  0
 26 27  1  0  0  0
 27 28  1  0  0  0
 27 32  1  0  0  0
 28 29  1  0  0  0
 29 30  1  0  0  0
 31 30  1  0  0  0
 32 31  1  0  0  0
 36 35  1  0  0  0
 35 40  1  0  0  0
 35 41  1  0  0  0
 36 37  2  0  0  0
 36 38  1  0  0  0
 38 39  1  0  0  0
 39 40  1  0  0  0
 40 42  1  0  0  0
 40 43  1  0  0  0
  4 44  1  0  0  0
  4 45  1  0  0  0
  4 46  1  0  0  0
  5 47  1  0  0  0
  6 48  1  0  0  0
  6 49  1  0  0  0
  6 50  1  0  0  0
  8 51  1  0  0  0
  9 52  1  0  0  0
 10 53  1  0  0  0
 11 54  1  0  0  0
 12 55  1  0  0  0
 15 56  1  0  0  0
 16 57  1  0  0  0
 16 58  1  0  0  0
 17 59  1  0  0  0
 17 60  1  0  0  0
 19 61  1  0  0  0
 23 62  1  0  0  0
 23 63  1  0  0  0
 24 64  1  0  0  0
 25 65  1  0  0  0
 26 66  1  0  0  0
 26 67  1  0  0  0
 27 68  1  0  0  0
 28 69  1  0  0  0
 28 70  1  0  0  0
 29 71  1  0  0  0
 29 72  1  0  0  0
 30 73  1  0  0  0
 30 74  1  0  0  0
 31 75  1  0  0  0
 31 76  1  0  0  0
 32 77  1  0  0  0
 32 78  1  0  0  0
 33 79  1  0  0  0
 34 80  1  0  0  0
 38 81  1  0  0  0
 39 82  1  0  0  0
 39 83  1  0  0  0
 41 84  1  0  0  0
 41 85  1  0  0  0
 41 86  1  0  0  0
 42 87  1  0  0  0
 42 88  1  0  0  0
 42 89  1  0  0  0
 43 90  1  0  0  0
 43 91  1  0  0  0
 43 92  1  0  0  0
M  END
$$$$
