3gur_ligand
  -I-interpret- 

 73 74  0  0  0  0  0  0  0  0999 V2000
   12.0480   -2.6040   11.0020 C   0  0  0  0  0
   11.7360   -2.2090   13.3580 N   0  3  0  0  0
    5.1230   -8.6280   13.7100 S   0  0  0  0  0
   10.4640   -9.6260   13.3060 C   0  0  0  0  0
   10.7670   -7.2260   12.9830 N   0  0  0  0  0
    9.6590  -10.7750   13.1720 O   0  0  0  0  0
   13.2500  -11.4470   14.2170 C   0  0  0  0  0
   11.7920   -9.6740   13.3650 N   0  0  0  0  0
    4.7470   -4.9620   14.5870 C   0  0  0  0  0
    5.4940   -6.2490   14.5960 C   0  0  0  0  0
   11.5610   -1.4820   10.7450 O   0  0  0  0  0
   12.1280   -3.4560   10.0910 O   0  0  0  0  0
   13.1120  -10.9330   15.3480 O   0  0  0  0  0
   14.0010  -12.4390   14.0910 O   0  0  0  0  0
   12.5320   -2.9300   12.3840 C   0  0  0  0  0
    4.6990   -4.5580   15.8590 N   0  0  0  0  0
    9.8400   -8.2640   13.3900 C   0  0  0  0  0
    5.3260   -5.5430   16.6410 O   0  0  0  0  0
   12.5220  -10.8790   13.0230 C   0  0  0  0  0
    5.8080   -6.6080   15.8470 N   0  0  0  0  0
    3.3150   -2.9430   11.6710 O   0  0  0  0  0
    3.6430   -3.2290   12.9530 N   0  0  0  0  0
    3.2180   -2.2530   13.8040 O   0  0  0  0  0
   10.7660   -8.8840   16.9720 O   0  0  0  0  0
   12.3980   -4.4290   12.6280 C   0  0  0  0  0
    8.5940   -8.2220   12.5140 C   0  0  0  0  0
   10.8770   -6.0880   13.6630 C   0  0  0  0  0
    9.4180   -9.0540   16.5210 C   0  0  0  0  0
   10.9330   -6.0360   15.0710 O   0  0  0  0  0
    8.7310  -10.1340   17.3620 C   0  0  0  0  0
    8.3050  -11.3860   16.6210 C   0  0  0  0  0
    7.0130  -11.0710   15.9180 C   0  0  0  0  0
    6.9590   -9.6000   15.5050 C   0  0  0  0  0
    5.5450   -9.0240   15.3710 C   0  0  0  0  0
    5.8360   -7.0760   13.3810 C   0  0  0  0  0
    5.2550   -6.4130   12.2310 C   0  0  0  0  0
    4.6040   -5.1750   12.2400 C   0  0  0  0  0
    4.2960   -4.3920   13.2940 C   0  0  0  0  0
   10.9410   -4.8190   12.8460 C   0  0  0  0  0
    7.4430   -6.8930   12.9050 S   0  0  0  0  0
   11.8263   -1.2063   13.1939 H   0  0  0  0  0
   10.7578   -2.4831   13.2658 H   0  0  0  0  0
   12.0658   -2.4321   14.2971 H   0  0  0  0  0
   11.3476   -7.3716   12.1571 H   0  0  0  0  0
   12.3083   -8.8444   13.6574 H   0  0  0  0  0
   12.5201   -4.2599   10.4398 H   0  0  0  0  0
   14.0062  -12.7205   13.1732 H   0  0  0  0  0
   13.5775   -2.6374   12.4814 H   0  0  0  0  0
    9.5693   -8.0768   14.4291 H   0  0  0  0  0
   11.8095  -11.6238   12.6684 H   0  0  0  0  0
   13.2576  -10.6300   12.2582 H   0  0  0  0  0
   11.1958   -8.2069   16.4443 H   0  0  0  0  0
   12.9671   -4.6902   13.5202 H   0  0  0  0  0
   12.7752   -4.9605   11.7543 H   0  0  0  0  0
    8.0619   -9.1597   12.6742 H   0  0  0  0  0
    8.9313   -8.0585   11.4905 H   0  0  0  0  0
    9.4205   -9.3558   15.4736 H   0  0  0  0  0
    8.8781   -8.1130   16.6265 H   0  0  0  0  0
    7.8175   -9.6834   17.7502 H   0  0  0  0  0
    9.4618  -10.4530   18.1051 H   0  0  0  0  0
    8.1711  -12.2154   17.3154 H   0  0  0  0  0
    9.0688  -11.6851   15.9032 H   0  0  0  0  0
    6.1860  -11.2739   16.5984 H   0  0  0  0  0
    6.9423  -11.6886   15.0226 H   0  0  0  0  0
    7.4250   -9.5291   14.5222 H   0  0  0  0  0
    7.4601   -9.0318   16.2887 H   0  0  0  0  0
    4.8426   -9.7799   15.7222 H   0  0  0  0  0
    5.5033   -8.1039   15.9539 H   0  0  0  0  0
    5.3322   -6.9254   11.2721 H   0  0  0  0  0
    4.3056   -4.7917   11.2642 H   0  0  0  0  0
    3.9892   -3.7579   14.1258 H   0  0  0  0  0
   10.4602   -4.9828   11.8816 H   0  0  0  0  0
   10.4258   -4.0184   13.3768 H   0  0  0  0  0
  1 11  2  0  0  0
  1 12  1  0  0  0
 15  1  1  0  0  0
 15  2  1  0  0  0
  3 34  1  0  0  0
 35  3  1  0  0  0
  4  6  2  0  0  0
  4  8  1  0  0  0
 17  4  1  0  0  0
 17  5  1  0  0  0
  5 27  1  0  0  0
  7 13  2  0  0  0
  7 14  1  0  0  0
 19  7  1  0  0  0
  8 19  1  0  0  0
 10  9  4  0  0  0
  9 16  4  0  0  0
  9 38  1  0  0  0
 10 20  4  0  0  0
 35 10  1  0  0  0
 25 15  1  0  0  0
 18 16  4  0  0  0
 26 17  1  0  0  0
 20 18  4  0  0  0
 22 21  2  0  0  0
 22 23  2  0  0  0
 38 22  1  0  0  0
 28 24  1  0  0  0
 39 25  1  0  0  0
 40 26  1  0  0  0
 27 29  2  0  0  0
 27 39  1  0  0  0
 30 28  1  0  0  0
 31 30  1  0  0  0
 32 31  1  0  0  0
 33 32  1  0  0  0
 34 33  1  0  0  0
 35 36  1  0  0  0
 35 40  1  0  0  0
 36 37  2  0  0  0
 37 38  1  0  0  0
  2 41  1  0  0  0
  2 42  1  0  0  0
  2 43  1  0  0  0
  5 44  1  0  0  0
  8 45  1  0  0  0
 12 46  1  0  0  0
 14 47  1  0  0  0
 15 48  1  0  0  0
 17 49  1  0  0  0
 19 50  1  0  0  0
 19 51  1  0  0  0
 24 52  1  0  0  0
 25 53  1  0  0  0
 25 54  1  0  0  0
 26 55  1  0  0  0
 26 56  1  0  0  0
 28 57  1  0  0  0
 28 58  1  0  0  0
 30 59  1  0  0  0
 30 60  1  0  0  0
 31 61  1  0  0  0
 31 62  1  0  0  0
 32 63  1  0  0  0
 32 64  1  0  0  0
 33 65  1  0  0  0
 33 66  1  0  0  0
 34 67  1  0  0  0
 34 68  1  0  0  0
 36 69  1  0  0  0
 37 70  1  0  0  0
 38 71  1  0  0  0
 39 72  1  0  0  0
 39 73  1  0  0  0
M  END
$$$$
