6mso_ligand
  -I-interpret- 

 15 14  0  0  0  0  0  0  0  0999 V2000
   95.7090  -10.5900   69.7170 C   0  0  0  0  0
   96.6780   -9.6430   69.0550 C   0  0  0  0  0
   96.5980   -9.7850   67.5590 C   0  0  0  0  0
   96.1090  -10.8590   71.1480 C   0  0  0  0  0
   97.2140  -10.7170   66.9920 O   0  0  0  0  0
   95.9150   -8.9580   66.9110 O   0  0  0  0  0
   97.2830  -10.5910   71.5160 O   0  0  0  0  0
   95.2620  -11.3440   71.9400 O   0  0  0  0  0
   96.1760   -7.9490   69.3900 S   0  0  0  0  0
   95.7115  -11.5326   69.1697 H   0  0  0  0  0
   94.7173  -10.1377   69.7098 H   0  0  0  0  0
   97.6756   -9.8678   69.4324 H   0  0  0  0  0
   95.5225   -8.3247   67.5163 H   0  0  0  0  0
   97.7754  -10.2315   70.7744 H   0  0  0  0  0
   96.2157   -7.7275   70.7008 H   0  0  0  0  0
  1  2  1  0  0  0
  1  4  1  0  0  0
  2  3  1  0  0  0
  2  9  1  0  0  0
  3  5  2  0  0  0
  3  6  1  0  0  0
  4  7  1  0  0  0
  4  8  2  0  0  0
  1 10  1  0  0  0
  1 11  1  0  0  0
  2 12  1  0  0  0
  6 13  1  0  0  0
  7 14  1  0  0  0
  9 15  1  0  0  0
M  END
$$$$
