5u7d_ligand
  -I-interpret- 

 67 70  0  0  0  0  0  0  0  0999 V2000
   10.4890    8.3960   20.6830 C   0  0  0  0  0
   10.2960    9.2540   19.5600 O   0  0  0  0  0
   10.2980    8.6870   18.3130 C   0  0  0  0  0
   10.4320    7.3310   18.0550 C   0  0  0  0  0
   10.1320    9.5890   17.2410 C   0  0  0  0  0
   10.0650   10.9090   17.5900 O   0  0  0  0  0
   10.0010   11.8790   16.5430 C   0  0  0  0  0
   10.0810    9.1090   15.9420 C   0  0  0  0  0
   10.2230    7.7510   15.7060 C   0  0  0  0  0
   10.4030    6.8520   16.7490 C   0  0  0  0  0
   10.5890    5.3780   16.4750 C   0  0  0  0  0
   11.9760    4.9340   16.7630 C   0  0  0  0  0
   12.7860    4.7300   15.5990 N   0  0  0  0  0
   14.0570    4.2070   15.6080 C   0  0  0  0  0
   14.6890    4.0910   14.5660 O   0  0  0  0  0
   12.3320    4.6790   17.9570 N   0  0  0  0  0
   13.6490    4.1230   18.0480 N   0  0  0  0  0
   14.4910    3.8690   16.9500 C   0  0  0  0  0
   15.6250    3.3140   17.4740 C   0  0  0  0  0
   16.8720    2.8550   16.8000 C   0  0  0  0  0
   15.5080    3.2460   18.8500 N   0  0  0  0  0
   14.3140    3.7240   19.1850 C   0  0  0  0  0
   13.7210    3.7700   20.5530 C   0  0  0  0  0
   12.4200    2.9570   20.6650 C   0  0  0  0  0
   12.4840    1.6250   19.9500 C   0  0  0  0  0
   12.0800    2.7570   22.0360 O   0  0  0  0  0
   13.5420    5.2250   21.0070 C   0  0  0  0  0
   14.8310    5.8940   21.4970 C   0  0  0  0  0
   14.5810    7.1890   22.2380 C   0  0  0  0  0
   15.8690    7.8570   22.6590 C   0  0  0  0  0
   16.6420    8.5430   21.7410 C   0  0  0  0  0
   17.8120    9.1720   22.1260 C   0  0  0  0  0
   18.2370    9.1100   23.4350 C   0  0  0  0  0
   17.5020    8.3920   24.3530 C   0  0  0  0  0
   16.3210    7.7760   23.9690 C   0  0  0  0  0
    9.6959    7.6488   20.7083 H   0  0  0  0  0
   11.4554    7.8992   20.5972 H   0  0  0  0  0
   10.4627    8.9867   21.5987 H   0  0  0  0  0
   10.5612    6.6340   18.8830 H   0  0  0  0  0
   10.8901   11.7962   15.9179 H   0  0  0  0  0
    9.1120   11.7006   15.9380 H   0  0  0  0  0
    9.9522   12.8776   16.9771 H   0  0  0  0  0
    9.9299    9.7965   15.1098 H   0  0  0  0  0
   10.1928    7.3810   14.6812 H   0  0  0  0  0
   10.3837    5.1972   15.4199 H   0  0  0  0  0
    9.9101    4.8213   17.1210 H   0  0  0  0  0
   12.3899    4.9924   14.6964 H   0  0  0  0  0
   16.6285    2.0709   16.0830 H   0  0  0  0  0
   17.3324    3.6948   16.2796 H   0  0  0  0  0
   17.5642    2.4647   17.5461 H   0  0  0  0  0
   14.4222    3.2874   21.2338 H   0  0  0  0  0
   11.6459    3.5431   20.1698 H   0  0  0  0  0
   12.6778    1.7918   18.8904 H   0  0  0  0  0
   13.2861    1.0230   20.3770 H   0  0  0  0  0
   11.5340    1.1040   20.0693 H   0  0  0  0  0
   11.2673    2.2490   22.0922 H   0  0  0  0  0
   12.8455    5.2167   21.8454 H   0  0  0  0  0
   13.1947    5.7910   20.1426 H   0  0  0  0  0
   15.4386    6.1245   20.6219 H   0  0  0  0  0
   15.3203    5.2062   22.1867 H   0  0  0  0  0
   14.0049    6.9629   23.1353 H   0  0  0  0  0
   14.0477    7.8662   21.5709 H   0  0  0  0  0
   16.3250    8.5888   20.6991 H   0  0  0  0  0
   18.4008    9.7195   21.3901 H   0  0  0  0  0
   19.1474    9.6248   23.7420 H   0  0  0  0  0
   17.8497    8.3082   25.3827 H   0  0  0  0  0
   15.7398    7.2208   24.7052 H   0  0  0  0  0
  1  2  1  0  0  0
  2  3  1  0  0  0
  3  4  4  0  0  0
  3  5  4  0  0  0
  4 10  4  0  0  0
  5  6  1  0  0  0
  5  8  4  0  0  0
  6  7  1  0  0  0
  8  9  4  0  0  0
  9 10  4  0  0  0
 10 11  1  0  0  0
 11 12  1  0  0  0
 12 13  1  0  0  0
 12 16  2  0  0  0
 13 14  1  0  0  0
 14 15  2  0  0  0
 14 18  1  0  0  0
 16 17  1  0  0  0
 17 18  4  0  0  0
 17 22  4  0  0  0
 18 19  4  0  0  0
 19 20  1  0  0  0
 19 21  4  0  0  0
 21 22  4  0  0  0
 22 23  1  0  0  0
 23 24  1  0  0  0
 23 27  1  0  0  0
 24 25  1  0  0  0
 24 26  1  0  0  0
 27 28  1  0  0  0
 28 29  1  0  0  0
 29 30  1  0  0  0
 30 31  4  0  0  0
 30 35  4  0  0  0
 31 32  4  0  0  0
 32 33  4  0  0  0
 33 34  4  0  0  0
 34 35  4  0  0  0
  1 36  1  0  0  0
  1 37  1  0  0  0
  1 38  1  0  0  0
  4 39  1  0  0  0
  7 40  1  0  0  0
  7 41  1  0  0  0
  7 42  1  0  0  0
  8 43  1  0  0  0
  9 44  1  0  0  0
 11 45  1  0  0  0
 11 46  1  0  0  0
 13 47  1  0  0  0
 20 48  1  0  0  0
 20 49  1  0  0  0
 20 50  1  0  0  0
 23 51  1  0  0  0
 24 52  1  0  0  0
 25 53  1  0  0  0
 25 54  1  0  0  0
 25 55  1  0  0  0
 26 56  1  0  0  0
 27 57  1  0  0  0
 27 58  1  0  0  0
 28 59  1  0  0  0
 28 60  1  0  0  0
 29 61  1  0  0  0
 29 62  1  0  0  0
 31 63  1  0  0  0
 32 64  1  0  0  0
 33 65  1  0  0  0
 34 66  1  0  0  0
 35 67  1  0  0  0
M  END
$$$$
