5koq_ligand
  -I-interpret- 

 66 68  0  0  0  0  0  0  0  0999 V2000
  -46.6020    1.0150    8.0460 C   0  0  0  0  0
  -44.1810    1.0220    7.1220 C   0  0  0  0  0
  -44.7160    1.1580    5.6760 C   0  0  0  0  0
  -43.6470    1.7420    4.7380 C   0  0  0  0  0
  -46.8340   -1.9320    9.2840 C   0  0  0  0  0
  -47.5130   -2.5710   11.3890 C   0  0  0  0  0
  -44.4510   -0.4480   13.3070 C   0  0  0  0  0
  -43.2240    0.3200   13.7280 C   0  0  0  0  0
  -41.8510    1.8000   14.6380 C   0  0  0  0  0
  -49.8940   -2.6250   12.0880 C   0  0  0  0  0
  -46.1980    2.3490   10.2520 C   0  0  0  0  0
  -46.9850    2.2100    8.9430 C   0  0  0  0  0
  -48.4760    2.0920    9.2670 C   0  0  0  0  0
  -45.2070    0.4850    8.0520 N   0  0  0  0  0
  -43.2090    3.1100    5.2740 C   0  0  0  0  0
  -42.6490    2.9430    6.6320 N   0  3  0  0  0
  -43.5710    2.3440    7.6200 C   0  0  0  0  0
  -44.8250   -0.5530    8.8650 C   0  0  0  0  0
  -43.6800   -0.9760    8.8190 O   0  0  0  0  0
  -45.7410   -1.2310    9.8130 C   0  0  0  0  0
  -47.6820   -2.5580   10.0770 N   0  0  0  0  0
  -46.4840   -1.9350   11.9440 N   0  0  0  0  0
  -45.5730   -1.2590   11.2250 C   0  0  0  0  0
  -44.5120   -0.6140   11.8450 N   0  0  0  0  0
  -43.2080    1.4240   14.4970 C   0  0  0  0  0
  -41.1170    0.9060   13.9510 C   0  0  0  0  0
  -41.9540    0.0130   13.4030 O   0  0  0  0  0
  -48.5320   -3.3130   12.2340 C   0  0  0  0  0
  -48.6450   -4.7750   11.7850 C   0  0  0  0  0
  -48.1790   -3.3030   13.7220 C   0  0  0  0  0
  -46.7465    1.3829    7.0302 H   0  0  0  0  0
  -47.2058    0.1898    8.4236 H   0  0  0  0  0
  -43.3768    0.2864    7.1025 H   0  0  0  0  0
  -45.5743    1.8299    5.6852 H   0  0  0  0  0
  -44.9924    0.1679    5.3136 H   0  0  0  0  0
  -44.0587    1.8541    3.7350 H   0  0  0  0  0
  -42.7888    1.0714    4.6949 H   0  0  0  0  0
  -46.9847   -1.9600    8.2048 H   0  0  0  0  0
  -45.3320    0.1082   13.6273 H   0  0  0  0  0
  -44.4121   -1.4366   13.7644 H   0  0  0  0  0
  -41.4714    2.6543   15.1985 H   0  0  0  0  0
  -50.2081   -2.6615   11.0449 H   0  0  0  0  0
  -50.6280   -3.1398   12.7080 H   0  0  0  0  0
  -49.8110   -1.5862   12.4077 H   0  0  0  0  0
  -46.5311    3.2415   10.7817 H   0  0  0  0  0
  -46.3709    1.4704   10.8735 H   0  0  0  0  0
  -45.1346    2.4335   10.0279 H   0  0  0  0  0
  -46.7346    3.1054    8.3740 H   0  0  0  0  0
  -48.6425    1.2141    9.8913 H   0  0  0  0  0
  -48.8026    2.9853    9.7995 H   0  0  0  0  0
  -49.0412    1.9929    8.3402 H   0  0  0  0  0
  -44.0678    3.7801    5.3122 H   0  0  0  0  0
  -42.4517    3.5356    4.6157 H   0  0  0  0  0
  -42.4196    3.8768    6.9723 H   0  0  0  0  0
  -41.8559    2.3073    6.5469 H   0  0  0  0  0
  -43.0049    2.1348    8.5277 H   0  0  0  0  0
  -44.3848    3.0480    7.7936 H   0  0  0  0  0
  -43.7533   -0.2446   11.2720 H   0  0  0  0  0
  -44.0720    1.9302   14.9275 H   0  0  0  0  0
  -40.0311    0.9073   13.8563 H   0  0  0  0  0
  -49.3797   -5.2885   12.4052 H   0  0  0  0  0
  -48.9599   -4.8101   10.7421 H   0  0  0  0  0
  -47.6754   -5.2619   11.8898 H   0  0  0  0  0
  -48.1293   -2.2731   14.0754 H   0  0  0  0  0
  -48.9443   -3.8432   14.2793 H   0  0  0  0  0
  -47.2127   -3.7856   13.8681 H   0  0  0  0  0
  1 12  1  0  0  0
 14  1  1  0  0  0
  2  3  1  0  0  0
 14  2  1  0  0  0
  2 17  1  0  0  0
  3  4  1  0  0  0
  4 15  1  0  0  0
 20  5  4  0  0  0
  5 21  4  0  0  0
  6 21  4  0  0  0
 22  6  4  0  0  0
  6 28  1  0  0  0
  7  8  1  0  0  0
 24  7  1  0  0  0
  8 25  4  0  0  0
  8 27  4  0  0  0
 25  9  4  0  0  0
  9 26  4  0  0  0
 28 10  1  0  0  0
 12 11  1  0  0  0
 12 13  1  0  0  0
 18 14  1  0  0  0
 16 15  1  0  0  0
 17 16  1  0  0  0
 18 19  2  0  0  0
 20 18  1  0  0  0
 23 20  4  0  0  0
 23 22  4  0  0  0
 23 24  1  0  0  0
 26 27  4  0  0  0
 28 29  1  0  0  0
 28 30  1  0  0  0
  1 31  1  0  0  0
  1 32  1  0  0  0
  2 33  1  0  0  0
  3 34  1  0  0  0
  3 35  1  0  0  0
  4 36  1  0  0  0
  4 37  1  0  0  0
  5 38  1  0  0  0
  7 39  1  0  0  0
  7 40  1  0  0  0
  9 41  1  0  0  0
 10 42  1  0  0  0
 10 43  1  0  0  0
 10 44  1  0  0  0
 11 45  1  0  0  0
 11 46  1  0  0  0
 11 47  1  0  0  0
 12 48  1  0  0  0
 13 49  1  0  0  0
 13 50  1  0  0  0
 13 51  1  0  0  0
 15 52  1  0  0  0
 15 53  1  0  0  0
 16 54  1  0  0  0
 16 55  1  0  0  0
 17 56  1  0  0  0
 17 57  1  0  0  0
 24 58  1  0  0  0
 25 59  1  0  0  0
 26 60  1  0  0  0
 29 61  1  0  0  0
 29 62  1  0  0  0
 29 63  1  0  0  0
 30 64  1  0  0  0
 30 65  1  0  0  0
 30 66  1  0  0  0
M  END
$$$$
