4mk5_ligand
  -I-interpret- 

 27 28  0  0  0  0  0  0  0  0999 V2000
    9.9230   22.3060   -7.6890 O   0  0  0  0  0
   10.1210   21.8850   -8.9930 C   0  0  0  0  0
   10.7700   22.6990   -9.9370 C   0  0  0  0  0
   10.9370   22.1580  -11.2420 C   0  0  0  0  0
   10.4820   20.8680  -11.5010 C   0  0  0  0  0
   10.6260   20.2240  -12.8270 C   0  0  0  0  0
   10.5610   21.0200  -13.9750 C   0  0  0  0  0
   10.6740   20.4090  -15.2090 C   0  0  0  0  0
   10.5900   21.2000  -16.3180 O   0  0  0  0  0
   10.5790   20.5840  -17.5700 C   0  0  0  0  0
   10.8760   19.0430  -15.3270 C   0  0  0  0  0
   10.9510   18.2440  -14.1860 C   0  0  0  0  0
   10.8400   18.8530  -12.9360 C   0  0  0  0  0
    9.8790   20.1320  -10.5490 N   0  0  0  0  0
    9.6910   20.6150   -9.3340 C   0  0  0  0  0
    9.0670   19.8360   -8.4200 O   0  0  0  0  0
    9.4663   21.6190   -7.1980 H   0  0  0  0  0
   11.1280   23.6964   -9.6817 H   0  0  0  0  0
   11.4140   22.7445  -12.0272 H   0  0  0  0  0
   10.4242   22.0986  -13.8979 H   0  0  0  0  0
   11.4983   20.0132  -17.7007 H   0  0  0  0  0
    9.7215   19.9144  -17.6366 H   0  0  0  0  0
   10.5087   21.3449  -18.3473 H   0  0  0  0  0
   10.9765   18.5917  -16.3141 H   0  0  0  0  0
   11.0933   17.1666  -14.2695 H   0  0  0  0  0
   10.9219   18.2476  -12.0333 H   0  0  0  0  0
    8.8383   18.9944   -8.8213 H   0  0  0  0  0
  1  2  1  0  0  0
  2  3  4  0  0  0
  2 15  4  0  0  0
  3  4  4  0  0  0
  4  5  4  0  0  0
  5  6  1  0  0  0
  5 14  4  0  0  0
  6  7  4  0  0  0
  6 13  4  0  0  0
  7  8  4  0  0  0
  8  9  1  0  0  0
  8 11  4  0  0  0
  9 10  1  0  0  0
 11 12  4  0  0  0
 12 13  4  0  0  0
 14 15  4  0  0  0
 15 16  1  0  0  0
  1 17  1  0  0  0
  3 18  1  0  0  0
  4 19  1  0  0  0
  7 20  1  0  0  0
 10 21  1  0  0  0
 10 22  1  0  0  0
 10 23  1  0  0  0
 11 24  1  0  0  0
 12 25  1  0  0  0
 13 26  1  0  0  0
 16 27  1  0  0  0
M  END
$$$$
