5ejl_ligand
  -I-interpret- 

 70 76  0  0  0  0  0  0  0  0999 V2000
   -9.4550   -9.0850   14.7690 P   0  0  0  0  0
  -10.1320   -7.6820   14.7450 O   0  0  0  0  0
   -7.9780   -8.7890   14.8300 O   0  0  0  0  0
   -9.8050   -9.9890   16.0440 O   0  0  0  0  0
   -9.1150  -11.1840   16.3390 C   0  0  0  0  0
   -9.8720  -12.1280   17.2770 C   0  0  0  0  0
  -10.1600  -11.4940   18.5090 O   0  0  0  0  0
  -11.1310  -12.5130   16.7470 C   0  0  0  0  0
  -10.9670  -13.5170   15.7070 O   0  0  0  0  0
  -11.7730  -13.0000   17.8860 C   0  0  0  0  0
  -11.2860  -14.2450   18.2790 O   0  0  0  0  0
  -11.3750  -12.0330   18.9440 C   0  0  0  0  0
  -12.3130  -10.9810   19.0210 N   0  0  0  0  0
  -12.1690   -9.7150   18.5380 C   0  0  0  0  0
  -13.3240   -9.0470   18.7800 N   0  0  0  0  0
  -14.1750   -9.8960   19.4310 C   0  0  0  0  0
  -15.4600   -9.7770   19.9560 C   0  0  0  0  0
  -16.1420   -8.6030   19.8490 O   0  0  0  0  0
  -16.0470  -10.8250   20.5380 N   0  0  0  0  0
  -15.4040  -11.9940   20.6300 C   0  0  0  0  0
  -16.1000  -13.1080   21.2600 N   0  0  0  0  0
  -14.1660  -12.1630   20.1580 N   0  0  0  0  0
  -13.5360  -11.1320   19.5610 C   0  0  0  0  0
  -12.1270  -13.8560   14.7360 P   0  0  0  0  0
  -13.4300  -14.1130   15.3790 O   0  0  0  0  0
  -11.7020  -15.1860   14.1250 O   0  0  0  0  0
  -12.2300  -12.8380   13.5390 O   0  0  0  0  0
  -11.0720  -12.5130   12.8750 C   0  0  0  0  0
  -11.0110  -11.3120   12.1430 C   0  0  0  0  0
  -12.2890  -11.1380   11.2820 O   0  0  0  0  0
  -11.0360  -10.1700   13.0540 C   0  0  0  0  0
   -9.7300   -9.8450   13.4120 O   0  0  0  0  0
  -11.6650   -9.1170   12.2520 C   0  0  0  0  0
  -10.7820   -8.5570   11.4130 O   0  0  0  0  0
  -12.7020   -9.7890   11.4260 C   0  0  0  0  0
  -14.0630   -9.6560   11.9780 N   0  0  0  0  0
  -14.7940  -10.6300   12.5350 C   0  0  0  0  0
  -15.9990  -10.1530   12.8830 N   0  0  0  0  0
  -16.0390   -8.8560   12.5420 C   0  0  0  0  0
  -16.9940   -7.8390   12.6640 C   0  0  0  0  0
  -18.2380   -8.1070   13.2480 O   0  0  0  0  0
  -16.7030   -6.6170   12.2000 N   0  0  0  0  0
  -15.5110   -6.3540   11.6310 C   0  0  0  0  0
  -15.2340   -4.9870   11.1440 N   0  0  0  0  0
  -14.5620   -7.2920   11.5100 N   0  0  0  0  0
  -14.8040   -8.5440   11.9600 C   0  0  0  0  0
  -11.0853   -7.7886   14.7058 H   0  0  0  0  0
   -8.1883  -10.9057   16.8408 H   0  0  0  0  0
   -8.9698  -11.7133   15.3973 H   0  0  0  0  0
   -9.2216  -12.9935   17.4031 H   0  0  0  0  0
  -11.6902  -11.7173   16.2549 H   0  0  0  0  0
  -12.8436  -13.1050   17.7102 H   0  0  0  0  0
  -11.7558  -14.5381   19.0632 H   0  0  0  0  0
  -11.3112  -12.5170   19.9186 H   0  0  0  0  0
  -11.2842   -9.3116   18.0455 H   0  0  0  0  0
  -16.9906  -10.7338   20.9144 H   0  0  0  0  0
  -15.6419  -14.0158   21.3403 H   0  0  0  0  0
  -17.0454  -12.9802   21.6208 H   0  0  0  0  0
  -10.8534  -15.0799   13.6889 H   0  0  0  0  0
  -10.9484  -13.2992   12.1303 H   0  0  0  0  0
  -10.3241  -12.3988   13.6597 H   0  0  0  0  0
  -10.1041  -11.3538   11.5398 H   0  0  0  0  0
  -11.5726  -10.3438   13.9867 H   0  0  0  0  0
  -12.0666   -8.3420   12.9049 H   0  0  0  0  0
  -11.2186   -7.8724   10.9009 H   0  0  0  0  0
  -12.7797   -9.3078   10.4511 H   0  0  0  0  0
  -14.4601  -11.6569   12.6835 H   0  0  0  0  0
  -17.3960   -5.8727   12.2789 H   0  0  0  0  0
  -14.3309   -4.7688   10.7231 H   0  0  0  0  0
  -15.9459   -4.2614   11.2287 H   0  0  0  0  0
  1  2  1  0  0  0
  1  3  2  0  0  0
  1  4  1  0  0  0
  1 32  1  0  0  0
  4  5  1  0  0  0
  5  6  1  0  0  0
  6  7  1  0  0  0
  6  8  1  0  0  0
  7 12  1  0  0  0
  8  9  1  0  0  0
  8 10  1  0  0  0
  9 24  1  0  0  0
 10 11  1  0  0  0
 10 12  1  0  0  0
 12 13  1  0  0  0
 13 14  4  0  0  0
 13 23  4  0  0  0
 14 15  4  0  0  0
 15 16  4  0  0  0
 16 17  1  0  0  0
 16 23  4  0  0  0
 17 18  2  0  0  0
 17 19  1  0  0  0
 19 20  1  0  0  0
 20 21  1  0  0  0
 20 22  2  0  0  0
 22 23  1  0  0  0
 24 25  2  0  0  0
 24 26  1  0  0  0
 24 27  1  0  0  0
 27 28  1  0  0  0
 28 29  1  0  0  0
 29 30  1  0  0  0
 29 31  1  0  0  0
 30 35  1  0  0  0
 31 32  1  0  0  0
 31 33  1  0  0  0
 33 34  1  0  0  0
 33 35  1  0  0  0
 35 36  1  0  0  0
 36 37  4  0  0  0
 36 46  4  0  0  0
 37 38  4  0  0  0
 38 39  4  0  0  0
 39 40  1  0  0  0
 39 46  4  0  0  0
 40 41  2  0  0  0
 40 42  1  0  0  0
 42 43  1  0  0  0
 43 44  1  0  0  0
 43 45  2  0  0  0
 45 46  1  0  0  0
  2 47  1  0  0  0
  5 48  1  0  0  0
  5 49  1  0  0  0
  6 50  1  0  0  0
  8 51  1  0  0  0
 10 52  1  0  0  0
 11 53  1  0  0  0
 12 54  1  0  0  0
 14 55  1  0  0  0
 19 56  1  0  0  0
 21 57  1  0  0  0
 21 58  1  0  0  0
 26 59  1  0  0  0
 28 60  1  0  0  0
 28 61  1  0  0  0
 29 62  1  0  0  0
 31 63  1  0  0  0
 33 64  1  0  0  0
 34 65  1  0  0  0
 35 66  1  0  0  0
 37 67  1  0  0  0
 42 68  1  0  0  0
 44 69  1  0  0  0
 44 70  1  0  0  0
M  END
$$$$
