### 
### Created by X-TOOL on Mon Sep 10 21:13:29 2018
### 

@<TRIPOS>MOLECULE
5ejl_ligand
   68    74     1     0     0
SMALL
GAST_HUCK


@<TRIPOS>ATOM
      1 P1         -9.4550   -9.0850   14.7690 P.3       1 C2E         0.2557
      2 O2P       -10.1320   -7.6820   14.7450 O.co2     1 C2E        -0.6177
      3 O1P        -7.9780   -8.7890   14.8300 O.co2     1 C2E        -0.6177
      4 O5'        -9.8050   -9.9890   16.0440 O.3       1 C2E        -0.2514
      5 C5'        -9.1150  -11.1840   16.3390 C.3       1 C2E         0.1128
      6 C4'        -9.8720  -12.1280   17.2770 C.3       1 C2E         0.1242
      7 O4'       -10.1600  -11.4940   18.5090 O.3       1 C2E        -0.3359
      8 C3'       -11.1310  -12.5130   16.7470 C.3       1 C2E         0.1540
      9 O3'       -10.9670  -13.5170   15.7070 O.3       1 C2E        -0.2453
     10 C2'       -11.7730  -13.0000   17.8860 C.3       1 C2E         0.1440
     11 O2'       -11.2860  -14.2450   18.2790 O.3       1 C2E        -0.3832
     12 C1'       -11.3750  -12.0330   18.9440 C.3       1 C2E         0.1996
     13 N9        -12.3130  -10.9810   19.0210 N.pl3     1 C2E        -0.2101
     14 C8        -12.1690   -9.7150   18.5380 C.2       1 C2E         0.0957
     15 N7        -13.3240   -9.0470   18.7800 N.2       1 C2E        -0.3235
     16 C5        -14.1750   -9.8960   19.4310 C.2       1 C2E         0.0926
     17 C6        -15.4600   -9.7770   19.9560 C.2       1 C2E         0.2135
     18 O6        -16.1420   -8.6030   19.8490 O.2       1 C2E        -0.4091
     19 N1        -16.0470  -10.8250   20.5380 N.am      1 C2E        -0.1839
     20 C2        -15.4040  -11.9940   20.6300 C.2       1 C2E         0.2340
     21 N2        -16.1000  -13.1080   21.2600 N.pl3     1 C2E        -0.2807
     22 N3        -14.1660  -12.1630   20.1580 N.2       1 C2E        -0.2765
     23 C4        -13.5360  -11.1320   19.5610 C.2       1 C2E         0.1159
     24 P11       -12.1270  -13.8560   14.7360 P.3       1 C2E         0.2557
     25 O21       -13.4300  -14.1130   15.3790 O.co2     1 C2E        -0.6177
     26 O11       -11.7020  -15.1860   14.1250 O.co2     1 C2E        -0.6177
     27 O5A       -12.2300  -12.8380   13.5390 O.3       1 C2E        -0.2514
     28 C5A       -11.0720  -12.5130   12.8750 C.3       1 C2E         0.1128
     29 C4A       -11.0110  -11.3120   12.1430 C.3       1 C2E         0.1242
     30 O4A       -12.2890  -11.1380   11.2820 O.3       1 C2E        -0.3359
     31 C3A       -11.0360  -10.1700   13.0540 C.3       1 C2E         0.1540
     32 O3A        -9.7300   -9.8450   13.4120 O.3       1 C2E        -0.2453
     33 C2A       -11.6650   -9.1170   12.2520 C.3       1 C2E         0.1440
     34 O2A       -10.7820   -8.5570   11.4130 O.3       1 C2E        -0.3832
     35 C1A       -12.7020   -9.7890   11.4260 C.3       1 C2E         0.1996
     36 N91       -14.0630   -9.6560   11.9780 N.pl3     1 C2E        -0.2101
     37 C81       -14.7940  -10.6300   12.5350 C.2       1 C2E         0.0957
     38 N71       -15.9990  -10.1530   12.8830 N.2       1 C2E        -0.3235
     39 C51       -16.0390   -8.8560   12.5420 C.2       1 C2E         0.0926
     40 C61       -16.9940   -7.8390   12.6640 C.2       1 C2E         0.2135
     41 O61       -18.2380   -8.1070   13.2480 O.2       1 C2E        -0.4091
     42 N11       -16.7030   -6.6170   12.2000 N.am      1 C2E        -0.1839
     43 C21       -15.5110   -6.3540   11.6310 C.2       1 C2E         0.2340
     44 N21       -15.2340   -4.9870   11.1440 N.pl3     1 C2E        -0.2807
     45 N31       -14.5620   -7.2920   11.5100 N.2       1 C2E        -0.2765
     46 C41       -14.8040   -8.5440   11.9600 C.2       1 C2E         0.1159
     47 H1         -8.1571  -10.9220   16.8121 H         1 C2E         0.0647
     48 H2         -8.9245  -11.7150   15.3947 H         1 C2E         0.0647
     49 H3         -9.2538  -13.0212   17.4501 H         1 C2E         0.0655
     50 H4        -11.6721  -11.6503   16.3311 H         1 C2E         0.0712
     51 H5        -12.8629  -13.0394   17.7423 H         1 C2E         0.0681
     52 H6        -11.4178  -14.8714   17.5769 H         1 C2E         0.2102
     53 H7        -11.2715  -12.5317   19.9190 H         1 C2E         0.0998
     54 H8        -11.2850   -9.3120   18.0460 H         1 C2E         0.1179
     55 H9        -16.9721  -10.7356   20.9070 H         1 C2E         0.2515
     56 H10       -15.6346  -14.0227   21.3476 H         1 C2E         0.1897
     57 H11       -17.0575  -12.9809   21.6178 H         1 C2E         0.1897
     58 H12       -10.8674  -13.3304   12.1679 H         1 C2E         0.0647
     59 H13       -10.2714  -12.4706   13.6281 H         1 C2E         0.0647
     60 H14       -10.1071  -11.3005   11.5163 H         1 C2E         0.0655
     61 H15       -11.6277  -10.3844   13.9562 H         1 C2E         0.0712
     62 H16       -12.1098   -8.3504   12.9035 H         1 C2E         0.0681
     63 H17       -10.0703   -8.1748   11.9129 H         1 C2E         0.2102
     64 H18       -12.7100   -9.3202   10.4309 H         1 C2E         0.0998
     65 H19       -14.4604  -11.6560   12.6834 H         1 C2E         0.1179
     66 H20       -17.3824   -5.8873   12.2773 H         1 C2E         0.2515
     67 H21       -14.3271   -4.7700   10.7065 H         1 C2E         0.1897
     68 H22       -15.9478   -4.2509   11.2419 H         1 C2E         0.1897
@<TRIPOS>BOND
     1    1    2 ar 
     2    1    3 ar 
     3    1    4 1  
     4    1   32 1  
     5    4    5 1  
     6    5    6 1  
     7    6    7 1  
     8    6    8 1  
     9    7   12 1  
    10    8    9 1  
    11    8   10 1  
    12    9   24 1  
    13   10   11 1  
    14   10   12 1  
    15   12   13 1  
    16   13   14 1  
    17   13   23 1  
    18   14   15 2  
    19   15   16 1  
    20   16   17 1  
    21   16   23 2  
    22   17   18 2  
    23   17   19 am 
    24   19   20 am 
    25   20   21 1  
    26   20   22 2  
    27   22   23 1  
    28   24   25 ar 
    29   24   26 ar 
    30   24   27 1  
    31   27   28 1  
    32   28   29 1  
    33   29   30 1  
    34   29   31 1  
    35   30   35 1  
    36   31   32 1  
    37   31   33 1  
    38   33   34 1  
    39   33   35 1  
    40   35   36 1  
    41   36   37 1  
    42   36   46 1  
    43   37   38 2  
    44   38   39 1  
    45   39   40 1  
    46   39   46 2  
    47   40   41 2  
    48   40   42 am 
    49   42   43 am 
    50   43   44 1  
    51   43   45 2  
    52   45   46 1  
    53    5   47 1  
    54    5   48 1  
    55    6   49 1  
    56    8   50 1  
    57   10   51 1  
    58   11   52 1  
    59   12   53 1  
    60   14   54 1  
    61   19   55 1  
    62   21   56 1  
    63   21   57 1  
    64   28   58 1  
    65   28   59 1  
    66   29   60 1  
    67   31   61 1  
    68   33   62 1  
    69   34   63 1  
    70   35   64 1  
    71   37   65 1  
    72   42   66 1  
    73   44   67 1  
    74   44   68 1  
@<TRIPOS>SUBSTRUCTURE
     1 C2E         1

