6fel_ligand
  -I-interpret- 

 84 84  0  0  0  0  0  0  0  0999 V2000
   -4.9790  -33.1150   11.2610 N   0  3  0  0  0
   -5.9550  -32.0820   10.9250 C   0  0  0  0  0
   -6.2830  -31.2030   12.1320 C   0  0  0  0  0
   -5.9090  -31.5150   13.2630 O   0  0  0  0  0
   -7.2380  -32.7160   10.3770 C   0  0  0  0  0
   -6.9730  -30.0920   11.8760 N   0  0  0  0  0
   -7.4920  -29.2030   12.9070 C   0  0  0  0  0
   -8.9890  -29.0270   12.6880 C   0  0  0  0  0
   -9.5600  -29.5370   11.7190 O   0  0  0  0  0
   -6.7810  -27.8430   12.8890 C   0  0  0  0  0
   -5.4810  -27.9290   13.4410 O   0  0  0  0  0
   -9.6260  -28.2900   13.5930 N   0  0  0  0  0
  -11.0570  -28.0160   13.4930 C   0  0  0  0  0
  -11.3050  -26.6390   12.8940 C   0  0  0  0  0
  -10.7980  -25.6350   13.3920 O   0  0  0  0  0
  -11.7190  -28.1210   14.8640 C   0  0  0  0  0
  -11.3650  -29.4060   15.6090 C   0  0  0  0  0
  -11.2460  -29.1660   17.1090 C   0  0  0  0  0
  -12.3840  -30.4930   15.3060 C   0  0  0  0  0
  -12.0820  -26.5970   11.8180 N   0  0  0  0  0
  -12.4300  -25.3340   11.1870 C   0  0  0  0  0
  -12.1440  -25.3820    9.6910 C   0  0  0  0  0
  -12.9000  -26.4110    9.0900 O   0  0  0  0  0
  -13.8970  -25.0110   11.4310 C   0  0  0  0  0
  -14.5940  -25.7350   12.1450 O   0  0  0  0  0
  -12.5990  -26.4920    7.5160 P   0  0  0  0  0
  -13.1070  -25.1320    6.8250 O   0  0  0  0  0
  -11.0170  -26.6940    7.2940 O   0  0  0  0  0
  -13.4020  -27.7300    6.8760 O   0  0  0  0  0
  -14.3660  -23.9200   10.8410 N   0  0  0  0  0
  -15.7630  -23.5360   10.9830 C   0  0  0  0  0
  -16.6360  -24.3560   10.0380 C   0  0  0  0  0
  -16.2210  -24.6770    8.9180 O   0  0  0  0  0
  -15.9340  -22.0520   10.7220 C   0  0  0  0  0
  -17.8450  -24.7120   10.4920 N   0  0  0  0  0
  -18.8130  -25.4220    9.6490 C   0  0  0  0  0
  -19.1970  -24.6160    8.4130 C   0  0  0  0  0
  -20.2260  -24.9130    7.8100 O   0  0  0  0  0
  -20.0180  -25.6040   10.5750 C   0  0  0  0  0
  -19.4540  -25.5290   11.9520 C   0  0  0  0  0
  -18.3340  -24.5400   11.8700 C   0  0  0  0  0
  -18.4660  -23.6940    8.0580 O   0  0  0  0  0
   -4.1326  -32.6763   11.6236 H   0  0  0  0  0
   -5.3721  -33.7351   11.9691 H   0  0  0  0  0
   -4.7530  -33.6526   10.4242 H   0  0  0  0  0
   -5.5104  -31.4487   10.1573 H   0  0  0  0  0
   -7.6997  -33.3271   11.1525 H   0  0  0  0  0
   -7.9290  -31.9298   10.0727 H   0  0  0  0  0
   -6.9947  -33.3404    9.5174 H   0  0  0  0  0
   -7.1481  -29.8498   10.9008 H   0  0  0  0  0
   -7.3069  -29.6467   13.8852 H   0  0  0  0  0
   -7.3635  -27.1414   13.4861 H   0  0  0  0  0
   -6.6950  -27.5125   11.8539 H   0  0  0  0  0
   -5.0655  -27.0640   13.4145 H   0  0  0  0  0
   -9.1009  -27.9056   14.3784 H   0  0  0  0  0
  -11.4982  -28.7627   12.8328 H   0  0  0  0  0
  -12.7981  -28.1162   14.7100 H   0  0  0  0  0
  -11.3655  -27.2835   15.4655 H   0  0  0  0  0
  -10.3897  -29.7423   15.2572 H   0  0  0  0  0
  -10.4639  -28.4304   17.2970 H   0  0  0  0  0
  -12.1961  -28.7942   17.4927 H   0  0  0  0  0
  -10.9932  -30.1023   17.6065 H   0  0  0  0  0
  -13.3729  -30.1603   15.6214 H   0  0  0  0  0
  -12.3914  -30.6939   14.2347 H   0  0  0  0  0
  -12.1157  -31.4013   15.8454 H   0  0  0  0  0
  -12.4417  -27.4675   11.4265 H   0  0  0  0  0
  -11.8170  -24.5487   11.6293 H   0  0  0  0  0
  -11.0831  -25.5768    9.5340 H   0  0  0  0  0
  -12.4164  -24.4268    9.2422 H   0  0  0  0  0
  -10.7377  -27.5106    7.7144 H   0  0  0  0  0
  -13.1051  -28.5472    7.2829 H   0  0  0  0  0
  -13.7397  -23.3423   10.2803 H   0  0  0  0  0
  -16.0790  -23.7401   12.0060 H   0  0  0  0  0
  -15.3361  -21.4873   11.4373 H   0  0  0  0  0
  -15.6038  -21.8221    9.7090 H   0  0  0  0  0
  -16.9846  -21.7836   10.8327 H   0  0  0  0  0
  -18.4150  -26.3599    9.2617 H   0  0  0  0  0
  -20.6484  -25.6562    8.2469 H   0  0  0  0  0
  -20.5280  -26.5506   10.3962 H   0  0  0  0  0
  -20.7787  -24.8419   10.4058 H   0  0  0  0  0
  -19.1036  -26.5027   12.2944 H   0  0  0  0  0
  -20.2076  -25.2208   12.6767 H   0  0  0  0  0
  -18.6535  -23.5196   12.0819 H   0  0  0  0  0
  -17.5607  -24.7126   12.6186 H   0  0  0  0  0
  1  2  1  0  0  0
  2  3  1  0  0  0
  2  5  1  0  0  0
  3  4  2  0  0  0
  3  6  1  0  0  0
  6  7  1  0  0  0
  7  8  1  0  0  0
  7 10  1  0  0  0
  8  9  2  0  0  0
  8 12  1  0  0  0
 10 11  1  0  0  0
 12 13  1  0  0  0
 13 14  1  0  0  0
 13 16  1  0  0  0
 14 15  2  0  0  0
 14 20  1  0  0  0
 16 17  1  0  0  0
 17 18  1  0  0  0
 17 19  1  0  0  0
 20 21  1  0  0  0
 21 22  1  0  0  0
 21 24  1  0  0  0
 22 23  1  0  0  0
 23 26  1  0  0  0
 24 25  2  0  0  0
 24 30  1  0  0  0
 26 27  2  0  0  0
 26 28  1  0  0  0
 26 29  1  0  0  0
 30 31  1  0  0  0
 31 32  1  0  0  0
 31 34  1  0  0  0
 32 33  2  0  0  0
 32 35  1  0  0  0
 35 36  1  0  0  0
 35 41  1  0  0  0
 36 37  1  0  0  0
 36 39  1  0  0  0
 37 38  1  0  0  0
 37 42  2  0  0  0
 39 40  1  0  0  0
 40 41  1  0  0  0
  1 43  1  0  0  0
  1 44  1  0  0  0
  1 45  1  0  0  0
  2 46  1  0  0  0
  5 47  1  0  0  0
  5 48  1  0  0  0
  5 49  1  0  0  0
  6 50  1  0  0  0
  7 51  1  0  0  0
 10 52  1  0  0  0
 10 53  1  0  0  0
 11 54  1  0  0  0
 12 55  1  0  0  0
 13 56  1  0  0  0
 16 57  1  0  0  0
 16 58  1  0  0  0
 17 59  1  0  0  0
 18 60  1  0  0  0
 18 61  1  0  0  0
 18 62  1  0  0  0
 19 63  1  0  0  0
 19 64  1  0  0  0
 19 65  1  0  0  0
 20 66  1  0  0  0
 21 67  1  0  0  0
 22 68  1  0  0  0
 22 69  1  0  0  0
 28 70  1  0  0  0
 29 71  1  0  0  0
 30 72  1  0  0  0
 31 73  1  0  0  0
 34 74  1  0  0  0
 34 75  1  0  0  0
 34 76  1  0  0  0
 36 77  1  0  0  0
 38 78  1  0  0  0
 39 79  1  0  0  0
 39 80  1  0  0  0
 40 81  1  0  0  0
 40 82  1  0  0  0
 41 83  1  0  0  0
 41 84  1  0  0  0
M  END
$$$$
