### 
### Created by X-TOOL on Wed Jan  1 15:39:38 2020
### 

@<TRIPOS>MOLECULE
6fel_ligand
   81    81     1     0     0
SMALL
GAST_HUCK


@<TRIPOS>ATOM
      1 N          -4.9790  -33.1150   11.2610 N.4       1 ARG         0.2377
      2 CA         -5.9550  -32.0820   10.9250 C.3       1 ARG         0.0621
      3 C          -6.2830  -31.2030   12.1320 C.2       1 ARG         0.2265
      4 O          -5.9090  -31.5150   13.2630 O.2       1 ARG        -0.3907
      5 CB         -7.2380  -32.7160   10.3770 C.3       1 ARG        -0.0040
      6 N          -6.9730  -30.0920   11.8760 N.am      1 SER        -0.2589
      7 CA         -7.4920  -29.2030   12.9070 C.3       1 SER         0.1540
      8 C          -8.9890  -29.0270   12.6880 C.2       1 SER         0.2062
      9 O          -9.5600  -29.5370   11.7190 O.2       1 SER        -0.3943
     10 CB         -6.7810  -27.8430   12.8890 C.3       1 SER         0.0843
     11 OG         -5.4810  -27.9290   13.4410 O.3       1 SER        -0.3903
     12 N          -9.6260  -28.2900   13.5930 N.am      1 LEU        -0.2636
     13 CA        -11.0570  -28.0160   13.4930 C.3       1 LEU         0.1312
     14 C         -11.3050  -26.6390   12.8940 C.2       1 LEU         0.2040
     15 O         -10.7980  -25.6350   13.3920 O.2       1 LEU        -0.3944
     16 CB        -11.7190  -28.1210   14.8640 C.3       1 LEU        -0.0101
     17 CG        -11.3650  -29.4060   15.6090 C.3       1 LEU        -0.0425
     18 CD1       -11.2460  -29.1660   17.1090 C.3       1 LEU        -0.0625
     19 CD2       -12.3840  -30.4930   15.3060 C.3       1 LEU        -0.0625
     20 N         -12.0820  -26.5970   11.8180 N.am      1 SEP        -0.2613
     21 CA        -12.4300  -25.3340   11.1870 C.3       1 SEP         0.1586
     22 CB        -12.1440  -25.3820    9.6910 C.3       1 SEP         0.1184
     23 OG        -12.9000  -26.4110    9.0900 O.3       1 SEP        -0.2714
     24 C         -13.8970  -25.0110   11.4310 C.2       1 SEP         0.2065
     25 O         -14.5940  -25.7350   12.1450 O.2       1 SEP        -0.3943
     26 P         -12.5990  -26.4920    7.5160 P.3       1 SEP         0.2010
     27 O1P       -13.1070  -25.1320    6.8250 O.co2     1 SEP        -0.5537
     28 O2P       -11.0170  -26.6940    7.2940 O.co2     1 SEP        -0.5537
     29 O3P       -13.4020  -27.7300    6.8760 O.co2     1 SEP        -0.5537
     30 N         -14.3660  -23.9200   10.8410 N.am      1 ALA        -0.2639
     31 CA        -15.7630  -23.5360   10.9830 C.3       1 ALA         0.1283
     32 C         -16.6360  -24.3560   10.0380 C.2       1 ALA         0.2056
     33 O         -16.2210  -24.6770    8.9180 O.2       1 ALA        -0.3942
     34 CB        -15.9340  -22.0520   10.7220 C.3       1 ALA        -0.0244
     35 N         -17.8450  -24.7120   10.4920 N.am      1 PRO        -0.2556
     36 CA        -18.8130  -25.4220    9.6490 C.3       1 PRO         0.0972
     37 C         -19.1970  -24.6160    8.4130 C.2       1 PRO         0.0603
     38 O         -20.2260  -24.9130    7.8100 O.co2     1 PRO        -0.5666
     39 CB        -20.0180  -25.6040   10.5750 C.3       1 PRO        -0.0159
     40 CG        -19.4540  -25.5290   11.9520 C.3       1 PRO        -0.0288
     41 CD        -18.3340  -24.5400   11.8700 C.3       1 PRO         0.0362
     42 OXT       -18.4660  -23.6940    8.0580 O.co2     1 PRO        -0.5666
     43 H1         -4.7869  -33.6740   10.4445 H         1 ARG         0.2015
     44 H2         -5.3498  -33.7029   11.9910 H         1 ARG         0.2015
     45 H3         -4.1266  -32.6812   11.5793 H         1 ARG         0.2015
     46 H4         -5.5207  -31.4429   10.1421 H         1 ARG         0.1095
     47 H5         -7.9611  -31.9249   10.1294 H         1 ARG         0.0310
     48 H6         -7.6707  -33.3835   11.1368 H         1 ARG         0.0310
     49 H7         -7.0033  -33.2946    9.4714 H         1 ARG         0.0310
     50 H8         -7.1447  -29.8545   10.9199 H         1 SER         0.1885
     51 H9         -7.3269  -29.6674   13.8904 H         1 SER         0.0823
     52 H10        -7.3712  -27.1235   13.4755 H         1 SER         0.0606
     53 H11        -6.7050  -27.4934   11.8488 H         1 SER         0.0606
     54 H12        -4.9639  -28.5456   12.9360 H         1 SER         0.2097
     55 H13        -9.1112  -27.9131   14.3630 H         1 LEU         0.1883
     56 H14       -11.5078  -28.7691   12.8300 H         1 LEU         0.0800
     57 H15       -12.8100  -28.0853   14.7285 H         1 LEU         0.0315
     58 H16       -11.3970  -27.2640   15.4738 H         1 LEU         0.0315
     59 H17       -10.3851  -29.7488   15.2453 H         1 LEU         0.0298
     60 H18       -10.9909  -30.1103   17.6123 H         1 LEU         0.0232
     61 H19       -12.2043  -28.7908   17.4975 H         1 LEU         0.0232
     62 H20       -10.4569  -28.4238   17.3002 H         1 LEU         0.0232
     63 H21       -12.4474  -30.6432   14.2181 H         1 LEU         0.0232
     64 H22       -13.3685  -30.1907   15.6924 H         1 LEU         0.0232
     65 H23       -12.0733  -31.4316   15.7882 H         1 LEU         0.0232
     66 H24       -12.4346  -27.4504   11.4342 H         1 SEP         0.1884
     67 H25       -11.8160  -24.5388   11.6349 H         1 SEP         0.0827
     68 H26       -11.0730  -25.5750    9.5304 H         1 SEP         0.0662
     69 H27       -12.4150  -24.4175    9.2368 H         1 SEP         0.0662
     70 H28       -13.7520  -23.3536   10.2913 H         1 ALA         0.1883
     71 H29       -16.0784  -23.7447   12.0159 H         1 ALA         0.0797
     72 H30       -16.9940  -21.7799   10.8335 H         1 ALA         0.0277
     73 H31       -15.6011  -21.8187    9.6999 H         1 ALA         0.0277
     74 H32       -15.3311  -21.4809   11.4433 H         1 ALA         0.0277
     75 H33       -18.4105  -26.3959    9.3335 H         1 PRO         0.0728
     76 H34       -20.4942  -26.5807   10.4040 H         1 PRO         0.0306
     77 H35       -20.7550  -24.8034   10.4140 H         1 PRO         0.0306
     78 H36       -19.0762  -26.5128   12.2672 H         1 PRO         0.0286
     79 H37       -20.2195  -25.1852   12.6631 H         1 PRO         0.0286
     80 H38       -18.6978  -23.5153   12.0360 H         1 PRO         0.0524
     81 H39       -17.5462  -24.7725   12.6016 H         1 PRO         0.0524
@<TRIPOS>BOND
     1    1    2 1  
     2    2    3 1  
     3    2    5 1  
     4    3    4 2  
     5    3    6 am 
     6    6    7 1  
     7    7    8 1  
     8    7   10 1  
     9    8    9 2  
    10    8   12 am 
    11   10   11 1  
    12   12   13 1  
    13   13   14 1  
    14   13   16 1  
    15   14   15 2  
    16   14   20 am 
    17   16   17 1  
    18   17   18 1  
    19   17   19 1  
    20   20   21 1  
    21   21   22 1  
    22   21   24 1  
    23   22   23 1  
    24   23   26 1  
    25   24   25 2  
    26   24   30 am 
    27   26   27 ar 
    28   26   28 ar 
    29   26   29 ar 
    30   30   31 1  
    31   31   32 1  
    32   31   34 1  
    33   32   33 2  
    34   32   35 am 
    35   35   36 1  
    36   35   41 1  
    37   36   37 1  
    38   36   39 1  
    39   37   38 ar 
    40   37   42 ar 
    41   39   40 1  
    42   40   41 1  
    43    1   43 1  
    44    1   44 1  
    45    1   45 1  
    46    2   46 1  
    47    5   47 1  
    48    5   48 1  
    49    5   49 1  
    50    6   50 1  
    51    7   51 1  
    52   10   52 1  
    53   10   53 1  
    54   11   54 1  
    55   12   55 1  
    56   13   56 1  
    57   16   57 1  
    58   16   58 1  
    59   17   59 1  
    60   18   60 1  
    61   18   61 1  
    62   18   62 1  
    63   19   63 1  
    64   19   64 1  
    65   19   65 1  
    66   20   66 1  
    67   21   67 1  
    68   22   68 1  
    69   22   69 1  
    70   30   70 1  
    71   31   71 1  
    72   34   72 1  
    73   34   73 1  
    74   34   74 1  
    75   36   75 1  
    76   39   76 1  
    77   39   77 1  
    78   40   78 1  
    79   40   79 1  
    80   41   80 1  
    81   41   81 1  
@<TRIPOS>SUBSTRUCTURE
     1 ARG         1

