5ta4_ligand
  -I-interpret- 

 85 87  0  0  0  0  0  0  0  0999 V2000
    3.6970   17.0160    1.9790 N   0  0  0  0  0
    4.0970   15.6990    1.6270 N   0  3  0  0  0
    2.2110   14.8470    3.0080 C   0  0  0  0  0
    1.8010   16.2890    3.3050 C   0  0  0  0  0
    2.2480   17.1720    2.1460 C   0  0  0  0  0
    3.7100   14.7530    2.6940 C   0  0  0  0  0
   10.4410   19.2230    0.2060 C   0  0  0  0  0
   11.6800   18.5580   -0.4170 C   0  0  0  0  0
   12.4700   19.6410   -1.1640 C   0  0  0  0  0
   11.3430   17.3140   -1.2900 C   0  0  0  0  0
   10.7680   16.0540   -0.5860 C   0  0  0  0  0
    9.3930   16.2160    0.0950 C   0  0  0  0  0
    4.0170   13.3590    2.1780 C   0  0  0  0  0
    5.2430   11.3770    2.7750 C   0  0  0  0  0
    6.2810   11.3870    1.6540 C   0  0  0  0  0
    7.0890   12.5330    1.3790 C   0  0  0  0  0
    8.0570   12.5410    0.3480 C   0  0  0  0  0
    8.2300   11.3800   -0.4210 C   0  0  0  0  0
    7.4470   10.2510   -0.1630 C   0  0  0  0  0
    6.4990   10.2550    0.8610 C   0  0  0  0  0
    8.8820   13.7330    0.0760 C   0  0  0  0  0
    8.5510   14.9990    0.3730 C   0  0  0  0  0
   10.7860   16.9580   -3.6380 C   0  0  0  0  0
    5.7340   10.8250    4.1060 C   0  0  0  0  0
   10.3750   19.5020    1.3950 O   0  0  0  0  0
    3.6270   12.9010    1.1190 O   0  0  0  0  0
   10.6000   17.7180   -2.4530 O   0  0  0  0  0
    4.8050   12.7240    3.0790 O   0  0  0  0  0
    9.4060   19.4440   -0.6810 N   0  0  0  0  0
    8.1260   20.0370   -0.3070 C   0  0  0  0  0
    7.1870   18.8950    0.0340 C   0  0  0  0  0
    6.7040   18.1680   -0.8310 O   0  0  0  0  0
    7.5550   21.0420   -1.3160 C   0  0  0  0  0
    6.3410   21.7710   -0.7300 C   0  0  0  0  0
    8.6050   22.0690   -1.7470 C   0  0  0  0  0
    6.9380   18.6760    1.3590 N   0  0  0  0  0
    6.1280   17.5890    1.8960 C   0  0  0  0  0
    4.6720   17.9730    2.1070 C   0  0  0  0  0
    4.3810   19.1340    2.4260 O   0  0  0  0  0
    6.7420   17.0400    3.1720 C   0  0  0  0  0
    5.1098   15.6757    1.5082 H   0  0  0  0  0
    3.6386   15.4298    0.7565 H   0  0  0  0  0
    1.6503   14.4961    2.1416 H   0  0  0  0  0
    1.9993   14.2362    3.8856 H   0  0  0  0  0
    2.2709   16.6249    4.2294 H   0  0  0  0  0
    0.7190   16.3500    3.4214 H   0  0  0  0  0
    1.7328   16.8774    1.2317 H   0  0  0  0  0
    2.0062   18.2140    2.3555 H   0  0  0  0  0
    4.2567   14.9843    3.6082 H   0  0  0  0  0
   12.3041   18.1410    0.3734 H   0  0  0  0  0
   11.8423   20.0752   -1.9422 H   0  0  0  0  0
   12.7709   20.4187   -0.4621 H   0  0  0  0  0
   13.3560   19.1956   -1.6165 H   0  0  0  0  0
   12.3160   16.9234   -1.5878 H   0  0  0  0  0
   11.4714   15.8035    0.2081 H   0  0  0  0  0
   10.6326   15.3061   -1.3673 H   0  0  0  0  0
    8.8042   16.8029   -0.6099 H   0  0  0  0  0
    9.6200   16.6245    1.0797 H   0  0  0  0  0
    4.4571   10.7325    2.3813 H   0  0  0  0  0
    6.9549   13.4301    1.9834 H   0  0  0  0  0
    8.9734   11.3585   -1.2179 H   0  0  0  0  0
    7.5788    9.3553   -0.7700 H   0  0  0  0  0
    5.9141    9.3544    1.0476 H   0  0  0  0  0
    9.8448   13.5714   -0.4087 H   0  0  0  0  0
    7.5883   15.1606    0.8580 H   0  0  0  0  0
   11.8345   16.9982   -3.9330 H   0  0  0  0  0
   10.4987   15.9229   -3.4531 H   0  0  0  0  0
   10.1671   17.3716   -4.4342 H   0  0  0  0  0
    6.0583    9.7930    3.9724 H   0  0  0  0  0
    6.5704   11.4270    4.4612 H   0  0  0  0  0
    4.9236   10.8612    4.8341 H   0  0  0  0  0
    9.5443   19.1769   -1.6556 H   0  0  0  0  0
    8.2702   20.6748    0.5651 H   0  0  0  0  0
    7.2473   20.4732   -2.1934 H   0  0  0  0  0
    5.5678   21.0442   -0.4809 H   0  0  0  0  0
    6.6407   22.3075    0.1702 H   0  0  0  0  0
    5.9541   22.4779   -1.4640 H   0  0  0  0  0
    8.9533   22.6193   -0.8730 H   0  0  0  0  0
    9.4454   21.5541   -2.2124 H   0  0  0  0  0
    8.1613   22.7624   -2.4614 H   0  0  0  0  0
    7.3524   19.3257    2.0272 H   0  0  0  0  0
    6.1253   16.8024    1.1414 H   0  0  0  0  0
    7.7421   16.6624    2.9592 H   0  0  0  0  0
    6.8029   17.8347    3.9155 H   0  0  0  0  0
    6.1201   16.2303    3.5538 H   0  0  0  0  0
  2  1  1  0  0  0
  1  5  1  0  0  0
  1 38  1  0  0  0
  6  2  1  0  0  0
  3  4  1  0  0  0
  6  3  1  0  0  0
  4  5  1  0  0  0
 13  6  1  0  0  0
  8  7  1  0  0  0
  7 25  2  0  0  0
  7 29  1  0  0  0
  8  9  1  0  0  0
 10  8  1  0  0  0
 11 10  1  0  0  0
 10 27  1  0  0  0
 12 11  1  0  0  0
 22 12  1  0  0  0
 13 26  2  0  0  0
 28 13  1  0  0  0
 15 14  1  0  0  0
 14 24  1  0  0  0
 14 28  1  0  0  0
 16 15  4  0  0  0
 15 20  4  0  0  0
 17 16  4  0  0  0
 17 18  4  0  0  0
 21 17  1  0  0  0
 18 19  4  0  0  0
 19 20  4  0  0  0
 21 22  2  0  0  0
 27 23  1  0  0  0
 29 30  1  0  0  0
 30 31  1  0  0  0
 30 33  1  0  0  0
 31 32  2  0  0  0
 31 36  1  0  0  0
 33 34  1  0  0  0
 33 35  1  0  0  0
 36 37  1  0  0  0
 37 38  1  0  0  0
 37 40  1  0  0  0
 38 39  2  0  0  0
  2 41  1  0  0  0
  2 42  1  0  0  0
  3 43  1  0  0  0
  3 44  1  0  0  0
  4 45  1  0  0  0
  4 46  1  0  0  0
  5 47  1  0  0  0
  5 48  1  0  0  0
  6 49  1  0  0  0
  8 50  1  0  0  0
  9 51  1  0  0  0
  9 52  1  0  0  0
  9 53  1  0  0  0
 10 54  1  0  0  0
 11 55  1  0  0  0
 11 56  1  0  0  0
 12 57  1  0  0  0
 12 58  1  0  0  0
 14 59  1  0  0  0
 16 60  1  0  0  0
 18 61  1  0  0  0
 19 62  1  0  0  0
 20 63  1  0  0  0
 21 64  1  0  0  0
 22 65  1  0  0  0
 23 66  1  0  0  0
 23 67  1  0  0  0
 23 68  1  0  0  0
 24 69  1  0  0  0
 24 70  1  0  0  0
 24 71  1  0  0  0
 29 72  1  0  0  0
 30 73  1  0  0  0
 33 74  1  0  0  0
 34 75  1  0  0  0
 34 76  1  0  0  0
 34 77  1  0  0  0
 35 78  1  0  0  0
 35 79  1  0  0  0
 35 80  1  0  0  0
 36 81  1  0  0  0
 37 82  1  0  0  0
 40 83  1  0  0  0
 40 84  1  0  0  0
 40 85  1  0  0  0
M  END
$$$$
