1fj4_ligand
  -I-interpret- 

 28 28  0  0  0  0  0  0  0  0999 V2000
    6.2170  -19.4860   -0.4880 S   0  0  0  0  0
    7.0270  -18.5720    0.7860 C   0  0  0  0  0
    6.6290  -19.0160    2.0970 C   0  0  0  0  0
    5.7900  -20.0690    2.0550 C   0  0  0  0  0
    5.3860  -20.6510    0.7160 C   0  0  0  0  0
    3.8840  -20.6960    0.4040 C   0  0  0  0  0
    3.1800  -20.8520   -0.7410 C   0  0  0  0  0
    1.6930  -20.7190   -0.6320 C   0  0  0  0  0
    0.7810  -20.8290   -1.6020 C   0  0  0  0  0
    7.8230  -17.6860    0.5180 O   0  0  0  0  0
    7.1190  -18.3340    3.3280 C   0  0  0  0  0
    5.2870  -20.6170    3.1700 O   0  0  0  0  0
    6.0340  -22.0480    0.5840 C   0  0  0  0  0
    3.7580  -21.1460   -2.0940 C   0  0  0  0  0
    3.2549  -20.5780    1.2863 H   0  0  0  0  0
    1.3055  -20.5055    0.3642 H   0  0  0  0  0
    1.0951  -21.0416   -2.6239 H   0  0  0  0  0
   -0.2773  -20.7061   -1.3716 H   0  0  0  0  0
    6.2697  -17.9388    3.8854 H   0  0  0  0  0
    7.6604  -19.0493    3.9471 H   0  0  0  0  0
    7.7840  -17.5167    3.0488 H   0  0  0  0  0
    4.7145  -21.3507    2.9344 H   0  0  0  0  0
    5.5565  -22.7360    1.2817 H   0  0  0  0  0
    5.9034  -22.4129   -0.4348 H   0  0  0  0  0
    7.0974  -21.9769    0.8123 H   0  0  0  0  0
    4.4381  -20.3434   -2.3793 H   0  0  0  0  0
    4.3023  -22.0897   -2.0579 H   0  0  0  0  0
    2.9520  -21.2177   -2.8242 H   0  0  0  0  0
  1  2  1  0  0  0
  1  5  1  0  0  0
  2  3  1  0  0  0
  2 10  2  0  0  0
  3  4  2  0  0  0
  3 11  1  0  0  0
  4  5  1  0  0  0
  4 12  1  0  0  0
  5  6  1  0  0  0
  5 13  1  0  0  0
  6  7  2  0  0  0
  7  8  1  0  0  0
  7 14  1  0  0  0
  8  9  2  0  0  0
  6 15  1  0  0  0
  8 16  1  0  0  0
  9 17  1  0  0  0
  9 18  1  0  0  0
 11 19  1  0  0  0
 11 20  1  0  0  0
 11 21  1  0  0  0
 12 22  1  0  0  0
 13 23  1  0  0  0
 13 24  1  0  0  0
 13 25  1  0  0  0
 14 26  1  0  0  0
 14 27  1  0  0  0
 14 28  1  0  0  0
M  END
$$$$
