5ho6_ligand
  -I-interpret- 

 62 67  0  0  0  0  0  0  0  0999 V2000
   14.4690   -9.6600   60.7880 C   0  0  0  0  0
   16.2020  -11.3170   60.4570 C   0  0  0  0  0
   21.9190  -11.3730   59.2310 C   0  0  0  0  0
   13.7970  -10.5620   61.5870 C   0  0  0  0  0
   15.5330  -12.2070   61.2620 C   0  0  0  0  0
   21.3500  -10.9320   58.0620 C   0  0  0  0  0
   16.3560   -7.7360   59.7260 C   0  0  0  0  0
   17.1730   -6.9670   59.0020 C   0  0  0  0  0
   19.4120  -12.3250   58.3720 C   0  0  0  0  0
   15.6680  -10.0650   60.2320 C   0  0  0  0  0
   21.2210  -12.3050   59.9790 C   0  0  0  0  0
   14.3320  -11.8190   61.8230 C   0  0  0  0  0
   19.9860  -12.7650   59.5470 C   0  0  0  0  0
   20.1230  -11.3920   57.6330 C   0  0  0  0  0
   16.4800   -9.1770   59.4000 C   0  0  0  0  0
   18.0400   -7.5240   58.0370 C   0  0  0  0  0
   18.9790   -9.1560   56.8310 C   0  0  0  0  0
   20.7760  -13.6710   61.6510 C   0  0  0  0  0
   19.8600  -15.1130   63.3500 C   0  0  0  0  0
   16.6780  -16.5910   67.3380 C   0  0  0  0  0
   18.7340  -17.6730   68.3070 C   0  0  0  0  0
   15.9050  -17.8170   67.7640 C   0  0  0  0  0
   17.7900  -18.7970   68.7090 C   0  0  0  0  0
   19.4470  -16.5830   65.2000 C   0  0  0  0  0
   18.8720  -15.9890   66.4550 C   0  0  0  0  0
   21.6560  -12.8300   61.1700 N   0  0  0  0  0
   17.2610   -9.7330   58.5180 N   0  0  0  0  0
   19.4910   -7.9850   56.5010 N   0  0  0  0  0
   18.9160   -6.9730   57.2370 N   0  0  0  0  0
   18.0380   -8.8810   57.8170 N   0  0  0  0  0
   20.8830  -14.3740   62.8250 N   0  0  0  0  0
   20.2260  -15.5600   64.5720 N   0  0  0  0  0
   18.0780  -17.0390   67.1160 N   0  3  0  0  0
   18.7910  -15.3820   62.8300 O   0  0  0  0  0
   16.5020  -18.2290   68.9820 O   0  0  0  0  0
   13.6820  -12.7060   62.6160 F   0  0  0  0  0
   19.3740  -13.8940   60.7040 S   0  0  0  0  0
   19.4610  -10.7330   56.1190 S   0  0  0  0  0
   14.0687   -8.6634   60.6018 H   0  0  0  0  0
   17.1499  -11.5987   59.9984 H   0  0  0  0  0
   22.8895  -11.0010   59.5595 H   0  0  0  0  0
   12.8422  -10.2854   62.0342 H   0  0  0  0  0
   15.9417  -13.1991   61.4540 H   0  0  0  0  0
   21.8826  -10.1985   57.4567 H   0  0  0  0  0
   15.6700   -7.3454   60.4776 H   0  0  0  0  0
   17.1705   -5.8884   59.1591 H   0  0  0  0  0
   18.4421  -12.6947   58.0393 H   0  0  0  0  0
   16.6308  -15.8127   68.0997 H   0  0  0  0  0
   16.2564  -16.1562   66.4317 H   0  0  0  0  0
   19.7330  -18.0420   68.0748 H   0  0  0  0  0
   18.8877  -16.9595   69.1166 H   0  0  0  0  0
   15.9489  -18.6021   67.0092 H   0  0  0  0  0
   14.8443  -17.5997   67.8897 H   0  0  0  0  0
   18.1699  -19.3044   69.5957 H   0  0  0  0  0
   17.7131  -19.5264   67.9026 H   0  0  0  0  0
   18.6530  -16.9254   64.5363 H   0  0  0  0  0
   20.0647  -17.4507   65.4318 H   0  0  0  0  0
   18.2459  -15.1287   66.2183 H   0  0  0  0  0
   19.6686  -15.6415   67.1128 H   0  0  0  0  0
   21.7687  -14.3435   63.3300 H   0  0  0  0  0
   21.0459  -15.1736   65.0399 H   0  0  0  0  0
   18.0324  -17.8208   66.4625 H   0  0  0  0  0
  1  4  4  0  0  0
 10  1  4  0  0  0
  2  5  4  0  0  0
 10  2  4  0  0  0
  3  6  4  0  0  0
 11  3  4  0  0  0
  4 12  4  0  0  0
  5 12  4  0  0  0
 14  6  4  0  0  0
  8  7  4  0  0  0
  7 15  4  0  0  0
 16  8  4  0  0  0
 13  9  4  0  0  0
  9 14  4  0  0  0
 15 10  1  0  0  0
 13 11  4  0  0  0
 26 11  4  0  0  0
 12 36  1  0  0  0
 37 13  4  0  0  0
 14 38  1  0  0  0
 15 27  4  0  0  0
 16 29  4  0  0  0
 30 16  4  0  0  0
 17 28  4  0  0  0
 17 30  4  0  0  0
 38 17  1  0  0  0
 18 26  4  0  0  0
 31 18  1  0  0  0
 18 37  4  0  0  0
 19 31  1  0  0  0
 32 19  1  0  0  0
 19 34  2  0  0  0
 20 22  1  0  0  0
 33 20  1  0  0  0
 21 23  1  0  0  0
 33 21  1  0  0  0
 22 35  1  0  0  0
 23 35  1  0  0  0
 25 24  1  0  0  0
 24 32  1  0  0  0
 25 33  1  0  0  0
 27 30  4  0  0  0
 28 29  4  0  0  0
  1 39  1  0  0  0
  2 40  1  0  0  0
  3 41  1  0  0  0
  4 42  1  0  0  0
  5 43  1  0  0  0
  6 44  1  0  0  0
  7 45  1  0  0  0
  8 46  1  0  0  0
  9 47  1  0  0  0
 20 48  1  0  0  0
 20 49  1  0  0  0
 21 50  1  0  0  0
 21 51  1  0  0  0
 22 52  1  0  0  0
 22 53  1  0  0  0
 23 54  1  0  0  0
 23 55  1  0  0  0
 24 56  1  0  0  0
 24 57  1  0  0  0
 25 58  1  0  0  0
 25 59  1  0  0  0
 31 60  1  0  0  0
 32 61  1  0  0  0
 33 62  1  0  0  0
M  END
$$$$
