4nhc_ligand
  -I-interpret- 

311316  0  0  0  0  0  0  0  0999 V2000
   80.8860  -77.4040  -20.6800 C   0  0  0  0  0
   80.5050  -76.2400  -20.8040 O   0  0  0  0  0
   81.3380  -78.2350  -21.8450 C   0  0  0  0  0
   81.2400  -78.1850  -19.6630 N   0  0  0  0  0
   80.5470  -77.5700  -18.5360 C   0  0  0  0  0
   81.4020  -76.5120  -17.8380 C   0  0  0  0  0
   82.3610  -76.8290  -17.1330 O   0  0  0  0  0
   80.0860  -78.6370  -17.5420 C   0  0  0  0  0
   79.2410  -78.0670  -16.4200 C   0  0  0  0  0
   78.7040  -76.9650  -16.5290 O   0  0  0  0  0
   79.1190  -78.8190  -15.3330 N   0  0  0  0  0
   81.0410  -75.2520  -18.0460 N   0  0  0  0  0
   81.7810  -74.1230  -17.4950 C   0  0  0  0  0
   82.1020  -74.3010  -16.0120 C   0  0  0  0  0
   83.1680  -73.9000  -15.5440 O   0  0  0  0  0
   80.9830  -72.8340  -17.7160 C   0  0  0  0  0
   81.6830  -71.5870  -17.2840 C   0  0  0  0  0
   82.5720  -70.8520  -18.0100 C   0  0  0  0  0
   81.5360  -70.9260  -16.0280 C   0  0  0  0  0
   82.9970  -69.7700  -17.2780 N   0  0  0  0  0
   82.3780  -69.7890  -16.0570 C   0  0  0  0  0
   80.7860  -71.1710  -14.8780 C   0  0  0  0  0
   82.4820  -68.9130  -14.9810 C   0  0  0  0  0
   80.8900  -70.3020  -13.8120 C   0  0  0  0  0
   81.7320  -69.1850  -13.8700 C   0  0  0  0  0
   81.1820  -74.9180  -15.2800 N   0  0  0  0  0
   81.3190  -75.0520  -13.8350 C   0  0  0  0  0
   82.4260  -76.0080  -13.4130 C   0  0  0  0  0
   82.7990  -76.0590  -12.2400 O   0  0  0  0  0
   79.9860  -75.4690  -13.2160 C   0  0  0  0  0
   78.9800  -74.3590  -13.1690 C   0  0  0  0  0
   78.9150  -73.5080  -12.0780 C   0  0  0  0  0
   78.1180  -74.1480  -14.2300 C   0  0  0  0  0
   77.9990  -72.4760  -12.0400 C   0  0  0  0  0
   77.1960  -73.1160  -14.1980 C   0  0  0  0  0
   77.1380  -72.2780  -13.1000 C   0  0  0  0  0
   82.9590  -76.7520  -14.3740 N   0  0  0  0  0
   84.0040  -77.7250  -14.0870 C   0  0  0  0  0
   85.4070  -77.1470  -14.1930 C   0  0  0  0  0
   86.2920  -77.5140  -13.4290 O   0  0  0  0  0
   83.8760  -78.9340  -15.0130 C   0  0  0  0  0
   82.6700  -79.7970  -14.6840 C   0  0  0  0  0
   81.8220  -80.0470  -15.5390 O   0  0  0  0  0
   82.5920  -80.2610  -13.4410 N   0  0  0  0  0
   85.5910  -76.2360  -15.1420 N   0  0  0  0  0
   86.9020  -75.6780  -15.4700 C   0  0  0  0  0
   87.8450  -75.4740  -14.2840 C   0  0  0  0  0
   89.0050  -75.8830  -14.3340 O   0  0  0  0  0
   86.7640  -74.3430  -16.2200 C   0  0  0  0  0
   85.8930  -74.5210  -17.4640 C   0  0  0  0  0
   88.1380  -73.8030  -16.5890 C   0  0  0  0  0
   85.7150  -73.2540  -18.2590 C   0  0  0  0  0
   87.3550  -74.8440  -13.2220 N   0  0  0  0  0
   88.1960  -74.5700  -12.0610 C   0  0  0  0  0
   88.8240  -75.8420  -11.5040 C   0  0  0  0  0
   89.8080  -75.7850  -10.7660 O   0  0  0  0  0
   87.4230  -73.8440  -10.9460 C   0  0  0  0  0
   86.0840  -74.3490  -10.8890 O   0  0  0  0  0
   87.3770  -72.3480  -11.2150 C   0  0  0  0  0
   88.2470  -76.9860  -11.8550 N   0  0  0  0  0
   88.8000  -78.2760  -11.4630 C   0  0  0  0  0
   89.9850  -78.6360  -12.3500 C   0  0  0  0  0
   91.0250  -79.0880  -11.8620 O   0  0  0  0  0
   87.7300  -79.3650  -11.5410 C   0  0  0  0  0
   88.1190  -80.6150  -10.7820 C   0  0  0  0  0
   88.4450  -81.6430  -11.3770 O   0  0  0  0  0
   88.1050  -80.5290   -9.4550 N   0  0  0  0  0
   89.8120  -78.4330  -13.6540 N   0  0  0  0  0
   90.8670  -78.6110  -14.5930 C   0  0  0  0  0
   91.0340  -80.0550  -14.9680 C   0  0  0  0  0
   92.3430  -80.8250  -14.8210 C   0  0  0  0  0
   90.4840  -77.8850  -15.8240 C   0  0  0  0  0
   92.0850  -77.8790  -14.0140 C   0  0  0  0  0
   93.1570  -78.4290  -13.7920 O   0  0  0  0  0
   91.9050  -76.4480  -13.7270 N   0  0  0  0  0
   92.9870  -75.6090  -13.1700 C   0  0  0  0  0
   93.5210  -76.0950  -11.8120 C   0  0  0  0  0
   94.7080  -76.3480  -11.7100 O   0  0  0  0  0
   92.4740  -74.1970  -13.0770 C   0  0  0  0  0
   91.7350  -73.6240  -14.2750 C   0  0  0  0  0
   91.3030  -72.1530  -14.0830 C   0  0  0  0  0
   92.4120  -73.8890  -15.5920 C   0  0  0  0  0
   92.6310  -76.2290  -10.6680 N   0  0  0  0  0
   93.1640  -76.6770   -9.3770 C   0  0  0  0  0
   93.9790  -77.9360   -9.5930 C   0  0  0  0  0
   95.0510  -78.0380   -9.0530 O   0  0  0  0  0
   92.1060  -76.8750   -8.2790 C   0  0  0  0  0
   92.5660  -77.4170   -6.9250 C   0  0  0  0  0
   93.1300  -76.6970   -5.8760 C   0  0  0  0  0
   92.5020  -78.7500   -6.5090 C   0  0  0  0  0
   93.3910  -77.5500   -4.8760 N   0  0  0  0  0
   93.0250  -78.7930   -5.2240 C   0  0  0  0  0
   92.0420  -79.9100   -7.1200 C   0  0  0  0  0
   93.0900  -80.0020   -4.5450 C   0  0  0  0  0
   92.1080  -81.1210   -6.4400 C   0  0  0  0  0
   92.6320  -81.1640   -5.1520 C   0  0  0  0  0
   95.6740  -79.9440  -11.2240 C   0  0  0  0  0
   93.4600  -79.0260  -10.4640 N   0  0  0  0  0
   96.6540  -80.5340  -10.7940 O   0  0  0  0  0
   94.2650  -80.2660  -10.6820 C   0  0  0  0  0
   93.4530  -81.0670  -11.7040 C   0  0  0  0  0
   93.4790  -82.8730  -13.6560 C   0  0  0  0  0
   92.2290  -82.2170  -14.2520 C   0  0  0  0  0
   94.2310  -82.1200  -12.5480 C   0  0  0  0  0
   94.3040  -81.0070   -9.3620 C   0  0  0  0  0
   95.8100  -78.9080  -12.2870 N   0  0  0  0  0
   97.1280  -78.5700  -12.8320 C   0  0  0  0  0
   97.9650  -77.9610  -11.7090 C   0  0  0  0  0
   98.9910  -78.5100  -11.3420 O   0  0  0  0  0
   96.8750  -77.6970  -14.1000 C   0  0  0  0  0
   96.3490  -78.4570  -15.3340 C   0  0  0  0  0
   98.1230  -76.9430  -14.5090 C   0  0  0  0  0
   95.0640  -77.9270  -15.9920 C   0  0  0  0  0
   97.5370  -76.7160  -11.0820 N   0  0  0  0  0
   98.3130  -76.1060  -10.0040 C   0  0  0  0  0
   98.8410  -77.0960   -8.9750 C   0  0  0  0  0
   99.9720  -76.9560   -8.5460 O   0  0  0  0  0
   97.4520  -75.0770   -9.2680 C   0  0  0  0  0
   97.8360  -73.5910   -9.3750 C   0  0  0  0  0
   97.3590  -72.6680   -8.2480 C   0  0  0  0  0
   98.1160  -71.3630   -8.0070 C   0  0  0  0  0
   97.3530  -70.1420   -7.9400 N   0  3  0  0  0
   98.0440  -78.1040   -8.6360 N   0  0  0  0  0
   98.4880  -79.1650   -7.7400 C   0  0  0  0  0
   99.5120  -80.0690   -8.4270 C   0  0  0  0  0
  100.6390  -80.2140   -7.9540 O   0  0  0  0  0
   97.2960  -79.9930   -7.2570 C   0  0  0  0  0
   97.6670  -81.3740   -6.7420 C   0  0  0  0  0
   97.1050  -82.4670   -7.6370 C   0  0  0  0  0
   97.5830  -83.8410   -7.1970 C   0  0  0  0  0
   97.7680  -84.7610   -8.3530 N   0  3  0  0  0
   99.1200  -80.6100   -9.5760 N   0  0  0  0  0
  100.0150  -81.4030  -10.4050 C   0  0  0  0  0
  101.4160  -80.8000  -10.4640 C   0  0  0  0  0
  102.3970  -81.4830  -10.1710 O   0  0  0  0  0
   99.4460  -81.5470  -11.8190 C   0  0  0  0  0
   98.8790  -82.9250  -12.1220 C   0  0  0  0  0
   99.4950  -83.9850  -11.2240 C   0  0  0  0  0
  100.4600  -84.8700  -11.9960 C   0  0  0  0  0
   99.8090  -86.1220  -12.4690 N   0  3  0  0  0
  101.5180  -79.5270  -10.8440 N   0  0  0  0  0
  102.8490  -78.9000  -10.9490 C   0  0  0  0  0
  102.7630  -77.4230  -11.2740 C   0  0  0  0  0
  102.3380  -77.0390  -12.4030 O   0  0  0  0  0
  103.7550  -79.5290  -12.0010 C   0  0  0  0  0
  105.0900  -80.1120  -11.5650 C   0  0  0  0  0
  105.1770  -81.6270  -11.3780 C   0  0  0  0  0
  105.9150  -82.4330  -12.4200 C   0  0  0  0  0
  105.2820  -83.6560  -12.8990 N   0  3  0  0  0
  103.1180  -76.5720  -10.4150 O   0  0  0  0  0
   80.5226  -78.3265  -22.5625 H   0  0  0  0  0
   82.1918  -77.7546  -22.3228 H   0  0  0  0  0
   81.6268  -79.2253  -21.4929 H   0  0  0  0  0
   81.8439  -79.0070  -19.6695 H   0  0  0  0  0
   79.6708  -77.0592  -18.9354 H   0  0  0  0  0
   80.9743  -79.0852  -17.0969 H   0  0  0  0  0
   79.4767  -79.3592  -18.0855 H   0  0  0  0  0
   78.5622  -78.4892  -14.5445 H   0  0  0  0  0
   79.5820  -79.7266  -15.2862 H   0  0  0  0  0
   80.2139  -75.0662  -18.6133 H   0  0  0  0  0
   82.7355  -74.0653  -18.0182 H   0  0  0  0  0
   80.0767  -72.9142  -17.1157 H   0  0  0  0  0
   80.8108  -72.7466  -18.7888 H   0  0  0  0  0
   82.8980  -71.0881  -19.0230 H   0  0  0  0  0
   80.1268  -72.0373  -14.8224 H   0  0  0  0  0
   83.1367  -68.0425  -15.0219 H   0  0  0  0  0
   80.3072  -70.4879  -12.9098 H   0  0  0  0  0
   81.7912  -68.5172  -13.0106 H   0  0  0  0  0
   80.3593  -75.3077  -15.7400 H   0  0  0  0  0
   81.6094  -74.0705  -13.4602 H   0  0  0  0  0
   80.1824  -75.7788  -12.1896 H   0  0  0  0  0
   79.5701  -76.2640  -13.8350 H   0  0  0  0  0
   79.5954  -73.6550  -11.2393 H   0  0  0  0  0
   78.1653  -74.8016  -15.1010 H   0  0  0  0  0
   77.9558  -71.8174  -11.1725 H   0  0  0  0  0
   76.5169  -72.9644  -15.0370 H   0  0  0  0  0
   76.4144  -71.4634  -13.0717 H   0  0  0  0  0
   82.6301  -76.6401  -15.3330 H   0  0  0  0  0
   83.8602  -78.0302  -13.0505 H   0  0  0  0  0
   84.7696  -79.5460  -14.8909 H   0  0  0  0  0
   83.7564  -78.5650  -16.0317 H   0  0  0  0  0
   81.8060  -80.8494  -13.1646 H   0  0  0  0  0
   83.3182  -80.0287  -12.7634 H   0  0  0  0  0
   84.7792  -75.9103  -15.6668 H   0  0  0  0  0
   87.3572  -76.4416  -16.1008 H   0  0  0  0  0
   86.2776  -73.6187  -15.5666 H   0  0  0  0  0
   84.9056  -74.8396  -17.1298 H   0  0  0  0  0
   86.3883  -75.2461  -18.1097 H   0  0  0  0  0
   88.7204  -73.6445  -15.6814 H   0  0  0  0  0
   88.6494  -74.5216  -17.2295 H   0  0  0  0  0
   88.0249  -72.8575  -17.1195 H   0  0  0  0  0
   85.2410  -72.4976  -17.6334 H   0  0  0  0  0
   86.6892  -72.8947  -18.5906 H   0  0  0  0  0
   85.0864  -73.4560  -19.1263 H   0  0  0  0  0
   86.3789  -74.5481  -13.2179 H   0  0  0  0  0
   88.9914  -73.9129  -12.4126 H   0  0  0  0  0
   87.9321  -74.0193   -9.9982 H   0  0  0  0  0
   85.6017  -73.8961  -10.1934 H   0  0  0  0  0
   88.3932  -71.9558  -11.2546 H   0  0  0  0  0
   86.8788  -72.1665  -12.1673 H   0  0  0  0  0
   86.8261  -71.8531  -10.4152 H   0  0  0  0  0
   87.3941  -76.9607  -12.4138 H   0  0  0  0  0
   89.1447  -78.2034  -10.4315 H   0  0  0  0  0
   87.6004  -79.6346  -12.5891 H   0  0  0  0  0
   86.8165  -78.9715  -11.0952 H   0  0  0  0  0
   88.3712  -81.3346   -8.8889 H   0  0  0  0  0
   87.8281  -79.6574   -9.0033 H   0  0  0  0  0
   88.8947  -78.1407  -13.9911 H   0  0  0  0  0
   90.8803  -80.0437  -16.0470 H   0  0  0  0  0
   90.3738  -80.5647  -14.2662 H   0  0  0  0  0
   92.9560  -80.2569  -14.1213 H   0  0  0  0  0
   92.7475  -80.9371  -15.8269 H   0  0  0  0  0
   89.5517  -78.2958  -16.2114 H   0  0  0  0  0
   90.3489  -76.8282  -15.5939 H   0  0  0  0  0
   91.2702  -77.9980  -16.5704 H   0  0  0  0  0
   91.0001  -76.0185  -13.9194 H   0  0  0  0  0
   93.8439  -75.6734  -13.8406 H   0  0  0  0  0
   93.3614  -73.5748  -12.9608 H   0  0  0  0  0
   91.7452  -74.2077  -12.2666 H   0  0  0  0  0
   90.8045  -74.1892  -14.3275 H   0  0  0  0  0
   90.6385  -72.0802  -13.2221 H   0  0  0  0  0
   92.1854  -71.5354  -13.9157 H   0  0  0  0  0
   90.7814  -71.8093  -14.9763 H   0  0  0  0  0
   93.4074  -73.4449  -15.5833 H   0  0  0  0  0
   92.4941  -74.9648  -15.7469 H   0  0  0  0  0
   91.8233  -73.4487  -16.3968 H   0  0  0  0  0
   91.6390  -76.0119  -10.7639 H   0  0  0  0  0
   93.7950  -75.8732   -8.9978 H   0  0  0  0  0
   91.4197  -77.6252   -8.6718 H   0  0  0  0  0
   91.7144  -75.8789   -8.0729 H   0  0  0  0  0
   93.3256  -75.6247   -5.8690 H   0  0  0  0  0
   91.6309  -79.8708   -8.1287 H   0  0  0  0  0
   93.5003  -80.0392   -3.5359 H   0  0  0  0  0
   91.7500  -82.0345   -6.9149 H   0  0  0  0  0
   92.6832  -82.1127   -4.6177 H   0  0  0  0  0
   92.5503  -78.9260  -10.9143 H   0  0  0  0  0
   93.0662  -80.3385  -12.4166 H   0  0  0  0  0
   92.7175  -81.6288  -11.1282 H   0  0  0  0  0
   94.1855  -82.9521  -14.4822 H   0  0  0  0  0
   93.1281  -83.7947  -13.1919 H   0  0  0  0  0
   91.9543  -82.8472  -15.0979 H   0  0  0  0  0
   91.5321  -82.1263  -13.4188 H   0  0  0  0  0
   94.5333  -82.8883  -11.8363 H   0  0  0  0  0
   95.0067  -81.5543  -13.0642 H   0  0  0  0  0
   94.8368  -81.9491   -9.4912 H   0  0  0  0  0
   94.8175  -80.3966   -8.6192 H   0  0  0  0  0
   93.2856  -81.2069   -9.0288 H   0  0  0  0  0
   94.9796  -78.4307  -12.6378 H   0  0  0  0  0
   97.7246  -79.4157  -13.1741 H   0  0  0  0  0
   96.0840  -77.0169  -13.7840 H   0  0  0  0  0
   96.1090  -79.4606  -14.9829 H   0  0  0  0  0
   97.1279  -78.3663  -16.0911 H   0  0  0  0  0
   98.4343  -76.2892  -13.6943 H   0  0  0  0  0
   98.9191  -77.6538  -14.7306 H   0  0  0  0  0
   97.9107  -76.3453  -15.3954 H   0  0  0  0  0
   94.2502  -77.9496  -15.2672 H   0  0  0  0  0
   95.2251  -76.9025  -16.3276 H   0  0  0  0  0
   94.8091  -78.5546  -16.8460 H   0  0  0  0  0
   96.6809  -76.2628  -11.4014 H   0  0  0  0  0
   99.1759  -75.6493  -10.4886 H   0  0  0  0  0
   97.5535  -75.3230   -8.2110 H   0  0  0  0  0
   96.4652  -75.1508   -9.7250 H   0  0  0  0  0
   97.3581  -73.2241  -10.2834 H   0  0  0  0  0
   98.9252  -73.5614   -9.3439 H   0  0  0  0  0
   97.4870  -73.2456   -7.3325 H   0  0  0  0  0
   96.3517  -72.3651   -8.5340 H   0  0  0  0  0
   98.7739  -71.2465   -8.8683 H   0  0  0  0  0
   98.5752  -71.4718   -7.0245 H   0  0  0  0  0
   97.9834  -69.3571   -7.7762 H   0  0  0  0  0
   96.8573  -70.0035   -8.8206 H   0  0  0  0  0
   96.6802  -70.2044   -7.1759 H   0  0  0  0  0
   97.0966  -78.1362   -9.0126 H   0  0  0  0  0
   98.9651  -78.6986   -6.8781 H   0  0  0  0  0
   96.6345  -80.1347   -8.1117 H   0  0  0  0  0
   96.8420  -79.4509   -6.4275 H   0  0  0  0  0
   97.2494  -81.4952   -5.7425 H   0  0  0  0  0
   98.7536  -81.4596   -6.7305 H   0  0  0  0  0
   97.4472  -82.2906   -8.6568 H   0  0  0  0  0
   96.0171  -82.4416   -7.5745 H   0  0  0  0  0
   96.8295  -84.2696   -6.5363 H   0  0  0  0  0
   98.5439  -83.7243   -6.6959 H   0  0  0  0  0
   98.0882  -85.6688   -8.0157 H   0  0  0  0  0
   96.8802  -84.8727   -8.8426 H   0  0  0  0  0
   98.4620  -84.3696   -8.9899 H   0  0  0  0  0
   98.1596  -80.4644   -9.8871 H   0  0  0  0  0
  100.0953  -82.3891   -9.9475 H   0  0  0  0  0
  100.2662  -81.3751  -12.5160 H   0  0  0  0  0
   98.6271  -80.8336  -11.9115 H   0  0  0  0  0
   99.1063  -83.1736  -13.1586 H   0  0  0  0  0
   97.8034  -82.9039  -11.9466 H   0  0  0  0  0
   98.6954  -84.6091  -10.8249 H   0  0  0  0  0
  100.0444  -83.4866  -10.4254 H   0  0  0  0  0
  101.2802  -85.1417  -11.3315 H   0  0  0  0  0
  100.8085  -84.3160  -12.8676 H   0  0  0  0  0
  100.4887  -86.6850  -12.9803 H   0  0  0  0  0
   99.4644  -86.6488  -11.6664 H   0  0  0  0  0
   99.0293  -85.8873  -13.0833 H   0  0  0  0  0
  100.6794  -78.9885  -11.0613 H   0  0  0  0  0
  103.2810  -79.0627   -9.9616 H   0  0  0  0  0
  102.1113  -77.8048  -12.9357 H   0  0  0  0  0
  104.0106  -78.7134  -12.6774 H   0  0  0  0  0
  103.1903  -80.3765  -12.3895 H   0  0  0  0  0
  105.2875  -79.6850  -10.5818 H   0  0  0  0  0
  105.7874  -79.8769  -12.3690 H   0  0  0  0  0
  104.1469  -81.9812  -11.4169 H   0  0  0  0  0
  105.7364  -81.7710  -10.4536 H   0  0  0  0  0
  106.8421  -82.7504  -11.9426 H   0  0  0  0  0
  105.9939  -81.7831  -13.2915 H   0  0  0  0  0
  105.8829  -84.0986  -13.5942 H   0  0  0  0  0
  105.1400  -84.2933  -12.1154 H   0  0  0  0  0
  104.3818  -83.4286  -13.3213 H   0  0  0  0  0
  1  2  2  0  0  0
  1  3  1  0  0  0
  4  1  1  0  0  0
  5  4  1  0  0  0
  6  5  1  0  0  0
  5  8  1  0  0  0
  6  7  2  0  0  0
 12  6  1  0  0  0
  8  9  1  0  0  0
  9 10  2  0  0  0
  9 11  1  0  0  0
 13 12  1  0  0  0
 14 13  1  0  0  0
 13 16  1  0  0  0
 14 15  2  0  0  0
 26 14  1  0  0  0
 16 17  1  0  0  0
 17 18  4  0  0  0
 17 19  4  0  0  0
 18 20  4  0  0  0
 19 21  4  0  0  0
 19 22  4  0  0  0
 21 20  4  0  0  0
 21 23  4  0  0  0
 22 24  4  0  0  0
 23 25  4  0  0  0
 24 25  4  0  0  0
 27 26  1  0  0  0
 28 27  1  0  0  0
 27 30  1  0  0  0
 28 29  2  0  0  0
 37 28  1  0  0  0
 30 31  1  0  0  0
 31 32  4  0  0  0
 31 33  4  0  0  0
 32 34  4  0  0  0
 33 35  4  0  0  0
 34 36  4  0  0  0
 35 36  4  0  0  0
 38 37  1  0  0  0
 39 38  1  0  0  0
 38 41  1  0  0  0
 39 40  2  0  0  0
 45 39  1  0  0  0
 41 42  1  0  0  0
 42 43  2  0  0  0
 42 44  1  0  0  0
 46 45  1  0  0  0
 47 46  1  0  0  0
 46 49  1  0  0  0
 47 48  2  0  0  0
 53 47  1  0  0  0
 49 50  1  0  0  0
 49 51  1  0  0  0
 50 52  1  0  0  0
 54 53  1  0  0  0
 55 54  1  0  0  0
 54 57  1  0  0  0
 55 56  2  0  0  0
 60 55  1  0  0  0
 57 58  1  0  0  0
 57 59  1  0  0  0
 61 60  1  0  0  0
 62 61  1  0  0  0
 61 64  1  0  0  0
 62 63  2  0  0  0
 68 62  1  0  0  0
 64 65  1  0  0  0
 65 66  2  0  0  0
 65 67  1  0  0  0
 69 68  1  0  0  0
 69 70  1  0  0  0
 69 72  1  0  0  0
 73 69  1  0  0  0
 70 71  1  0  0  0
 71103  1  0  0  0
 73 74  2  0  0  0
 75 73  1  0  0  0
 76 75  1  0  0  0
 77 76  1  0  0  0
 76 79  1  0  0  0
 77 78  2  0  0  0
 83 77  1  0  0  0
 79 80  1  0  0  0
 80 81  1  0  0  0
 80 82  1  0  0  0
 84 83  1  0  0  0
 85 84  1  0  0  0
 84 87  1  0  0  0
 85 86  2  0  0  0
 98 85  1  0  0  0
 87 88  1  0  0  0
 88 89  4  0  0  0
 88 90  4  0  0  0
 89 91  4  0  0  0
 90 92  4  0  0  0
 90 93  4  0  0  0
 92 91  4  0  0  0
 92 94  4  0  0  0
 93 95  4  0  0  0
 94 96  4  0  0  0
 95 96  4  0  0  0
 97 99  2  0  0  0
100 97  1  0  0  0
 97106  1  0  0  0
 98100  1  0  0  0
100101  1  0  0  0
100105  1  0  0  0
101104  1  0  0  0
103102  1  0  0  0
102104  1  0  0  0
106107  1  0  0  0
107108  1  0  0  0
107110  1  0  0  0
108109  2  0  0  0
108114  1  0  0  0
110111  1  0  0  0
110112  1  0  0  0
111113  1  0  0  0
114115  1  0  0  0
115116  1  0  0  0
115118  1  0  0  0
116117  2  0  0  0
116123  1  0  0  0
118119  1  0  0  0
119120  1  0  0  0
120121  1  0  0  0
121122  1  0  0  0
123124  1  0  0  0
124125  1  0  0  0
124127  1  0  0  0
125126  2  0  0  0
125132  1  0  0  0
127128  1  0  0  0
128129  1  0  0  0
129130  1  0  0  0
130131  1  0  0  0
132133  1  0  0  0
133134  1  0  0  0
133136  1  0  0  0
134135  2  0  0  0
134141  1  0  0  0
136137  1  0  0  0
137138  1  0  0  0
138139  1  0  0  0
139140  1  0  0  0
141142  1  0  0  0
142143  1  0  0  0
142145  1  0  0  0
143144  1  0  0  0
143150  2  0  0  0
145146  1  0  0  0
146147  1  0  0  0
147148  1  0  0  0
148149  1  0  0  0
  3151  1  0  0  0
  3152  1  0  0  0
  3153  1  0  0  0
  4154  1  0  0  0
  5155  1  0  0  0
  8156  1  0  0  0
  8157  1  0  0  0
 11158  1  0  0  0
 11159  1  0  0  0
 12160  1  0  0  0
 13161  1  0  0  0
 16162  1  0  0  0
 16163  1  0  0  0
 18164  1  0  0  0
 22165  1  0  0  0
 23166  1  0  0  0
 24167  1  0  0  0
 25168  1  0  0  0
 26169  1  0  0  0
 27170  1  0  0  0
 30171  1  0  0  0
 30172  1  0  0  0
 32173  1  0  0  0
 33174  1  0  0  0
 34175  1  0  0  0
 35176  1  0  0  0
 36177  1  0  0  0
 37178  1  0  0  0
 38179  1  0  0  0
 41180  1  0  0  0
 41181  1  0  0  0
 44182  1  0  0  0
 44183  1  0  0  0
 45184  1  0  0  0
 46185  1  0  0  0
 49186  1  0  0  0
 50187  1  0  0  0
 50188  1  0  0  0
 51189  1  0  0  0
 51190  1  0  0  0
 51191  1  0  0  0
 52192  1  0  0  0
 52193  1  0  0  0
 52194  1  0  0  0
 53195  1  0  0  0
 54196  1  0  0  0
 57197  1  0  0  0
 58198  1  0  0  0
 59199  1  0  0  0
 59200  1  0  0  0
 59201  1  0  0  0
 60202  1  0  0  0
 61203  1  0  0  0
 64204  1  0  0  0
 64205  1  0  0  0
 67206  1  0  0  0
 67207  1  0  0  0
 68208  1  0  0  0
 70209  1  0  0  0
 70210  1  0  0  0
 71211  1  0  0  0
 71212  1  0  0  0
 72213  1  0  0  0
 72214  1  0  0  0
 72215  1  0  0  0
 75216  1  0  0  0
 76217  1  0  0  0
 79218  1  0  0  0
 79219  1  0  0  0
 80220  1  0  0  0
 81221  1  0  0  0
 81222  1  0  0  0
 81223  1  0  0  0
 82224  1  0  0  0
 82225  1  0  0  0
 82226  1  0  0  0
 83227  1  0  0  0
 84228  1  0  0  0
 87229  1  0  0  0
 87230  1  0  0  0
 89231  1  0  0  0
 93232  1  0  0  0
 94233  1  0  0  0
 95234  1  0  0  0
 96235  1  0  0  0
 98236  1  0  0  0
101237  1  0  0  0
101238  1  0  0  0
102239  1  0  0  0
102240  1  0  0  0
103241  1  0  0  0
103242  1  0  0  0
104243  1  0  0  0
104244  1  0  0  0
105245  1  0  0  0
105246  1  0  0  0
105247  1  0  0  0
106248  1  0  0  0
107249  1  0  0  0
110250  1  0  0  0
111251  1  0  0  0
111252  1  0  0  0
112253  1  0  0  0
112254  1  0  0  0
112255  1  0  0  0
113256  1  0  0  0
113257  1  0  0  0
113258  1  0  0  0
114259  1  0  0  0
115260  1  0  0  0
118261  1  0  0  0
118262  1  0  0  0
119263  1  0  0  0
119264  1  0  0  0
120265  1  0  0  0
120266  1  0  0  0
121267  1  0  0  0
121268  1  0  0  0
122269  1  0  0  0
122270  1  0  0  0
122271  1  0  0  0
123272  1  0  0  0
124273  1  0  0  0
127274  1  0  0  0
127275  1  0  0  0
128276  1  0  0  0
128277  1  0  0  0
129278  1  0  0  0
129279  1  0  0  0
130280  1  0  0  0
130281  1  0  0  0
131282  1  0  0  0
131283  1  0  0  0
131284  1  0  0  0
132285  1  0  0  0
133286  1  0  0  0
136287  1  0  0  0
136288  1  0  0  0
137289  1  0  0  0
137290  1  0  0  0
138291  1  0  0  0
138292  1  0  0  0
139293  1  0  0  0
139294  1  0  0  0
140295  1  0  0  0
140296  1  0  0  0
140297  1  0  0  0
141298  1  0  0  0
142299  1  0  0  0
144300  1  0  0  0
145301  1  0  0  0
145302  1  0  0  0
146303  1  0  0  0
146304  1  0  0  0
147305  1  0  0  0
147306  1  0  0  0
148307  1  0  0  0
148308  1  0  0  0
149309  1  0  0  0
149310  1  0  0  0
149311  1  0  0  0
M  END
$$$$
