### 
### Created by X-TOOL on Mon Sep 10 21:13:19 2018
### 

@<TRIPOS>MOLECULE
4nhc_ligand
  312   317     1     0     0
SMALL
GAST_HUCK


@<TRIPOS>ATOM
      1 C          80.8860  -77.4040  -20.6800 C.2       1 ACE         0.1752
      2 O          80.5050  -76.2400  -20.8040 O.2       1 ACE        -0.3972
      3 CH3        81.3380  -78.2350  -21.8450 C.3       1 ACE         0.0258
      4 N          81.2400  -78.1850  -19.6630 N.am      1 ASN        -0.2637
      5 CA         80.5470  -77.5700  -18.5360 C.3       1 ASN         0.1475
      6 C          81.4020  -76.5120  -17.8380 C.2       1 ASN         0.2063
      7 O          82.3610  -76.8290  -17.1330 O.2       1 ASN        -0.3942
      8 CB         80.0860  -78.6370  -17.5420 C.3       1 ASN         0.0773
      9 CG         79.2410  -78.0670  -16.4200 C.2       1 ASN         0.1780
     10 OD1        78.7040  -76.9650  -16.5290 O.2       1 ASN        -0.3970
     11 ND2        79.1190  -78.8190  -15.3330 N.am      1 ASN        -0.3007
     12 N          81.0410  -75.2520  -18.0460 N.am      1 TRP        -0.2625
     13 CA         81.7810  -74.1230  -17.4950 C.3       1 TRP         0.1352
     14 C          82.1020  -74.3010  -16.0120 C.2       1 TRP         0.2053
     15 O          83.1680  -73.9000  -15.5440 O.2       1 TRP        -0.3942
     16 CB         80.9830  -72.8340  -17.7160 C.3       1 TRP         0.0042
     17 CG         81.6830  -71.5870  -17.2840 C.2       1 TRP        -0.0418
     18 CD1        82.5720  -70.8520  -18.0100 C.2       1 TRP         0.0167
     19 CD2        81.5360  -70.9260  -16.0280 C.ar      1 TRP        -0.0214
     20 NE1        82.9970  -69.7700  -17.2780 N.pl3     1 TRP        -0.2890
     21 CE2        82.3780  -69.7890  -16.0570 C.ar      1 TRP         0.0603
     22 CE3        80.7860  -71.1710  -14.8780 C.ar      1 TRP        -0.0747
     23 CZ2        82.4820  -68.9130  -14.9810 C.ar      1 TRP        -0.0443
     24 CZ3        80.8900  -70.3020  -13.8120 C.ar      1 TRP        -0.0792
     25 CH2        81.7320  -69.1850  -13.8700 C.ar      1 TRP        -0.0768
     26 N          81.1820  -74.9180  -15.2800 N.am      1 PHE        -0.2618
     27 CA         81.3190  -75.0520  -13.8350 C.3       1 PHE         0.1404
     28 C          82.4260  -76.0080  -13.4130 C.2       1 PHE         0.2061
     29 O          82.7990  -76.0590  -12.2400 O.2       1 PHE        -0.3942
     30 CB         79.9860  -75.4690  -13.2160 C.3       1 PHE         0.0214
     31 CG         78.9800  -74.3590  -13.1690 C.ar      1 PHE        -0.0386
     32 CD1        78.9150  -73.5080  -12.0780 C.ar      1 PHE        -0.0601
     33 CD2        78.1180  -74.1480  -14.2300 C.ar      1 PHE        -0.0601
     34 CE1        77.9990  -72.4760  -12.0400 C.ar      1 PHE        -0.0686
     35 CE2        77.1960  -73.1160  -14.1980 C.ar      1 PHE        -0.0686
     36 CZ         77.1380  -72.2780  -13.1000 C.ar      1 PHE        -0.0687
     37 N          82.9590  -76.7520  -14.3740 N.am      1 ASN        -0.2615
     38 CA         84.0040  -77.7250  -14.0870 C.3       1 ASN         0.1476
     39 C          85.4070  -77.1470  -14.1930 C.2       1 ASN         0.2063
     40 O          86.2920  -77.5140  -13.4290 O.2       1 ASN        -0.3942
     41 CB         83.8760  -78.9340  -15.0130 C.3       1 ASN         0.0773
     42 CG         82.6700  -79.7970  -14.6840 C.2       1 ASN         0.1780
     43 OD1        81.8220  -80.0470  -15.5390 O.2       1 ASN        -0.3970
     44 ND2        82.5920  -80.2610  -13.4410 N.am      1 ASN        -0.3007
     45 N          85.5910  -76.2360  -15.1420 N.am      1 ILE        -0.2633
     46 CA         86.9020  -75.6780  -15.4700 C.3       1 ILE         0.1335
     47 C          87.8450  -75.4740  -14.2840 C.2       1 ILE         0.2042
     48 O          89.0050  -75.8830  -14.3340 O.2       1 ILE        -0.3944
     49 CB         86.7640  -74.3430  -16.2200 C.3       1 ILE        -0.0037
     50 CG1        85.8930  -74.5210  -17.4640 C.3       1 ILE        -0.0491
     51 CG2        88.1380  -73.8030  -16.5890 C.3       1 ILE        -0.0582
     52 CD1        85.7150  -73.2540  -18.2590 C.3       1 ILE        -0.0648
     53 N          87.3550  -74.8440  -13.2220 N.am      1 THR        -0.2613
     54 CA         88.1960  -74.5700  -12.0610 C.3       1 THR         0.1565
     55 C          88.8240  -75.8420  -11.5040 C.2       1 THR         0.2066
     56 O          89.8080  -75.7850  -10.7660 O.2       1 THR        -0.3943
     57 CB         87.4230  -73.8440  -10.9460 C.3       1 THR         0.0924
     58 OG1        86.0840  -74.3490  -10.8890 O.3       1 THR        -0.3874
     59 CG2        87.3770  -72.3480  -11.2150 C.3       1 THR        -0.0346
     60 N          88.2470  -76.9860  -11.8550 N.am      1 ASN        -0.2615
     61 CA         88.8000  -78.2760  -11.4630 C.3       1 ASN         0.1473
     62 C          89.9850  -78.6360  -12.3500 C.2       1 ASN         0.2033
     63 O          91.0250  -79.0880  -11.8620 O.2       1 ASN        -0.3945
     64 CB         87.7300  -79.3650  -11.5410 C.3       1 ASN         0.0773
     65 CG         88.1190  -80.6150  -10.7820 C.2       1 ASN         0.1780
     66 OD1        88.4450  -81.6430  -11.3770 O.2       1 ASN        -0.3970
     67 ND2        88.1050  -80.5290   -9.4550 N.am      1 ASN        -0.3007
     68 N          89.8120  -78.4330  -13.6540 N.am      1 DIV        -0.2741
     69 CA         90.8670  -78.6110  -14.5930 C.3       1 DIV         0.1302
     70 CB1        91.0340  -80.0550  -14.9680 C.3       1 DIV        -0.0201
     71 CG1        92.3430  -80.8250  -14.8210 C.3       1 DIV        -0.0516
     72 CB2        90.4840  -77.8850  -15.8240 C.3       1 DIV        -0.0320
     73 C          92.0850  -77.8790  -14.0140 C.2       1 DIV         0.2263
     74 O          93.1570  -78.4290  -13.7920 O.2       1 DIV        -0.3419
     75 N          91.9050  -76.4480  -13.7270 N.am      1 LEU        -0.2629
     76 CA         92.9870  -75.6090  -13.1700 C.3       1 LEU         0.1314
     77 C          93.5210  -76.0950  -11.8120 C.2       1 LEU         0.2041
     78 O          94.7080  -76.3480  -11.7100 O.2       1 LEU        -0.3944
     79 CB         92.4740  -74.1970  -13.0770 C.3       1 LEU        -0.0099
     80 CG         91.7350  -73.6240  -14.2750 C.3       1 LEU        -0.0425
     81 CD1        91.3030  -72.1530  -14.0830 C.3       1 LEU        -0.0625
     82 CD2        92.4120  -73.8890  -15.5920 C.3       1 LEU        -0.0625
     83 N          92.6310  -76.2290  -10.6680 N.am      1 TRP        -0.2627
     84 CA         93.1640  -76.6770   -9.3770 C.3       1 TRP         0.1349
     85 C          93.9790  -77.9360   -9.5930 C.2       1 TRP         0.2022
     86 O          95.0510  -78.0380   -9.0530 O.2       1 TRP        -0.3946
     87 CB         92.1060  -76.8750   -8.2790 C.3       1 TRP         0.0042
     88 CG         92.5660  -77.4170   -6.9250 C.2       1 TRP        -0.0418
     89 CD1        93.1300  -76.6970   -5.8760 C.2       1 TRP         0.0167
     90 CD2        92.5020  -78.7500   -6.5090 C.ar      1 TRP        -0.0214
     91 NE1        93.3910  -77.5500   -4.8760 N.pl3     1 TRP        -0.2890
     92 CE2        93.0250  -78.7930   -5.2240 C.ar      1 TRP         0.0603
     93 CE3        92.0420  -79.9100   -7.1200 C.ar      1 TRP        -0.0747
     94 CZ2        93.0900  -80.0020   -4.5450 C.ar      1 TRP        -0.0443
     95 CZ3        92.1080  -81.1210   -6.4400 C.ar      1 TRP        -0.0792
     96 CH2        92.6320  -81.1640   -5.1520 C.ar      1 TRP        -0.0768
     97 C          95.6740  -79.9440  -11.2240 C.2       1 MK8         0.2263
     98 N          93.4600  -79.0260  -10.4640 N.am      1 MK8        -0.2742
     99 O          96.6540  -80.5340  -10.7940 O.2       1 MK8        -0.3419
    100 CA         94.2650  -80.2660  -10.6820 C.3       1 MK8         0.1302
    101 CB         93.4530  -81.0670  -11.7040 C.3       1 MK8        -0.0201
    102 CD         93.4790  -82.8730  -13.6560 C.3       1 MK8        -0.0531
    103 CE         92.2290  -82.2170  -14.2520 C.3       1 MK8        -0.0531
    104 CG         94.2310  -82.1200  -12.5480 C.3       1 MK8        -0.0516
    105 CB1        94.3040  -81.0070   -9.3620 C.3       1 MK8        -0.0320
    106 N          95.8100  -78.9080  -12.2870 N.am      1 ILE        -0.2626
    107 CA         97.1280  -78.5700  -12.8320 C.3       1 ILE         0.1336
    108 C          97.9650  -77.9610  -11.7090 C.2       1 ILE         0.2043
    109 O          98.9910  -78.5100  -11.3420 O.2       1 ILE        -0.3944
    110 CB         96.8750  -77.6970  -14.1000 C.3       1 ILE        -0.0035
    111 CG1        96.3490  -78.4570  -15.3340 C.3       1 ILE        -0.0491
    112 CG2        98.1230  -76.9430  -14.5090 C.3       1 ILE        -0.0582
    113 CD1        95.0640  -77.9270  -15.9920 C.3       1 ILE        -0.0648
    114 N          97.5370  -76.7160  -11.0820 N.am      1 LYS        -0.2637
    115 CA         98.3130  -76.1060  -10.0040 C.3       1 LYS         0.1310
    116 C          98.8410  -77.0960   -8.9750 C.2       1 LYS         0.2039
    117 O          99.9720  -76.9560   -8.5460 O.2       1 LYS        -0.3944
    118 CB         97.4520  -75.0770   -9.2680 C.3       1 LYS        -0.0122
    119 CG         97.8360  -73.5910   -9.3750 C.3       1 LYS        -0.0440
    120 CD         97.3590  -72.6680   -8.2480 C.3       1 LYS        -0.0124
    121 CE         98.1160  -71.3630   -8.0070 C.3       1 LYS        -0.0354
    122 NZ         97.3530  -70.1420   -7.9400 N.4       1 LYS         0.2185
    123 N          98.0440  -78.1040   -8.6360 N.am      1 LYS        -0.2637
    124 CA         98.4880  -79.1650   -7.7400 C.3       1 LYS         0.1310
    125 C          99.5120  -80.0690   -8.4270 C.2       1 LYS         0.2039
    126 O         100.6390  -80.2140   -7.9540 O.2       1 LYS        -0.3944
    127 CB         97.2960  -79.9930   -7.2570 C.3       1 LYS        -0.0122
    128 CG         97.6670  -81.3740   -6.7420 C.3       1 LYS        -0.0440
    129 CD         97.1050  -82.4670   -7.6370 C.3       1 LYS        -0.0124
    130 CE         97.5830  -83.8410   -7.1970 C.3       1 LYS        -0.0354
    131 NZ         97.7680  -84.7610   -8.3530 N.4       1 LYS         0.2185
    132 N          99.1200  -80.6100   -9.5760 N.am      1 LYS        -0.2637
    133 CA        100.0150  -81.4030  -10.4050 C.3       1 LYS         0.1309
    134 C         101.4160  -80.8000  -10.4640 C.2       1 LYS         0.2033
    135 O         102.3970  -81.4830  -10.1710 O.2       1 LYS        -0.3944
    136 CB         99.4460  -81.5470  -11.8190 C.3       1 LYS        -0.0122
    137 CG         98.8790  -82.9250  -12.1220 C.3       1 LYS        -0.0440
    138 CD         99.4950  -83.9850  -11.2240 C.3       1 LYS        -0.0124
    139 CE        100.4600  -84.8700  -11.9960 C.3       1 LYS        -0.0354
    140 NZ         99.8090  -86.1220  -12.4690 N.4       1 LYS         0.2185
    141 N         101.5180  -79.5270  -10.8440 N.am      1 LYS        -0.2695
    142 CA        102.8490  -78.9000  -10.9490 C.3       1 LYS         0.0944
    143 C         102.7630  -77.4230  -11.2740 C.2       1 LYS         0.0601
    144 O         102.3380  -77.0390  -12.4030 O.co2     1 LYS        -0.5666
    145 CB        103.7550  -79.5290  -12.0010 C.3       1 LYS        -0.0177
    146 CG        105.0900  -80.1120  -11.5650 C.3       1 LYS        -0.0446
    147 CD        105.1770  -81.6270  -11.3780 C.3       1 LYS        -0.0125
    148 CE        105.9150  -82.4330  -12.4200 C.3       1 LYS        -0.0354
    149 NZ        105.2820  -83.6560  -12.8990 N.4       1 LYS         0.2185
    150 OXT       103.1180  -76.5720  -10.4150 O.co2     1 LYS        -0.5666
    151 H          81.6297  -79.2348  -21.4910 H         1 ACE         0.0467
    152 H          82.1998  -77.7513  -22.3281 H         1 ACE         0.0467
    153 H          80.5159  -78.3282  -22.5699 H         1 ACE         0.0467
    154 H          81.8321  -78.9908  -19.6693 H         1 ASN         0.1884
    155 H          79.6522  -77.0663  -18.9304 H         1 ASN         0.0826
    156 H          80.9737  -79.1171  -17.1046 H         1 ASN         0.0551
    157 H          79.4918  -79.3883  -18.0829 H         1 ASN         0.0551
    158 H          78.5736  -78.4954  -14.5598 H         1 ASN         0.1814
    159 H          79.5724  -79.7091  -15.2873 H         1 ASN         0.1814
    160 H          80.2301  -75.0699  -18.6021 H         1 TRP         0.1884
    161 H          82.7334  -74.0413  -18.0392 H         1 TRP         0.0815
    162 H          80.0420  -72.9121  -17.1518 H         1 TRP         0.0397
    163 H          80.7606  -72.7480  -18.7898 H         1 TRP         0.0397
    164 H          82.8977  -71.0879  -19.0220 H         1 TRP         0.0795
    165 H          83.6718  -69.0598  -17.5961 H         1 TRP         0.2216
    166 H          80.1304  -72.0325  -14.8227 H         1 TRP         0.0540
    167 H          83.1331  -68.0473  -15.0217 H         1 TRP         0.0541
    168 H          80.3104  -70.4869  -12.9148 H         1 TRP         0.0510
    169 H          81.7909  -68.5208  -13.0153 H         1 TRP         0.0530
    170 H          80.3754  -75.3001  -15.7310 H         1 PHE         0.1885
    171 H          81.5788  -74.0593  -13.4388 H         1 PHE         0.0823
    172 H          80.1715  -75.8155  -12.1886 H         1 PHE         0.0474
    173 H          79.5677  -76.2940  -13.8113 H         1 PHE         0.0474
    174 H          79.5917  -73.6542  -11.2439 H         1 PHE         0.0557
    175 H          78.1650  -74.7980  -15.0962 H         1 PHE         0.0557
    176 H          77.9561  -71.8210  -11.1773 H         1 PHE         0.0599
    177 H          76.5207  -72.9652  -15.0324 H         1 PHE         0.0599
    178 H          76.4183  -71.4678  -13.0718 H         1 PHE         0.0559
    179 H          82.6366  -76.6423  -15.3142 H         1 ASN         0.1885
    180 H          83.8615  -78.0681  -13.0516 H         1 ASN         0.0826
    181 H          84.7842  -79.5474  -14.9190 H         1 ASN         0.0551
    182 H          83.7809  -78.5759  -16.0487 H         1 ASN         0.0551
    183 H          81.8192  -80.8344  -13.1689 H         1 ASN         0.1814
    184 H          83.3061  -80.0367  -12.7778 H         1 ASN         0.1814
    185 H          84.7952  -75.9167  -15.6565 H         1 ILE         0.1883
    186 H          87.3872  -76.3968  -16.1467 H         1 ILE         0.0803
    187 H          86.2735  -73.6174  -15.5545 H         1 ILE         0.0345
    188 H          84.9011  -74.8752  -17.1468 H         1 ILE         0.0267
    189 H          86.3619  -75.2758  -18.1123 H         1 ILE         0.0267
    190 H          88.7424  -73.6848  -15.6775 H         1 ILE         0.0235
    191 H          88.0275  -72.8273  -17.0847 H         1 ILE         0.0235
    192 H          88.6374  -74.5065  -17.2714 H         1 ILE         0.0235
    193 H          85.0807  -73.4566  -19.1346 H         1 ILE         0.0230
    194 H          86.6975  -72.8904  -18.5943 H         1 ILE         0.0230
    195 H          85.2367  -72.4898  -17.6288 H         1 ILE         0.0230
    196 H          86.3980  -74.5539  -13.2180 H         1 THR         0.1884
    197 H          89.0098  -73.9085  -12.3927 H         1 THR         0.0826
    198 H          87.9240  -74.0238   -9.9834 H         1 THR         0.0639
    199 H          85.6544  -74.1991  -11.7230 H         1 THR         0.2101
    200 H          86.8213  -71.8474  -10.4085 H         1 THR         0.0257
    201 H          86.8744  -72.1635  -12.1759 H         1 THR         0.0257
    202 H          88.4020  -71.9510  -11.2552 H         1 THR         0.0257
    203 H          87.4108  -76.9612  -12.4029 H         1 ASN         0.1885
    204 H          89.1502  -78.2042  -10.4227 H         1 ASN         0.0826
    205 H          87.5713  -79.6286  -12.5971 H         1 ASN         0.0551
    206 H          86.7945  -78.9715  -11.1167 H         1 ASN         0.0551
    207 H          88.3528  -81.3230   -8.8999 H         1 ASN         0.1814
    208 H          87.8467  -79.6703   -9.0123 H         1 ASN         0.1814
    209 H          88.9127  -78.1465  -13.9844 H         1 DIV         0.1839
    210 H          90.7669  -80.1201  -16.0331 H         1 DIV         0.0277
    211 H          90.2939  -80.6068  -14.3699 H         1 DIV         0.0277
    212 H          93.0032  -80.2441  -14.1602 H         1 DIV         0.0265
    213 H          92.8005  -80.9051  -15.8181 H         1 DIV         0.0265
    214 H          91.2767  -77.9983  -16.5781 H         1 DIV         0.0242
    215 H          90.3474  -76.8182  -15.5931 H         1 DIV         0.0242
    216 H          89.5432  -78.2987  -16.2160 H         1 DIV         0.0242
    217 H          91.0178  -76.0269  -13.9156 H         1 LEU         0.1889
    218 H          93.8287  -75.6286  -13.8779 H         1 LEU         0.0802
    219 H          93.3402  -73.5466  -12.8859 H         1 LEU         0.0315
    220 H          91.7873  -74.1547  -12.2188 H         1 LEU         0.0315
    221 H          90.7938  -74.1912  -14.3238 H         1 LEU         0.0298
    222 H          90.7765  -71.8049  -14.9839 H         1 LEU         0.0232
    223 H          92.1927  -71.5286  -13.9141 H         1 LEU         0.0232
    224 H          90.6322  -72.0782  -13.2144 H         1 LEU         0.0232
    225 H          92.6886  -74.9518  -15.6547 H         1 LEU         0.0232
    226 H          93.3174  -73.2693  -15.6701 H         1 LEU         0.0232
    227 H          91.7250  -73.6398  -16.4141 H         1 LEU         0.0232
    228 H          91.6584  -76.0161  -10.7620 H         1 TRP         0.1884
    229 H          93.8466  -75.8924   -9.0186 H         1 TRP         0.0815
    230 H          91.3539  -77.5747   -8.6724 H         1 TRP         0.0397
    231 H          91.6371  -75.8968   -8.0970 H         1 TRP         0.0397
    232 H          93.3254  -75.6257   -5.8690 H         1 TRP         0.0795
    233 H          93.8111  -77.2895   -3.9724 H         1 TRP         0.2216
    234 H          91.6331  -79.8710   -8.1232 H         1 TRP         0.0540
    235 H          93.4981  -80.0390   -3.5414 H         1 TRP         0.0541
    236 H          91.7520  -82.0294   -6.9123 H         1 TRP         0.0510
    237 H          92.6829  -82.1074   -4.6206 H         1 TRP         0.0530
    238 H          92.5681  -78.9279  -10.9055 H         1 MK8         0.1839
    239 H          92.9981  -80.3501  -12.4034 H         1 MK8         0.0277
    240 H          92.6606  -81.5986  -11.1567 H         1 MK8         0.0277
    241 H          94.1884  -83.0345  -14.4810 H         1 MK8         0.0265
    242 H          93.1721  -83.8443  -13.2408 H         1 MK8         0.0265
    243 H          91.8760  -82.8705  -15.0633 H         1 MK8         0.0265
    244 H          91.4716  -82.1800  -13.4551 H         1 MK8         0.0265
    245 H          94.6185  -82.8749  -11.8480 H         1 MK8         0.0265
    246 H          95.0724  -81.5961  -13.0251 H         1 MK8         0.0265
    247 H          94.8895  -81.9310   -9.4774 H         1 MK8         0.0242
    248 H          93.2790  -81.2588   -9.0524 H         1 MK8         0.0242
    249 H          94.7719  -80.3696   -8.5973 H         1 MK8         0.0242
    250 H          94.9959  -78.4400  -12.6309 H         1 ILE         0.1889
    251 H          97.6374  -79.4889  -13.1577 H         1 ILE         0.0805
    252 H          96.1082  -76.9586  -13.8231 H         1 ILE         0.0345
    253 H          96.1588  -79.4958  -15.0264 H         1 ILE         0.0267
    254 H          97.1421  -78.4396  -16.0960 H         1 ILE         0.0267
    255 H          98.5183  -76.3913  -13.6433 H         1 ILE         0.0235
    256 H          97.8763  -76.2347  -15.3137 H         1 ILE         0.0235
    257 H          98.8810  -77.6553  -14.8670 H         1 ILE         0.0235
    258 H          94.8057  -78.5596  -16.8541 H         1 ILE         0.0230
    259 H          95.2252  -76.8931  -16.3312 H         1 ILE         0.0230
    260 H          94.2419  -77.9493  -15.2615 H         1 ILE         0.0230
    261 H          96.6976  -76.2716  -11.3951 H         1 LYS         0.1883
    262 H          99.1738  -75.5939  -10.4586 H         1 LYS         0.0800
    263 H          97.4704  -75.3415   -8.2005 H         1 LYS         0.0312
    264 H          96.4263  -75.1763   -9.6528 H         1 LYS         0.0312
    265 H          97.4189  -73.2071  -10.3177 H         1 LYS         0.0269
    266 H          98.9339  -73.5332   -9.4094 H         1 LYS         0.0269
    267 H          97.4029  -73.2465   -7.3135 H         1 LYS         0.0317
    268 H          96.3141  -72.4021   -8.4659 H         1 LYS         0.0317
    269 H          98.8428  -71.2503   -8.8249 H         1 LYS         0.0813
    270 H          98.6518  -71.4669   -7.0520 H         1 LYS         0.0813
    271 H          97.9751  -69.3655   -7.7781 H         1 LYS         0.1994
    272 H          96.6877  -70.2025   -7.1852 H         1 LYS         0.1994
    273 H          96.8627  -70.0040   -8.8098 H         1 LYS         0.1994
    274 H          97.1152  -78.1356   -9.0052 H         1 LYS         0.1883
    275 H          98.9669  -78.7006   -6.8654 H         1 LYS         0.0800
    276 H          96.5966  -80.1142   -8.0973 H         1 LYS         0.0312
    277 H          96.8002  -79.4429   -6.4437 H         1 LYS         0.0312
    278 H          97.2619  -81.4986   -5.7269 H         1 LYS         0.0269
    279 H          98.7630  -81.4631   -6.7129 H         1 LYS         0.0269
    280 H          97.4336  -82.2876   -8.6713 H         1 LYS         0.0317
    281 H          96.0063  -82.4382   -7.5911 H         1 LYS         0.0317
    282 H          96.8384  -84.2745   -6.5132 H         1 LYS         0.0813
    283 H          98.5434  -83.7321   -6.6720 H         1 LYS         0.0813
    284 H          98.0844  -85.6585   -8.0208 H         1 LYS         0.1994
    285 H          98.4537  -84.3752   -8.9831 H         1 LYS         0.1994
    286 H          96.8912  -84.8722   -8.8376 H         1 LYS         0.1994
    287 H          98.1784  -80.4672   -9.8810 H         1 LYS         0.1883
    288 H         100.0930  -82.4055   -9.9591 H         1 LYS         0.0800
    289 H         100.2516  -81.3390  -12.5385 H         1 LYS         0.0312
    290 H          98.6418  -80.8071  -11.9449 H         1 LYS         0.0312
    291 H          99.0913  -83.1770  -13.1715 H         1 LYS         0.0269
    292 H          97.7909  -82.9080  -11.9618 H         1 LYS         0.0269
    293 H          98.6927  -84.6100  -10.8050 H         1 LYS         0.0317
    294 H         100.0390  -83.4898  -10.4062 H         1 LYS         0.0317
    295 H         101.3029  -85.1336  -11.3402 H         1 LYS         0.0813
    296 H         100.8338  -84.3126  -12.8675 H         1 LYS         0.0813
    297 H         100.4798  -86.6792  -12.9745 H         1 LYS         0.1994
    298 H          99.0383  -85.8913  -13.0763 H         1 LYS         0.1994
    299 H          99.4681  -86.6435  -11.6766 H         1 LYS         0.1994
    300 H         100.6959  -78.9990  -11.0571 H         1 LYS         0.1875
    301 H         103.3355  -79.0129   -9.9689 H         1 LYS         0.0726
    302 H         103.9707  -78.7513  -12.7484 H         1 LYS         0.0305
    303 H         103.1855  -80.3432  -12.4729 H         1 LYS         0.0305
    304 H         105.3534  -79.6467  -10.6037 H         1 LYS         0.0269
    305 H         105.8347  -79.8315  -12.3244 H         1 LYS         0.0269
    306 H         104.1468  -82.0105  -11.3383 H         1 LYS         0.0317
    307 H         105.6733  -81.8087  -10.4133 H         1 LYS         0.0317
    308 H         106.8888  -82.7123  -11.9915 H         1 LYS         0.0813
    309 H         106.0715  -81.7802  -13.2914 H         1 LYS         0.0813
    310 H         105.8750  -84.0943  -13.5862 H         1 LYS         0.1994
    311 H         104.3922  -83.4325  -13.3166 H         1 LYS         0.1994
    312 H         105.1412  -84.2867  -12.1254 H         1 LYS         0.1994
@<TRIPOS>BOND
     1    1    2 2  
     2    1    3 1  
     3    4    1 am 
     4    5    4 1  
     5    6    5 1  
     6    5    8 1  
     7    6    7 2  
     8   12    6 am 
     9    8    9 1  
    10    9   10 2  
    11    9   11 am 
    12   13   12 1  
    13   14   13 1  
    14   13   16 1  
    15   14   15 2  
    16   26   14 am 
    17   16   17 1  
    18   17   18 2  
    19   17   19 1  
    20   18   20 1  
    21   19   21 ar 
    22   19   22 ar 
    23   21   20 1  
    24   21   23 ar 
    25   22   24 ar 
    26   23   25 ar 
    27   24   25 ar 
    28   27   26 1  
    29   28   27 1  
    30   27   30 1  
    31   28   29 2  
    32   37   28 am 
    33   30   31 1  
    34   31   32 ar 
    35   31   33 ar 
    36   32   34 ar 
    37   33   35 ar 
    38   34   36 ar 
    39   35   36 ar 
    40   38   37 1  
    41   39   38 1  
    42   38   41 1  
    43   39   40 2  
    44   45   39 am 
    45   41   42 1  
    46   42   43 2  
    47   42   44 am 
    48   46   45 1  
    49   47   46 1  
    50   46   49 1  
    51   47   48 2  
    52   53   47 am 
    53   49   50 1  
    54   49   51 1  
    55   50   52 1  
    56   54   53 1  
    57   55   54 1  
    58   54   57 1  
    59   55   56 2  
    60   60   55 am 
    61   57   58 1  
    62   57   59 1  
    63   61   60 1  
    64   62   61 1  
    65   61   64 1  
    66   62   63 2  
    67   68   62 am 
    68   64   65 1  
    69   65   66 2  
    70   65   67 am 
    71   69   68 1  
    72   69   70 1  
    73   69   72 1  
    74   73   69 1  
    75   70   71 1  
    76   71  103 1  
    77   73   74 2  
    78   75   73 am 
    79   76   75 1  
    80   77   76 1  
    81   76   79 1  
    82   77   78 2  
    83   83   77 am 
    84   79   80 1  
    85   80   81 1  
    86   80   82 1  
    87   84   83 1  
    88   85   84 1  
    89   84   87 1  
    90   85   86 2  
    91   98   85 am 
    92   87   88 1  
    93   88   89 2  
    94   88   90 1  
    95   89   91 1  
    96   90   92 ar 
    97   90   93 ar 
    98   92   91 1  
    99   92   94 ar 
   100   93   95 ar 
   101   94   96 ar 
   102   95   96 ar 
   103   97   99 2  
   104  100   97 1  
   105   97  106 am 
   106   98  100 1  
   107  100  101 1  
   108  100  105 1  
   109  101  104 1  
   110  103  102 1  
   111  102  104 1  
   112  106  107 1  
   113  107  108 1  
   114  107  110 1  
   115  108  109 2  
   116  108  114 am 
   117  110  111 1  
   118  110  112 1  
   119  111  113 1  
   120  114  115 1  
   121  115  116 1  
   122  115  118 1  
   123  116  117 2  
   124  116  123 am 
   125  118  119 1  
   126  119  120 1  
   127  120  121 1  
   128  121  122 1  
   129  123  124 1  
   130  124  125 1  
   131  124  127 1  
   132  125  126 2  
   133  125  132 am 
   134  127  128 1  
   135  128  129 1  
   136  129  130 1  
   137  130  131 1  
   138  132  133 1  
   139  133  134 1  
   140  133  136 1  
   141  134  135 2  
   142  134  141 am 
   143  136  137 1  
   144  137  138 1  
   145  138  139 1  
   146  139  140 1  
   147  141  142 1  
   148  142  143 1  
   149  142  145 1  
   150  143  144 ar 
   151  143  150 ar 
   152  145  146 1  
   153  146  147 1  
   154  147  148 1  
   155  148  149 1  
   156    3  151 1  
   157    3  152 1  
   158    3  153 1  
   159    4  154 1  
   160    5  155 1  
   161    8  156 1  
   162    8  157 1  
   163   11  158 1  
   164   11  159 1  
   165   12  160 1  
   166   13  161 1  
   167   16  162 1  
   168   16  163 1  
   169   18  164 1  
   170   20  165 1  
   171   22  166 1  
   172   23  167 1  
   173   24  168 1  
   174   25  169 1  
   175   26  170 1  
   176   27  171 1  
   177   30  172 1  
   178   30  173 1  
   179   32  174 1  
   180   33  175 1  
   181   34  176 1  
   182   35  177 1  
   183   36  178 1  
   184   37  179 1  
   185   38  180 1  
   186   41  181 1  
   187   41  182 1  
   188   44  183 1  
   189   44  184 1  
   190   45  185 1  
   191   46  186 1  
   192   49  187 1  
   193   50  188 1  
   194   50  189 1  
   195   51  190 1  
   196   51  191 1  
   197   51  192 1  
   198   52  193 1  
   199   52  194 1  
   200   52  195 1  
   201   53  196 1  
   202   54  197 1  
   203   57  198 1  
   204   58  199 1  
   205   59  200 1  
   206   59  201 1  
   207   59  202 1  
   208   60  203 1  
   209   61  204 1  
   210   64  205 1  
   211   64  206 1  
   212   67  207 1  
   213   67  208 1  
   214   68  209 1  
   215   70  210 1  
   216   70  211 1  
   217   71  212 1  
   218   71  213 1  
   219   72  214 1  
   220   72  215 1  
   221   72  216 1  
   222   75  217 1  
   223   76  218 1  
   224   79  219 1  
   225   79  220 1  
   226   80  221 1  
   227   81  222 1  
   228   81  223 1  
   229   81  224 1  
   230   82  225 1  
   231   82  226 1  
   232   82  227 1  
   233   83  228 1  
   234   84  229 1  
   235   87  230 1  
   236   87  231 1  
   237   89  232 1  
   238   91  233 1  
   239   93  234 1  
   240   94  235 1  
   241   95  236 1  
   242   96  237 1  
   243   98  238 1  
   244  101  239 1  
   245  101  240 1  
   246  102  241 1  
   247  102  242 1  
   248  103  243 1  
   249  103  244 1  
   250  104  245 1  
   251  104  246 1  
   252  105  247 1  
   253  105  248 1  
   254  105  249 1  
   255  106  250 1  
   256  107  251 1  
   257  110  252 1  
   258  111  253 1  
   259  111  254 1  
   260  112  255 1  
   261  112  256 1  
   262  112  257 1  
   263  113  258 1  
   264  113  259 1  
   265  113  260 1  
   266  114  261 1  
   267  115  262 1  
   268  118  263 1  
   269  118  264 1  
   270  119  265 1  
   271  119  266 1  
   272  120  267 1  
   273  120  268 1  
   274  121  269 1  
   275  121  270 1  
   276  122  271 1  
   277  122  272 1  
   278  122  273 1  
   279  123  274 1  
   280  124  275 1  
   281  127  276 1  
   282  127  277 1  
   283  128  278 1  
   284  128  279 1  
   285  129  280 1  
   286  129  281 1  
   287  130  282 1  
   288  130  283 1  
   289  131  284 1  
   290  131  285 1  
   291  131  286 1  
   292  132  287 1  
   293  133  288 1  
   294  136  289 1  
   295  136  290 1  
   296  137  291 1  
   297  137  292 1  
   298  138  293 1  
   299  138  294 1  
   300  139  295 1  
   301  139  296 1  
   302  140  297 1  
   303  140  298 1  
   304  140  299 1  
   305  141  300 1  
   306  142  301 1  
   307  145  302 1  
   308  145  303 1  
   309  146  304 1  
   310  146  305 1  
   311  147  306 1  
   312  147  307 1  
   313  148  308 1  
   314  148  309 1  
   315  149  310 1  
   316  149  311 1  
   317  149  312 1  
@<TRIPOS>SUBSTRUCTURE
     1 ACE         1

