4i1r_ligand
  -I-interpret- 

 52 55  0  0  0  0  0  0  0  0999 V2000
  -28.9170  -13.1650   23.9130 C   0  0  0  0  0
  -29.9090  -19.8230   21.3180 C   0  0  0  0  0
  -27.5770  -12.1240   17.7870 C   0  0  0  0  0
  -26.1820  -11.9450   17.6790 C   0  0  0  0  0
  -32.6390  -13.2430   21.8850 C   0  0  0  0  0
  -32.2090  -12.3470   22.9850 C   0  0  0  0  0
  -31.5610  -13.8190   21.0570 C   0  0  0  0  0
  -28.0530  -13.3290   18.3290 C   0  0  0  0  0
  -25.2980  -12.9410   18.0650 C   0  0  0  0  0
  -25.7950  -19.1670   20.5200 C   0  0  0  0  0
  -25.0050  -18.0850   20.1230 C   0  0  0  0  0
  -29.2510  -14.6600   20.9990 C   0  0  0  0  0
  -31.0580  -12.9110   23.7670 C   0  0  0  0  0
  -29.2080  -15.4370   19.6170 C   0  0  0  0  0
  -27.8300  -17.8570   20.1300 C   0  0  0  0  0
  -30.4000  -14.3770   21.8570 C   0  0  0  0  0
  -27.2120  -19.0750   20.5060 C   0  0  0  0  0
  -27.1440  -14.3480   18.7690 C   0  0  0  0  0
  -27.0370  -16.7180   19.7330 C   0  0  0  0  0
  -25.7920  -14.1850   18.6650 C   0  0  0  0  0
  -25.6770  -16.8210   19.7510 C   0  0  0  0  0
  -29.9790  -13.4090   22.9020 N   0  3  0  0  0
  -27.7510  -15.5700   19.2230 N   0  0  0  0  0
  -28.2720  -20.4300   20.9920 S   0  0  0  0  0
  -24.7670  -15.3730   19.4760 S   0  0  0  0  0
  -28.8919  -12.1043   24.1629 H   0  0  0  0  0
  -29.1308  -13.7460   24.8101 H   0  0  0  0  0
  -27.9523  -13.4663   23.5047 H   0  0  0  0  0
  -29.8692  -19.0883   22.1222 H   0  0  0  0  0
  -30.3082  -19.3565   20.4174 H   0  0  0  0  0
  -30.5507  -20.6530   21.6137 H   0  0  0  0  0
  -28.2675  -11.3473   17.4584 H   0  0  0  0  0
  -25.7919  -11.0066   17.2849 H   0  0  0  0  0
  -33.2460  -12.6340   21.2151 H   0  0  0  0  0
  -33.1441  -14.0855   22.3575 H   0  0  0  0  0
  -33.0505  -12.2224   23.6665 H   0  0  0  0  0
  -31.8869  -11.4034   22.5446 H   0  0  0  0  0
  -31.1678  -13.0158   20.4337 H   0  0  0  0  0
  -31.9928  -14.6463   20.4938 H   0  0  0  0  0
  -29.1272  -13.4922   18.4165 H   0  0  0  0  0
  -24.2270  -12.7984   17.9214 H   0  0  0  0  0
  -25.3182  -20.0921   20.8441 H   0  0  0  0  0
  -23.9189  -18.1705   20.0883 H   0  0  0  0  0
  -28.9875  -13.6534   20.6742 H   0  0  0  0  0
  -28.6872  -15.3436   21.6338 H   0  0  0  0  0
  -31.4305  -13.7492   24.3559 H   0  0  0  0  0
  -30.6501  -12.1129   24.3873 H   0  0  0  0  0
  -29.7640  -14.8931   18.8534 H   0  0  0  0  0
  -29.6705  -16.4192   19.7143 H   0  0  0  0  0
  -28.9172  -17.7790   20.1406 H   0  0  0  0  0
  -30.7410  -15.3039   22.3182 H   0  0  0  0  0
  -29.5094  -13.1785   22.0264 H   0  0  0  0  0
 22  1  1  0  0  0
 24  2  1  0  0  0
  3  4  4  0  0  0
  8  3  4  0  0  0
  9  4  4  0  0  0
  5  6  1  0  0  0
  7  5  1  0  0  0
 13  6  1  0  0  0
 16  7  1  0  0  0
 18  8  4  0  0  0
 20  9  4  0  0  0
 11 10  4  0  0  0
 17 10  4  0  0  0
 21 11  4  0  0  0
 14 12  1  0  0  0
 12 16  1  0  0  0
 22 13  1  0  0  0
 23 14  1  0  0  0
 15 17  4  0  0  0
 19 15  4  0  0  0
 16 22  1  0  0  0
 17 24  1  0  0  0
 18 20  4  0  0  0
 23 18  1  0  0  0
 19 21  4  0  0  0
 19 23  1  0  0  0
 20 25  1  0  0  0
 21 25  1  0  0  0
  1 26  1  0  0  0
  1 27  1  0  0  0
  1 28  1  0  0  0
  2 29  1  0  0  0
  2 30  1  0  0  0
  2 31  1  0  0  0
  3 32  1  0  0  0
  4 33  1  0  0  0
  5 34  1  0  0  0
  5 35  1  0  0  0
  6 36  1  0  0  0
  6 37  1  0  0  0
  7 38  1  0  0  0
  7 39  1  0  0  0
  8 40  1  0  0  0
  9 41  1  0  0  0
 10 42  1  0  0  0
 11 43  1  0  0  0
 12 44  1  0  0  0
 12 45  1  0  0  0
 13 46  1  0  0  0
 13 47  1  0  0  0
 14 48  1  0  0  0
 14 49  1  0  0  0
 15 50  1  0  0  0
 16 51  1  0  0  0
 22 52  1  0  0  0
M  END
$$$$
