1fvt_ligand
  -I-interpret- 

 34 36  0  0  0  0  0  0  0  0999 V2000
   40.5760    9.9930  -15.5280 N   0  0  0  0  0
   39.7040   10.4960  -14.6080 C   0  0  0  0  0
   39.9520    9.8500  -13.2980 C   0  0  0  0  0
   41.7880    8.1020  -12.6060 C   0  0  0  0  0
   42.9280    7.3320  -13.1730 C   0  0  0  0  0
   43.3110    7.4350  -14.6070 C   0  0  0  0  0
   42.5190    8.3170  -15.4840 C   0  0  0  0  0
   41.4110    9.1160  -14.9240 C   0  0  0  0  0
   41.0630    8.9960  -13.5240 C   0  0  0  0  0
   38.8350   11.3520  -14.7510 O   0  0  0  0  0
   39.2210   10.0950  -12.0670 N   0  0  0  0  0
   43.8710    6.1500  -12.0940 Br  0  0  0  0  0
   38.0050   10.3380  -12.0420 N   0  0  0  0  0
   37.2090   10.3250  -10.9450 C   0  0  0  0  0
   36.1770   11.3750  -10.8960 C   0  0  0  0  0
   35.1980   11.3790   -9.8020 C   0  0  0  0  0
   35.2720   10.3560   -8.7280 C   0  0  0  0  0
   36.3170    9.3020   -8.7600 C   0  0  0  0  0
   37.2810    9.2890   -9.8570 C   0  0  0  0  0
   33.8490   10.2290   -7.6860 S   0  0  0  0  0
   32.7720    9.8000   -8.5350 O   0  0  0  0  0
   33.7460   11.5170   -7.0650 O   0  0  0  0  0
   34.0410    9.1420   -6.4690 N   0  0  0  0  0
   40.5957   10.2395  -16.5176 H   0  0  0  0  0
   41.5025    8.0084  -11.5582 H   0  0  0  0  0
   44.1573    6.8716  -15.0001 H   0  0  0  0  0
   42.7519    8.3792  -16.5470 H   0  0  0  0  0
   37.5621   10.5695  -12.9311 H   0  0  0  0  0
   36.1405   12.1443  -11.6673 H   0  0  0  0  0
   34.4138   12.1357   -9.7779 H   0  0  0  0  0
   36.3642    8.5475   -7.9748 H   0  0  0  0  0
   38.0570    8.5242   -9.8874 H   0  0  0  0  0
   34.0648    9.4601   -5.5001 H   0  0  0  0  0
   34.1364    8.1491   -6.6823 H   0  0  0  0  0
  1  8  1  0  0  0
  1  2  1  0  0  0
  2 10  2  0  0  0
  2  3  1  0  0  0
  3 11  2  0  0  0
  3  9  1  0  0  0
  9  8  4  0  0  0
  9  4  4  0  0  0
  4  5  4  0  0  0
  5 12  1  0  0  0
  5  6  4  0  0  0
  6  7  4  0  0  0
  7  8  4  0  0  0
 11 13  1  0  0  0
 13 14  1  0  0  0
 14 19  4  0  0  0
 14 15  4  0  0  0
 15 16  4  0  0  0
 16 17  4  0  0  0
 17 20  1  0  0  0
 17 18  4  0  0  0
 18 19  4  0  0  0
 20 23  1  0  0  0
 20 22  2  0  0  0
 20 21  2  0  0  0
  1 24  1  0  0  0
  4 25  1  0  0  0
  6 26  1  0  0  0
  7 27  1  0  0  0
 13 28  1  0  0  0
 15 29  1  0  0  0
 16 30  1  0  0  0
 18 31  1  0  0  0
 19 32  1  0  0  0
 23 33  1  0  0  0
 23 34  1  0  0  0
M  END
$$$$
