5nxy_ligand
  -I-interpret- 

 21 20  0  0  0  0  0  0  0  0999 V2000
   11.7470  -18.8690    8.1580 C   0  0  0  0  0
   11.2510  -19.5050    9.4550 C   0  0  0  0  0
   12.2620  -17.2480   11.4520 C   0  0  0  0  0
   14.3960  -19.1870   10.0490 C   0  0  0  0  0
   12.4460  -20.3310   12.3190 C   0  0  0  0  0
   12.0540  -17.4790    8.3890 O   0  0  0  0  0
   12.5900  -19.0720   10.8090 As  0  0  0  0  0
   10.9716  -18.9474    7.3959 H   0  0  0  0  0
   12.6443  -19.3873    7.8199 H   0  0  0  0  0
   11.1317  -20.5830    9.3468 H   0  0  0  0  0
   10.2689  -19.1225    9.7331 H   0  0  0  0  0
   11.2621  -17.1900   11.8821 H   0  0  0  0  0
   13.0010  -16.9936   12.2117 H   0  0  0  0  0
   12.3412  -16.5504   10.6182 H   0  0  0  0  0
   15.1280  -18.9287   10.8142 H   0  0  0  0  0
   14.5775  -20.2032    9.6991 H   0  0  0  0  0
   14.4819  -18.4927    9.2131 H   0  0  0  0  0
   12.6318  -21.3447   11.9641 H   0  0  0  0  0
   13.1822  -20.0702   13.0793 H   0  0  0  0  0
   11.4447  -20.2718   12.7456 H   0  0  0  0  0
   12.3655  -17.0813    7.5727 H   0  0  0  0  0
  1  2  1  0  0  0
  1  6  1  0  0  0
  2  7  1  0  0  0
  7  3  1  0  0  0
  7  4  1  0  0  0
  7  5  1  0  0  0
  1  8  1  0  0  0
  1  9  1  0  0  0
  2 10  1  0  0  0
  2 11  1  0  0  0
  3 12  1  0  0  0
  3 13  1  0  0  0
  3 14  1  0  0  0
  4 15  1  0  0  0
  4 16  1  0  0  0
  4 17  1  0  0  0
  5 18  1  0  0  0
  5 19  1  0  0  0
  5 20  1  0  0  0
  6 21  1  0  0  0
M  END
$$$$
