### 
### Created by X-TOOL on Wed Jan  1 15:39:37 2020
### 

@<TRIPOS>MOLECULE
5nxy_ligand
   21    20     1     0     0
SMALL
GAST_HUCK


@<TRIPOS>ATOM
      1 C4         11.7470  -18.8690    8.1580 C.3       1 1Y8        -0.0826
      2 C5         11.2510  -19.5050    9.4550 C.3       1 1Y8        -0.3210
      3 C6         12.2620  -17.2480   11.4520 C.3       1 1Y8        -0.3603
      4 C7         14.3960  -19.1870   10.0490 C.3       1 1Y8        -0.3603
      5 C8         12.4460  -20.3310   12.3190 C.3       1 1Y8        -0.3603
      6 O6         12.0540  -17.4790    8.3890 O.3       1 1Y8        -0.4267
      7 AS1        12.5900  -19.0720   10.8090 As        1 1Y8         4.0000
      8 H1         10.9650  -18.9484    7.3885 H         1 1Y8         0.0204
      9 H2         12.6522  -19.3922    7.8162 H         1 1Y8         0.0204
     10 H3         15.4947  -19.1349   10.0381 H         1 1Y8        -0.2132
     11 H4         14.0072  -18.9370    9.0509 H         1 1Y8        -0.2132
     12 H5         14.0023  -18.4713   10.7857 H         1 1Y8        -0.2132
     13 H6         10.1913  -19.2513    9.6059 H         1 1Y8        -0.2081
     14 H8         11.3613  -20.5977    9.3931 H         1 1Y8        -0.2081
     15 H9         13.1383  -17.5045   12.0655 H         1 1Y8        -0.2132
     16 H10        12.5961  -16.8900   10.4670 H         1 1Y8        -0.2132
     17 H11        11.6829  -16.4578   11.9522 H         1 1Y8        -0.2132
     18 H14        11.4116  -19.9697   12.4167 H         1 1Y8        -0.2132
     19 H15        12.4903  -21.3950   12.5947 H         1 1Y8        -0.2132
     20 H16        13.1012  -19.7517   12.9861 H         1 1Y8        -0.2132
     21 H18        12.3623  -17.0854    7.5811 H         1 1Y8         0.2058
@<TRIPOS>BOND
     1    1    2 1  
     2    1    6 1  
     3    2    7 1  
     4    7    3 1  
     5    7    4 1  
     6    7    5 1  
     7    1    8 1  
     8    1    9 1  
     9    4   10 1  
    10    4   11 1  
    11    4   12 1  
    12    2   13 1  
    13    2   14 1  
    14    3   15 1  
    15    3   16 1  
    16    3   17 1  
    17    5   18 1  
    18    5   19 1  
    19    5   20 1  
    20    6   21 1  
@<TRIPOS>SUBSTRUCTURE
     1 1Y8         1

