3pd9_ligand
  -I-interpret- 

 22 23  0  0  0  0  0  0  0  0999 V2000
   57.2580   27.2210   47.1710 N   0  0  0  0  0
   58.4660   27.7040   46.4810 O   0  0  0  0  0
   58.3340   27.3610   45.1770 C   0  0  0  0  0
   59.3880   27.6900   44.1780 C   0  0  0  0  0
   59.2440   26.6440   43.1010 N   0  3  0  0  0
   57.8430   26.7450   42.5430 C   0  0  0  0  0
   57.8150   26.1130   41.1300 C   0  0  0  0  0
   56.6760   25.7920   40.7560 O   0  0  0  0  0
   58.9150   25.9990   40.5230 O   0  0  0  0  0
   56.8270   26.1740   43.5650 C   0  0  0  0  0
   57.1940   26.6850   44.9240 C   0  0  0  0  0
   56.5080   26.6020   46.2160 C   0  0  0  0  0
   55.4020   26.0390   46.4390 O   0  0  0  0  0
   57.0297   27.3277   48.1594 H   0  0  0  0  0
   60.3834   27.6787   44.6220 H   0  0  0  0  0
   59.2682   28.6981   43.7811 H   0  0  0  0  0
   59.4051   25.7138   43.4871 H   0  0  0  0  0
   59.9310   26.7987   42.3631 H   0  0  0  0  0
   57.5320   27.7800   42.4009 H   0  0  0  0  0
   59.6216   26.3391   41.0768 H   0  0  0  0  0
   56.8559   25.0844   43.5537 H   0  0  0  0  0
   55.8166   26.4901   43.3058 H   0  0  0  0  0
  1  2  1  0  0  0
  1 12  1  0  0  0
  2  3  1  0  0  0
  3  4  1  0  0  0
  3 11  2  0  0  0
  4  5  1  0  0  0
  5  6  1  0  0  0
  6  7  1  0  0  0
  6 10  1  0  0  0
  7  8  2  0  0  0
  7  9  1  0  0  0
 10 11  1  0  0  0
 11 12  1  0  0  0
 12 13  2  0  0  0
  1 14  1  0  0  0
  4 15  1  0  0  0
  4 16  1  0  0  0
  5 17  1  0  0  0
  5 18  1  0  0  0
  6 19  1  0  0  0
  9 20  1  0  0  0
 10 21  1  0  0  0
 10 22  1  0  0  0
M  END
$$$$
