5m4q_ligand
  -I-interpret- 

 18 18  0  0  0  0  0  0  0  0999 V2000
   22.2300    4.2870   77.6950 N   0  3  0  0  0
   22.3940    3.1030   78.5470 C   0  0  0  0  0
   23.3730    3.3340   79.6990 C   0  0  0  0  0
   24.2150    4.2370   79.6450 O   0  0  0  0  0
   22.9260    2.0310   77.5790 C   0  0  0  0  0
   23.2560    2.7460   76.3010 C   0  0  0  0  0
   22.4060    3.9680   76.2710 C   0  0  0  0  0
   23.3290    2.6240   80.7120 O   0  0  0  0  0
   22.9391    4.9711   77.9590 H   0  0  0  0  0
   21.2848    4.6470   77.8271 H   0  0  0  0  0
   21.4599    2.8238   79.0344 H   0  0  0  0  0
   22.1841    1.2502   77.4117 H   0  0  0  0  0
   23.8050    1.5335   77.9888 H   0  0  0  0  0
   23.0598    2.1120   75.4364 H   0  0  0  0  0
   24.3141    3.0046   76.2596 H   0  0  0  0  0
   22.8610    4.7840   75.7096 H   0  0  0  0  0
   21.4592    3.8101   75.7545 H   0  0  0  0  0
   22.6324    1.9708   80.6136 H   0  0  0  0  0
  1  2  1  0  0  0
  1  7  1  0  0  0
  2  3  1  0  0  0
  2  5  1  0  0  0
  3  4  2  0  0  0
  3  8  1  0  0  0
  5  6  1  0  0  0
  6  7  1  0  0  0
  1  9  1  0  0  0
  1 10  1  0  0  0
  2 11  1  0  0  0
  5 12  1  0  0  0
  5 13  1  0  0  0
  6 14  1  0  0  0
  6 15  1  0  0  0
  7 16  1  0  0  0
  7 17  1  0  0  0
  8 18  1  0  0  0
M  END
$$$$
