4djq_ligand
  -I-interpret- 

 80 82  0  0  0  0  0  0  0  0999 V2000
   -8.1590   -2.3030  -14.1170 O   0  0  0  0  0
   -7.3710   -3.3730  -14.6280 S   0  0  0  0  0
   -6.7960   -4.2250  -13.6000 O   0  0  0  0  0
   -8.2690   -4.2950  -15.6490 C   0  0  0  0  0
   -9.2550   -3.7150  -16.4510 C   0  0  0  0  0
   -9.9880   -4.4930  -17.3600 C   0  0  0  0  0
   -8.0450   -5.6690  -15.7850 C   0  0  0  0  0
   -8.7710   -6.4470  -16.6910 C   0  0  0  0  0
   -9.7520   -5.8520  -17.4840 C   0  0  0  0  0
  -10.4760   -6.5740  -18.4060 O   0  0  0  0  0
  -10.0910   -7.9340  -18.6570 C   0  0  0  0  0
   -6.0830   -2.7400  -15.3950 N   0  0  0  0  0
   -5.3110   -3.7560  -16.1620 C   0  0  0  0  0
   -3.8070   -3.4620  -16.1810 C   0  0  0  0  0
   -3.1840   -3.4540  -14.7870 C   0  0  0  0  0
   -3.0910   -4.4400  -17.1290 C   0  0  0  0  0
   -3.2490   -5.8830  -16.7340 C   0  0  0  0  0
   -6.3600   -1.5050  -16.1660 C   0  0  0  0  0
   -5.4540   -0.3950  -15.6030 C   0  0  0  0  0
   -5.5240    0.7600  -16.4640 O   0  0  0  0  0
   -5.8100    0.0360  -14.1730 C   0  0  0  0  0
   -7.1370    0.8010  -14.0470 C   0  0  0  0  0
   -7.4020    1.1200  -12.5850 C   0  0  0  0  0
   -7.8910    0.1330  -11.7350 C   0  0  0  0  0
   -8.1300    0.4240  -10.3920 C   0  0  0  0  0
   -7.8780    1.6950   -9.8910 C   0  0  0  0  0
   -7.3870    2.6800  -10.7380 C   0  0  0  0  0
   -7.1550    2.3960  -12.0810 C   0  0  0  0  0
   -4.7520    0.8960  -13.6600 N   0  0  0  0  0
   -3.8710    0.5570  -12.7310 C   0  0  0  0  0
   -3.7370   -0.5290  -12.2020 O   0  0  0  0  0
   -3.0190    1.6460  -12.3160 O   0  0  0  0  0
   -2.0510    1.4940  -11.2680 C   0  0  0  0  0
   -1.7670    2.8880  -10.7090 C   0  0  0  0  0
   -2.9900    3.3650  -10.0260 N   0  0  0  0  0
   -2.8470    3.6220   -8.5750 C   0  0  0  0  0
   -3.7300    4.4840  -10.5130 C   0  0  0  0  0
   -3.7090    4.9140  -11.6540 O   0  0  0  0  0
   -4.4530    5.0010   -9.5320 N   0  0  0  0  0
   -4.1350    4.3900   -8.2590 C   0  0  0  0  0
   -9.4570   -2.6470  -16.3697 H   0  0  0  0  0
  -10.7532   -4.0215  -17.9767 H   0  0  0  0  0
   -7.2836   -6.1458  -15.1677 H   0  0  0  0  0
   -8.5713   -7.5150  -16.7776 H   0  0  0  0  0
   -9.0647   -7.9580  -19.0234 H   0  0  0  0  0
  -10.1616   -8.5068  -17.7323 H   0  0  0  0  0
  -10.7555   -8.3662  -19.4052 H   0  0  0  0  0
   -5.6686   -3.7422  -17.1916 H   0  0  0  0  0
   -5.4578   -4.7228  -15.6805 H   0  0  0  0  0
   -3.6740   -2.4494  -16.5619 H   0  0  0  0  0
   -3.6647   -2.6868  -14.1800 H   0  0  0  0  0
   -3.3259   -4.4293  -14.3214 H   0  0  0  0  0
   -2.1182   -3.2402  -14.8680 H   0  0  0  0  0
   -2.0268   -4.2065  -17.0978 H   0  0  0  0  0
   -3.5336   -4.3208  -18.1179 H   0  0  0  0  0
   -2.8355   -6.0327  -15.7366 H   0  0  0  0  0
   -4.3072   -6.1443  -16.7330 H   0  0  0  0  0
   -2.7183   -6.5138  -17.4472 H   0  0  0  0  0
   -7.4092   -1.2246  -16.0727 H   0  0  0  0  0
   -6.1560   -1.6630  -17.2250 H   0  0  0  0  0
   -4.4478   -0.8124  -15.5667 H   0  0  0  0  0
   -4.9594    1.4532  -16.1142 H   0  0  0  0  0
   -5.9183   -0.8875  -13.6043 H   0  0  0  0  0
   -7.9485    0.1869  -14.4374 H   0  0  0  0  0
   -7.0766    1.7288  -14.6158 H   0  0  0  0  0
   -8.0874   -0.8681  -12.1188 H   0  0  0  0  0
   -8.5172   -0.3513   -9.7309 H   0  0  0  0  0
   -8.0644    1.9176   -8.8404 H   0  0  0  0  0
   -7.1828    3.6780  -10.3503 H   0  0  0  0  0
   -6.7780    3.1761  -12.7424 H   0  0  0  0  0
   -4.6841    1.8368  -14.0483 H   0  0  0  0  0
   -1.1371    1.0412  -11.6525 H   0  0  0  0  0
   -2.4320    0.8372  -10.4860 H   0  0  0  0  0
   -1.4963    3.5692  -11.5157 H   0  0  0  0  0
   -0.9343    2.8495  -10.0067 H   0  0  0  0  0
   -1.9420    4.1741   -8.3215 H   0  0  0  0  0
   -2.7307    2.7129   -7.9850 H   0  0  0  0  0
   -5.1472    5.7377   -9.6575 H   0  0  0  0  0
   -4.0142    5.1154   -7.4545 H   0  0  0  0  0
   -4.9324    3.7507   -7.8801 H   0  0  0  0  0
  1  2  2  0  0  0
  2  3  2  0  0  0
  2  4  1  0  0  0
  2 12  1  0  0  0
  4  5  4  0  0  0
  4  7  4  0  0  0
  5  6  4  0  0  0
  6  9  4  0  0  0
  7  8  4  0  0  0
  8  9  4  0  0  0
  9 10  1  0  0  0
 10 11  1  0  0  0
 12 13  1  0  0  0
 12 18  1  0  0  0
 13 14  1  0  0  0
 14 15  1  0  0  0
 14 16  1  0  0  0
 16 17  1  0  0  0
 18 19  1  0  0  0
 19 20  1  0  0  0
 19 21  1  0  0  0
 21 22  1  0  0  0
 21 29  1  0  0  0
 22 23  1  0  0  0
 23 24  4  0  0  0
 23 28  4  0  0  0
 24 25  4  0  0  0
 25 26  4  0  0  0
 26 27  4  0  0  0
 27 28  4  0  0  0
 29 30  1  0  0  0
 30 31  2  0  0  0
 30 32  1  0  0  0
 32 33  1  0  0  0
 33 34  1  0  0  0
 34 35  1  0  0  0
 35 36  1  0  0  0
 35 37  1  0  0  0
 36 40  1  0  0  0
 37 38  2  0  0  0
 37 39  1  0  0  0
 39 40  1  0  0  0
  5 41  1  0  0  0
  6 42  1  0  0  0
  7 43  1  0  0  0
  8 44  1  0  0  0
 11 45  1  0  0  0
 11 46  1  0  0  0
 11 47  1  0  0  0
 13 48  1  0  0  0
 13 49  1  0  0  0
 14 50  1  0  0  0
 15 51  1  0  0  0
 15 52  1  0  0  0
 15 53  1  0  0  0
 16 54  1  0  0  0
 16 55  1  0  0  0
 17 56  1  0  0  0
 17 57  1  0  0  0
 17 58  1  0  0  0
 18 59  1  0  0  0
 18 60  1  0  0  0
 19 61  1  0  0  0
 20 62  1  0  0  0
 21 63  1  0  0  0
 22 64  1  0  0  0
 22 65  1  0  0  0
 24 66  1  0  0  0
 25 67  1  0  0  0
 26 68  1  0  0  0
 27 69  1  0  0  0
 28 70  1  0  0  0
 29 71  1  0  0  0
 33 72  1  0  0  0
 33 73  1  0  0  0
 34 74  1  0  0  0
 34 75  1  0  0  0
 36 76  1  0  0  0
 36 77  1  0  0  0
 39 78  1  0  0  0
 40 79  1  0  0  0
 40 80  1  0  0  0
M  END
$$$$
