1hsg_ligand
  -I-interpret- 

 94 98  0  0  0  0  0  0  0  0999 V2000
    9.2800   23.7630    3.0040 N   0  3  0  0  0
    9.4980   23.9830    4.4590 C   0  0  0  0  0
   10.5910   24.9050    4.9620 C   0  0  0  0  0
   10.5910   24.8640    6.4660 C   0  0  0  0  0
   10.9370   23.8490    7.0570 O   0  0  0  0  0
   10.1930   25.9530    7.0940 N   0  0  0  0  0
   10.1450   26.2500    8.4900 C   0  0  0  0  0
    9.3790   27.5770    8.6410 C   0  0  0  0  0
   11.3980   26.3470    9.0740 C   0  0  0  0  0
    9.3640   25.2830    9.2680 C   0  0  0  0  0
   11.8190   24.2820    4.3550 N   0  3  0  0  0
   11.7530   23.7760    2.9610 C   0  0  0  0  0
   10.4400   23.1820    2.4930 C   0  0  0  0  0
   13.0830   24.9630    4.5520 C   0  0  0  0  0
   14.2030   24.0640    5.0780 C   0  0  0  0  0
   15.2420   24.8840    4.6340 O   0  0  0  0  0
   14.4400   23.7610    6.5690 C   0  0  0  0  0
   15.5730   22.8210    7.0050 C   0  0  0  0  0
   15.6440   22.6640    8.5340 C   0  0  0  0  0
   16.7330   21.7500    8.9610 C   0  0  0  0  0
   18.0580   21.9160    8.5530 C   0  0  0  0  0
   19.0370   21.0160    8.9470 C   0  0  0  0  0
   18.6730   19.9390    9.7580 C   0  0  0  0  0
   17.3470   19.7730   10.1760 C   0  0  0  0  0
   16.3740   20.6870    9.7720 C   0  0  0  0  0
   15.4470   21.4400    6.3730 C   0  0  0  0  0
   14.3670   20.8310    6.3970 O   0  0  0  0  0
   16.5830   20.9130    5.9240 N   0  0  0  0  0
   16.6920   19.5000    5.6040 C   0  0  0  0  0
   18.0670   18.9450    5.9360 C   0  0  0  0  0
   19.0610   19.9380    5.7290 O   0  0  0  0  0
   18.2260   17.7260    5.0570 C   0  0  0  0  0
   17.4760   17.9040    3.7600 C   0  0  0  0  0
   17.5000   17.3630    2.4960 C   0  0  0  0  0
   16.6130   17.8720    1.5410 C   0  0  0  0  0
   15.7220   18.9060    1.8650 C   0  0  0  0  0
   15.6830   19.4790    3.1290 C   0  0  0  0  0
   16.5040   19.0610    4.1280 C   0  0  0  0  0
    8.0330   23.1000    2.6040 C   0  0  0  0  0
    6.6660   23.7390    2.8760 C   0  0  0  0  0
    6.1580   24.8080    2.1240 C   0  0  0  0  0
    4.9110   25.4300    2.3000 N   0  0  0  0  0
    4.2070   24.8390    3.3480 C   0  0  0  0  0
    4.6540   23.7740    4.1360 C   0  0  0  0  0
    5.9050   23.2110    3.8970 C   0  0  0  0  0
    9.1170   24.6740    2.5752 H   0  0  0  0  0
    9.7922   23.0015    4.8307 H   0  0  0  0  0
    8.5775   24.4627    4.7917 H   0  0  0  0  0
   10.4957   25.9579    4.6967 H   0  0  0  0  0
    9.8672   26.7036    6.4850 H   0  0  0  0  0
    8.3694   27.4591    8.2473 H   0  0  0  0  0
    9.3297   27.8486    9.6955 H   0  0  0  0  0
    9.8974   28.3594    8.0868 H   0  0  0  0  0
   11.2919   26.6861   10.1045 H   0  0  0  0  0
   11.8808   25.3699    9.0596 H   0  0  0  0  0
   12.0034   27.0611    8.5157 H   0  0  0  0  0
    9.8661   24.3157    9.2521 H   0  0  0  0  0
    9.2772   25.6319   10.2970 H   0  0  0  0  0
    8.3702   25.1852    8.8311 H   0  0  0  0  0
   11.8013   23.4607    4.9596 H   0  0  0  0  0
   12.4773   22.9631    2.9097 H   0  0  0  0  0
   11.9248   24.6447    2.3254 H   0  0  0  0  0
   10.4056   23.3353    1.4144 H   0  0  0  0  0
   10.4366   22.1472    2.8355 H   0  0  0  0  0
   12.9171   25.7404    5.2978 H   0  0  0  0  0
   13.4014   25.3385    3.5795 H   0  0  0  0  0
   14.0289   23.0372    4.7565 H   0  0  0  0  0
   16.0840   24.4886    4.8714 H   0  0  0  0  0
   13.5311   23.2495    6.8859 H   0  0  0  0  0
   14.7123   24.7253    6.9980 H   0  0  0  0  0
   16.4921   23.2909    6.6549 H   0  0  0  0  0
   14.6980   22.2420    8.8733 H   0  0  0  0  0
   15.8407   23.6459    8.9644 H   0  0  0  0  0
   18.3256   22.7611    7.9187 H   0  0  0  0  0
   20.0715   21.1469    8.6295 H   0  0  0  0  0
   19.4300   19.2192   10.0693 H   0  0  0  0  0
   17.0761   18.9324   10.8149 H   0  0  0  0  0
   15.3392   20.5653   10.0922 H   0  0  0  0  0
   17.3970   21.5154    5.8015 H   0  0  0  0  0
   15.8640   19.1211    6.2030 H   0  0  0  0  0
   18.1774   18.6598    6.9822 H   0  0  0  0  0
   19.9237   19.5749    5.9421 H   0  0  0  0  0
   17.8243   16.8585    5.5807 H   0  0  0  0  0
   19.2842   17.5857    4.8363 H   0  0  0  0  0
   18.1917   16.5589    2.2447 H   0  0  0  0  0
   16.6143   17.4597    0.5320 H   0  0  0  0  0
   15.0379   19.2715    1.0992 H   0  0  0  0  0
   14.9757   20.2848    3.3251 H   0  0  0  0  0
    8.0187   22.1884    3.2014 H   0  0  0  0  0
    8.0931   23.0650    1.5162 H   0  0  0  0  0
    6.7921   25.1935    1.3257 H   0  0  0  0  0
    3.2201   25.2432    3.5732 H   0  0  0  0  0
    4.0242   23.3851    4.9361 H   0  0  0  0  0
    6.2710   22.3789    4.4984 H   0  0  0  0  0
  1 39  1  0  0  0
  1 13  1  0  0  0
  1  2  1  0  0  0
  2  3  1  0  0  0
  3 11  1  0  0  0
  3  4  1  0  0  0
  4  6  1  0  0  0
  4  5  2  0  0  0
  6  7  1  0  0  0
  7 10  1  0  0  0
  7  9  1  0  0  0
  7  8  1  0  0  0
 11 14  1  0  0  0
 11 12  1  0  0  0
 12 13  1  0  0  0
 14 15  1  0  0  0
 15 17  1  0  0  0
 15 16  1  0  0  0
 17 18  1  0  0  0
 18 26  1  0  0  0
 18 19  1  0  0  0
 19 20  1  0  0  0
 20 25  4  0  0  0
 20 21  4  0  0  0
 21 22  4  0  0  0
 22 23  4  0  0  0
 23 24  4  0  0  0
 24 25  4  0  0  0
 26 28  1  0  0  0
 26 27  2  0  0  0
 28 29  1  0  0  0
 29 38  1  0  0  0
 29 30  1  0  0  0
 30 32  1  0  0  0
 30 31  1  0  0  0
 32 33  1  0  0  0
 33 38  4  0  0  0
 33 34  4  0  0  0
 34 35  4  0  0  0
 35 36  4  0  0  0
 36 37  4  0  0  0
 37 38  4  0  0  0
 39 40  1  0  0  0
 40 45  4  0  0  0
 40 41  4  0  0  0
 41 42  4  0  0  0
 42 43  4  0  0  0
 43 44  4  0  0  0
 44 45  4  0  0  0
  1 46  1  0  0  0
  2 47  1  0  0  0
  2 48  1  0  0  0
  3 49  1  0  0  0
  6 50  1  0  0  0
  8 51  1  0  0  0
  8 52  1  0  0  0
  8 53  1  0  0  0
  9 54  1  0  0  0
  9 55  1  0  0  0
  9 56  1  0  0  0
 10 57  1  0  0  0
 10 58  1  0  0  0
 10 59  1  0  0  0
 11 60  1  0  0  0
 12 61  1  0  0  0
 12 62  1  0  0  0
 13 63  1  0  0  0
 13 64  1  0  0  0
 14 65  1  0  0  0
 14 66  1  0  0  0
 15 67  1  0  0  0
 16 68  1  0  0  0
 17 69  1  0  0  0
 17 70  1  0  0  0
 18 71  1  0  0  0
 19 72  1  0  0  0
 19 73  1  0  0  0
 21 74  1  0  0  0
 22 75  1  0  0  0
 23 76  1  0  0  0
 24 77  1  0  0  0
 25 78  1  0  0  0
 28 79  1  0  0  0
 29 80  1  0  0  0
 30 81  1  0  0  0
 31 82  1  0  0  0
 32 83  1  0  0  0
 32 84  1  0  0  0
 34 85  1  0  0  0
 35 86  1  0  0  0
 36 87  1  0  0  0
 37 88  1  0  0  0
 39 89  1  0  0  0
 39 90  1  0  0  0
 41 91  1  0  0  0
 43 92  1  0  0  0
 44 93  1  0  0  0
 45 94  1  0  0  0
M  END
$$$$
