1o9k_ligand
  -I-interpret- 

288291  0  0  0  0  0  0  0  0999 V2000
   20.8840  143.9390   31.2440 N   0  3  0  0  0
   22.1450  144.7450   31.2750 C   0  0  0  0  0
   22.9540  144.5830   29.9780 C   0  0  0  0  0
   22.4010  144.7380   28.8810 O   0  0  0  0  0
   22.9880  144.4120   32.5230 C   0  0  0  0  0
   23.4260  142.9780   32.8570 C   0  0  0  0  0
   24.4040  142.9770   34.0300 C   0  0  0  0  0
   22.2410  142.0700   33.1580 C   0  0  0  0  0
   24.2490  144.2770   30.1070 N   0  0  0  0  0
   25.1370  144.1150   28.9460 C   0  0  0  0  0
   25.4750  145.4690   28.2950 C   0  0  0  0  0
   26.0370  145.5380   27.2030 O   0  0  0  0  0
   24.5100  143.1630   27.9250 C   0  0  0  0  0
   25.4960  142.6980   26.8770 C   0  0  0  0  0
   25.7350  143.4520   25.9100 O   0  0  0  0  0
   26.0770  141.5900   26.9340 O   0  0  0  0  0
   25.1150  146.5460   28.9780 N   0  0  0  0  0
   25.3790  147.8920   28.4920 C   0  0  0  0  0
   26.4510  148.4570   29.3960 C   0  0  0  0  0
   26.4000  148.2510   30.6020 O   0  0  0  0  0
   24.1030  148.7370   28.5670 C   0  0  0  0  0
   24.3010  150.2040   28.2640 C   0  0  0  0  0
   24.3870  150.6530   26.9560 C   0  0  0  0  0
   24.3840  151.1480   29.2880 C   0  0  0  0  0
   24.5600  151.9840   26.6720 C   0  0  0  0  0
   24.5590  152.4830   29.0080 C   0  0  0  0  0
   24.6500  152.8960   27.6940 C   0  0  0  0  0
   24.8330  154.2340   27.3830 O   0  0  0  0  0
   27.4260  149.1510   28.8220 N   0  0  0  0  0
   28.5340  149.7110   29.5980 C   0  0  0  0  0
   28.1770  151.0550   30.2550 C   0  0  0  0  0
   28.0410  152.0600   29.5690 O   0  0  0  0  0
   29.7690  149.8710   28.6920 C   0  0  0  0  0
   30.9360  150.5520   29.3450 C   0  0  0  0  0
   31.4010  150.2110   30.5980 N   0  0  0  0  0
   31.7390  151.5500   28.9110 C   0  0  0  0  0
   32.4360  150.9720   30.9090 C   0  0  0  0  0
   32.6630  151.7920   29.9000 N   0  0  0  0  0
   28.0090  151.0650   31.5760 N   0  0  0  0  0
   27.7640  152.3170   32.2940 C   0  0  0  0  0
   29.1030  152.8760   32.7490 C   0  0  0  0  0
   29.7320  152.3210   33.6500 O   0  0  0  0  0
   26.8720  152.1020   33.5080 C   0  0  0  0  0
   25.4760  151.7110   33.1700 C   0  0  0  0  0
   25.1600  150.3880   32.9260 C   0  0  0  0  0
   24.4660  152.6660   33.1020 C   0  0  0  0  0
   23.8660  150.0200   32.6200 C   0  0  0  0  0
   23.1770  152.3010   32.7990 C   0  0  0  0  0
   22.8750  150.9810   32.5570 C   0  0  0  0  0
   29.5370  153.9710   32.1330 N   0  0  0  0  0
   30.8330  154.5480   32.4400 C   0  0  0  0  0
   30.8110  155.5550   33.5720 C   0  0  0  0  0
   31.8560  155.9160   34.1050 O   0  0  0  0  0
   29.6260  156.0340   33.9260 N   0  0  0  0  0
   29.5180  156.9560   35.0420 C   0  0  0  0  0
   29.7900  156.2050   36.3340 C   0  0  0  0  0
   29.4110  155.0420   36.4830 O   0  0  0  0  0
   28.1330  157.5950   35.1060 C   0  0  0  0  0
   27.8130  158.6830   34.0790 C   0  0  0  0  0
   26.3480  159.0930   34.2040 C   0  0  0  0  0
   28.7340  159.8730   34.2480 C   0  0  0  0  0
   30.4600  156.8830   37.2590 N   0  0  0  0  0
   30.7510  156.3320   38.5720 C   0  0  0  0  0
   29.8070  156.9480   39.5990 C   0  0  0  0  0
   29.2720  158.0270   39.3680 O   0  0  0  0  0
   32.2000  156.6280   38.9230 C   0  0  0  0  0
   33.1610  156.0750   37.8870 C   0  0  0  0  0
   34.6120  156.3000   38.2530 C   0  0  0  0  0
   34.9420  157.4410   38.6380 O   0  0  0  0  0
   35.4150  155.3390   38.1480 O   0  0  0  0  0
   29.6060  156.2680   40.7290 N   0  0  0  0  0
   28.6790  156.7330   41.7790 C   0  0  0  0  0
   28.7960  158.2260   42.1160 C   0  0  0  0  0
   27.8050  158.9190   42.3140 O   0  0  0  0  0
   28.7930  155.8700   43.0480 C   0  0  0  0  0
   28.1930  154.4640   42.9080 C   0  0  0  0  0
   28.0090  153.7470   44.2460 C   0  0  0  0  0
   27.6760  154.4130   45.2530 O   0  0  0  0  0
   28.1880  152.5120   44.2910 O   0  0  0  0  0
   30.0060  158.7440   42.1660 N   0  0  0  0  0
   30.1350  160.1610   42.4310 C   0  0  0  0  0
   29.8790  161.0500   41.2180 C   0  0  0  0  0
   30.1900  162.2480   41.2540 O   0  0  0  0  0
   29.3360  160.4800   40.1430 N   0  0  0  0  0
   29.0610  161.2550   38.9290 C   0  0  0  0  0
   27.5880  161.2290   38.5250 C   0  0  0  0  0
   26.8900  160.2320   38.6780 O   0  0  0  0  0
   29.9220  160.7650   37.7520 C   0  0  0  0  0
   31.3440  161.3280   37.7030 C   0  0  0  0  0
   32.3150  160.4580   36.9040 C   0  0  0  0  0
   33.3180  161.0120   36.3930 O   0  0  0  0  0
   32.0790  159.2210   36.8040 O   0  0  0  0  0
   27.1110  162.3360   37.9920 N   0  0  0  0  0
   25.7380  162.3770   37.5480 C   0  0  0  0  0
   25.5640  163.3420   36.4040 C   0  0  0  0  0
   26.4060  164.2110   36.1710 O   0  0  0  0  0
   24.4480  163.1990   35.7060 N   0  0  0  0  0
   24.1410  164.0300   34.5520 C   0  0  0  0  0
   24.5250  165.5000   34.7550 C   0  0  0  0  0
   24.8990  166.1920   33.8140 O   0  0  0  0  0
   22.6470  163.9300   34.2240 C   0  0  0  0  0
   22.3250  164.7350   32.9610 C   0  0  0  0  0
   21.8370  164.4400   35.3900 C   0  0  0  0  0
   23.0060  164.2150   31.6980 C   0  0  0  0  0
   24.4420  165.9790   35.9830 N   0  0  0  0  0
   24.7160  167.3770   36.2370 C   0  0  0  0  0
   26.1890  167.7760   36.0640 C   0  0  0  0  0
   26.4950  168.9290   35.7600 O   0  0  0  0  0
   24.1800  167.7520   37.6130 C   0  0  0  0  0
   24.5160  169.1340   38.0800 C   0  0  0  0  0
   25.6800  169.1500   39.0260 C   0  0  0  0  0
   25.4510  170.1200   40.0810 N   0  0  0  0  0
   26.0730  170.1150   41.2460 C   0  0  0  0  0
   26.9840  169.1880   41.5220 N   0  0  0  0  0
   25.7830  171.0530   42.1330 N   0  0  0  0  0
   27.1000  166.8260   36.2430 N   0  0  0  0  0
   28.5140  167.1110   36.0710 C   0  0  0  0  0
   28.8800  167.1570   34.5910 C   0  0  0  0  0
   29.8940  167.7350   34.2090 O   0  0  0  0  0
   29.3700  166.0410   36.7500 C   0  0  0  0  0
   28.8910  165.6970   38.1520 C   0  0  0  0  0
   28.5160  166.6190   38.9090 O   0  0  0  0  0
   28.8650  164.5210   38.5840 O   0  0  0  0  0
   28.0630  166.5360   33.7500 N   0  0  0  0  0
   28.3680  166.4790   32.3320 C   0  0  0  0  0
   28.2430  167.8480   31.6850 C   0  0  0  0  0
   28.9070  168.1320   30.6870 O   0  0  0  0  0
   27.4650  165.4680   31.6440 C   0  0  0  0  0
   27.8000  164.0540   32.1010 C   0  0  0  0  0
   26.8630  163.0410   31.4990 C   0  0  0  0  0
   29.2210  163.7710   31.7110 C   0  0  0  0  0
   27.3720  168.6700   32.2660 N   0  0  0  0  0
   27.1380  170.0450   31.8510 C   0  0  0  0  0
   27.4580  170.8750   33.0640 C   0  0  0  0  0
   26.5840  171.5610   33.5970 O   0  0  0  0  0
   25.6650  170.2750   31.5270 C   0  0  0  0  0
   25.1310  169.3890   30.4560 C   0  0  0  0  0
   24.6370  168.1370   30.7630 C   0  0  0  0  0
   25.1180  169.8100   29.1340 C   0  0  0  0  0
   24.1280  167.3190   29.7700 C   0  0  0  0  0
   24.6200  169.0000   28.1300 C   0  0  0  0  0
   24.1230  167.7570   28.4450 C   0  0  0  0  0
   28.7020  170.7860   33.5230 N   0  0  0  0  0
   29.1290  171.4800   34.7370 C   0  0  0  0  0
   30.5280  172.0650   34.5770 C   0  0  0  0  0
   29.1070  170.5080   35.9200 C   0  0  0  0  0
   29.0620  171.2120   37.2560 C   0  0  0  0  0
   29.1220  170.5070   38.2990 O   0  0  0  0  0
   28.9640  172.4610   37.3600 O   0  0  0  0  0
   20.3484  144.1798   30.4100 H   0  0  0  0  0
   21.1169  142.9461   31.2251 H   0  0  0  0  0
   20.3305  144.1438   32.0759 H   0  0  0  0  0
   21.8634  145.7958   31.3426 H   0  0  0  0  0
   22.3313  144.6769   33.3516 H   0  0  0  0  0
   23.9297  144.9293   32.3393 H   0  0  0  0  0
   23.9253  142.5805   31.9734 H   0  0  0  0  0
   23.8965  143.3372   34.9248 H   0  0  0  0  0
   24.7654  141.9627   34.1992 H   0  0  0  0  0
   25.2457  143.6304   33.8002 H   0  0  0  0  0
   22.5971  141.0534   33.3250 H   0  0  0  0  0
   21.7281  142.4280   34.0507 H   0  0  0  0  0
   21.5526  142.0810   32.3129 H   0  0  0  0  0
   24.6344  144.1516   31.0430 H   0  0  0  0  0
   26.0726  143.6822   29.3000 H   0  0  0  0  0
   23.7090  143.6990   27.4160 H   0  0  0  0  0
   24.1537  142.2840   28.4622 H   0  0  0  0  0
   25.7973  141.1236   27.7251 H   0  0  0  0  0
   24.6382  146.4279   29.8719 H   0  0  0  0  0
   25.7027  147.8918   27.4512 H   0  0  0  0  0
   23.7373  148.6704   29.5916 H   0  0  0  0  0
   23.4182  148.3464   27.8143 H   0  0  0  0  0
   24.3159  149.9360   26.1381 H   0  0  0  0  0
   24.3090  150.8225   30.3256 H   0  0  0  0  0
   24.6259  152.3169   25.6362 H   0  0  0  0  0
   24.6254  153.2097   29.8177 H   0  0  0  0  0
   24.8769  154.7466   28.1935 H   0  0  0  0  0
   27.4027  149.2982   27.8129 H   0  0  0  0  0
   28.7529  149.0142   30.4071 H   0  0  0  0  0
   29.4677  150.4928   27.8490 H   0  0  0  0  0
   30.0968  148.8678   28.4195 H   0  0  0  0  0
   31.6670  152.0669   27.9541 H   0  0  0  0  0
   33.0040  150.9297   31.8383 H   0  0  0  0  0
   28.0516  150.1879   32.0949 H   0  0  0  0  0
   27.2547  153.0107   31.6250 H   0  0  0  0  0
   26.8221  153.0492   34.0451 H   0  0  0  0  0
   27.3052  151.2871   34.0880 H   0  0  0  0  0
   25.9401  149.6284   32.9757 H   0  0  0  0  0
   24.7001  153.7137   33.2910 H   0  0  0  0  0
   23.6260  148.9741   32.4285 H   0  0  0  0  0
   22.3935  153.0572   32.7503 H   0  0  0  0  0
   21.8521  150.6925   32.3151 H   0  0  0  0  0
   28.9468  154.4152   31.4296 H   0  0  0  0  0
   31.1707  155.0744   31.5473 H   0  0  0  0  0
   31.4844  153.7305   32.7489 H   0  0  0  0  0
   28.7896  155.7542   33.4135 H   0  0  0  0  0
   30.2498  157.7519   34.9035 H   0  0  0  0  0
   28.0783  158.0830   36.0791 H   0  0  0  0  0
   27.4268  156.7881   34.9102 H   0  0  0  0  0
   27.9779  158.2854   33.0776 H   0  0  0  0  0
   25.7127  158.2260   34.0229 H   0  0  0  0  0
   26.1638  159.4768   35.2074 H   0  0  0  0  0
   26.1251  159.8679   33.4706 H   0  0  0  0  0
   28.6103  160.2874   35.2486 H   0  0  0  0  0
   29.7671  159.5536   34.1108 H   0  0  0  0  0
   28.4853  160.6316   33.5059 H   0  0  0  0  0
   30.7823  157.8255   37.0397 H   0  0  0  0  0
   30.6030  155.2521   38.5709 H   0  0  0  0  0
   32.4220  156.1556   39.8799 H   0  0  0  0  0
   32.3268  157.7099   38.9620 H   0  0  0  0  0
   32.9704  156.5912   36.9461 H   0  0  0  0  0
   32.9967  154.9995   37.8201 H   0  0  0  0  0
   34.9442  154.5627   37.8361 H   0  0  0  0  0
   30.1119  155.3940   40.8727 H   0  0  0  0  0
   27.6832  156.6092   41.3534 H   0  0  0  0  0
   28.2375  156.3800   43.8350 H   0  0  0  0  0
   29.8552  155.7470   43.2592 H   0  0  0  0  0
   28.8833  153.8701   42.3089 H   0  0  0  0  0
   27.2078  154.5706   42.4539 H   0  0  0  0  0
   27.5901  155.3377   45.0096 H   0  0  0  0  0
   30.8308  158.1615   42.0217 H   0  0  0  0  0
   31.1632  160.3367   42.7472 H   0  0  0  0  0
   29.3868  160.4173   43.1811 H   0  0  0  0  0
   29.1074  159.4862   40.1650 H   0  0  0  0  0
   29.3200  162.2861   39.1696 H   0  0  0  0  0
   29.4234  161.0968   36.8413 H   0  0  0  0  0
   30.0177  159.6850   37.8637 H   0  0  0  0  0
   31.7134  161.3766   38.7273 H   0  0  0  0  0
   31.2954  162.3006   37.2133 H   0  0  0  0  0
   31.2643  159.0133   37.2673 H   0  0  0  0  0
   27.7075  163.1576   37.8940 H   0  0  0  0  0
   25.1134  162.7057   38.3786 H   0  0  0  0  0
   25.4518  161.3811   37.2098 H   0  0  0  0  0
   23.7802  162.4811   35.9872 H   0  0  0  0  0
   24.7393  163.6539   33.7222 H   0  0  0  0  0
   22.3913  162.8863   34.0414 H   0  0  0  0  0
   22.6851  165.7505   33.1260 H   0  0  0  0  0
   21.2494  164.6637   32.7994 H   0  0  0  0  0
   22.0554  163.8393   36.2729 H   0  0  0  0  0
   22.0968  165.4807   35.5837 H   0  0  0  0  0
   20.7756  164.3672   35.1529 H   0  0  0  0  0
   24.0874  164.2457   31.8309 H   0  0  0  0  0
   22.6904  163.1882   31.5131 H   0  0  0  0  0
   22.7248  164.8410   30.8511 H   0  0  0  0  0
   24.1843  165.3625   36.7537 H   0  0  0  0  0
   24.1950  167.9506   35.4704 H   0  0  0  0  0
   24.6387  167.0640   38.3232 H   0  0  0  0  0
   23.0931  167.7020   37.5472 H   0  0  0  0  0
   23.6484  169.5329   38.6056 H   0  0  0  0  0
   24.7824  169.7298   37.2070 H   0  0  0  0  0
   26.5824  169.4226   38.4787 H   0  0  0  0  0
   25.7954  168.1605   39.4683 H   0  0  0  0  0
   24.7639  170.8545   39.9114 H   0  0  0  0  0
   27.4642  169.1968   42.4218 H   0  0  0  0  0
   27.2031  168.4675   40.8340 H   0  0  0  0  0
   25.0878  171.7661   41.9124 H   0  0  0  0  0
   26.8033  165.8857   36.5042 H   0  0  0  0  0
   28.7087  168.0812   36.5281 H   0  0  0  0  0
   30.3846  166.4307   36.8323 H   0  0  0  0  0
   29.3088  165.1351   36.1469 H   0  0  0  0  0
   29.1775  163.9233   37.9008 H   0  0  0  0  0
   27.2136  166.0950   34.1028 H   0  0  0  0  0
   29.4032  166.1576   32.2170 H   0  0  0  0  0
   27.6142  165.5362   30.5664 H   0  0  0  0  0
   26.4286  165.6867   31.9013 H   0  0  0  0  0
   27.6820  163.9788   33.1820 H   0  0  0  0  0
   25.8409  163.2683   31.8019 H   0  0  0  0  0
   26.9382  163.0791   30.4123 H   0  0  0  0  0
   27.1338  162.0447   31.8485 H   0  0  0  0  0
   29.3228  163.8536   30.6289 H   0  0  0  0  0
   29.8798  164.4918   32.1953 H   0  0  0  0  0
   29.4891  162.7627   32.0265 H   0  0  0  0  0
   26.8328  168.3123   33.0545 H   0  0  0  0  0
   27.7314  170.2880   30.9696 H   0  0  0  0  0
   25.5697  171.3015   31.1729 H   0  0  0  0  0
   25.0988  170.0614   32.4336 H   0  0  0  0  0
   24.6480  167.7900   31.7962 H   0  0  0  0  0
   25.5072  170.7966   28.8824 H   0  0  0  0  0
   23.7320  166.3352   30.0219 H   0  0  0  0  0
   24.6214  169.3444   27.0958 H   0  0  0  0  0
   23.7252  167.1140   27.6599 H   0  0  0  0  0
   29.3784  170.2172   33.0137 H   0  0  0  0  0
   28.4371  172.3018   34.9212 H   0  0  0  0  0
   31.2347  171.2617   34.3690 H   0  0  0  0  0
   30.5308  172.7761   33.7509 H   0  0  0  0  0
   30.8150  172.5740   35.4971 H   0  0  0  0  0
   30.0230  169.9182   35.8843 H   0  0  0  0  0
   28.2078  169.8979   35.8339 H   0  0  0  0  0
   29.1939  169.5814   38.0546 H   0  0  0  0  0
  1  2  1  0  0  0
  2  3  1  0  0  0
  2  5  1  0  0  0
  3  4  2  0  0  0
  3  9  1  0  0  0
  5  6  1  0  0  0
  6  7  1  0  0  0
  6  8  1  0  0  0
  9 10  1  0  0  0
 10 11  1  0  0  0
 10 13  1  0  0  0
 11 12  2  0  0  0
 11 17  1  0  0  0
 13 14  1  0  0  0
 14 15  2  0  0  0
 14 16  1  0  0  0
 17 18  1  0  0  0
 18 19  1  0  0  0
 18 21  1  0  0  0
 19 20  2  0  0  0
 19 29  1  0  0  0
 21 22  1  0  0  0
 22 23  4  0  0  0
 22 24  4  0  0  0
 23 25  4  0  0  0
 24 26  4  0  0  0
 25 27  4  0  0  0
 26 27  4  0  0  0
 27 28  1  0  0  0
 29 30  1  0  0  0
 30 31  1  0  0  0
 30 33  1  0  0  0
 31 32  2  0  0  0
 31 39  1  0  0  0
 33 34  1  0  0  0
 34 35  4  0  0  0
 34 36  4  0  0  0
 35 37  4  0  0  0
 36 38  4  0  0  0
 37 38  4  0  0  0
 39 40  1  0  0  0
 40 41  1  0  0  0
 40 43  1  0  0  0
 41 42  2  0  0  0
 41 50  1  0  0  0
 43 44  1  0  0  0
 44 45  4  0  0  0
 44 46  4  0  0  0
 45 47  4  0  0  0
 46 48  4  0  0  0
 47 49  4  0  0  0
 48 49  4  0  0  0
 50 51  1  0  0  0
 51 52  1  0  0  0
 52 53  2  0  0  0
 52 54  1  0  0  0
 54 55  1  0  0  0
 55 56  1  0  0  0
 55 58  1  0  0  0
 56 57  2  0  0  0
 56 62  1  0  0  0
 58 59  1  0  0  0
 59 60  1  0  0  0
 59 61  1  0  0  0
 62 63  1  0  0  0
 63 64  1  0  0  0
 63 66  1  0  0  0
 64 65  2  0  0  0
 64 71  1  0  0  0
 66 67  1  0  0  0
 67 68  1  0  0  0
 68 69  2  0  0  0
 68 70  1  0  0  0
 71 72  1  0  0  0
 72 73  1  0  0  0
 72 75  1  0  0  0
 73 74  2  0  0  0
 73 80  1  0  0  0
 75 76  1  0  0  0
 76 77  1  0  0  0
 77 78  1  0  0  0
 77 79  2  0  0  0
 80 81  1  0  0  0
 81 82  1  0  0  0
 82 83  2  0  0  0
 82 84  1  0  0  0
 84 85  1  0  0  0
 85 86  1  0  0  0
 85 88  1  0  0  0
 86 87  2  0  0  0
 86 93  1  0  0  0
 88 89  1  0  0  0
 89 90  1  0  0  0
 90 91  2  0  0  0
 90 92  1  0  0  0
 93 94  1  0  0  0
 94 95  1  0  0  0
 95 96  2  0  0  0
 95 97  1  0  0  0
 97 98  1  0  0  0
 98 99  1  0  0  0
 98101  1  0  0  0
 99100  2  0  0  0
 99105  1  0  0  0
101102  1  0  0  0
101103  1  0  0  0
102104  1  0  0  0
105106  1  0  0  0
106107  1  0  0  0
106109  1  0  0  0
107108  2  0  0  0
107116  1  0  0  0
109110  1  0  0  0
110111  1  0  0  0
111112  1  0  0  0
112113  1  0  0  0
113114  1  0  0  0
113115  2  0  0  0
116117  1  0  0  0
117118  1  0  0  0
117120  1  0  0  0
118119  2  0  0  0
118124  1  0  0  0
120121  1  0  0  0
121122  2  0  0  0
121123  1  0  0  0
124125  1  0  0  0
125126  1  0  0  0
125128  1  0  0  0
126127  2  0  0  0
126132  1  0  0  0
128129  1  0  0  0
129130  1  0  0  0
129131  1  0  0  0
132133  1  0  0  0
133134  1  0  0  0
133136  1  0  0  0
134135  2  0  0  0
134143  1  0  0  0
136137  1  0  0  0
137138  4  0  0  0
137139  4  0  0  0
138140  4  0  0  0
139141  4  0  0  0
140142  4  0  0  0
141142  4  0  0  0
143144  1  0  0  0
144145  1  0  0  0
144146  1  0  0  0
146147  1  0  0  0
147148  1  0  0  0
147149  2  0  0  0
  1150  1  0  0  0
  1151  1  0  0  0
  1152  1  0  0  0
  2153  1  0  0  0
  5154  1  0  0  0
  5155  1  0  0  0
  6156  1  0  0  0
  7157  1  0  0  0
  7158  1  0  0  0
  7159  1  0  0  0
  8160  1  0  0  0
  8161  1  0  0  0
  8162  1  0  0  0
  9163  1  0  0  0
 10164  1  0  0  0
 13165  1  0  0  0
 13166  1  0  0  0
 16167  1  0  0  0
 17168  1  0  0  0
 18169  1  0  0  0
 21170  1  0  0  0
 21171  1  0  0  0
 23172  1  0  0  0
 24173  1  0  0  0
 25174  1  0  0  0
 26175  1  0  0  0
 28176  1  0  0  0
 29177  1  0  0  0
 30178  1  0  0  0
 33179  1  0  0  0
 33180  1  0  0  0
 36181  1  0  0  0
 37182  1  0  0  0
 39183  1  0  0  0
 40184  1  0  0  0
 43185  1  0  0  0
 43186  1  0  0  0
 45187  1  0  0  0
 46188  1  0  0  0
 47189  1  0  0  0
 48190  1  0  0  0
 49191  1  0  0  0
 50192  1  0  0  0
 51193  1  0  0  0
 51194  1  0  0  0
 54195  1  0  0  0
 55196  1  0  0  0
 58197  1  0  0  0
 58198  1  0  0  0
 59199  1  0  0  0
 60200  1  0  0  0
 60201  1  0  0  0
 60202  1  0  0  0
 61203  1  0  0  0
 61204  1  0  0  0
 61205  1  0  0  0
 62206  1  0  0  0
 63207  1  0  0  0
 66208  1  0  0  0
 66209  1  0  0  0
 67210  1  0  0  0
 67211  1  0  0  0
 70212  1  0  0  0
 71213  1  0  0  0
 72214  1  0  0  0
 75215  1  0  0  0
 75216  1  0  0  0
 76217  1  0  0  0
 76218  1  0  0  0
 78219  1  0  0  0
 80220  1  0  0  0
 81221  1  0  0  0
 81222  1  0  0  0
 84223  1  0  0  0
 85224  1  0  0  0
 88225  1  0  0  0
 88226  1  0  0  0
 89227  1  0  0  0
 89228  1  0  0  0
 92229  1  0  0  0
 93230  1  0  0  0
 94231  1  0  0  0
 94232  1  0  0  0
 97233  1  0  0  0
 98234  1  0  0  0
101235  1  0  0  0
102236  1  0  0  0
102237  1  0  0  0
103238  1  0  0  0
103239  1  0  0  0
103240  1  0  0  0
104241  1  0  0  0
104242  1  0  0  0
104243  1  0  0  0
105244  1  0  0  0
106245  1  0  0  0
109246  1  0  0  0
109247  1  0  0  0
110248  1  0  0  0
110249  1  0  0  0
111250  1  0  0  0
111251  1  0  0  0
112252  1  0  0  0
114253  1  0  0  0
114254  1  0  0  0
115255  1  0  0  0
116256  1  0  0  0
117257  1  0  0  0
120258  1  0  0  0
120259  1  0  0  0
123260  1  0  0  0
124261  1  0  0  0
125262  1  0  0  0
128263  1  0  0  0
128264  1  0  0  0
129265  1  0  0  0
130266  1  0  0  0
130267  1  0  0  0
130268  1  0  0  0
131269  1  0  0  0
131270  1  0  0  0
131271  1  0  0  0
132272  1  0  0  0
133273  1  0  0  0
136274  1  0  0  0
136275  1  0  0  0
138276  1  0  0  0
139277  1  0  0  0
140278  1  0  0  0
141279  1  0  0  0
142280  1  0  0  0
143281  1  0  0  0
144282  1  0  0  0
145283  1  0  0  0
145284  1  0  0  0
145285  1  0  0  0
146286  1  0  0  0
146287  1  0  0  0
148288  1  0  0  0
M  END
$$$$
