### 
### Created by X-TOOL on Mon Sep 10 21:12:50 2018
### 

@<TRIPOS>MOLECULE
1o9k_ligand
  284   287     1     0     0
SMALL
GAST_HUCK


@<TRIPOS>ATOM
      1 N          20.8840  143.9390   31.2440 N.4       1 LEU         0.2379
      2 CA         22.1450  144.7450   31.2750 C.3       1 LEU         0.0652
      3 C          22.9540  144.5830   29.9780 C.2       1 LEU         0.2268
      4 O          22.4010  144.7380   28.8810 O.2       1 LEU        -0.3907
      5 CB         22.9880  144.4120   32.5230 C.3       1 LEU         0.0102
      6 CG         23.4260  142.9780   32.8570 C.3       1 LEU        -0.0394
      7 CD1        24.4040  142.9770   34.0300 C.3       1 LEU        -0.0623
      8 CD2        22.2410  142.0700   33.1580 C.3       1 LEU        -0.0623
      9 N          24.2490  144.2770   30.1070 N.am      1 ASP        -0.2595
     10 CA         25.1370  144.1150   28.9460 C.3       1 ASP         0.1424
     11 C          25.4750  145.4690   28.2950 C.2       1 ASP         0.2057
     12 O          26.0370  145.5380   27.2030 O.2       1 ASP        -0.3943
     13 CB         24.5100  143.1630   27.9250 C.3       1 ASP         0.0406
     14 CG         25.4960  142.6980   26.8770 C.2       1 ASP         0.0393
     15 OD1        25.7350  143.4520   25.9100 O.co2     1 ASP        -0.5688
     16 OD2        26.0770  141.5900   26.9340 O.co2     1 ASP        -0.5688
     17 N          25.1150  146.5460   28.9780 N.am      1 TYR        -0.2620
     18 CA         25.3790  147.8920   28.4920 C.3       1 TYR         0.1390
     19 C          26.4510  148.4570   29.3960 C.2       1 TYR         0.2058
     20 O          26.4000  148.2510   30.6020 O.2       1 TYR        -0.3942
     21 CB         24.1030  148.7370   28.5670 C.3       1 TYR         0.0163
     22 CG         24.3010  150.2040   28.2640 C.ar      1 TYR        -0.0493
     23 CD1        24.3870  150.6530   26.9560 C.ar      1 TYR        -0.0685
     24 CD2        24.3840  151.1480   29.2880 C.ar      1 TYR        -0.0685
     25 CE1        24.5600  151.9840   26.6720 C.ar      1 TYR        -0.0398
     26 CE2        24.5590  152.4830   29.0080 C.ar      1 TYR        -0.0398
     27 CZ         24.6500  152.8960   27.6940 C.ar      1 TYR         0.0805
     28 OH         24.8330  154.2340   27.3830 O.3       1 TYR        -0.3376
     29 N          27.4260  149.1510   28.8220 N.am      1 HIS        -0.2623
     30 CA         28.5340  149.7110   29.5980 C.3       1 HIS         0.1369
     31 C          28.1770  151.0550   30.2550 C.2       1 HIS         0.2055
     32 O          28.0410  152.0600   29.5690 O.2       1 HIS        -0.3942
     33 CB         29.7690  149.8710   28.6920 C.3       1 HIS         0.0145
     34 CG         30.9360  150.5520   29.3450 C.2       1 HIS        -0.0027
     35 ND1        31.4010  150.2110   30.5980 N.2       1 HIS        -0.3252
     36 CD2        31.7390  151.5500   28.9110 C.2       1 HIS         0.0291
     37 CE1        32.4360  150.9720   30.9090 C.2       1 HIS         0.0907
     38 NE2        32.6630  151.7920   29.9000 N.pl3     1 HIS        -0.2752
     39 N          28.0090  151.0650   31.5760 N.am      1 PHE        -0.2618
     40 CA         27.7640  152.3170   32.2940 C.3       1 PHE         0.1404
     41 C          29.1030  152.8760   32.7490 C.2       1 PHE         0.2058
     42 O          29.7320  152.3210   33.6500 O.2       1 PHE        -0.3942
     43 CB         26.8720  152.1020   33.5080 C.3       1 PHE         0.0214
     44 CG         25.4760  151.7110   33.1700 C.ar      1 PHE        -0.0386
     45 CD1        25.1600  150.3880   32.9260 C.ar      1 PHE        -0.0601
     46 CD2        24.4660  152.6660   33.1020 C.ar      1 PHE        -0.0601
     47 CE1        23.8660  150.0200   32.6200 C.ar      1 PHE        -0.0686
     48 CE2        23.1770  152.3010   32.7990 C.ar      1 PHE        -0.0686
     49 CZ         22.8750  150.9810   32.5570 C.ar      1 PHE        -0.0687
     50 N          29.5370  153.9710   32.1330 N.am      1 GLY        -0.2663
     51 CA         30.8330  154.5480   32.4400 C.3       1 GLY         0.1201
     52 C          30.8110  155.5550   33.5720 C.2       1 GLY         0.2007
     53 O          31.8560  155.9160   34.1050 O.2       1 GLY        -0.3947
     54 N          29.6260  156.0340   33.9260 N.am      1 LEU        -0.2640
     55 CA         29.5180  156.9560   35.0420 C.3       1 LEU         0.1312
     56 C          29.7900  156.2050   36.3340 C.2       1 LEU         0.2039
     57 O          29.4110  155.0420   36.4830 O.2       1 LEU        -0.3944
     58 CB         28.1330  157.5950   35.1060 C.3       1 LEU        -0.0101
     59 CG         27.8130  158.6830   34.0790 C.3       1 LEU        -0.0425
     60 CD1        26.3480  159.0930   34.2040 C.3       1 LEU        -0.0625
     61 CD2        28.7340  159.8730   34.2480 C.3       1 LEU        -0.0625
     62 N          30.4600  156.8830   37.2590 N.am      1 GLU        -0.2636
     63 CA         30.7510  156.3320   38.5720 C.3       1 GLU         0.1325
     64 C          29.8070  156.9480   39.5990 C.2       1 GLU         0.2040
     65 O          29.2720  158.0270   39.3680 O.2       1 GLU        -0.3944
     66 CB         32.2000  156.6280   38.9230 C.3       1 GLU        -0.0008
     67 CG         33.1610  156.0750   37.8870 C.3       1 GLU         0.0044
     68 CD         34.6120  156.3000   38.2530 C.2       1 GLU         0.0350
     69 OE1        34.9420  157.4410   38.6380 O.co2     1 GLU        -0.5690
     70 OE2        35.4150  155.3390   38.1480 O.co2     1 GLU        -0.5690
     71 N          29.6060  156.2680   40.7290 N.am      1 GLU        -0.2636
     72 CA         28.6790  156.7330   41.7790 C.3       1 GLU         0.1325
     73 C          28.7960  158.2260   42.1160 C.2       1 GLU         0.2038
     74 O          27.8050  158.9190   42.3140 O.2       1 GLU        -0.3944
     75 CB         28.7930  155.8700   43.0480 C.3       1 GLU        -0.0008
     76 CG         28.1930  154.4640   42.9080 C.3       1 GLU         0.0044
     77 CD         28.0090  153.7470   44.2460 C.2       1 GLU         0.0350
     78 OE1        27.6760  154.4130   45.2530 O.co2     1 GLU        -0.5690
     79 OE2        28.1880  152.5120   44.2910 O.co2     1 GLU        -0.5690
     80 N          30.0060  158.7440   42.1660 N.am      1 GLY        -0.2664
     81 CA         30.1350  160.1610   42.4310 C.3       1 GLY         0.1201
     82 C          29.8790  161.0500   41.2180 C.2       1 GLY         0.2007
     83 O          30.1900  162.2480   41.2540 O.2       1 GLY        -0.3947
     84 N          29.3360  160.4800   40.1430 N.am      1 GLU        -0.2639
     85 CA         29.0610  161.2550   38.9290 C.3       1 GLU         0.1324
     86 C          27.5880  161.2290   38.5250 C.2       1 GLU         0.2038
     87 O          26.8900  160.2320   38.6780 O.2       1 GLU        -0.3944
     88 CB         29.9220  160.7650   37.7520 C.3       1 GLU        -0.0008
     89 CG         31.3440  161.3280   37.7030 C.3       1 GLU         0.0044
     90 CD         32.3150  160.4580   36.9040 C.2       1 GLU         0.0350
     91 OE1        33.3180  161.0120   36.3930 O.co2     1 GLU        -0.5690
     92 OE2        32.0790  159.2210   36.8040 O.co2     1 GLU        -0.5690
     93 N          27.1110  162.3360   37.9920 N.am      1 GLY        -0.2664
     94 CA         25.7380  162.3770   37.5480 C.3       1 GLY         0.1201
     95 C          25.5640  163.3420   36.4040 C.2       1 GLY         0.2008
     96 O          26.4060  164.2110   36.1710 O.2       1 GLY        -0.3947
     97 N          24.4480  163.1990   35.7060 N.am      1 ILE        -0.2637
     98 CA         24.1410  164.0300   34.5520 C.3       1 ILE         0.1335
     99 C          24.5250  165.5000   34.7550 C.2       1 ILE         0.2042
    100 O          24.8990  166.1920   33.8140 O.2       1 ILE        -0.3944
    101 CB         22.6470  163.9300   34.2240 C.3       1 ILE        -0.0037
    102 CG1        22.3250  164.7350   32.9610 C.3       1 ILE        -0.0491
    103 CG2        21.8370  164.4400   35.3900 C.3       1 ILE        -0.0582
    104 CD1        23.0060  164.2150   31.6980 C.3       1 ILE        -0.0648
    105 N          24.4420  165.9790   35.9830 N.am      1 ARG        -0.2637
    106 CA         24.7160  167.3770   36.2370 C.3       1 ARG         0.1311
    107 C          26.1890  167.7760   36.0640 C.2       1 ARG         0.2040
    108 O          26.4950  168.9290   35.7600 O.2       1 ARG        -0.3944
    109 CB         24.1800  167.7520   37.6130 C.3       1 ARG        -0.0092
    110 CG         24.5160  169.1340   38.0800 C.3       1 ARG        -0.0156
    111 CD         25.6800  169.1500   39.0260 C.3       1 ARG         0.0627
    112 NE         25.4510  170.1200   40.0810 N.pl3     1 ARG        -0.2723
    113 CZ         26.0730  170.1150   41.2460 C.cat     1 ARG         0.2882
    114 NH1        26.9840  169.1880   41.5220 N.pl3     1 ARG        -0.2849
    115 NH2        25.7830  171.0530   42.1330 N.pl3     1 ARG        -0.2849
    116 N          27.1000  166.8260   36.2430 N.am      1 ASP        -0.2622
    117 CA         28.5140  167.1110   36.0710 C.3       1 ASP         0.1423
    118 C          28.8800  167.1570   34.5910 C.2       1 ASP         0.2056
    119 O          29.8940  167.7350   34.2090 O.2       1 ASP        -0.3943
    120 CB         29.3700  166.0410   36.7500 C.3       1 ASP         0.0406
    121 CG         28.8910  165.6970   38.1520 C.2       1 ASP         0.0393
    122 OD1        28.5160  166.6190   38.9090 O.co2     1 ASP        -0.5688
    123 OD2        28.8650  164.5210   38.5840 O.co2     1 ASP        -0.5688
    124 N          28.0630  166.5360   33.7500 N.am      1 LEU        -0.2636
    125 CA         28.3680  166.4790   32.3320 C.3       1 LEU         0.1312
    126 C          28.2430  167.8480   31.6850 C.2       1 LEU         0.2040
    127 O          28.9070  168.1320   30.6870 O.2       1 LEU        -0.3944
    128 CB         27.4650  165.4680   31.6440 C.3       1 LEU        -0.0101
    129 CG         27.8000  164.0540   32.1010 C.3       1 LEU        -0.0425
    130 CD1        26.8630  163.0410   31.4990 C.3       1 LEU        -0.0625
    131 CD2        29.2210  163.7710   31.7110 C.3       1 LEU        -0.0625
    132 N          27.3720  168.6700   32.2660 N.am      1 PHE        -0.2619
    133 CA         27.1380  170.0450   31.8510 C.3       1 PHE         0.1403
    134 C          27.4580  170.8750   33.0640 C.2       1 PHE         0.2040
    135 O          26.5840  171.5610   33.5970 O.2       1 PHE        -0.3943
    136 CB         25.6650  170.2750   31.5270 C.3       1 PHE         0.0214
    137 CG         25.1310  169.3890   30.4560 C.ar      1 PHE        -0.0386
    138 CD1        24.6370  168.1370   30.7630 C.ar      1 PHE        -0.0601
    139 CD2        25.1180  169.8100   29.1340 C.ar      1 PHE        -0.0601
    140 CE1        24.1280  167.3190   29.7700 C.ar      1 PHE        -0.0686
    141 CE2        24.6200  169.0000   28.1300 C.ar      1 PHE        -0.0686
    142 CZ         24.1230  167.7570   28.4450 C.ar      1 PHE        -0.0687
    143 N          28.7020  170.7860   33.5230 N.am      1 ASP        -0.2805
    144 CA         29.1290  171.4800   34.7370 C.3       1 ASP         0.0506
    145 C          30.5280  172.0650   34.5770 C.3       1 ASP        -0.0404
    146 CB         29.1070  170.5080   35.9200 C.3       1 ASP         0.0230
    147 CG         29.0620  171.2120   37.2560 C.2       1 ASP         0.0370
    148 OD1        29.1220  170.5070   38.2990 O.co2     1 ASP        -0.5689
    149 OD2        28.9640  172.4610   37.3600 O.co2     1 ASP        -0.5689
    150 H1         20.3808  144.0691   32.1077 H         1 LEU         0.2015
    151 H2         21.1114  142.9635   31.1314 H         1 LEU         0.2015
    152 H3         20.3106  144.2417   30.4722 H         1 LEU         0.2015
    153 H4         21.8559  145.8038   31.3483 H         1 LEU         0.1098
    154 H5         22.4078  144.7649   33.3883 H         1 LEU         0.0348
    155 H6         23.9120  145.0024   32.4356 H         1 LEU         0.0348
    156 H7         23.9460  142.5721   31.9768 H         1 LEU         0.0299
    157 H8         24.7062  141.9434   34.2545 H         1 LEU         0.0232
    158 H9         23.9178  143.4169   34.9132 H         1 LEU         0.0232
    159 H10        25.2925  143.5698   33.7672 H         1 LEU         0.0232
    160 H11        21.5455  142.0802   32.3058 H         1 LEU         0.0232
    161 H12        21.7225  142.4303   34.0587 H         1 LEU         0.0232
    162 H13        22.5990  141.0437   33.3267 H         1 LEU         0.0232
    163 H14        24.6269  144.1540   31.0247 H         1 ASP         0.1886
    164 H15        26.0774  143.6666   29.2989 H         1 ASP         0.0819
    165 H16        23.6812  143.6828   27.4221 H         1 ASP         0.0478
    166 H17        24.1213  142.2824   28.4575 H         1 ASP         0.0478
    167 H18        24.6475  146.4302   29.8544 H         1 TYR         0.1885
    168 H19        25.7361  147.8607   27.4521 H         1 TYR         0.0821
    169 H20        23.6926  148.6491   29.5838 H         1 TYR         0.0453
    170 H21        23.3802  148.3319   27.8435 H         1 TYR         0.0453
    171 H22        24.3163  149.9399   26.1426 H         1 TYR         0.0530
    172 H23        24.3094  150.8243   30.3198 H         1 TYR         0.0530
    173 H24        24.6255  152.3151   25.6419 H         1 TYR         0.0525
    174 H25        24.6250  153.2057   29.8133 H         1 TYR         0.0525
    175 H26        24.8730  154.3360   26.4394 H         1 TYR         0.2458
    176 H27        27.4031  149.2953   27.8327 H         1 HIS         0.1885
    177 H28        28.7806  148.9993   30.3997 H         1 HIS         0.0817
    178 H29        29.4752  150.4616   27.8118 H         1 HIS         0.0420
    179 H30        30.0914  148.8696   28.3707 H         1 HIS         0.0420
    180 H31        31.6670  152.0664   27.9549 H         1 HIS         0.0729
    181 H32        33.0035  150.9297   31.8375 H         1 HIS         0.1199
    182 H33        33.4112  152.4988   29.8600 H         1 HIS         0.2361
    183 H34        28.0508  150.2051   32.0847 H         1 PHE         0.1885
    184 H35        27.2767  153.0324   31.6152 H         1 PHE         0.0823
    185 H36        26.8393  153.0386   34.0839 H         1 PHE         0.0474
    186 H37        27.3142  151.3067   34.1261 H         1 PHE         0.0474
    187 H38        25.9358  149.6325   32.9755 H         1 PHE         0.0557
    188 H39        24.6988  153.7079   33.2900 H         1 PHE         0.0557
    189 H40        23.6274  148.9799   32.4295 H         1 PHE         0.0599
    190 H41        22.3978  153.0530   32.7506 H         1 PHE         0.0599
    191 H42        21.8577  150.6941   32.3164 H         1 PHE         0.0559
    192 H43        28.9583  154.4065   31.4434 H         1 GLY         0.1881
    193 H44        31.2092  155.0516   31.5373 H         1 GLY         0.0763
    194 H45        31.5171  153.7324   32.7169 H         1 GLY         0.0763
    195 H46        28.8060  155.7597   33.4236 H         1 LEU         0.1883
    196 H47        30.2687  157.7507   34.9200 H         1 LEU         0.0800
    197 H48        28.0209  158.0410   36.1053 H         1 LEU         0.0315
    198 H49        27.3925  156.7918   34.9777 H         1 LEU         0.0315
    199 H50        27.9717  158.2685   33.0725 H         1 LEU         0.0298
    200 H51        26.1218  159.8751   33.4643 H         1 LEU         0.0232
    201 H52        26.1608  159.4806   35.2163 H         1 LEU         0.0232
    202 H53        25.7057  158.2189   34.0214 H         1 LEU         0.0232
    203 H54        29.7793  159.5441   34.1526 H         1 LEU         0.0232
    204 H55        28.5791  160.3184   35.2418 H         1 LEU         0.0232
    205 H56        28.5128  160.6210   33.4724 H         1 LEU         0.0232
    206 H57        30.7760  157.8071   37.0440 H         1 GLU         0.1883
    207 H58        30.6000  155.2426   38.5533 H         1 GLU         0.0801
    208 H59        32.4291  156.1734   39.8981 H         1 GLU         0.0330
    209 H60        32.3345  157.7179   38.9859 H         1 GLU         0.0330
    210 H61        32.9612  156.5677   36.9240 H         1 GLU         0.0433
    211 H62        32.9872  154.9933   37.7886 H         1 GLU         0.0433
    212 H63        30.1020  155.4112   40.8698 H         1 GLU         0.1883
    213 H64        27.6642  156.5849   41.3811 H         1 GLU         0.0801
    214 H65        28.2708  156.3881   43.8658 H         1 GLU         0.0330
    215 H66        29.8586  155.7668   43.3006 H         1 GLU         0.0330
    216 H67        28.8626  153.8601   42.2779 H         1 GLU         0.0433
    217 H68        27.2106  154.5509   42.4209 H         1 GLU         0.0433
    218 H69        30.8146  158.1730   42.0245 H         1 GLY         0.1881
    219 H70        31.1569  160.3532   42.7899 H         1 GLY         0.0763
    220 H71        29.4136  160.4323   43.2158 H         1 GLY         0.0763
    221 H72        29.1119  159.5057   40.1645 H         1 GLU         0.1883
    222 H73        29.3321  162.3003   39.1383 H         1 GLU         0.0801
    223 H74        29.4129  161.0462   36.8183 H         1 GLU         0.0330
    224 H75        29.9925  159.6691   37.8156 H         1 GLU         0.0330
    225 H76        31.7203  161.4146   38.7330 H         1 GLU         0.0433
    226 H77        31.3083  162.3254   37.2405 H         1 GLU         0.0433
    227 H78        27.6958  163.1415   37.8959 H         1 GLY         0.1881
    228 H79        25.0994  162.6945   38.3855 H         1 GLY         0.0763
    229 H80        25.4373  161.3716   37.2182 H         1 GLY         0.0763
    230 H81        23.7933  162.4952   35.9817 H         1 ILE         0.1883
    231 H82        24.7143  163.6450   33.6958 H         1 ILE         0.0803
    232 H83        22.3909  162.8751   34.0464 H         1 ILE         0.0345
    233 H84        22.6461  165.7745   33.1231 H         1 ILE         0.0267
    234 H85        21.2368  164.7078   32.8024 H         1 ILE         0.0267
    235 H86        22.0784  163.8533   36.2886 H         1 ILE         0.0235
    236 H87        20.7652  164.3398   35.1637 H         1 ILE         0.0235
    237 H88        22.0768  165.4987   35.5680 H         1 ILE         0.0235
    238 H89        22.7230  164.8460   30.8426 H         1 ILE         0.0230
    239 H90        22.6883  163.1788   31.5102 H         1 ILE         0.0230
    240 H91        24.0975  164.2455   31.8308 H         1 ILE         0.0230
    241 H92        24.1894  165.3746   36.7385 H         1 ARG         0.1883
    242 H93        24.1479  167.9554   35.4935 H         1 ARG         0.0800
    243 H94        24.5903  167.0385   38.3427 H         1 ARG         0.0313
    244 H95        23.0842  167.6602   37.5866 H         1 ARG         0.0313
    245 H96        23.6390  169.5571   38.5917 H         1 ARG         0.0301
    246 H97        24.7636  169.7524   37.2046 H         1 ARG         0.0301
    247 H98        26.5930  169.4201   38.4752 H         1 ARG         0.0689
    248 H99        25.8018  168.1511   39.4702 H         1 ARG         0.0689
    249 H100       24.7571  170.8617   39.9097 H         1 ARG         0.2642
    250 H101       27.4636  169.1926   42.4335 H         1 ARG         0.2615
    251 H102       27.2106  168.4648   40.8245 H         1 ARG         0.2615
    252 H103       25.0758  171.7688   41.9130 H         1 ARG         0.2615
    253 H104       26.2644  171.0674   43.0435 H         1 ARG         0.2615
    254 H105       26.8091  165.9041   36.4991 H         1 ASP         0.1884
    255 H106       28.7331  168.0883   36.5259 H         1 ASP         0.0819
    256 H107       30.4048  166.4085   36.8137 H         1 ASP         0.0478
    257 H108       29.3420  165.1284   36.1365 H         1 ASP         0.0478
    258 H109       27.2303  166.1037   34.0959 H         1 LEU         0.1883
    259 H110       29.4094  166.1434   32.2185 H         1 LEU         0.0800
    260 H111       27.6056  165.5392   30.5554 H         1 LEU         0.0315
    261 H112       26.4170  165.6901   31.8937 H         1 LEU         0.0315
    262 H113       27.7100  164.0011   33.1960 H         1 LEU         0.0298
    263 H114       27.1353  162.0350   31.8510 H         1 LEU         0.0232
    264 H115       26.9380  163.0784   30.4022 H         1 LEU         0.0232
    265 H116       25.8311  163.2693   31.8040 H         1 LEU         0.0232
    266 H117       29.8824  164.5245   32.1635 H         1 LEU         0.0232
    267 H118       29.3155  163.8105   30.6158 H         1 LEU         0.0232
    268 H119       29.5069  162.7706   32.0679 H         1 LEU         0.0232
    269 H120       26.8433  168.3193   33.0390 H         1 PHE         0.1885
    270 H121       27.7708  170.3125   30.9920 H         1 PHE         0.0823
    271 H122       25.5415  171.3193   31.2044 H         1 PHE         0.0474
    272 H123       25.0793  170.1021   32.4419 H         1 PHE         0.0474
    273 H124       24.6480  167.7919   31.7906 H         1 PHE         0.0557
    274 H125       25.5050  170.7912   28.8838 H         1 PHE         0.0557
    275 H126       23.7342  166.3406   30.0205 H         1 PHE         0.0599
    276 H127       24.6213  169.3425   27.1015 H         1 PHE         0.0599
    277 H128       23.7274  167.1175   27.6642 H         1 PHE         0.0559
    278 H129       29.3651  170.2283   33.0237 H         1 ASP         0.1856
    279 H130       28.4259  172.3019   34.9375 H         1 ASP         0.0571
    280 H131       30.8188  172.5790   35.5050 H         1 ASP         0.0253
    281 H132       30.5322  172.7829   33.7436 H         1 ASP         0.0253
    282 H133       31.2423  171.2552   34.3671 H         1 ASP         0.0253
    283 H134       30.0136  169.8863   35.8809 H         1 ASP         0.0453
    284 H135       28.2181  169.8662   35.8310 H         1 ASP         0.0453
@<TRIPOS>BOND
     1    1    2 1  
     2    2    3 1  
     3    2    5 1  
     4    3    4 2  
     5    3    9 am 
     6    5    6 1  
     7    6    7 1  
     8    6    8 1  
     9    9   10 1  
    10   10   11 1  
    11   10   13 1  
    12   11   12 2  
    13   11   17 am 
    14   13   14 1  
    15   14   15 ar 
    16   14   16 ar 
    17   17   18 1  
    18   18   19 1  
    19   18   21 1  
    20   19   20 2  
    21   19   29 am 
    22   21   22 1  
    23   22   23 ar 
    24   22   24 ar 
    25   23   25 ar 
    26   24   26 ar 
    27   25   27 ar 
    28   26   27 ar 
    29   27   28 1  
    30   29   30 1  
    31   30   31 1  
    32   30   33 1  
    33   31   32 2  
    34   31   39 am 
    35   33   34 1  
    36   34   35 1  
    37   34   36 2  
    38   35   37 2  
    39   36   38 1  
    40   37   38 1  
    41   39   40 1  
    42   40   41 1  
    43   40   43 1  
    44   41   42 2  
    45   41   50 am 
    46   43   44 1  
    47   44   45 ar 
    48   44   46 ar 
    49   45   47 ar 
    50   46   48 ar 
    51   47   49 ar 
    52   48   49 ar 
    53   50   51 1  
    54   51   52 1  
    55   52   53 2  
    56   52   54 am 
    57   54   55 1  
    58   55   56 1  
    59   55   58 1  
    60   56   57 2  
    61   56   62 am 
    62   58   59 1  
    63   59   60 1  
    64   59   61 1  
    65   62   63 1  
    66   63   64 1  
    67   63   66 1  
    68   64   65 2  
    69   64   71 am 
    70   66   67 1  
    71   67   68 1  
    72   68   69 ar 
    73   68   70 ar 
    74   71   72 1  
    75   72   73 1  
    76   72   75 1  
    77   73   74 2  
    78   73   80 am 
    79   75   76 1  
    80   76   77 1  
    81   77   78 ar 
    82   77   79 ar 
    83   80   81 1  
    84   81   82 1  
    85   82   83 2  
    86   82   84 am 
    87   84   85 1  
    88   85   86 1  
    89   85   88 1  
    90   86   87 2  
    91   86   93 am 
    92   88   89 1  
    93   89   90 1  
    94   90   91 ar 
    95   90   92 ar 
    96   93   94 1  
    97   94   95 1  
    98   95   96 2  
    99   95   97 am 
   100   97   98 1  
   101   98   99 1  
   102   98  101 1  
   103   99  100 2  
   104   99  105 am 
   105  101  102 1  
   106  101  103 1  
   107  102  104 1  
   108  105  106 1  
   109  106  107 1  
   110  106  109 1  
   111  107  108 2  
   112  107  116 am 
   113  109  110 1  
   114  110  111 1  
   115  111  112 1  
   116  112  113 ar 
   117  113  114 ar 
   118  113  115 ar 
   119  116  117 1  
   120  117  118 1  
   121  117  120 1  
   122  118  119 2  
   123  118  124 am 
   124  120  121 1  
   125  121  122 ar 
   126  121  123 ar 
   127  124  125 1  
   128  125  126 1  
   129  125  128 1  
   130  126  127 2  
   131  126  132 am 
   132  128  129 1  
   133  129  130 1  
   134  129  131 1  
   135  132  133 1  
   136  133  134 1  
   137  133  136 1  
   138  134  135 2  
   139  134  143 am 
   140  136  137 1  
   141  137  138 ar 
   142  137  139 ar 
   143  138  140 ar 
   144  139  141 ar 
   145  140  142 ar 
   146  141  142 ar 
   147  143  144 1  
   148  144  145 1  
   149  144  146 1  
   150  146  147 1  
   151  147  148 ar 
   152  147  149 ar 
   153    1  150 1  
   154    1  151 1  
   155    1  152 1  
   156    2  153 1  
   157    5  154 1  
   158    5  155 1  
   159    6  156 1  
   160    7  157 1  
   161    7  158 1  
   162    7  159 1  
   163    8  160 1  
   164    8  161 1  
   165    8  162 1  
   166    9  163 1  
   167   10  164 1  
   168   13  165 1  
   169   13  166 1  
   170   17  167 1  
   171   18  168 1  
   172   21  169 1  
   173   21  170 1  
   174   23  171 1  
   175   24  172 1  
   176   25  173 1  
   177   26  174 1  
   178   28  175 1  
   179   29  176 1  
   180   30  177 1  
   181   33  178 1  
   182   33  179 1  
   183   36  180 1  
   184   37  181 1  
   185   38  182 1  
   186   39  183 1  
   187   40  184 1  
   188   43  185 1  
   189   43  186 1  
   190   45  187 1  
   191   46  188 1  
   192   47  189 1  
   193   48  190 1  
   194   49  191 1  
   195   50  192 1  
   196   51  193 1  
   197   51  194 1  
   198   54  195 1  
   199   55  196 1  
   200   58  197 1  
   201   58  198 1  
   202   59  199 1  
   203   60  200 1  
   204   60  201 1  
   205   60  202 1  
   206   61  203 1  
   207   61  204 1  
   208   61  205 1  
   209   62  206 1  
   210   63  207 1  
   211   66  208 1  
   212   66  209 1  
   213   67  210 1  
   214   67  211 1  
   215   71  212 1  
   216   72  213 1  
   217   75  214 1  
   218   75  215 1  
   219   76  216 1  
   220   76  217 1  
   221   80  218 1  
   222   81  219 1  
   223   81  220 1  
   224   84  221 1  
   225   85  222 1  
   226   88  223 1  
   227   88  224 1  
   228   89  225 1  
   229   89  226 1  
   230   93  227 1  
   231   94  228 1  
   232   94  229 1  
   233   97  230 1  
   234   98  231 1  
   235  101  232 1  
   236  102  233 1  
   237  102  234 1  
   238  103  235 1  
   239  103  236 1  
   240  103  237 1  
   241  104  238 1  
   242  104  239 1  
   243  104  240 1  
   244  105  241 1  
   245  106  242 1  
   246  109  243 1  
   247  109  244 1  
   248  110  245 1  
   249  110  246 1  
   250  111  247 1  
   251  111  248 1  
   252  112  249 1  
   253  114  250 1  
   254  114  251 1  
   255  115  252 1  
   256  115  253 1  
   257  116  254 1  
   258  117  255 1  
   259  120  256 1  
   260  120  257 1  
   261  124  258 1  
   262  125  259 1  
   263  128  260 1  
   264  128  261 1  
   265  129  262 1  
   266  130  263 1  
   267  130  264 1  
   268  130  265 1  
   269  131  266 1  
   270  131  267 1  
   271  131  268 1  
   272  132  269 1  
   273  133  270 1  
   274  136  271 1  
   275  136  272 1  
   276  138  273 1  
   277  139  274 1  
   278  140  275 1  
   279  141  276 1  
   280  142  277 1  
   281  143  278 1  
   282  144  279 1  
   283  145  280 1  
   284  145  281 1  
   285  145  282 1  
   286  146  283 1  
   287  146  284 1  
@<TRIPOS>SUBSTRUCTURE
     1 LEU         1

