4udb_ligand
  -I-interpret- 

 72 77  0  0  0  0  0  0  0  0999 V2000
  -25.7680    1.4550    1.4950 C   0  0  0  0  0
  -27.1310    1.5260    2.2100 C   0  0  0  0  0
  -28.2830    1.7540    1.2250 C   0  0  0  0  0
  -28.2380    3.1190    0.5490 C   0  0  0  0  0
  -28.1190    4.3110    1.5230 C   0  0  0  0  0
  -27.1220    4.0770    2.6920 C   0  0  0  0  0
  -27.2150    2.6480    3.2410 C   0  0  0  0  0
  -26.3440    2.1580    4.3820 C   0  0  0  0  0
  -26.5520    0.6450    4.3840 C   0  0  0  0  0
  -27.3040    0.2860    3.1070 C   0  0  0  0  0
  -28.6720    0.0860    3.5160 O   0  0  0  0  0
  -28.6310   -0.2130    4.9070 C   0  0  0  0  0
  -27.4210    0.2950    5.4560 O   0  0  0  0  0
  -29.7380    0.4350    5.6980 C   0  0  0  0  0
  -30.7070    1.2700    4.8990 C   0  0  0  0  0
  -31.6900    1.9710    5.8180 C   0  0  0  0  0
  -32.3910    1.0030    6.7450 C   0  0  0  0  0
  -31.4090    0.1060    7.4750 C   0  0  0  0  0
  -30.4870   -0.6020    6.5010 C   0  0  0  0  0
  -26.8080   -1.0270    2.5000 C   0  0  0  0  0
  -25.7210   -1.4950    2.8020 O   0  0  0  0  0
  -27.6940   -1.7740    1.5230 C   0  0  0  0  0
  -26.8740   -2.6100    0.7060 O   0  0  0  0  0
  -27.3850    5.1320    3.7740 C   0  0  0  0  0
  -27.2790    6.5600    3.2370 C   0  0  0  0  0
  -28.0800    6.7080    1.9790 C   0  0  0  0  0
  -28.9730    7.7010    1.8980 C   0  0  0  0  0
  -29.8050    7.8390    0.6680 C   0  0  0  0  0
  -30.5930    8.7610    0.5510 O   0  0  0  0  0
  -29.7120    6.8360   -0.4170 C   0  0  0  0  0
  -28.8050    5.8650   -0.2690 C   0  0  0  0  0
  -27.8590    5.6950    0.8830 C   0  0  0  0  0
  -26.4550    5.9080    0.2970 C   0  0  0  0  0
  -27.2200    3.0930   -0.4550 O   0  0  0  0  0
  -25.5830    2.3944    0.9741 H   0  0  0  0  0
  -24.9817    1.2850    2.2305 H   0  0  0  0  0
  -25.7784    0.6355    0.7763 H   0  0  0  0  0
  -29.2142    1.6964    1.7886 H   0  0  0  0  0
  -28.2032    0.9974    0.4444 H   0  0  0  0  0
  -29.2032    3.2993    0.0757 H   0  0  0  0  0
  -29.1307    4.3495    1.9269 H   0  0  0  0  0
  -26.1004    4.1862    2.3281 H   0  0  0  0  0
  -28.2101    2.8305    3.6467 H   0  0  0  0  0
  -26.6165    2.6133    5.3341 H   0  0  0  0  0
  -25.2971    2.4304    4.2484 H   0  0  0  0  0
  -25.5905    0.1387    4.4693 H   0  0  0  0  0
  -28.7258   -1.2965    4.9792 H   0  0  0  0  0
  -29.2309    1.1419    6.3547 H   0  0  0  0  0
  -31.2591    0.6192    4.2210 H   0  0  0  0  0
  -30.1490    2.0207    4.3394 H   0  0  0  0  0
  -32.4449    2.4581    5.2007 H   0  0  0  0  0
  -31.1361    2.6851    6.4274 H   0  0  0  0  0
  -33.0493    0.3731    6.1467 H   0  0  0  0  0
  -32.9434    1.5798    7.4869 H   0  0  0  0  0
  -31.9700   -0.6444    8.0320 H   0  0  0  0  0
  -30.8051    0.7208    8.1424 H   0  0  0  0  0
  -29.7807   -1.2262    7.0483 H   0  0  0  0  0
  -31.0712   -1.2351    5.8331 H   0  0  0  0  0
  -28.2363   -1.0641    0.8984 H   0  0  0  0  0
  -28.4148   -2.3829    2.0687 H   0  0  0  0  0
  -27.4265   -3.0879    0.0832 H   0  0  0  0  0
  -26.6332    5.0090    4.5536 H   0  0  0  0  0
  -28.3992    4.9868    4.1460 H   0  0  0  0  0
  -26.2338    6.7801    3.0195 H   0  0  0  0  0
  -27.6660    7.2501    3.9867 H   0  0  0  0  0
  -29.0914    8.4028    2.7236 H   0  0  0  0  0
  -30.3538    6.8869   -1.2965 H   0  0  0  0  0
  -28.7470    5.1226   -1.0649 H   0  0  0  0  0
  -26.3811    6.9171   -0.1083 H   0  0  0  0  0
  -25.7109    5.7751    1.0823 H   0  0  0  0  0
  -26.2803    5.1823   -0.4973 H   0  0  0  0  0
  -27.3523    2.3309   -1.0236 H   0  0  0  0  0
  1  2  1  0  0  0
  2  3  1  0  0  0
  2  7  1  0  0  0
  2 10  1  0  0  0
  3  4  1  0  0  0
  4  5  1  0  0  0
  4 34  1  0  0  0
  5  6  1  0  0  0
  5 32  1  0  0  0
  6  7  1  0  0  0
  6 24  1  0  0  0
  7  8  1  0  0  0
  8  9  1  0  0  0
  9 10  1  0  0  0
  9 13  1  0  0  0
 10 11  1  0  0  0
 10 20  1  0  0  0
 11 12  1  0  0  0
 12 13  1  0  0  0
 12 14  1  0  0  0
 14 15  1  0  0  0
 14 19  1  0  0  0
 15 16  1  0  0  0
 16 17  1  0  0  0
 17 18  1  0  0  0
 18 19  1  0  0  0
 20 21  2  0  0  0
 20 22  1  0  0  0
 22 23  1  0  0  0
 24 25  1  0  0  0
 25 26  1  0  0  0
 26 27  2  0  0  0
 26 32  1  0  0  0
 27 28  1  0  0  0
 28 29  2  0  0  0
 28 30  1  0  0  0
 30 31  2  0  0  0
 31 32  1  0  0  0
 32 33  1  0  0  0
  1 35  1  0  0  0
  1 36  1  0  0  0
  1 37  1  0  0  0
  3 38  1  0  0  0
  3 39  1  0  0  0
  4 40  1  0  0  0
  5 41  1  0  0  0
  6 42  1  0  0  0
  7 43  1  0  0  0
  8 44  1  0  0  0
  8 45  1  0  0  0
  9 46  1  0  0  0
 12 47  1  0  0  0
 14 48  1  0  0  0
 15 49  1  0  0  0
 15 50  1  0  0  0
 16 51  1  0  0  0
 16 52  1  0  0  0
 17 53  1  0  0  0
 17 54  1  0  0  0
 18 55  1  0  0  0
 18 56  1  0  0  0
 19 57  1  0  0  0
 19 58  1  0  0  0
 22 59  1  0  0  0
 22 60  1  0  0  0
 23 61  1  0  0  0
 24 62  1  0  0  0
 24 63  1  0  0  0
 25 64  1  0  0  0
 25 65  1  0  0  0
 27 66  1  0  0  0
 30 67  1  0  0  0
 31 68  1  0  0  0
 33 69  1  0  0  0
 33 70  1  0  0  0
 33 71  1  0  0  0
 34 72  1  0  0  0
M  END
$$$$
