2oc0_ligand
  -I-interpret- 

 87 90  0  0  0  0  0  0  0  0999 V2000
  192.0400  -10.3830   49.1750 C   0  0  0  0  0
  192.6100  -11.3340   49.7220 O   0  0  0  0  0
  190.7010  -10.1490   49.1460 O   0  0  0  0  0
  189.6590  -10.8590   49.8960 C   0  0  0  0  0
  188.8670  -11.6610   48.8600 C   0  0  0  0  0
  188.6840   -9.8300   50.5060 C   0  0  0  0  0
  190.1540  -11.7810   51.0490 C   0  0  0  0  0
  192.6970   -9.4530   48.4900 N   0  0  0  0  0
  194.1490   -9.4430   48.3710 C   0  0  0  0  0
  194.5800   -8.7860   47.0610 C   0  0  0  0  0
  196.1050   -8.7530   46.9420 C   0  0  0  0  0
  193.9770   -9.5210   45.8640 C   0  0  0  0  0
  196.5840   -8.2110   45.6040 C   0  0  0  0  0
  194.4350   -8.9710   44.5290 C   0  0  0  0  0
  195.9540   -8.9900   44.4410 C   0  0  0  0  0
  194.6890   -8.6180   49.5320 C   0  0  0  0  0
  194.4110   -7.4160   49.6280 O   0  0  0  0  0
  195.4120   -9.2600   50.4620 N   0  0  0  0  0
  195.7630  -10.6890   50.4960 C   0  0  0  0  0
  195.9690   -8.5470   51.6160 C   0  0  0  0  0
  196.4400   -9.5730   52.5860 C   0  0  0  0  0
  196.4840  -10.8420   51.8110 C   0  0  0  0  0
  195.6430  -10.7580   53.0880 C   0  0  0  0  0
  196.1630  -11.4340   54.3160 C   0  0  0  0  0
  194.1510  -10.7130   52.9690 C   0  0  0  0  0
  197.0190   -7.5340   51.1720 C   0  0  0  0  0
  198.0030   -7.8880   50.5080 O   0  0  0  0  0
  196.8130   -6.2780   51.5510 N   0  0  0  0  0
  197.7280   -5.2110   51.1700 C   0  0  0  0  0
  196.9610   -4.1400   50.3820 C   0  0  0  0  0
  196.3330   -4.6740   49.0670 C   0  0  0  0  0
  195.3550   -3.7610   48.3230 C   0  0  0  0  0
  197.2360   -4.6540   47.8320 C   0  0  0  0  0
  196.0300   -4.1670   47.0070 C   0  0  0  0  0
  199.0140   -5.7020   53.2040 O   0  0  0  0  0
  198.4720   -4.6140   52.3950 C   0  0  0  0  0
  199.4910   -2.7450   51.3070 O   0  0  0  0  0
  200.9060   -4.3320   52.0080 N   0  0  0  0  0
  199.6880   -3.8230   51.8580 C   0  0  0  0  0
  189.5046  -12.4387   48.4396 H   0  0  0  0  0
  188.0022  -12.1187   49.3404 H   0  0  0  0  0
  188.5322  -10.9946   48.0650 H   0  0  0  0  0
  187.8435  -10.3535   50.9617 H   0  0  0  0  0
  189.2035   -9.2445   51.2646 H   0  0  0  0  0
  188.3188   -9.1677   49.7211 H   0  0  0  0  0
  190.6602  -11.1780   51.8028 H   0  0  0  0  0
  189.3003  -12.2870   51.4998 H   0  0  0  0  0
  190.8468  -12.5212   50.6486 H   0  0  0  0  0
  192.1631   -8.7163   48.0288 H   0  0  0  0  0
  194.5300  -10.4641   48.3855 H   0  0  0  0  0
  194.2108   -7.7604   47.0648 H   0  0  0  0  0
  196.4680   -9.7766   47.0352 H   0  0  0  0  0
  196.4852   -8.0943   47.7228 H   0  0  0  0  0
  192.8948   -9.4012   45.9154 H   0  0  0  0  0
  194.2996  -10.5607   45.9197 H   0  0  0  0  0
  197.6676   -8.3163   45.5505 H   0  0  0  0  0
  196.2910   -7.1641   45.5245 H   0  0  0  0  0
  194.0863   -7.9431   44.4298 H   0  0  0  0  0
  194.0252   -9.5896   43.7305 H   0  0  0  0  0
  196.2935  -10.0246   44.4894 H   0  0  0  0  0
  196.2552   -8.5221   43.5037 H   0  0  0  0  0
  196.3755  -10.9895   49.6459 H   0  0  0  0  0
  194.8892  -11.3361   50.4205 H   0  0  0  0  0
  195.2229   -7.9367   52.1249 H   0  0  0  0  0
  197.0291   -8.8874   53.1951 H   0  0  0  0  0
  197.2326  -11.5568   51.4693 H   0  0  0  0  0
  197.1689  -11.8078   54.1251 H   0  0  0  0  0
  196.1895  -10.7196   55.1388 H   0  0  0  0  0
  195.5083  -12.2657   54.5762 H   0  0  0  0  0
  193.7686   -9.8600   53.5296 H   0  0  0  0  0
  193.8744  -10.6132   51.9194 H   0  0  0  0  0
  193.7278  -11.6332   53.3717 H   0  0  0  0  0
  195.9967   -6.0560   52.1209 H   0  0  0  0  0
  198.5034   -5.6288   50.5279 H   0  0  0  0  0
  197.6713   -3.3582   50.1131 H   0  0  0  0  0
  196.1471   -3.7863   51.0149 H   0  0  0  0  0
  195.9838   -5.6093   49.5044 H   0  0  0  0  0
  195.2552   -2.7107   48.5969 H   0  0  0  0  0
  194.2788   -3.8727   48.4546 H   0  0  0  0  0
  197.7955   -5.5408   47.5342 H   0  0  0  0  0
  198.1733   -4.0976   47.8338 H   0  0  0  0  0
  196.1566   -3.4501   46.1957 H   0  0  0  0  0
  195.5296   -4.8278   46.2991 H   0  0  0  0  0
  199.4749   -5.3363   53.9626 H   0  0  0  0  0
  197.7918   -3.9938   52.9789 H   0  0  0  0  0
  201.7180   -3.8228   51.6591 H   0  0  0  0  0
  201.0291   -5.2320   52.4720 H   0  0  0  0  0
  1  2  2  0  0  0
  1  3  1  0  0  0
  1  8  1  0  0  0
  3  4  1  0  0  0
  4  5  1  0  0  0
  4  6  1  0  0  0
  4  7  1  0  0  0
  8  9  1  0  0  0
  9 10  1  0  0  0
  9 16  1  0  0  0
 10 11  1  0  0  0
 10 12  1  0  0  0
 11 13  1  0  0  0
 12 14  1  0  0  0
 13 15  1  0  0  0
 14 15  1  0  0  0
 16 17  2  0  0  0
 16 18  1  0  0  0
 18 19  1  0  0  0
 18 20  1  0  0  0
 19 22  1  0  0  0
 20 21  1  0  0  0
 20 26  1  0  0  0
 21 22  1  0  0  0
 21 23  1  0  0  0
 22 23  1  0  0  0
 23 24  1  0  0  0
 23 25  1  0  0  0
 26 27  2  0  0  0
 26 28  1  0  0  0
 28 29  1  0  0  0
 29 30  1  0  0  0
 29 36  1  0  0  0
 30 31  1  0  0  0
 31 32  1  0  0  0
 31 33  1  0  0  0
 32 34  1  0  0  0
 33 34  1  0  0  0
 36 35  1  0  0  0
 36 39  1  0  0  0
 39 37  2  0  0  0
 39 38  1  0  0  0
  5 40  1  0  0  0
  5 41  1  0  0  0
  5 42  1  0  0  0
  6 43  1  0  0  0
  6 44  1  0  0  0
  6 45  1  0  0  0
  7 46  1  0  0  0
  7 47  1  0  0  0
  7 48  1  0  0  0
  8 49  1  0  0  0
  9 50  1  0  0  0
 10 51  1  0  0  0
 11 52  1  0  0  0
 11 53  1  0  0  0
 12 54  1  0  0  0
 12 55  1  0  0  0
 13 56  1  0  0  0
 13 57  1  0  0  0
 14 58  1  0  0  0
 14 59  1  0  0  0
 15 60  1  0  0  0
 15 61  1  0  0  0
 19 62  1  0  0  0
 19 63  1  0  0  0
 20 64  1  0  0  0
 21 65  1  0  0  0
 22 66  1  0  0  0
 24 67  1  0  0  0
 24 68  1  0  0  0
 24 69  1  0  0  0
 25 70  1  0  0  0
 25 71  1  0  0  0
 25 72  1  0  0  0
 28 73  1  0  0  0
 29 74  1  0  0  0
 30 75  1  0  0  0
 30 76  1  0  0  0
 31 77  1  0  0  0
 32 78  1  0  0  0
 32 79  1  0  0  0
 33 80  1  0  0  0
 33 81  1  0  0  0
 34 82  1  0  0  0
 34 83  1  0  0  0
 35 84  1  0  0  0
 36 85  1  0  0  0
 38 86  1  0  0  0
 38 87  1  0  0  0
M  END
$$$$
