2jkm_ligand
  -I-interpret- 

 70 73  0  0  0  0  0  0  0  0999 V2000
   10.8430    3.2190   22.2240 C   0  0  0  0  0
   11.2370    3.3060   23.6990 C   0  0  0  0  0
   12.2500    2.1940   23.9810 C   0  0  0  0  0
   11.8170    4.6430   23.9950 N   0  0  0  0  0
   11.3420    5.4670   25.3700 S   0  0  0  0  0
   12.3910    6.4570   25.7840 O   0  0  0  0  0
   10.0920    6.2350   25.0780 O   0  0  0  0  0
   11.1320    4.3470   26.7280 C   0  0  0  0  0
   12.2990    3.8090   27.2890 C   0  0  0  0  0
   12.2380    2.9140   28.3560 C   0  0  0  0  0
   10.9940    2.5530   28.8630 C   0  0  0  0  0
    9.8270    3.0940   28.3060 C   0  0  0  0  0
    9.8690    3.9870   27.2300 C   0  0  0  0  0
    8.7390    4.5150   26.6990 N   0  0  0  0  0
    7.5040    3.9590   26.6490 C   0  0  0  0  0
    7.1990    2.7680   27.2170 N   0  0  0  0  0
    6.4860    4.6450   25.9870 C   0  0  0  0  0
    6.8310    6.1870   25.2660 Cl  0  0  0  0  0
    5.2080    4.0800   25.9090 C   0  0  0  0  0
    4.9730    2.8930   26.4690 N   0  0  0  0  0
    5.9580    2.2340   27.1170 C   0  0  0  0  0
    5.6800    1.0490   27.6680 N   0  0  0  0  0
    6.5180    0.3440   28.4420 C   0  0  0  0  0
    6.0090   -0.2050   29.6220 C   0  0  0  0  0
    6.8440   -0.9660   30.4450 C   0  0  0  0  0
    4.6990    0.0170   29.9350 O   0  0  0  0  0
    4.2800   -0.4360   31.2360 C   0  0  0  0  0
    7.8610    0.1010   28.0930 C   0  0  0  0  0
    8.6940   -0.6580   28.9260 C   0  0  0  0  0
    8.1800   -1.2040   30.1130 C   0  0  0  0  0
    8.9210   -1.9480   30.9490 N   0  0  0  0  0
   10.3390   -2.3010   30.8130 C   0  0  0  0  0
    8.3990   -2.5560   32.1730 C   0  0  0  0  0
    9.6340   -2.8130   33.0270 C   0  0  0  0  0
   10.7630   -2.1250   32.2680 C   0  0  0  0  0
   12.0840   -2.7150   32.6260 N   0  3  0  0  0
   12.7050   -3.5350   31.5410 C   0  0  0  0  0
   10.1033    3.9879   22.0009 H   0  0  0  0  0
   11.7262    3.3718   21.6037 H   0  0  0  0  0
   10.4197    2.2356   22.0197 H   0  0  0  0  0
   10.3634    3.1789   24.3383 H   0  0  0  0  0
   13.1310    2.3397   23.3559 H   0  0  0  0  0
   12.5391    2.2255   25.0315 H   0  0  0  0  0
   11.7989    1.2276   23.7558 H   0  0  0  0  0
   12.5019    5.0557   23.3617 H   0  0  0  0  0
   13.2697    4.0953   26.8842 H   0  0  0  0  0
   13.1513    2.5033   28.7865 H   0  0  0  0  0
   10.9267    1.8497   29.6931 H   0  0  0  0  0
    8.8603    2.8111   28.7227 H   0  0  0  0  0
    8.8292    5.4437   26.2870 H   0  0  0  0  0
    4.4072    4.6087   25.3920 H   0  0  0  0  0
    4.7592    0.6497   27.4859 H   0  0  0  0  0
    6.4430   -1.3840   31.3684 H   0  0  0  0  0
    4.4336   -1.5125   31.3114 H   0  0  0  0  0
    4.8669    0.0706   32.0021 H   0  0  0  0  0
    3.2234   -0.2078   31.3759 H   0  0  0  0  0
    8.2574    0.5086   27.1630 H   0  0  0  0  0
    9.7363   -0.8237   28.6536 H   0  0  0  0  0
   10.8972   -1.7020   30.0935 H   0  0  0  0  0
   10.5310   -3.2879   30.3920 H   0  0  0  0  0
    7.8444   -3.4722   31.9700 H   0  0  0  0  0
    7.6810   -1.9089   32.6768 H   0  0  0  0  0
    9.8222   -3.8773   33.1685 H   0  0  0  0  0
    9.5223   -2.4245   34.0393 H   0  0  0  0  0
   10.9077   -1.0708   32.5041 H   0  0  0  0  0
   11.9304   -3.3354   33.4209 H   0  0  0  0  0
   12.7180   -1.9389   32.8163 H   0  0  0  0  0
   12.0426   -4.3631   31.2888 H   0  0  0  0  0
   12.8611   -2.9118   30.6605 H   0  0  0  0  0
   13.6624   -3.9258   31.8855 H   0  0  0  0  0
  1  2  1  0  0  0
  2  3  1  0  0  0
  2  4  1  0  0  0
  4  5  1  0  0  0
  5  6  2  0  0  0
  5  7  2  0  0  0
  5  8  1  0  0  0
  8  9  4  0  0  0
  8 13  4  0  0  0
  9 10  4  0  0  0
 10 11  4  0  0  0
 11 12  4  0  0  0
 12 13  4  0  0  0
 13 14  1  0  0  0
 14 15  1  0  0  0
 15 16  4  0  0  0
 15 17  4  0  0  0
 16 21  4  0  0  0
 17 18  1  0  0  0
 17 19  4  0  0  0
 19 20  4  0  0  0
 20 21  4  0  0  0
 21 22  1  0  0  0
 22 23  1  0  0  0
 23 24  4  0  0  0
 23 28  4  0  0  0
 24 25  4  0  0  0
 24 26  1  0  0  0
 25 30  4  0  0  0
 26 27  1  0  0  0
 28 29  4  0  0  0
 29 30  4  0  0  0
 30 31  1  0  0  0
 31 32  1  0  0  0
 31 33  1  0  0  0
 32 35  1  0  0  0
 33 34  1  0  0  0
 34 35  1  0  0  0
 35 36  1  0  0  0
 36 37  1  0  0  0
  1 38  1  0  0  0
  1 39  1  0  0  0
  1 40  1  0  0  0
  2 41  1  0  0  0
  3 42  1  0  0  0
  3 43  1  0  0  0
  3 44  1  0  0  0
  4 45  1  0  0  0
  9 46  1  0  0  0
 10 47  1  0  0  0
 11 48  1  0  0  0
 12 49  1  0  0  0
 14 50  1  0  0  0
 19 51  1  0  0  0
 22 52  1  0  0  0
 25 53  1  0  0  0
 27 54  1  0  0  0
 27 55  1  0  0  0
 27 56  1  0  0  0
 28 57  1  0  0  0
 29 58  1  0  0  0
 32 59  1  0  0  0
 32 60  1  0  0  0
 33 61  1  0  0  0
 33 62  1  0  0  0
 34 63  1  0  0  0
 34 64  1  0  0  0
 35 65  1  0  0  0
 36 66  1  0  0  0
 36 67  1  0  0  0
 37 68  1  0  0  0
 37 69  1  0  0  0
 37 70  1  0  0  0
M  END
$$$$
