### 
### Created by X-TOOL on Mon Sep 10 21:12:48 2018
### 

@<TRIPOS>MOLECULE
1jjk_ligand
   33    34     1     0     0
SMALL
GAST_HUCK


@<TRIPOS>ATOM
      1 P         -19.2480    1.8330   10.2510 P.3       1 BMP         0.2008
      2 N1        -18.4460   -0.7470   16.0780 N.pl3     1 BMP        -0.1183
      3 C2        -18.4340   -1.6770   15.0330 C.2       1 BMP         0.3011
      4 O2        -18.2530   -1.3150   13.7640 O.3       1 BMP        -0.2624
      5 N3        -18.6180   -3.0180   15.3720 N.2       1 BMP        -0.2622
      6 C4        -18.8060   -3.4120   16.6750 C.2       1 BMP         0.0959
      7 O4        -18.9660   -4.6150   16.9330 O.2       1 BMP        -0.4482
      8 C5        -18.8120   -2.4190   17.6980 C.2       1 BMP         0.0138
      9 C6        -18.6240   -1.1170   17.3050 C.2       1 BMP         0.2213
     10 O1        -18.6280   -0.1700   18.2910 O.3       1 BMP        -0.2865
     11 OP1       -18.6140    0.6440    9.4900 O.co2     1 BMP        -0.5537
     12 OP2       -20.7560    1.8640   10.2340 O.co2     1 BMP        -0.5537
     13 OP3       -18.6880    3.1380    9.6960 O.co2     1 BMP        -0.5537
     14 O5'       -18.7390    1.6240   11.7610 O.3       1 BMP        -0.2734
     15 C5'       -19.1830    2.5800   12.7480 C.3       1 BMP         0.1071
     16 C4'       -18.6750    2.4480   14.1340 C.3       1 BMP         0.1181
     17 O4'       -19.3020    1.2530   14.8980 O.3       1 BMP        -0.3366
     18 C3'       -17.2000    2.4860   14.4840 C.3       1 BMP         0.1148
     19 O3'       -16.9730    3.5060   15.5290 O.3       1 BMP        -0.3864
     20 C2'       -16.9110    1.0890   15.0990 C.3       1 BMP         0.1383
     21 O2'       -15.8450    0.9780   15.9490 O.3       1 BMP        -0.3837
     22 C1'       -18.2380    0.7480   15.7490 C.3       1 BMP         0.2102
     23 H1        -18.2776   -2.0859   13.2094 H         1 BMP         0.2719
     24 H2        -18.9592   -2.6816   18.7446 H         1 BMP         0.0165
     25 H3        -18.7685   -0.5900   19.1314 H         1 BMP         0.2646
     26 H4        -20.2799    2.5129   12.7957 H         1 BMP         0.0639
     27 H5        -18.8920    3.5780   12.3884 H         1 BMP         0.0639
     28 H6        -19.0760    3.3499   14.6195 H         1 BMP         0.0650
     29 H7        -16.5765    2.6828   13.5994 H         1 BMP         0.0648
     30 H8        -17.2457    4.3562   15.2046 H         1 BMP         0.2100
     31 H9        -16.7205    0.3835   14.2768 H         1 BMP         0.0675
     32 H10       -15.0490    1.2192   15.4900 H         1 BMP         0.2101
     33 H11       -18.2809    1.2897   16.7054 H         1 BMP         0.0991
@<TRIPOS>BOND
     1    1   11 ar 
     2    1   12 ar 
     3    1   13 ar 
     4   14    1 1  
     5    2    3 1  
     6    2    9 1  
     7   22    2 1  
     8    3    4 1  
     9    3    5 2  
    10    5    6 1  
    11    6    7 2  
    12    8    6 1  
    13    9    8 2  
    14    9   10 1  
    15   15   14 1  
    16   16   15 1  
    17   17   16 1  
    18   16   18 1  
    19   17   22 1  
    20   18   19 1  
    21   18   20 1  
    22   20   21 1  
    23   20   22 1  
    24    4   23 1  
    25    8   24 1  
    26   10   25 1  
    27   15   26 1  
    28   15   27 1  
    29   16   28 1  
    30   18   29 1  
    31   19   30 1  
    32   20   31 1  
    33   21   32 1  
    34   22   33 1  
@<TRIPOS>SUBSTRUCTURE
     1 BMP         1

