1jjk_ligand
  -I-interpret- 

 35 36  0  0  0  0  0  0  0  0999 V2000
  -19.2480    1.8330   10.2510 P   0  0  0  0  0
  -18.4460   -0.7470   16.0780 N   0  0  0  0  0
  -18.4340   -1.6770   15.0330 C   0  0  0  0  0
  -18.2530   -1.3150   13.7640 O   0  0  0  0  0
  -18.6180   -3.0180   15.3720 N   0  0  0  0  0
  -18.8060   -3.4120   16.6750 C   0  0  0  0  0
  -18.9660   -4.6150   16.9330 O   0  0  0  0  0
  -18.8120   -2.4190   17.6980 C   0  0  0  0  0
  -18.6240   -1.1170   17.3050 C   0  0  0  0  0
  -18.6280   -0.1700   18.2910 O   0  0  0  0  0
  -18.6140    0.6440    9.4900 O   0  0  0  0  0
  -20.7560    1.8640   10.2340 O   0  0  0  0  0
  -18.6880    3.1380    9.6960 O   0  0  0  0  0
  -18.7390    1.6240   11.7610 O   0  0  0  0  0
  -19.1830    2.5800   12.7480 C   0  0  0  0  0
  -18.6750    2.4480   14.1340 C   0  0  0  0  0
  -19.3020    1.2530   14.8980 O   0  0  0  0  0
  -17.2000    2.4860   14.4840 C   0  0  0  0  0
  -16.9730    3.5060   15.5290 O   0  0  0  0  0
  -16.9110    1.0890   15.0990 C   0  0  0  0  0
  -15.8450    0.9780   15.9490 O   0  0  0  0  0
  -18.2380    0.7480   15.7490 C   0  0  0  0  0
  -18.1439   -0.3624   13.7166 H   0  0  0  0  0
  -18.9593   -2.6818   18.7455 H   0  0  0  0  0
  -18.4888    0.6964   17.9016 H   0  0  0  0  0
  -17.6576    0.7003    9.5504 H   0  0  0  0  0
  -17.7287    3.1058    9.7122 H   0  0  0  0  0
  -20.2606    2.4343   12.8231 H   0  0  0  0  0
  -18.8141    3.5443   12.3986 H   0  0  0  0  0
  -19.0138    3.4340   14.4520 H   0  0  0  0  0
  -16.5743    2.7174   13.6220 H   0  0  0  0  0
  -16.0396    3.5317   15.7521 H   0  0  0  0  0
  -16.5796    0.3914   14.3298 H   0  0  0  0  0
  -15.7759    0.0714   16.2571 H   0  0  0  0  0
  -18.2479    1.2302   16.7265 H   0  0  0  0  0
  1 11  1  0  0  0
  1 12  2  0  0  0
  1 13  1  0  0  0
 14  1  1  0  0  0
  2  3  1  0  0  0
  2  9  1  0  0  0
 22  2  1  0  0  0
  3  4  1  0  0  0
  3  5  2  0  0  0
  5  6  1  0  0  0
  6  7  2  0  0  0
  8  6  1  0  0  0
  9  8  2  0  0  0
  9 10  1  0  0  0
 15 14  1  0  0  0
 16 15  1  0  0  0
 17 16  1  0  0  0
 16 18  1  0  0  0
 17 22  1  0  0  0
 18 19  1  0  0  0
 18 20  1  0  0  0
 20 21  1  0  0  0
 20 22  1  0  0  0
  4 23  1  0  0  0
  8 24  1  0  0  0
 10 25  1  0  0  0
 11 26  1  0  0  0
 13 27  1  0  0  0
 15 28  1  0  0  0
 15 29  1  0  0  0
 16 30  1  0  0  0
 18 31  1  0  0  0
 19 32  1  0  0  0
 20 33  1  0  0  0
 21 34  1  0  0  0
 22 35  1  0  0  0
M  END
$$$$
