2bmg_ligand
  -I-interpret- 

 64 67  0  0  0  0  0  0  0  0999 V2000
    3.8120    7.9900   25.3070 C   0  0  0  0  0
    5.0280    7.5780   24.5880 C   0  0  0  0  0
    4.9910    6.4930   23.5850 C   0  0  0  0  0
    3.7460    5.7790   23.3140 C   0  0  0  0  0
    2.5260    6.1320   24.0590 C   0  0  0  0  0
    2.5660    7.2380   25.0340 C   0  0  0  0  0
    3.9280    9.0680   26.2040 O   0  0  0  0  0
    6.1620    8.2690   24.9070 O   0  0  0  0  0
    7.4030    7.5870   24.9370 C   0  0  0  0  0
    8.2520    8.6020   25.6600 C   0  0  0  0  0
    9.6650    8.1600   25.8450 C   0  0  0  0  0
   10.0950    7.5480   27.1060 C   0  0  0  0  0
   11.5060    7.2120   27.3490 C   0  0  0  0  0
   12.4930    7.4540   26.2900 C   0  0  0  0  0
   12.0680    8.0340   25.0290 C   0  0  0  0  0
   10.6740    8.3950   24.8240 C   0  0  0  0  0
   10.2970    9.1490   23.3750 Cl  0  0  0  0  0
   14.1310    7.0960   26.5020 Cl  0  0  0  0  0
    3.7170    4.8000   22.2570 C   0  0  0  0  0
    4.8490    4.0550   22.1330 N   0  0  0  0  0
    4.8180    3.1920   20.9580 C   0  0  0  0  0
    5.8570    3.6340   19.9300 C   0  0  0  0  0
    7.2640    3.3010   20.4130 C   0  0  0  0  0
    8.3510    3.5980   19.3810 C   0  0  0  0  0
    8.0230    2.8940   18.1060 N   0  0  0  0  0
    6.6890    3.2520   17.5610 C   0  0  0  0  0
    5.6490    2.8910   18.6090 C   0  0  0  0  0
    8.8170    1.8950   17.5260 C   0  0  0  0  0
   10.1620    1.6120   18.0440 C   0  0  0  0  0
   10.9040    0.4990   17.4880 C   0  0  0  0  0
   10.3010   -0.2430   16.4750 N   0  0  0  0  0
    9.0470   -0.0170   15.9140 C   0  0  0  0  0
    8.2690    1.0760   16.4330 C   0  0  0  0  0
    2.7340    4.6680   21.5270 O   0  0  0  0  0
    2.7830    9.9030   26.4380 C   0  0  0  0  0
    5.8984    6.2241   23.0443 H   0  0  0  0  0
    1.6009    5.5805   23.8913 H   0  0  0  0  0
    1.6548    7.5088   25.5674 H   0  0  0  0  0
    7.7822    7.3050   23.9548 H   0  0  0  0  0
    7.3651    6.6104   25.4197 H   0  0  0  0  0
    7.8196    8.7501   26.6495 H   0  0  0  0  0
    8.2659    9.5105   25.0579 H   0  0  0  0  0
    9.3548    7.3380   27.8781 H   0  0  0  0  0
   11.8152    6.7882   28.3044 H   0  0  0  0  0
   12.7951    8.1994   24.2340 H   0  0  0  0  0
    5.6303    4.0956   22.7875 H   0  0  0  0  0
    3.8286    3.2523   20.5047 H   0  0  0  0  0
    5.0426    2.1711   21.2668 H   0  0  0  0  0
    5.7417    4.7092   19.7930 H   0  0  0  0  0
    7.2938    2.2314   20.6206 H   0  0  0  0  0
    7.4649    3.9207   21.2869 H   0  0  0  0  0
    9.3143    3.2497   19.7538 H   0  0  0  0  0
    8.4026    4.6721   19.2029 H   0  0  0  0  0
    6.4992    2.7083   16.6355 H   0  0  0  0  0
    6.6453    4.3174   17.3348 H   0  0  0  0  0
    4.6704    3.1708   18.2188 H   0  0  0  0  0
    5.7335    1.8229   18.8095 H   0  0  0  0  0
   10.5940    2.2283   18.8325 H   0  0  0  0  0
   11.9014    0.2503   17.8504 H   0  0  0  0  0
    8.6678   -0.6467   15.1091 H   0  0  0  0  0
    7.2840    1.2953   16.0210 H   0  0  0  0  0
    2.4696   10.3592   25.4990 H   0  0  0  0  0
    1.9696    9.2981   26.8388 H   0  0  0  0  0
    3.0439   10.6831   27.1532 H   0  0  0  0  0
  1  2  4  0  0  0
  1  6  4  0  0  0
  1  7  1  0  0  0
  2  3  4  0  0  0
  2  8  1  0  0  0
  3  4  4  0  0  0
  4  5  4  0  0  0
  4 19  1  0  0  0
  5  6  4  0  0  0
  7 35  1  0  0  0
  8  9  1  0  0  0
  9 10  1  0  0  0
 10 11  1  0  0  0
 11 12  4  0  0  0
 11 16  4  0  0  0
 12 13  4  0  0  0
 13 14  4  0  0  0
 14 15  4  0  0  0
 14 18  1  0  0  0
 15 16  4  0  0  0
 16 17  1  0  0  0
 19 20  1  0  0  0
 19 34  2  0  0  0
 20 21  1  0  0  0
 21 22  1  0  0  0
 22 23  1  0  0  0
 22 27  1  0  0  0
 23 24  1  0  0  0
 24 25  1  0  0  0
 25 26  1  0  0  0
 25 28  1  0  0  0
 26 27  1  0  0  0
 28 29  4  0  0  0
 28 33  4  0  0  0
 29 30  4  0  0  0
 30 31  4  0  0  0
 31 32  4  0  0  0
 32 33  4  0  0  0
  3 36  1  0  0  0
  5 37  1  0  0  0
  6 38  1  0  0  0
  9 39  1  0  0  0
  9 40  1  0  0  0
 10 41  1  0  0  0
 10 42  1  0  0  0
 12 43  1  0  0  0
 13 44  1  0  0  0
 15 45  1  0  0  0
 20 46  1  0  0  0
 21 47  1  0  0  0
 21 48  1  0  0  0
 22 49  1  0  0  0
 23 50  1  0  0  0
 23 51  1  0  0  0
 24 52  1  0  0  0
 24 53  1  0  0  0
 26 54  1  0  0  0
 26 55  1  0  0  0
 27 56  1  0  0  0
 27 57  1  0  0  0
 29 58  1  0  0  0
 30 59  1  0  0  0
 32 60  1  0  0  0
 33 61  1  0  0  0
 35 62  1  0  0  0
 35 63  1  0  0  0
 35 64  1  0  0  0
M  END
$$$$
