5zr3_ligand
  -I-interpret- 

 57 61  0  0  0  0  0  0  0  0999 V2000
   26.9750   19.2520    6.4690 O   0  0  0  0  0
   27.4950   19.9450    7.3520 C   0  0  0  0  0
   26.9250   21.0910    7.6930 N   0  0  0  0  0
   28.8440   19.6450    7.9620 C   0  0  0  0  0
   29.3040   20.1730    9.1710 C   0  0  0  0  0
   30.5940   19.9110    9.6270 C   0  0  0  0  0
   30.9770   20.5000   10.9610 C   0  0  0  0  0
   29.7190   18.8760    7.2160 C   0  0  0  0  0
   31.0200   18.5910    7.6650 C   0  0  0  0  0
   31.5310   19.0330    8.8740 C   0  0  0  0  0
   32.7810   18.9150    9.2770 N   0  0  0  0  0
   33.2510   18.5090   10.5140 N   0  0  0  0  0
   34.5910   18.7190   10.5080 C   0  0  0  0  0
   35.5930   18.4740   11.5610 C   0  0  0  0  0
   34.9690   19.0010   12.8760 C   0  0  0  0  0
   36.0580   17.0320   11.6400 C   0  0  0  0  0
   34.9770   19.4030    9.2390 C   0  0  0  0  0
   33.6860   19.5080    8.5120 C   0  0  0  0  0
   33.5920   20.0860    7.2860 N   0  0  0  0  0
   34.6740   20.5590    6.7070 C   0  0  0  0  0
   35.9290   20.5030    7.3280 C   0  0  0  0  0
   36.2010   19.9700    8.6010 C   0  0  0  0  0
   37.4410   19.9200    9.1930 N   0  0  0  0  0
   38.0590   18.7500    9.4070 C   0  0  0  0  0
   39.2510   19.0290    9.9770 N   0  0  0  0  0
   38.1950   20.9760    9.5450 C   0  0  0  0  0
   39.3240   20.3400   10.0770 C   0  0  0  0  0
   40.5960   20.9010   10.6380 C   0  0  0  0  0
   41.5420   20.1500   11.3540 C   0  0  0  0  0
   42.5830   20.9810   11.6530 N   0  0  0  0  0
   41.0220   22.1890   10.4530 C   0  0  0  0  0
   42.2090   22.2220   11.0970 N   0  0  0  0  0
   43.1810   23.3120   11.2990 C   0  0  0  0  0
   26.0680   21.3922    7.2291 H   0  0  0  0  0
   27.3431   21.6722    8.4195 H   0  0  0  0  0
   28.6421   20.8007    9.7677 H   0  0  0  0  0
   30.8952   21.5859   10.9142 H   0  0  0  0  0
   30.3079   20.1168   11.7315 H   0  0  0  0  0
   32.0038   20.2216   11.1983 H   0  0  0  0  0
   29.3909   18.4807    6.2547 H   0  0  0  0  0
   31.6637   17.9875    7.0250 H   0  0  0  0  0
   36.5192   19.0035   11.3377 H   0  0  0  0  0
   34.7560   20.0652   12.7747 H   0  0  0  0  0
   34.0438   18.4617   13.0793 H   0  0  0  0  0
   35.6693   18.8459   13.6967 H   0  0  0  0  0
   35.2043   16.3872   11.8484 H   0  0  0  0  0
   36.5088   16.7444   10.6902 H   0  0  0  0  0
   36.7938   16.9321   12.4379 H   0  0  0  0  0
   34.5923   21.0070    5.7167 H   0  0  0  0  0
   36.7736   20.9107    6.7725 H   0  0  0  0  0
   37.6722   17.7598    9.1663 H   0  0  0  0  0
   37.9844   22.0407    9.4437 H   0  0  0  0  0
   41.4602   19.0966   11.6220 H   0  0  0  0  0
   40.5228   22.9948    9.9149 H   0  0  0  0  0
   43.3231   23.4771   12.3670 H   0  0  0  0  0
   44.1322   23.0380   10.8427 H   0  0  0  0  0
   42.8038   24.2239   10.8361 H   0  0  0  0  0
  1  2  2  0  0  0
  2  3  1  0  0  0
  2  4  1  0  0  0
  4  5  4  0  0  0
  4  8  4  0  0  0
  5  6  4  0  0  0
  6  7  1  0  0  0
  6 10  4  0  0  0
  8  9  4  0  0  0
  9 10  4  0  0  0
 10 11  1  0  0  0
 11 12  4  0  0  0
 11 18  4  0  0  0
 12 13  4  0  0  0
 13 14  1  0  0  0
 13 17  4  0  0  0
 14 15  1  0  0  0
 14 16  1  0  0  0
 17 18  4  0  0  0
 17 22  4  0  0  0
 18 19  4  0  0  0
 19 20  4  0  0  0
 20 21  4  0  0  0
 21 22  4  0  0  0
 22 23  1  0  0  0
 23 24  4  0  0  0
 23 26  4  0  0  0
 24 25  4  0  0  0
 25 27  4  0  0  0
 26 27  4  0  0  0
 27 28  1  0  0  0
 28 29  4  0  0  0
 28 31  4  0  0  0
 29 30  4  0  0  0
 30 32  4  0  0  0
 31 32  4  0  0  0
 32 33  1  0  0  0
  3 34  1  0  0  0
  3 35  1  0  0  0
  5 36  1  0  0  0
  7 37  1  0  0  0
  7 38  1  0  0  0
  7 39  1  0  0  0
  8 40  1  0  0  0
  9 41  1  0  0  0
 14 42  1  0  0  0
 15 43  1  0  0  0
 15 44  1  0  0  0
 15 45  1  0  0  0
 16 46  1  0  0  0
 16 47  1  0  0  0
 16 48  1  0  0  0
 20 49  1  0  0  0
 21 50  1  0  0  0
 24 51  1  0  0  0
 26 52  1  0  0  0
 29 53  1  0  0  0
 31 54  1  0  0  0
 33 55  1  0  0  0
 33 56  1  0  0  0
 33 57  1  0  0  0
M  END
$$$$
