4exz_ligand
  -I-interpret- 

 50 50  0  0  0  0  0  0  0  0999 V2000
   -7.1050    1.3130    5.4060 C   0  0  0  0  0
   -8.3720    1.6820    6.1580 C   0  0  0  0  0
   -8.0530    2.7550    7.1850 C   0  0  0  0  0
   -7.6520    4.0420    6.4790 C   0  0  0  0  0
   -6.6960    3.7790    5.3360 C   0  0  0  0  0
   -6.4520    2.5570    4.8540 C   0  0  0  0  0
   -5.5010    2.4170    3.7360 C   0  0  0  0  0
   -5.6460    1.4280    2.8590 C   0  0  0  0  0
   -4.6950    1.2880    1.7410 C   0  0  0  0  0
   -3.9690    0.1680    1.6150 C   0  0  0  0  0
   -3.0270    0.0290    0.5080 C   0  0  0  0  0
   -2.3370   -1.0980    0.3590 C   0  0  0  0  0
   -1.3850   -1.2380   -0.7590 C   0  0  0  0  0
   -0.6420   -2.3470   -0.8710 C   0  0  0  0  0
    0.3000   -2.4850   -1.9790 C   0  0  0  0  0
   -7.4350    0.3830    4.2460 C   0  0  0  0  0
   -6.1200    0.6340    6.3510 C   0  0  0  0  0
   -5.9910    4.9470    4.7120 C   0  0  0  0  0
   -4.5390    2.3980    0.7440 C   0  0  0  0  0
   -1.2500   -0.1390   -1.7710 C   0  0  0  0  0
   -8.7663    0.8000    6.6627 H   0  0  0  0  0
   -9.1159    2.0589    5.4561 H   0  0  0  0  0
   -7.2294    2.4177    7.8144 H   0  0  0  0  0
   -8.9349    2.9403    7.7982 H   0  0  0  0  0
   -7.1541    4.6890    7.2012 H   0  0  0  0  0
   -8.5514    4.5063    6.0745 H   0  0  0  0  0
   -4.6788    3.1244    3.6283 H   0  0  0  0  0
   -6.4682    0.7206    2.9667 H   0  0  0  0  0
   -4.0819   -0.6389    2.3390 H   0  0  0  0  0
   -2.8893    0.8493   -0.1965 H   0  0  0  0  0
   -2.4749   -1.9185    1.0632 H   0  0  0  0  0
   -0.7402   -3.1458   -0.1359 H   0  0  0  0  0
   -0.2417   -2.4329   -2.9234 H   0  0  0  0  0
    1.0325   -1.6791   -1.9339 H   0  0  0  0  0
    0.8096   -3.4456   -1.9035 H   0  0  0  0  0
   -6.5210    0.1437    3.7025 H   0  0  0  0  0
   -7.8801   -0.5339    4.6324 H   0  0  0  0  0
   -8.1392    0.8759    3.5758 H   0  0  0  0  0
   -6.5640   -0.2827    6.7392 H   0  0  0  0  0
   -5.2048    0.3949    5.8094 H   0  0  0  0  0
   -5.8895    1.3060    7.1776 H   0  0  0  0  0
   -4.9137    4.8162    4.8139 H   0  0  0  0  0
   -6.2529    5.0057    3.6556 H   0  0  0  0  0
   -6.2960    5.8648    5.2148 H   0  0  0  0  0
   -3.5072    2.7493    0.7518 H   0  0  0  0  0
   -4.7913    2.0296   -0.2504 H   0  0  0  0  0
   -5.2056    3.2188    1.0087 H   0  0  0  0  0
   -0.2241    0.2294   -1.7708 H   0  0  0  0  0
   -1.4987   -0.5247   -2.7597 H   0  0  0  0  0
   -1.9294    0.6741   -1.5153 H   0  0  0  0  0
  1  2  1  0  0  0
  1  6  1  0  0  0
  1 16  1  0  0  0
  1 17  1  0  0  0
  2  3  1  0  0  0
  3  4  1  0  0  0
  4  5  1  0  0  0
  5  6  2  0  0  0
  5 18  1  0  0  0
  6  7  1  0  0  0
  7  8  2  0  0  0
  8  9  1  0  0  0
  9 10  2  0  0  0
  9 19  1  0  0  0
 10 11  1  0  0  0
 11 12  2  0  0  0
 12 13  1  0  0  0
 13 14  2  0  0  0
 13 20  1  0  0  0
 14 15  1  0  0  0
  2 21  1  0  0  0
  2 22  1  0  0  0
  3 23  1  0  0  0
  3 24  1  0  0  0
  4 25  1  0  0  0
  4 26  1  0  0  0
  7 27  1  0  0  0
  8 28  1  0  0  0
 10 29  1  0  0  0
 11 30  1  0  0  0
 12 31  1  0  0  0
 14 32  1  0  0  0
 15 33  1  0  0  0
 15 34  1  0  0  0
 15 35  1  0  0  0
 16 36  1  0  0  0
 16 37  1  0  0  0
 16 38  1  0  0  0
 17 39  1  0  0  0
 17 40  1  0  0  0
 17 41  1  0  0  0
 18 42  1  0  0  0
 18 43  1  0  0  0
 18 44  1  0  0  0
 19 45  1  0  0  0
 19 46  1  0  0  0
 19 47  1  0  0  0
 20 48  1  0  0  0
 20 49  1  0  0  0
 20 50  1  0  0  0
M  END
$$$$
