5npe_ligand
  -I-interpret- 

 26 27  0  0  0  0  0  0  0  0999 V2000
   29.5530   80.0570   34.7460 C   0  0  0  0  0
   28.0650   79.7120   34.6680 C   0  0  0  0  0
   27.3730   80.2910   35.9280 C   0  0  0  0  0
   27.9770   79.6000   37.1540 C   0  0  0  0  0
   29.4820   79.9230   37.3810 C   0  0  0  0  0
   30.2560   79.0580   38.4140 C   0  0  0  0  0
   30.2980   80.1010   36.0790 C   0  0  0  0  0
   30.4540   78.9430   35.1900 N   0  3  0  0  0
   27.4980   80.1870   33.4490 O   0  0  0  0  0
   25.9380   80.1140   35.8390 O   0  0  0  0  0
   27.3250   80.1000   38.3130 O   0  0  0  0  0
   29.9850   77.6730   38.3020 O   0  0  0  0  0
   29.4671   80.7562   33.9142 H   0  0  0  0  0
   27.9159   78.6323   34.6574 H   0  0  0  0  0
   27.5427   81.3644   36.0118 H   0  0  0  0  0
   27.8564   78.5302   36.9834 H   0  0  0  0  0
   29.3945   80.8959   37.8647 H   0  0  0  0  0
   29.9427   79.3750   39.4087 H   0  0  0  0  0
   31.3209   79.2006   38.2301 H   0  0  0  0  0
   30.9815   80.8023   36.5575 H   0  0  0  0  0
   31.2209   78.3970   34.7973 H   0  0  0  0  0
   30.4082   77.9269   35.2670 H   0  0  0  0  0
   27.9648   79.7964   32.7067 H   0  0  0  0  0
   25.6091   80.5638   35.0573 H   0  0  0  0  0
   26.3818   79.9351   38.2444 H   0  0  0  0  0
   30.4902   77.1947   38.9635 H   0  0  0  0  0
  1  2  1  0  0  0
  1  7  1  0  0  0
  1  8  1  0  0  0
  2  3  1  0  0  0
  2  9  1  0  0  0
  3  4  1  0  0  0
  3 10  1  0  0  0
  4  5  1  0  0  0
  4 11  1  0  0  0
  5  6  1  0  0  0
  5  7  1  0  0  0
  6 12  1  0  0  0
  7  8  1  0  0  0
  1 13  1  0  0  0
  2 14  1  0  0  0
  3 15  1  0  0  0
  4 16  1  0  0  0
  5 17  1  0  0  0
  6 18  1  0  0  0
  6 19  1  0  0  0
  7 20  1  0  0  0
  8 21  1  0  0  0
  8 22  1  0  0  0
  9 23  1  0  0  0
 10 24  1  0  0  0
 11 25  1  0  0  0
 12 26  1  0  0  0
M  END
$$$$
