5zwe_ligand
  -I-interpret- 

 69 71  0  0  0  0  0  0  0  0999 V2000
   10.3950    3.2790   26.6460 O   0  0  0  0  0
   10.4160    2.2590   27.3100 C   0  0  0  0  0
    9.6330    2.2180   28.6050 C   0  0  0  0  0
    9.3700    0.7630   28.9750 C   0  0  0  0  0
   11.2150    1.0600   26.8240 C   0  0  0  0  0
   12.6340    1.4380   26.4260 C   0  0  0  0  0
   13.2650    2.3460   27.4660 C   0  0  0  0  0
   13.8490    1.5440   28.6190 C   0  0  0  0  0
   14.3010    3.2760   26.8530 C   0  0  0  0  0
   15.1130    2.6630   25.7090 C   0  0  0  0  0
   15.4680    3.8200   24.7710 C   0  0  0  0  0
   14.9260    5.0370   25.5010 C   0  0  0  0  0
   13.7190    4.5400   26.2470 C   0  0  0  0  0
   12.5970    4.2060   25.2760 C   0  0  0  0  0
   13.2740    5.6190   27.2140 C   0  0  0  0  0
   12.8100    6.8290   26.4100 C   0  0  0  0  0
   13.8700    7.3690   25.4470 C   0  0  0  0  0
   14.5850    6.2570   24.7180 C   0  0  0  0  0
   14.9160    6.3730   23.4260 C   0  0  0  0  0
   14.5890    7.5900   22.6920 C   0  0  0  0  0
   14.3160    7.5600   21.3850 C   0  0  0  0  0
   13.9860    8.8460   20.6620 C   0  0  0  0  0
   14.3150    6.2470   20.6280 C   0  0  0  0  0
   14.7750    6.3550   19.1710 C   0  0  0  0  0
   14.2480    5.2480   18.4400 O   0  0  0  0  0
   14.3270    7.6390   18.5390 C   0  0  0  0  0
   13.6820    7.6730   17.3880 C   0  0  0  0  0
   14.6370    8.8960   19.2820 C   0  0  0  0  0
   16.0530    8.9780   19.4270 O   0  0  0  0  0
    8.6865    2.7442   28.4809 H   0  0  0  0  0
   10.2038    2.7029   29.3970 H   0  0  0  0  0
    8.7962    0.2855   28.1808 H   0  0  0  0  0
   10.3202    0.2440   29.1009 H   0  0  0  0  0
    8.8062    0.7226   29.9070 H   0  0  0  0  0
   10.7139    0.6518   25.9463 H   0  0  0  0  0
   11.2722    0.3379   27.6385 H   0  0  0  0  0
   12.6017    1.9661   25.4730 H   0  0  0  0  0
   13.2298    0.5287   26.3470 H   0  0  0  0  0
   12.4711    2.9745   27.8696 H   0  0  0  0  0
   14.6821    0.9421   28.2560 H   0  0  0  0  0
   14.2018    2.2262   29.3924 H   0  0  0  0  0
   13.0801    0.8910   29.0319 H   0  0  0  0  0
   14.9251    3.4851   27.7218 H   0  0  0  0  0
   14.5410    1.8954   25.1878 H   0  0  0  0  0
   16.0104    2.1706   26.0834 H   0  0  0  0  0
   15.0397    3.7012   23.7758 H   0  0  0  0  0
   16.5379    3.8892   24.5747 H   0  0  0  0  0
   15.7418    5.4146   26.1175 H   0  0  0  0  0
   12.9866    3.5784   24.4745 H   0  0  0  0  0
   11.8070    3.6731   25.8051 H   0  0  0  0  0
   12.1961    5.1280   24.8549 H   0  0  0  0  0
   14.1024    5.9001   27.8643 H   0  0  0  0  0
   12.4572    5.2490   27.8338 H   0  0  0  0  0
   12.5786    7.6233   27.1197 H   0  0  0  0  0
   11.9549    6.5149   25.8115 H   0  0  0  0  0
   14.6057    7.9273   26.0259 H   0  0  0  0  0
   13.3729    7.9982   24.7086 H   0  0  0  0  0
   15.4312    5.5557   22.9214 H   0  0  0  0  0
   14.5670    8.5430   23.2206 H   0  0  0  0  0
   14.3644    9.6805   21.2523 H   0  0  0  0  0
   12.9049    8.9030   20.5356 H   0  0  0  0  0
   13.2859    5.8881   20.6123 H   0  0  0  0  0
   15.0160    5.5848   21.1361 H   0  0  0  0  0
   15.8648    6.3435   19.1511 H   0  0  0  0  0
   14.5310    5.3066   17.5245 H   0  0  0  0  0
   13.4570    6.7454   16.8617 H   0  0  0  0  0
   13.3743    8.6287   16.9637 H   0  0  0  0  0
   14.2559    9.7634   18.7430 H   0  0  0  0  0
   16.4612    9.0094   18.5587 H   0  0  0  0  0
  1  2  2  0  0  0
  2  3  1  0  0  0
  2  5  1  0  0  0
  3  4  1  0  0  0
  5  6  1  0  0  0
  6  7  1  0  0  0
  7  8  1  0  0  0
  7  9  1  0  0  0
  9 10  1  0  0  0
  9 13  1  0  0  0
 10 11  1  0  0  0
 11 12  1  0  0  0
 12 13  1  0  0  0
 12 18  1  0  0  0
 13 14  1  0  0  0
 13 15  1  0  0  0
 15 16  1  0  0  0
 16 17  1  0  0  0
 17 18  1  0  0  0
 18 19  2  0  0  0
 19 20  1  0  0  0
 20 21  2  0  0  0
 21 22  1  0  0  0
 21 23  1  0  0  0
 22 28  1  0  0  0
 23 24  1  0  0  0
 24 25  1  0  0  0
 24 26  1  0  0  0
 26 27  2  0  0  0
 26 28  1  0  0  0
 28 29  1  0  0  0
  3 30  1  0  0  0
  3 31  1  0  0  0
  4 32  1  0  0  0
  4 33  1  0  0  0
  4 34  1  0  0  0
  5 35  1  0  0  0
  5 36  1  0  0  0
  6 37  1  0  0  0
  6 38  1  0  0  0
  7 39  1  0  0  0
  8 40  1  0  0  0
  8 41  1  0  0  0
  8 42  1  0  0  0
  9 43  1  0  0  0
 10 44  1  0  0  0
 10 45  1  0  0  0
 11 46  1  0  0  0
 11 47  1  0  0  0
 12 48  1  0  0  0
 14 49  1  0  0  0
 14 50  1  0  0  0
 14 51  1  0  0  0
 15 52  1  0  0  0
 15 53  1  0  0  0
 16 54  1  0  0  0
 16 55  1  0  0  0
 17 56  1  0  0  0
 17 57  1  0  0  0
 19 58  1  0  0  0
 20 59  1  0  0  0
 22 60  1  0  0  0
 22 61  1  0  0  0
 23 62  1  0  0  0
 23 63  1  0  0  0
 24 64  1  0  0  0
 25 65  1  0  0  0
 27 66  1  0  0  0
 27 67  1  0  0  0
 28 68  1  0  0  0
 29 69  1  0  0  0
M  END
$$$$
