### 
### Created by X-TOOL on Mon Sep 10 21:13:27 2018
### 

@<TRIPOS>MOLECULE
5etu_ligand
  201   202     1     0     0
SMALL
GAST_HUCK


@<TRIPOS>ATOM
      1 N          14.9540  -32.4920  -28.1880 N.4       1 CYS         0.2385
      2 CA         16.3230  -32.6620  -28.6610 C.3       1 CYS         0.0749
      3 C          16.8160  -34.0770  -28.3730 C.2       1 CYS         0.2275
      4 O          16.5220  -34.6410  -27.3220 O.2       1 CYS        -0.3907
      5 CB         17.2510  -31.6370  -28.0040 C.3       1 CYS         0.0643
      6 SG         16.8140  -29.9020  -28.2790 S.3       1 CYS        -0.0848
      7 N          17.5630  -34.6540  -29.3120 N.am      1 GLN        -0.2608
      8 CA         18.1620  -35.9720  -29.1440 C.3       1 GLN         0.1331
      9 C          19.6740  -35.8810  -29.2990 C.2       1 GLN         0.2042
     10 O          20.1820  -35.1340  -30.1420 O.2       1 GLN        -0.3944
     11 CB         17.5960  -36.9880  -30.1510 C.3       1 GLN         0.0045
     12 CG         16.3720  -37.7490  -29.6550 C.3       1 GLN         0.0412
     13 CD         16.2930  -39.1730  -30.1920 C.2       1 GLN         0.1737
     14 OE1        16.9760  -39.5290  -31.1510 O.2       1 GLN        -0.3973
     15 NE2        15.4600  -39.9960  -29.5640 N.am      1 GLN        -0.3009
     16 N          20.3880  -36.6440  -28.4740 N.am      1 PHE        -0.2619
     17 CA         21.8380  -36.7030  -28.5670 C.3       1 PHE         0.1404
     18 C          22.2480  -37.4750  -29.8130 C.2       1 PHE         0.2060
     19 O          21.6180  -38.4720  -30.1790 O.2       1 PHE        -0.3942
     20 CB         22.4180  -37.3610  -27.3160 C.3       1 PHE         0.0214
     21 CG         23.8930  -37.6110  -27.3880 C.ar      1 PHE        -0.0386
     22 CD1        24.7900  -36.5620  -27.3010 C.ar      1 PHE        -0.0601
     23 CD2        24.3870  -38.8990  -27.5280 C.ar      1 PHE        -0.0601
     24 CE1        26.1520  -36.7900  -27.3610 C.ar      1 PHE        -0.0686
     25 CE2        25.7500  -39.1330  -27.5880 C.ar      1 PHE        -0.0686
     26 CZ         26.6330  -38.0780  -27.5060 C.ar      1 PHE        -0.0687
     27 N          23.3110  -37.0080  -30.4650 N.am      1 ASP        -0.2620
     28 CA         23.7930  -37.5890  -31.7120 C.3       1 ASP         0.1423
     29 C          25.2110  -38.1090  -31.5030 C.2       1 ASP         0.2056
     30 O          26.1200  -37.3320  -31.1930 O.2       1 ASP        -0.3943
     31 CB         23.7350  -36.5520  -32.8360 C.3       1 ASP         0.0406
     32 CG         24.3070  -37.0590  -34.1410 C.2       1 ASP         0.0393
     33 OD1        24.4280  -38.2900  -34.3220 O.co2     1 ASP        -0.5688
     34 OD2        24.6310  -36.2100  -34.9950 O.co2     1 ASP        -0.5688
     35 N          25.4000  -39.4200  -31.6900 N.am      1 GLU        -0.2635
     36 CA         26.6880  -40.0530  -31.4160 C.3       1 GLU         0.1325
     37 C          27.7700  -39.6350  -32.3950 C.2       1 GLU         0.2041
     38 O          28.9560  -39.6840  -32.0460 O.2       1 GLU        -0.3944
     39 CB         26.5430  -41.5700  -31.4500 C.3       1 GLU        -0.0008
     40 CG         25.5500  -42.0850  -30.4500 C.3       1 GLU         0.0044
     41 CD         25.1090  -43.4840  -30.7710 C.2       1 GLU         0.0350
     42 OE1        25.1060  -43.8410  -31.9690 O.co2     1 GLU        -0.5690
     43 OE2        24.7740  -44.2240  -29.8280 O.co2     1 GLU        -0.5690
     44 N          27.3880  -39.2660  -33.6180 N.am      1 SER        -0.2616
     45 CA         28.3710  -38.8610  -34.6160 C.3       1 SER         0.1539
     46 C          29.0760  -37.5790  -34.2030 C.2       1 SER         0.2063
     47 O          30.3100  -37.4980  -34.2250 O.2       1 SER        -0.3943
     48 CB         27.6920  -38.6690  -35.9720 C.3       1 SER         0.0843
     49 OG         27.1160  -39.8740  -36.4380 O.3       1 SER        -0.3903
     50 N          28.3040  -36.5580  -33.8350 N.am      1 THR        -0.2613
     51 CA         28.8420  -35.2520  -33.4850 C.3       1 THR         0.1565
     52 C          28.9770  -35.0430  -31.9850 C.2       1 THR         0.2065
     53 O          29.6110  -34.0670  -31.5700 O.2       1 THR        -0.3943
     54 CB         27.9580  -34.1370  -34.0570 C.3       1 THR         0.0924
     55 OG1        26.7140  -34.0970  -33.3450 O.3       1 THR        -0.3874
     56 CG2        27.6770  -34.3870  -35.5250 C.3       1 THR        -0.0346
     57 N          28.3940  -35.9230  -31.1710 N.am      1 ARG        -0.2636
     58 CA         28.3550  -35.7570  -29.7180 C.3       1 ARG         0.1311
     59 C          27.6890  -34.4440  -29.3250 C.2       1 ARG         0.2039
     60 O          28.0020  -33.8600  -28.2850 O.2       1 ARG        -0.3944
     61 CB         29.7500  -35.8620  -29.1000 C.3       1 ARG        -0.0092
     62 CG         30.3920  -37.2180  -29.2970 C.3       1 ARG        -0.0156
     63 CD         31.5990  -37.3670  -28.4130 C.3       1 ARG         0.0627
     64 NE         32.3760  -38.5500  -28.7590 N.pl3     1 ARG        -0.2723
     65 CZ         33.4580  -38.9400  -28.0990 C.cat     1 ARG         0.2882
     66 NH1        33.8830  -38.2400  -27.0570 N.pl3     1 ARG        -0.2849
     67 NH2        34.1120  -40.0280  -28.4790 N.pl3     1 ARG        -0.2849
     68 N          26.7690  -33.9750  -30.1610 N.am      1 ARG        -0.2637
     69 CA         26.0010  -32.7710  -29.9120 C.3       1 ARG         0.1311
     70 C          24.5190  -33.1090  -29.9380 C.2       1 ARG         0.2039
     71 O          24.0940  -34.1000  -30.5410 O.2       1 ARG        -0.3944
     72 CB         26.3030  -31.6900  -30.9570 C.3       1 ARG        -0.0092
     73 CG         27.7350  -31.2010  -30.9510 C.3       1 ARG        -0.0156
     74 CD         28.0710  -30.4830  -29.6520 C.3       1 ARG         0.0627
     75 NE         27.0630  -29.4870  -29.3050 N.pl3     1 ARG        -0.2723
     76 CZ         26.9520  -28.2950  -29.8820 C.cat     1 ARG         0.2882
     77 NH1        27.7870  -27.9390  -30.8500 N.pl3     1 ARG        -0.2849
     78 NH2        25.9990  -27.4600  -29.4910 N.pl3     1 ARG        -0.2849
     79 N          23.7340  -32.2740  -29.2690 N.am      1 LEU        -0.2637
     80 CA         22.2900  -32.4220  -29.3270 C.3       1 LEU         0.1312
     81 C          21.7900  -31.9230  -30.6740 C.2       1 LEU         0.2039
     82 O          22.2030  -30.8580  -31.1440 O.2       1 LEU        -0.3944
     83 CB         21.6290  -31.6470  -28.1910 C.3       1 LEU        -0.0101
     84 CG         22.0010  -32.0610  -26.7670 C.3       1 LEU        -0.0425
     85 CD1        21.3000  -31.1700  -25.7550 C.3       1 LEU        -0.0625
     86 CD2        21.6560  -33.5220  -26.5290 C.3       1 LEU        -0.0625
     87 N          20.9150  -32.6950  -31.3030 N.am      1 LYS        -0.2637
     88 CA         20.2840  -32.3000  -32.5510 C.3       1 LYS         0.1309
     89 C          18.8070  -32.0640  -32.2740 C.2       1 LYS         0.2034
     90 O          18.0910  -32.9930  -31.8840 O.2       1 LYS        -0.3944
     91 CB         20.4800  -33.3640  -33.6290 C.3       1 LYS        -0.0122
     92 CG         20.6420  -32.7950  -35.0250 C.3       1 LYS        -0.0440
     93 CD         21.1470  -33.8470  -35.9880 C.3       1 LYS        -0.0124
     94 CE         21.7070  -33.2160  -37.2490 C.3       1 LYS        -0.0354
     95 NZ         20.6690  -32.4410  -37.9890 N.4       1 LYS         0.2185
     96 N          18.3650  -30.8250  -32.4430 N.am      1 CYS        -0.2687
     97 CA         16.9750  -30.4790  -32.1870 C.3       1 CYS         0.1041
     98 C          16.2360  -30.2050  -33.4920 C.2       1 CYS         0.0609
     99 O          16.8300  -29.8090  -34.4950 O.co2     1 CYS        -0.5666
    100 CB         16.8830  -29.2620  -31.2680 C.3       1 CYS         0.0388
    101 SG         17.9880  -29.3160  -29.8300 S.3       1 CYS        -0.0887
    102 OXT        15.0210  -30.3750  -33.5760 O.co2     1 CYS        -0.5666
    103 H1         14.6443  -31.5534  -28.3858 H         1 CYS         0.2015
    104 H2         14.9193  -32.6548  -27.1938 H         1 CYS         0.2015
    105 H3         14.3521  -33.1503  -28.6575 H         1 CYS         0.2015
    106 H4         16.3382  -32.5006  -29.7490 H         1 CYS         0.1107
    107 H5         18.2657  -31.7974  -28.3972 H         1 CYS         0.0466
    108 H6         17.2448  -31.8203  -26.9194 H         1 CYS         0.0466
    109 H7         17.7197  -34.1624  -30.1686 H         1 GLN         0.1885
    110 H8         17.9331  -36.3277  -28.1286 H         1 GLN         0.0801
    111 H9         18.3848  -37.7186  -30.3833 H         1 GLN         0.0337
    112 H10        17.3168  -36.4462  -31.0667 H         1 GLN         0.0337
    113 H11        15.4699  -37.2052  -29.9720 H         1 GLN         0.0504
    114 H12        16.4078  -37.7911  -28.5564 H         1 GLN         0.0504
    115 H13        15.3660  -40.9429  -29.8716 H         1 GLN         0.1814
    116 H14        14.9271  -39.6685  -28.7837 H         1 GLN         0.1814
    117 H15        19.9184  -37.1866  -27.7775 H         1 PHE         0.1885
    118 H16        22.2307  -35.6782  -28.6410 H         1 PHE         0.0823
    119 H17        21.9106  -38.3253  -27.1654 H         1 PHE         0.0474
    120 H18        22.2200  -36.7042  -26.4561 H         1 PHE         0.0474
    121 H19        24.4208  -35.5495  -27.1844 H         1 PHE         0.0557
    122 H20        23.6974  -39.7329  -27.5912 H         1 PHE         0.0557
    123 H21        26.8437  -35.9580  -27.2943 H         1 PHE         0.0599
    124 H22        26.1224  -40.1449  -27.6994 H         1 PHE         0.0599
    125 H23        27.7009  -38.2575  -27.5550 H         1 PHE         0.0559
    126 H24        23.8002  -36.2242  -30.0823 H         1 ASP         0.1884
    127 H25        23.1448  -38.4346  -31.9855 H         1 ASP         0.0819
    128 H26        24.3066  -35.6654  -32.5242 H         1 ASP         0.0478
    129 H27        22.6840  -36.2717  -32.9999 H         1 ASP         0.0478
    130 H28        24.6421  -39.9798  -32.0251 H         1 GLU         0.1883
    131 H29        27.0053  -39.7522  -30.4066 H         1 GLU         0.0801
    132 H30        27.5231  -42.0210  -31.2354 H         1 GLU         0.0330
    133 H31        26.2144  -41.8686  -32.4564 H         1 GLU         0.0330
    134 H32        24.6697  -41.4254  -30.4503 H         1 GLU         0.0433
    135 H33        26.0132  -42.0779  -29.4523 H         1 GLU         0.0433
    136 H34        26.4161  -39.2670  -33.8536 H         1 SER         0.1884
    137 H35        29.1231  -39.6585  -34.7079 H         1 SER         0.0823
    138 H36        28.4404  -38.3251  -36.7011 H         1 SER         0.0606
    139 H37        26.9018  -37.9103  -35.8720 H         1 SER         0.0606
    140 H38        27.7942  -40.5326  -36.5311 H         1 SER         0.2097
    141 H39        27.3141  -36.6945  -33.7977 H         1 THR         0.1884
    142 H40        29.8435  -35.1712  -33.9327 H         1 THR         0.0826
    143 H41        28.4753  -33.1727  -33.9451 H         1 THR         0.0639
    144 H42        26.2701  -34.9318  -33.4381 H         1 THR         0.2101
    145 H43        27.0427  -33.5795  -35.9196 H         1 THR         0.0257
    146 H44        27.1583  -35.3502  -35.6402 H         1 THR         0.0257
    147 H45        28.6259  -34.4127  -36.0808 H         1 THR         0.0257
    148 H46        27.9643  -36.7324  -31.5712 H         1 ARG         0.1883
    149 H47        27.7463  -36.5763  -29.3078 H         1 ARG         0.0800
    150 H48        29.6690  -35.6678  -28.0203 H         1 ARG         0.0313
    151 H49        30.3948  -35.1001  -29.5623 H         1 ARG         0.0313
    152 H50        30.6989  -37.3232  -30.3481 H         1 ARG         0.0301
    153 H51        29.6626  -38.0027  -29.0477 H         1 ARG         0.0301
    154 H52        31.2673  -37.4513  -27.3676 H         1 ARG         0.0689
    155 H53        32.2354  -36.4769  -28.5252 H         1 ARG         0.0689
    156 H54        32.0671  -39.1158  -29.5623 H         1 ARG         0.2642
    157 H55        34.7232  -38.5408  -26.5426 H         1 ARG         0.2615
    158 H56        33.3732  -37.3952  -26.7615 H         1 ARG         0.2615
    159 H57        33.7809  -40.5714  -29.2890 H         1 ARG         0.2615
    160 H58        34.9515  -40.3304  -27.9644 H         1 ARG         0.2615
    161 H59        26.5972  -34.4795  -31.0072 H         1 ARG         0.1883
    162 H60        26.2643  -32.3825  -28.9172 H         1 ARG         0.0800
    163 H61        25.6446  -30.8303  -30.7636 H         1 ARG         0.0313
    164 H62        26.0841  -32.1028  -31.9528 H         1 ARG         0.0313
    165 H63        27.8795  -30.5064  -31.7916 H         1 ARG         0.0301
    166 H64        28.4081  -32.0631  -31.0678 H         1 ARG         0.0301
    167 H65        29.0432  -29.9809  -29.7643 H         1 ARG         0.0689
    168 H66        28.1325  -31.2241  -28.8415 H         1 ARG         0.0689
    169 H67        26.3909  -29.7241  -28.5614 H         1 ARG         0.2642
    170 H68        27.6965  -27.0139  -31.2938 H         1 ARG         0.2615
    171 H69        28.5256  -28.5877  -31.1575 H         1 ARG         0.2615
    172 H70        25.3500  -27.7346  -28.7398 H         1 ARG         0.2615
    173 H71        25.9077  -26.5368  -29.9385 H         1 ARG         0.2615
    174 H72        24.1380  -31.5401  -28.7229 H         1 LEU         0.1883
    175 H73        22.0349  -33.4869  -29.2230 H         1 LEU         0.0800
    176 H74        20.5404  -31.7634  -28.2978 H         1 LEU         0.0315
    177 H75        21.8979  -30.5871  -28.3105 H         1 LEU         0.0315
    178 H76        23.0870  -31.9378  -26.6426 H         1 LEU         0.0298
    179 H77        21.5785  -31.4814  -24.7374 H         1 LEU         0.0232
    180 H78        20.2108  -31.2590  -25.8805 H         1 LEU         0.0232
    181 H79        21.6033  -30.1248  -25.9145 H         1 LEU         0.0232
    182 H80        22.1737  -34.1467  -27.2718 H         1 LEU         0.0232
    183 H81        20.5693  -33.6626  -26.6253 H         1 LEU         0.0232
    184 H82        21.9754  -33.8142  -25.5178 H         1 LEU         0.0232
    185 H83        20.6806  -33.5815  -30.9041 H         1 LYS         0.1883
    186 H84        20.7382  -31.3617  -32.9021 H         1 LYS         0.0800
    187 H85        19.6034  -34.0285  -33.6245 H         1 LYS         0.0312
    188 H86        21.3816  -33.9446  -33.3840 H         1 LYS         0.0312
    189 H87        21.3611  -31.9632  -34.9925 H         1 LYS         0.0269
    190 H88        19.6680  -32.4242  -35.3769 H         1 LYS         0.0269
    191 H89        20.3149  -34.5132  -36.2597 H         1 LYS         0.0317
    192 H90        21.9394  -34.4313  -35.4973 H         1 LYS         0.0317
    193 H91        22.0921  -34.0112  -37.9043 H         1 LYS         0.0813
    194 H92        22.5283  -32.5381  -36.9734 H         1 LYS         0.0813
    195 H93        21.0777  -32.0383  -38.8178 H         1 LYS         0.1994
    196 H94        20.3139  -31.7056  -37.3981 H         1 LYS         0.1994
    197 H95        19.9142  -33.0554  -38.2511 H         1 LYS         0.1994
    198 H96        18.9985  -30.1157  -32.7520 H         1 CYS         0.1876
    199 H97        16.4929  -31.3314  -31.6861 H         1 CYS         0.0734
    200 H98        15.8483  -29.1853  -30.9028 H         1 CYS         0.0425
    201 H99        17.1310  -28.3672  -31.8578 H         1 CYS         0.0425
@<TRIPOS>BOND
     1    1    2 1  
     2    2    3 1  
     3    2    5 1  
     4    3    4 2  
     5    3    7 am 
     6    5    6 1  
     7    6  101 1  
     8    7    8 1  
     9    8    9 1  
    10    8   11 1  
    11    9   10 2  
    12    9   16 am 
    13   11   12 1  
    14   12   13 1  
    15   13   14 2  
    16   13   15 am 
    17   16   17 1  
    18   17   18 1  
    19   17   20 1  
    20   18   19 2  
    21   18   27 am 
    22   20   21 1  
    23   21   22 ar 
    24   21   23 ar 
    25   22   24 ar 
    26   23   25 ar 
    27   24   26 ar 
    28   25   26 ar 
    29   27   28 1  
    30   28   29 1  
    31   28   31 1  
    32   29   30 2  
    33   29   35 am 
    34   31   32 1  
    35   32   33 ar 
    36   32   34 ar 
    37   35   36 1  
    38   36   37 1  
    39   36   39 1  
    40   37   38 2  
    41   37   44 am 
    42   39   40 1  
    43   40   41 1  
    44   41   42 ar 
    45   41   43 ar 
    46   44   45 1  
    47   45   46 1  
    48   45   48 1  
    49   46   47 2  
    50   46   50 am 
    51   48   49 1  
    52   50   51 1  
    53   51   52 1  
    54   51   54 1  
    55   52   53 2  
    56   52   57 am 
    57   54   55 1  
    58   54   56 1  
    59   57   58 1  
    60   58   59 1  
    61   58   61 1  
    62   59   60 2  
    63   59   68 am 
    64   61   62 1  
    65   62   63 1  
    66   63   64 1  
    67   64   65 ar 
    68   65   66 ar 
    69   65   67 ar 
    70   68   69 1  
    71   69   70 1  
    72   69   72 1  
    73   70   71 2  
    74   70   79 am 
    75   72   73 1  
    76   73   74 1  
    77   74   75 1  
    78   75   76 ar 
    79   76   77 ar 
    80   76   78 ar 
    81   79   80 1  
    82   80   81 1  
    83   80   83 1  
    84   81   82 2  
    85   81   87 am 
    86   83   84 1  
    87   84   85 1  
    88   84   86 1  
    89   87   88 1  
    90   88   89 1  
    91   88   91 1  
    92   89   90 2  
    93   89   96 am 
    94   91   92 1  
    95   92   93 1  
    96   93   94 1  
    97   94   95 1  
    98   96   97 1  
    99   97   98 1  
   100   97  100 1  
   101   98   99 ar 
   102   98  102 ar 
   103  100  101 1  
   104    1  103 1  
   105    1  104 1  
   106    1  105 1  
   107    2  106 1  
   108    5  107 1  
   109    5  108 1  
   110    7  109 1  
   111    8  110 1  
   112   11  111 1  
   113   11  112 1  
   114   12  113 1  
   115   12  114 1  
   116   15  115 1  
   117   15  116 1  
   118   16  117 1  
   119   17  118 1  
   120   20  119 1  
   121   20  120 1  
   122   22  121 1  
   123   23  122 1  
   124   24  123 1  
   125   25  124 1  
   126   26  125 1  
   127   27  126 1  
   128   28  127 1  
   129   31  128 1  
   130   31  129 1  
   131   35  130 1  
   132   36  131 1  
   133   39  132 1  
   134   39  133 1  
   135   40  134 1  
   136   40  135 1  
   137   44  136 1  
   138   45  137 1  
   139   48  138 1  
   140   48  139 1  
   141   49  140 1  
   142   50  141 1  
   143   51  142 1  
   144   54  143 1  
   145   55  144 1  
   146   56  145 1  
   147   56  146 1  
   148   56  147 1  
   149   57  148 1  
   150   58  149 1  
   151   61  150 1  
   152   61  151 1  
   153   62  152 1  
   154   62  153 1  
   155   63  154 1  
   156   63  155 1  
   157   64  156 1  
   158   66  157 1  
   159   66  158 1  
   160   67  159 1  
   161   67  160 1  
   162   68  161 1  
   163   69  162 1  
   164   72  163 1  
   165   72  164 1  
   166   73  165 1  
   167   73  166 1  
   168   74  167 1  
   169   74  168 1  
   170   75  169 1  
   171   77  170 1  
   172   77  171 1  
   173   78  172 1  
   174   78  173 1  
   175   79  174 1  
   176   80  175 1  
   177   83  176 1  
   178   83  177 1  
   179   84  178 1  
   180   85  179 1  
   181   85  180 1  
   182   85  181 1  
   183   86  182 1  
   184   86  183 1  
   185   86  184 1  
   186   87  185 1  
   187   88  186 1  
   188   91  187 1  
   189   91  188 1  
   190   92  189 1  
   191   92  190 1  
   192   93  191 1  
   193   93  192 1  
   194   94  193 1  
   195   94  194 1  
   196   95  195 1  
   197   95  196 1  
   198   95  197 1  
   199   96  198 1  
   200   97  199 1  
   201  100  200 1  
   202  100  201 1  
@<TRIPOS>SUBSTRUCTURE
     1 CYS         1

