5etu_ligand
  -I-interpret- 

202203  0  0  0  0  0  0  0  0999 V2000
   14.9540  -32.4920  -28.1880 N   0  3  0  0  0
   16.3230  -32.6620  -28.6610 C   0  0  0  0  0
   16.8160  -34.0770  -28.3730 C   0  0  0  0  0
   16.5220  -34.6410  -27.3220 O   0  0  0  0  0
   17.2510  -31.6370  -28.0040 C   0  0  0  0  0
   16.8140  -29.9020  -28.2790 S   0  0  0  0  0
   17.5630  -34.6540  -29.3120 N   0  0  0  0  0
   18.1620  -35.9720  -29.1440 C   0  0  0  0  0
   19.6740  -35.8810  -29.2990 C   0  0  0  0  0
   20.1820  -35.1340  -30.1420 O   0  0  0  0  0
   17.5960  -36.9880  -30.1510 C   0  0  0  0  0
   16.3720  -37.7490  -29.6550 C   0  0  0  0  0
   16.2930  -39.1730  -30.1920 C   0  0  0  0  0
   16.9760  -39.5290  -31.1510 O   0  0  0  0  0
   15.4600  -39.9960  -29.5640 N   0  0  0  0  0
   20.3880  -36.6440  -28.4740 N   0  0  0  0  0
   21.8380  -36.7030  -28.5670 C   0  0  0  0  0
   22.2480  -37.4750  -29.8130 C   0  0  0  0  0
   21.6180  -38.4720  -30.1790 O   0  0  0  0  0
   22.4180  -37.3610  -27.3160 C   0  0  0  0  0
   23.8930  -37.6110  -27.3880 C   0  0  0  0  0
   24.7900  -36.5620  -27.3010 C   0  0  0  0  0
   24.3870  -38.8990  -27.5280 C   0  0  0  0  0
   26.1520  -36.7900  -27.3610 C   0  0  0  0  0
   25.7500  -39.1330  -27.5880 C   0  0  0  0  0
   26.6330  -38.0780  -27.5060 C   0  0  0  0  0
   23.3110  -37.0080  -30.4650 N   0  0  0  0  0
   23.7930  -37.5890  -31.7120 C   0  0  0  0  0
   25.2110  -38.1090  -31.5030 C   0  0  0  0  0
   26.1200  -37.3320  -31.1930 O   0  0  0  0  0
   23.7350  -36.5520  -32.8360 C   0  0  0  0  0
   24.3070  -37.0590  -34.1410 C   0  0  0  0  0
   24.4280  -38.2900  -34.3220 O   0  0  0  0  0
   24.6310  -36.2100  -34.9950 O   0  0  0  0  0
   25.4000  -39.4200  -31.6900 N   0  0  0  0  0
   26.6880  -40.0530  -31.4160 C   0  0  0  0  0
   27.7700  -39.6350  -32.3950 C   0  0  0  0  0
   28.9560  -39.6840  -32.0460 O   0  0  0  0  0
   26.5430  -41.5700  -31.4500 C   0  0  0  0  0
   25.5500  -42.0850  -30.4500 C   0  0  0  0  0
   25.1090  -43.4840  -30.7710 C   0  0  0  0  0
   25.1060  -43.8410  -31.9690 O   0  0  0  0  0
   24.7740  -44.2240  -29.8280 O   0  0  0  0  0
   27.3880  -39.2660  -33.6180 N   0  0  0  0  0
   28.3710  -38.8610  -34.6160 C   0  0  0  0  0
   29.0760  -37.5790  -34.2030 C   0  0  0  0  0
   30.3100  -37.4980  -34.2250 O   0  0  0  0  0
   27.6920  -38.6690  -35.9720 C   0  0  0  0  0
   27.1160  -39.8740  -36.4380 O   0  0  0  0  0
   28.3040  -36.5580  -33.8350 N   0  0  0  0  0
   28.8420  -35.2520  -33.4850 C   0  0  0  0  0
   28.9770  -35.0430  -31.9850 C   0  0  0  0  0
   29.6110  -34.0670  -31.5700 O   0  0  0  0  0
   27.9580  -34.1370  -34.0570 C   0  0  0  0  0
   26.7140  -34.0970  -33.3450 O   0  0  0  0  0
   27.6770  -34.3870  -35.5250 C   0  0  0  0  0
   28.3940  -35.9230  -31.1710 N   0  0  0  0  0
   28.3550  -35.7570  -29.7180 C   0  0  0  0  0
   27.6890  -34.4440  -29.3250 C   0  0  0  0  0
   28.0020  -33.8600  -28.2850 O   0  0  0  0  0
   29.7500  -35.8620  -29.1000 C   0  0  0  0  0
   30.3920  -37.2180  -29.2970 C   0  0  0  0  0
   31.5990  -37.3670  -28.4130 C   0  0  0  0  0
   32.3760  -38.5500  -28.7590 N   0  0  0  0  0
   33.4580  -38.9400  -28.0990 C   0  0  0  0  0
   33.8830  -38.2400  -27.0570 N   0  0  0  0  0
   34.1120  -40.0280  -28.4790 N   0  0  0  0  0
   26.7690  -33.9750  -30.1610 N   0  0  0  0  0
   26.0010  -32.7710  -29.9120 C   0  0  0  0  0
   24.5190  -33.1090  -29.9380 C   0  0  0  0  0
   24.0940  -34.1000  -30.5410 O   0  0  0  0  0
   26.3030  -31.6900  -30.9570 C   0  0  0  0  0
   27.7350  -31.2010  -30.9510 C   0  0  0  0  0
   28.0710  -30.4830  -29.6520 C   0  0  0  0  0
   27.0630  -29.4870  -29.3050 N   0  0  0  0  0
   26.9520  -28.2950  -29.8820 C   0  0  0  0  0
   27.7870  -27.9390  -30.8500 N   0  0  0  0  0
   25.9990  -27.4600  -29.4910 N   0  0  0  0  0
   23.7340  -32.2740  -29.2690 N   0  0  0  0  0
   22.2900  -32.4220  -29.3270 C   0  0  0  0  0
   21.7900  -31.9230  -30.6740 C   0  0  0  0  0
   22.2030  -30.8580  -31.1440 O   0  0  0  0  0
   21.6290  -31.6470  -28.1910 C   0  0  0  0  0
   22.0010  -32.0610  -26.7670 C   0  0  0  0  0
   21.3000  -31.1700  -25.7550 C   0  0  0  0  0
   21.6560  -33.5220  -26.5290 C   0  0  0  0  0
   20.9150  -32.6950  -31.3030 N   0  0  0  0  0
   20.2840  -32.3000  -32.5510 C   0  0  0  0  0
   18.8070  -32.0640  -32.2740 C   0  0  0  0  0
   18.0910  -32.9930  -31.8840 O   0  0  0  0  0
   20.4800  -33.3640  -33.6290 C   0  0  0  0  0
   20.6420  -32.7950  -35.0250 C   0  0  0  0  0
   21.1470  -33.8470  -35.9880 C   0  0  0  0  0
   21.7070  -33.2160  -37.2490 C   0  0  0  0  0
   20.6690  -32.4410  -37.9890 N   0  3  0  0  0
   18.3650  -30.8250  -32.4430 N   0  0  0  0  0
   16.9750  -30.4790  -32.1870 C   0  0  0  0  0
   16.2360  -30.2050  -33.4920 C   0  0  0  0  0
   16.8300  -29.8090  -34.4950 O   0  0  0  0  0
   16.8830  -29.2620  -31.2680 C   0  0  0  0  0
   17.9880  -29.3160  -29.8300 S   0  0  0  0  0
   15.0210  -30.3750  -33.5760 O   0  0  0  0  0
   14.3523  -33.1828  -28.6365 H   0  0  0  0  0
   14.9265  -32.6210  -27.1766 H   0  0  0  0  0
   14.6290  -31.5537  -28.4213 H   0  0  0  0  0
   16.3338  -32.5005  -29.7389 H   0  0  0  0  0
   18.2368  -31.7827  -28.4456 H   0  0  0  0  0
   17.1891  -31.8062  -26.9290 H   0  0  0  0  0
   17.7228  -34.1525  -30.1857 H   0  0  0  0  0
   17.9157  -36.3213  -28.1413 H   0  0  0  0  0
   18.3777  -37.7246  -30.3366 H   0  0  0  0  0
   17.2886  -36.4271  -31.0336 H   0  0  0  0  0
   15.4876  -37.2151  -30.0026 H   0  0  0  0  0
   16.4376  -37.8086  -28.5686 H   0  0  0  0  0
   15.3691  -40.9636  -29.8736 H   0  0  0  0  0
   14.9115  -39.6601  -28.7723 H   0  0  0  0  0
   19.9091  -37.1974  -27.7635 H   0  0  0  0  0
   22.2314  -35.6890  -28.6394 H   0  0  0  0  0
   21.9307  -38.3296  -27.2044 H   0  0  0  0  0
   22.2456  -36.6799  -26.4827 H   0  0  0  0  0
   24.4188  -35.5439  -27.1838 H   0  0  0  0  0
   23.6935  -39.7376  -27.5916 H   0  0  0  0  0
   26.8475  -35.9534  -27.2939 H   0  0  0  0  0
   26.1245  -40.1505  -27.7000 H   0  0  0  0  0
   27.7068  -38.2585  -27.5553 H   0  0  0  0  0
   23.8099  -36.2086  -30.0747 H   0  0  0  0  0
   23.1557  -38.4234  -32.0049 H   0  0  0  0  0
   24.3297  -35.6930  -32.5252 H   0  0  0  0  0
   22.6867  -36.3070  -33.0068 H   0  0  0  0  0
   24.1209  -38.7586  -33.5425 H   0  0  0  0  0
   24.6270  -39.9910  -32.0318 H   0  0  0  0  0
   26.9941  -39.7205  -30.4241 H   0  0  0  0  0
   27.5138  -42.0024  -31.2078 H   0  0  0  0  0
   26.1899  -41.8482  -32.4430 H   0  0  0  0  0
   24.6742  -41.4364  -30.4718 H   0  0  0  0  0
   26.0245  -42.0922  -29.4687 H   0  0  0  0  0
   25.3998  -43.1117  -32.5198 H   0  0  0  0  0
   26.3967  -39.2670  -33.8583 H   0  0  0  0  0
   29.1186  -39.6503  -34.6948 H   0  0  0  0  0
   28.4434  -38.3443  -36.6917 H   0  0  0  0  0
   26.9002  -37.9283  -35.8601 H   0  0  0  0  0
   26.6990  -39.7199  -37.2889 H   0  0  0  0  0
   27.2943  -36.6972  -33.7969 H   0  0  0  0  0
   29.8409  -35.2136  -33.9196 H   0  0  0  0  0
   28.4817  -33.1873  -33.9480 H   0  0  0  0  0
   26.1628  -33.3983  -33.7051 H   0  0  0  0  0
   28.6180  -34.4123  -36.0746 H   0  0  0  0  0
   27.1631  -35.3416  -35.6378 H   0  0  0  0  0
   27.0485  -33.5863  -35.9148 H   0  0  0  0  0
   27.9557  -36.7486  -31.5792 H   0  0  0  0  0
   27.7522  -36.5734  -29.3201 H   0  0  0  0  0
   29.6479  -35.6988  -28.0271 H   0  0  0  0  0
   30.3838  -35.1233  -29.5905 H   0  0  0  0  0
   30.7029  -37.3132  -30.3374 H   0  0  0  0  0
   29.6685  -37.9915  -29.0394 H   0  0  0  0  0
   31.2599  -37.4677  -27.3820 H   0  0  0  0  0
   32.2319  -36.4893  -28.5443 H   0  0  0  0  0
   32.0701  -39.1103  -29.5545 H   0  0  0  0  0
   34.7142  -38.5386  -26.5468 H   0  0  0  0  0
   33.3789  -37.4026  -26.7653 H   0  0  0  0  0
   33.7833  -40.5669  -29.2803 H   0  0  0  0  0
   26.5937  -34.4896  -31.0241 H   0  0  0  0  0
   26.2799  -32.3798  -28.9336 H   0  0  0  0  0
   25.6705  -30.8333  -30.7243 H   0  0  0  0  0
   26.1186  -32.1306  -31.9368 H   0  0  0  0  0
   27.8655  -30.5017  -31.7768 H   0  0  0  0  0
   28.3954  -32.0624  -31.0513 H   0  0  0  0  0
   29.0257  -29.9730  -29.7803 H   0  0  0  0  0
   28.1100  -31.2229  -28.8525 H   0  0  0  0  0
   26.3974  -29.7218  -28.5686 H   0  0  0  0  0
   27.6952  -27.0243  -31.2920 H   0  0  0  0  0
   28.5207  -28.5800  -31.1520 H   0  0  0  0  0
   25.3540  -27.7334  -28.7496 H   0  0  0  0  0
   24.1461  -31.5255  -28.7120 H   0  0  0  0  0
   22.0296  -33.4743  -29.2135 H   0  0  0  0  0
   20.5588  -31.8305  -28.2863 H   0  0  0  0  0
   21.9618  -30.6147  -28.2994 H   0  0  0  0  0
   23.0770  -31.9407  -26.6413 H   0  0  0  0  0
   21.6014  -30.1346  -25.9141 H   0  0  0  0  0
   20.2209  -31.2590  -25.8804 H   0  0  0  0  0
   21.5767  -31.4795  -24.7472 H   0  0  0  0  0
   20.5856  -33.6693  -26.6726 H   0  0  0  0  0
   22.2075  -34.1438  -27.2343 H   0  0  0  0  0
   21.9284  -33.7970  -25.5100 H   0  0  0  0  0
   20.6759  -33.5993  -30.8962 H   0  0  0  0  0
   20.7430  -31.3859  -32.9276 H   0  0  0  0  0
   19.5883  -33.9908  -33.6341 H   0  0  0  0  0
   21.3951  -33.9056  -33.3897 H   0  0  0  0  0
   21.3657  -31.9808  -34.9875 H   0  0  0  0  0
   19.6709  -32.4422  -35.3723 H   0  0  0  0  0
   20.3140  -34.4936  -36.2638 H   0  0  0  0  0
   21.9415  -34.4116  -35.5000 H   0  0  0  0  0
   22.0682  -34.0127  -37.8994 H   0  0  0  0  0
   22.5066  -32.5322  -36.9639 H   0  0  0  0  0
   21.0836  -32.0340  -38.8274 H   0  0  0  0  0
   19.9058  -33.0638  -38.2537 H   0  0  0  0  0
   20.3104  -31.6972  -37.3901 H   0  0  0  0  0
   19.0112  -30.1015  -32.7582 H   0  0  0  0  0
   16.5033  -31.3280  -31.6922 H   0  0  0  0  0
   17.7649  -29.7182  -34.2969 H   0  0  0  0  0
   15.8632  -29.2294  -30.8845 H   0  0  0  0  0
   17.1733  -28.3939  -31.8598 H   0  0  0  0  0
  1  2  1  0  0  0
  2  3  1  0  0  0
  2  5  1  0  0  0
  3  4  2  0  0  0
  3  7  1  0  0  0
  5  6  1  0  0  0
  6101  1  0  0  0
  7  8  1  0  0  0
  8  9  1  0  0  0
  8 11  1  0  0  0
  9 10  2  0  0  0
  9 16  1  0  0  0
 11 12  1  0  0  0
 12 13  1  0  0  0
 13 14  2  0  0  0
 13 15  1  0  0  0
 16 17  1  0  0  0
 17 18  1  0  0  0
 17 20  1  0  0  0
 18 19  2  0  0  0
 18 27  1  0  0  0
 20 21  1  0  0  0
 21 22  4  0  0  0
 21 23  4  0  0  0
 22 24  4  0  0  0
 23 25  4  0  0  0
 24 26  4  0  0  0
 25 26  4  0  0  0
 27 28  1  0  0  0
 28 29  1  0  0  0
 28 31  1  0  0  0
 29 30  2  0  0  0
 29 35  1  0  0  0
 31 32  1  0  0  0
 32 33  1  0  0  0
 32 34  2  0  0  0
 35 36  1  0  0  0
 36 37  1  0  0  0
 36 39  1  0  0  0
 37 38  2  0  0  0
 37 44  1  0  0  0
 39 40  1  0  0  0
 40 41  1  0  0  0
 41 42  1  0  0  0
 41 43  2  0  0  0
 44 45  1  0  0  0
 45 46  1  0  0  0
 45 48  1  0  0  0
 46 47  2  0  0  0
 46 50  1  0  0  0
 48 49  1  0  0  0
 50 51  1  0  0  0
 51 52  1  0  0  0
 51 54  1  0  0  0
 52 53  2  0  0  0
 52 57  1  0  0  0
 54 55  1  0  0  0
 54 56  1  0  0  0
 57 58  1  0  0  0
 58 59  1  0  0  0
 58 61  1  0  0  0
 59 60  2  0  0  0
 59 68  1  0  0  0
 61 62  1  0  0  0
 62 63  1  0  0  0
 63 64  1  0  0  0
 64 65  1  0  0  0
 65 66  1  0  0  0
 65 67  2  0  0  0
 68 69  1  0  0  0
 69 70  1  0  0  0
 69 72  1  0  0  0
 70 71  2  0  0  0
 70 79  1  0  0  0
 72 73  1  0  0  0
 73 74  1  0  0  0
 74 75  1  0  0  0
 75 76  1  0  0  0
 76 77  1  0  0  0
 76 78  2  0  0  0
 79 80  1  0  0  0
 80 81  1  0  0  0
 80 83  1  0  0  0
 81 82  2  0  0  0
 81 87  1  0  0  0
 83 84  1  0  0  0
 84 85  1  0  0  0
 84 86  1  0  0  0
 87 88  1  0  0  0
 88 89  1  0  0  0
 88 91  1  0  0  0
 89 90  2  0  0  0
 89 96  1  0  0  0
 91 92  1  0  0  0
 92 93  1  0  0  0
 93 94  1  0  0  0
 94 95  1  0  0  0
 96 97  1  0  0  0
 97 98  1  0  0  0
 97100  1  0  0  0
 98 99  1  0  0  0
 98102  2  0  0  0
100101  1  0  0  0
  1103  1  0  0  0
  1104  1  0  0  0
  1105  1  0  0  0
  2106  1  0  0  0
  5107  1  0  0  0
  5108  1  0  0  0
  7109  1  0  0  0
  8110  1  0  0  0
 11111  1  0  0  0
 11112  1  0  0  0
 12113  1  0  0  0
 12114  1  0  0  0
 15115  1  0  0  0
 15116  1  0  0  0
 16117  1  0  0  0
 17118  1  0  0  0
 20119  1  0  0  0
 20120  1  0  0  0
 22121  1  0  0  0
 23122  1  0  0  0
 24123  1  0  0  0
 25124  1  0  0  0
 26125  1  0  0  0
 27126  1  0  0  0
 28127  1  0  0  0
 31128  1  0  0  0
 31129  1  0  0  0
 33130  1  0  0  0
 35131  1  0  0  0
 36132  1  0  0  0
 39133  1  0  0  0
 39134  1  0  0  0
 40135  1  0  0  0
 40136  1  0  0  0
 42137  1  0  0  0
 44138  1  0  0  0
 45139  1  0  0  0
 48140  1  0  0  0
 48141  1  0  0  0
 49142  1  0  0  0
 50143  1  0  0  0
 51144  1  0  0  0
 54145  1  0  0  0
 55146  1  0  0  0
 56147  1  0  0  0
 56148  1  0  0  0
 56149  1  0  0  0
 57150  1  0  0  0
 58151  1  0  0  0
 61152  1  0  0  0
 61153  1  0  0  0
 62154  1  0  0  0
 62155  1  0  0  0
 63156  1  0  0  0
 63157  1  0  0  0
 64158  1  0  0  0
 66159  1  0  0  0
 66160  1  0  0  0
 67161  1  0  0  0
 68162  1  0  0  0
 69163  1  0  0  0
 72164  1  0  0  0
 72165  1  0  0  0
 73166  1  0  0  0
 73167  1  0  0  0
 74168  1  0  0  0
 74169  1  0  0  0
 75170  1  0  0  0
 77171  1  0  0  0
 77172  1  0  0  0
 78173  1  0  0  0
 79174  1  0  0  0
 80175  1  0  0  0
 83176  1  0  0  0
 83177  1  0  0  0
 84178  1  0  0  0
 85179  1  0  0  0
 85180  1  0  0  0
 85181  1  0  0  0
 86182  1  0  0  0
 86183  1  0  0  0
 86184  1  0  0  0
 87185  1  0  0  0
 88186  1  0  0  0
 91187  1  0  0  0
 91188  1  0  0  0
 92189  1  0  0  0
 92190  1  0  0  0
 93191  1  0  0  0
 93192  1  0  0  0
 94193  1  0  0  0
 94194  1  0  0  0
 95195  1  0  0  0
 95196  1  0  0  0
 95197  1  0  0  0
 96198  1  0  0  0
 97199  1  0  0  0
 99200  1  0  0  0
100201  1  0  0  0
100202  1  0  0  0
M  END
$$$$
