1q1m_ligand
  -I-interpret- 

 46 48  0  0  0  0  0  0  0  0999 V2000
   33.0460   31.0940   18.4330 C   0  0  0  0  0
   32.5060   30.4810   19.6090 C   0  0  0  0  0
   31.1140   30.6200   19.8430 C   0  0  0  0  0
   30.2740   31.3340   18.9520 C   0  0  0  0  0
   30.8390   31.9260   17.7920 C   0  0  0  0  0
   32.2250   31.8120   17.5260 C   0  0  0  0  0
   33.2940   29.7050   20.6230 C   0  0  0  0  0
   32.6890   29.1670   21.7470 O   0  0  0  0  0
   33.7090   28.5200   22.4770 N   0  0  0  0  0
   34.8870   28.6610   21.8140 C   0  0  0  0  0
   34.6190   29.4330   20.6050 C   0  0  0  0  0
   36.2540   28.1260   22.2250 C   0  0  0  0  0
   37.2240   28.8720   22.2250 O   0  0  0  0  0
   36.2880   26.8000   22.5800 O   0  0  0  0  0
   28.8090   31.4860   19.1960 C   0  0  0  0  0
   24.7490   29.9960   21.4990 C   0  0  0  0  0
   23.9270   31.1860   21.5410 C   0  0  0  0  0
   22.5400   31.1190   21.8360 C   0  0  0  0  0
   21.9370   29.8670   22.0990 C   0  0  0  0  0
   22.7000   28.6690   22.0720 C   0  0  0  0  0
   24.1110   28.7080   21.7780 C   0  0  0  0  0
   24.8700   27.4200   21.7670 C   0  0  0  0  0
   24.9340   26.7280   22.7660 O   0  0  0  0  0
   25.4600   27.0980   20.6020 O   0  0  0  0  0
   26.2110   25.8660   20.5310 C   0  0  0  0  0
   22.0090   27.4920   22.3470 O   0  0  0  0  0
   26.1550   30.0390   21.2020 O   0  0  0  0  0
   26.6500   31.1500   20.4670 C   0  0  0  0  0
   28.1310   30.9790   20.2660 C   0  0  0  0  0
   34.3520   31.0140   18.1420 F   0  0  0  0  0
   30.6781   30.1652   20.7326 H   0  0  0  0  0
   30.1997   32.4736   17.0995 H   0  0  0  0  0
   32.6556   32.2701   16.6356 H   0  0  0  0  0
   35.3395   29.7299   19.8429 H   0  0  0  0  0
   35.4075   26.4259   22.5004 H   0  0  0  0  0
   28.2343   32.0476   18.4595 H   0  0  0  0  0
   24.3830   32.1558   21.3416 H   0  0  0  0  0
   21.9416   32.0297   21.8597 H   0  0  0  0  0
   20.8718   29.8206   22.3256 H   0  0  0  0  0
   27.0226   25.8943   21.2581 H   0  0  0  0  0
   25.5518   25.0268   20.7529 H   0  0  0  0  0
   26.6233   25.7506   19.5286 H   0  0  0  0  0
   22.6149   26.7487   22.3025 H   0  0  0  0  0
   26.4562   32.0714   21.0161 H   0  0  0  0  0
   26.1503   31.2046   19.4998 H   0  0  0  0  0
   28.6923   30.4204   21.0150 H   0  0  0  0  0
  2  1  4  0  0  0
  6  1  4  0  0  0
  1 30  1  0  0  0
  3  2  4  0  0  0
  2  7  1  0  0  0
  4  3  4  0  0  0
  4  5  4  0  0  0
 15  4  1  0  0  0
  5  6  4  0  0  0
  7  8  4  0  0  0
  7 11  4  0  0  0
  8  9  4  0  0  0
 10  9  4  0  0  0
 11 10  4  0  0  0
 10 12  1  0  0  0
 12 13  2  0  0  0
 12 14  1  0  0  0
 29 15  2  0  0  0
 16 17  4  0  0  0
 16 21  4  0  0  0
 27 16  1  0  0  0
 17 18  4  0  0  0
 18 19  4  0  0  0
 20 19  4  0  0  0
 21 20  4  0  0  0
 20 26  1  0  0  0
 21 22  1  0  0  0
 22 23  2  0  0  0
 22 24  1  0  0  0
 24 25  1  0  0  0
 28 27  1  0  0  0
 28 29  1  0  0  0
  3 31  1  0  0  0
  5 32  1  0  0  0
  6 33  1  0  0  0
 11 34  1  0  0  0
 14 35  1  0  0  0
 15 36  1  0  0  0
 17 37  1  0  0  0
 18 38  1  0  0  0
 19 39  1  0  0  0
 25 40  1  0  0  0
 25 41  1  0  0  0
 25 42  1  0  0  0
 26 43  1  0  0  0
 28 44  1  0  0  0
 28 45  1  0  0  0
 29 46  1  0  0  0
M  END
$$$$
