4odk_ligand
  -I-interpret- 

136138  0  0  0  0  0  0  0  0999 V2000
   -6.3490   16.4500   15.9630 N   0  3  0  0  0
   -6.9230   16.4950   14.6200 C   0  0  0  0  0
   -7.6200   15.1810   14.2860 C   0  0  0  0  0
   -7.0090   14.1140   14.3370 O   0  0  0  0  0
   -5.8370   16.7910   13.5790 C   0  0  0  0  0
   -6.3730   17.1090   12.2160 C   0  0  0  0  0
   -6.7820   16.1360   11.3280 N   0  0  0  0  0
   -6.5630   18.2940   11.5880 C   0  0  0  0  0
   -7.2060   16.7080   10.2150 C   0  0  0  0  0
   -7.0820   18.0170   10.3460 N   0  0  0  0  0
   -8.9010   15.2610   13.9470 N   0  0  0  0  0
   -9.6730   14.0730   13.6150 C   0  0  0  0  0
   -9.9090   14.0070   12.1190 C   0  0  0  0  0
  -10.1590   15.0280   11.4700 O   0  0  0  0  0
  -11.0090   14.0860   14.3520 C   0  0  0  0  0
  -10.8620   14.1200   15.8690 C   0  0  0  0  0
  -12.2120   14.2350   16.5520 C   0  0  0  0  0
  -12.0730   14.3070   18.0620 C   0  0  0  0  0
  -13.4070   14.4330   18.7050 N   0  3  0  0  0
   -9.8230   12.7990   11.5790 N   0  0  0  0  0
  -10.0030   12.5750   10.1540 C   0  0  0  0  0
  -11.3910   12.0520    9.8310 C   0  0  0  0  0
  -11.9750   11.2690   10.5850 O   0  0  0  0  0
   -8.9700   11.5670    9.6650 C   0  0  0  0  0
   -7.5560   12.0670    9.7570 C   0  0  0  0  0
   -7.0720   12.9980    8.8500 C   0  0  0  0  0
   -6.7060   11.6170   10.7540 C   0  0  0  0  0
   -5.7800   13.4630    8.9290 C   0  0  0  0  0
   -5.4100   12.0760   10.8430 C   0  0  0  0  0
   -4.9510   12.9980    9.9300 C   0  0  0  0  0
   -3.6580   13.4540   10.0180 O   0  0  0  0  0
  -11.9050   12.4590    8.6760 N   0  0  0  0  0
  -13.2000   11.9920    8.2160 C   0  0  0  0  0
  -13.2320   10.4840    8.0320 C   0  0  0  0  0
  -14.1340    9.8150    8.5190 O   0  0  0  0  0
  -13.5380   12.6340    6.8730 C   0  0  0  0  0
  -13.7890   14.1120    6.9800 C   0  0  0  0  0
  -14.0880   14.6180    8.0550 O   0  0  0  0  0
  -13.7210   14.8130    5.8500 N   0  0  0  0  0
  -12.2450    9.9650    7.3090 N   0  0  0  0  0
  -12.2360    8.5720    6.8820 C   0  0  0  0  0
  -10.8130    8.0620    6.7240 C   0  0  0  0  0
   -9.8810    8.8520    6.5630 O   0  0  0  0  0
  -12.9720    8.4140    5.5470 C   0  0  0  0  0
  -14.4730    8.6360    5.6720 C   0  0  0  0  0
  -15.1560    7.9120    6.3840 O   0  0  0  0  0
  -14.9880    9.6380    4.9690 N   0  0  0  0  0
  -10.6530    6.7420    6.7640 N   0  0  0  0  0
   -9.3600    6.0960    6.5350 C   0  0  0  0  0
   -9.4230    5.2280    5.2910 C   0  0  0  0  0
  -10.4890    4.7480    4.9060 O   0  0  0  0  0
   -8.9510    5.2570    7.7560 C   0  0  0  0  0
   -8.9200    6.1060    8.9940 C   0  0  0  0  0
   -7.9050    7.0340    9.1800 C   0  0  0  0  0
   -9.9360    6.0380    9.9360 C   0  0  0  0  0
   -7.8850    7.8520   10.2750 C   0  0  0  0  0
   -9.9260    6.8600   11.0430 C   0  0  0  0  0
   -8.8930    7.7620   11.2020 C   0  0  0  0  0
   -8.8570    8.5810   12.2960 O   0  0  0  0  0
   -8.2800    5.0320    4.6550 N   0  0  0  0  0
   -8.2290    4.1880    3.4670 C   0  0  0  0  0
   -7.3210    2.9940    3.7180 C   0  0  0  0  0
   -6.4840    3.0300    4.6150 O   0  0  0  0  0
   -7.7640    4.9900    2.2560 C   0  0  0  0  0
   -6.4560    5.7190    2.4670 C   0  0  0  0  0
   -6.0590    6.5640    1.2690 C   0  0  0  0  0
   -4.8660    6.9220    1.1610 O   0  0  0  0  0
   -6.9400    6.8740    0.4370 O   0  0  0  0  0
   -7.5230    1.9270    2.9510 N   0  0  0  0  0
   -6.6960    0.7430    3.0610 C   0  0  0  0  0
   -5.4270    0.9540    2.2710 C   0  0  0  0  0
   -4.4470    0.2310    2.4370 O   0  0  0  0  0
   -5.4450    1.9670    1.4110 N   0  0  0  0  0
   -7.0859   16.2523   16.6400 H   0  0  0  0  0
   -5.6416   15.7164   16.0047 H   0  0  0  0  0
   -5.9202   17.3501   16.1785 H   0  0  0  0  0
   -7.6610   17.2968   14.5959 H   0  0  0  0  0
   -5.2246   15.8942   13.4854 H   0  0  0  0  0
   -5.2875   17.6670   13.9238 H   0  0  0  0  0
   -6.3450   19.2825   11.9922 H   0  0  0  0  0
   -7.5923   16.1885    9.3381 H   0  0  0  0  0
   -9.3537   16.1746   13.9186 H   0  0  0  0  0
   -9.1092   13.1933   13.9254 H   0  0  0  0  0
  -11.5365   13.1679   14.0931 H   0  0  0  0  0
  -11.5410   14.9890   14.0527 H   0  0  0  0  0
  -10.2614   14.9883   16.1398 H   0  0  0  0  0
  -10.3877   13.1934   16.1922 H   0  0  0  0  0
  -12.7993   13.3512   16.3029 H   0  0  0  0  0
  -12.6943   15.1498   16.2075 H   0  0  0  0  0
  -11.4728   15.1795   18.3201 H   0  0  0  0  0
  -11.5950   13.3938   18.4165 H   0  0  0  0  0
  -13.2921   14.4798   19.7174 H   0  0  0  0  0
  -13.8638   15.2827   18.3739 H   0  0  0  0  0
  -13.9774   13.6226   18.4635 H   0  0  0  0  0
   -9.6242   12.0014   12.1829 H   0  0  0  0  0
   -9.8762   13.5338    9.6513 H   0  0  0  0  0
   -9.1793   11.3664    8.6143 H   0  0  0  0  0
   -9.0476   10.6839   10.2992 H   0  0  0  0  0
   -7.7269   13.3676    8.0609 H   0  0  0  0  0
   -7.0681   10.8884   11.4794 H   0  0  0  0  0
   -5.4137   14.1928    8.2070 H   0  0  0  0  0
   -4.7521   11.7111   11.6318 H   0  0  0  0  0
   -3.2218   13.0342   10.7631 H   0  0  0  0  0
  -11.3778   13.1146    8.0992 H   0  0  0  0  0
  -13.9256   12.2713    8.9799 H   0  0  0  0  0
  -14.4495   12.1670    6.5000 H   0  0  0  0  0
  -12.6858   12.4876    6.2094 H   0  0  0  0  0
  -13.9221   15.8130    5.8573 H   0  0  0  0  0
  -13.4678   14.3500    4.9771 H   0  0  0  0  0
  -11.4640   10.5647    7.0429 H   0  0  0  0  0
  -12.7431    7.9888    7.6507 H   0  0  0  0  0
  -12.8131    7.3942    5.1965 H   0  0  0  0  0
  -12.5797    9.1625    4.8585 H   0  0  0  0  0
  -15.9893    9.8282    5.0103 H   0  0  0  0  0
  -14.3823   10.2174    4.3878 H   0  0  0  0  0
  -11.4643    6.1565    6.9623 H   0  0  0  0  0
   -8.6066    6.8692    6.3846 H   0  0  0  0  0
   -7.9562    4.8457    7.5848 H   0  0  0  0  0
   -9.6782    4.4569    7.8945 H   0  0  0  0  0
   -7.1091    7.1120    8.4393 H   0  0  0  0  0
  -10.7510    5.3271    9.7996 H   0  0  0  0  0
   -7.0757    8.5694   10.4107 H   0  0  0  0  0
  -10.7237    6.7984   11.7833 H   0  0  0  0  0
   -9.6207    8.4059   12.8507 H   0  0  0  0  0
   -7.4276    5.4747    4.9982 H   0  0  0  0  0
   -9.2317    3.8184    3.2522 H   0  0  0  0  0
   -8.5256    5.7435    2.0552 H   0  0  0  0  0
   -7.6129    4.2842    1.4392 H   0  0  0  0  0
   -5.6773    4.9726    2.6240 H   0  0  0  0  0
   -6.5768    6.3844    3.3218 H   0  0  0  0  0
   -7.7809    6.4987    0.7083 H   0  0  0  0  0
   -8.2799    1.9426    2.2674 H   0  0  0  0  0
   -7.2346   -0.1191    2.6676 H   0  0  0  0  0
   -6.4513    0.5618    4.1076 H   0  0  0  0  0
   -4.6186    2.1747    0.8503 H   0  0  0  0  0
   -6.2852    2.5368    1.3116 H   0  0  0  0  0
  1  2  1  0  0  0
  2  3  1  0  0  0
  2  5  1  0  0  0
  3  4  2  0  0  0
  3 11  1  0  0  0
  5  6  1  0  0  0
  6  7  4  0  0  0
  6  8  4  0  0  0
  7  9  4  0  0  0
  8 10  4  0  0  0
  9 10  4  0  0  0
 11 12  1  0  0  0
 12 13  1  0  0  0
 12 15  1  0  0  0
 13 14  2  0  0  0
 13 20  1  0  0  0
 15 16  1  0  0  0
 16 17  1  0  0  0
 17 18  1  0  0  0
 18 19  1  0  0  0
 20 21  1  0  0  0
 21 22  1  0  0  0
 21 24  1  0  0  0
 22 23  2  0  0  0
 22 32  1  0  0  0
 24 25  1  0  0  0
 25 26  4  0  0  0
 25 27  4  0  0  0
 26 28  4  0  0  0
 27 29  4  0  0  0
 28 30  4  0  0  0
 29 30  4  0  0  0
 30 31  1  0  0  0
 32 33  1  0  0  0
 33 34  1  0  0  0
 33 36  1  0  0  0
 34 35  2  0  0  0
 34 40  1  0  0  0
 36 37  1  0  0  0
 37 38  2  0  0  0
 37 39  1  0  0  0
 40 41  1  0  0  0
 41 42  1  0  0  0
 41 44  1  0  0  0
 42 43  2  0  0  0
 42 48  1  0  0  0
 44 45  1  0  0  0
 45 46  2  0  0  0
 45 47  1  0  0  0
 48 49  1  0  0  0
 49 50  1  0  0  0
 49 52  1  0  0  0
 50 51  2  0  0  0
 50 60  1  0  0  0
 52 53  1  0  0  0
 53 54  4  0  0  0
 53 55  4  0  0  0
 54 56  4  0  0  0
 55 57  4  0  0  0
 56 58  4  0  0  0
 57 58  4  0  0  0
 58 59  1  0  0  0
 60 61  1  0  0  0
 61 62  1  0  0  0
 61 64  1  0  0  0
 62 63  2  0  0  0
 62 69  1  0  0  0
 64 65  1  0  0  0
 65 66  1  0  0  0
 66 67  2  0  0  0
 66 68  1  0  0  0
 69 70  1  0  0  0
 70 71  1  0  0  0
 71 72  2  0  0  0
 71 73  1  0  0  0
  1 74  1  0  0  0
  1 75  1  0  0  0
  1 76  1  0  0  0
  2 77  1  0  0  0
  5 78  1  0  0  0
  5 79  1  0  0  0
  8 80  1  0  0  0
  9 81  1  0  0  0
 11 82  1  0  0  0
 12 83  1  0  0  0
 15 84  1  0  0  0
 15 85  1  0  0  0
 16 86  1  0  0  0
 16 87  1  0  0  0
 17 88  1  0  0  0
 17 89  1  0  0  0
 18 90  1  0  0  0
 18 91  1  0  0  0
 19 92  1  0  0  0
 19 93  1  0  0  0
 19 94  1  0  0  0
 20 95  1  0  0  0
 21 96  1  0  0  0
 24 97  1  0  0  0
 24 98  1  0  0  0
 26 99  1  0  0  0
 27100  1  0  0  0
 28101  1  0  0  0
 29102  1  0  0  0
 31103  1  0  0  0
 32104  1  0  0  0
 33105  1  0  0  0
 36106  1  0  0  0
 36107  1  0  0  0
 39108  1  0  0  0
 39109  1  0  0  0
 40110  1  0  0  0
 41111  1  0  0  0
 44112  1  0  0  0
 44113  1  0  0  0
 47114  1  0  0  0
 47115  1  0  0  0
 48116  1  0  0  0
 49117  1  0  0  0
 52118  1  0  0  0
 52119  1  0  0  0
 54120  1  0  0  0
 55121  1  0  0  0
 56122  1  0  0  0
 57123  1  0  0  0
 59124  1  0  0  0
 60125  1  0  0  0
 61126  1  0  0  0
 64127  1  0  0  0
 64128  1  0  0  0
 65129  1  0  0  0
 65130  1  0  0  0
 68131  1  0  0  0
 69132  1  0  0  0
 70133  1  0  0  0
 70134  1  0  0  0
 73135  1  0  0  0
 73136  1  0  0  0
M  END
$$$$
