### 
### Created by X-TOOL on Mon Sep 10 21:13:20 2018
### 

@<TRIPOS>MOLECULE
4odk_ligand
  136   138     1     0     0
SMALL
GAST_HUCK


@<TRIPOS>ATOM
      1 N          -6.3490   16.4500   15.9630 N.4       1 HIS         0.2390
      2 CA         -6.9230   16.4950   14.6200 C.3       1 HIS         0.0708
      3 C          -7.6200   15.1810   14.2860 C.2       1 HIS         0.2282
      4 O          -7.0090   14.1140   14.3370 O.2       1 HIS        -0.3906
      5 CB         -5.8370   16.7910   13.5790 C.3       1 HIS         0.0347
      6 CG         -6.3730   17.1090   12.2160 C.2       1 HIS         0.0005
      7 ND1        -6.7820   16.1360   11.3280 N.2       1 HIS        -0.3251
      8 CD2        -6.5630   18.2940   11.5880 C.2       1 HIS         0.0293
      9 CE1        -7.2060   16.7080   10.2150 C.2       1 HIS         0.0907
     10 NE2        -7.0820   18.0170   10.3460 N.pl3     1 HIS        -0.2752
     11 N          -8.9010   15.2610   13.9470 N.am      1 LYS        -0.2609
     12 CA         -9.6730   14.0730   13.6150 C.3       1 LYS         0.1311
     13 C          -9.9090   14.0070   12.1190 C.2       1 LYS         0.2040
     14 O         -10.1590   15.0280   11.4700 O.2       1 LYS        -0.3944
     15 CB        -11.0090   14.0860   14.3520 C.3       1 LYS        -0.0122
     16 CG        -10.8620   14.1200   15.8690 C.3       1 LYS        -0.0440
     17 CD        -12.2120   14.2350   16.5520 C.3       1 LYS        -0.0124
     18 CE        -12.0730   14.3070   18.0620 C.3       1 LYS        -0.0354
     19 NZ        -13.4070   14.4330   18.7050 N.4       1 LYS         0.2185
     20 N          -9.8230   12.7990   11.5790 N.am      1 TYR        -0.2621
     21 CA        -10.0030   12.5750   10.1540 C.3       1 TYR         0.1390
     22 C         -11.3910   12.0520    9.8310 C.2       1 TYR         0.2059
     23 O         -11.9750   11.2690   10.5850 O.2       1 TYR        -0.3942
     24 CB         -8.9700   11.5670    9.6650 C.3       1 TYR         0.0163
     25 CG         -7.5560   12.0670    9.7570 C.ar      1 TYR        -0.0493
     26 CD1        -7.0720   12.9980    8.8500 C.ar      1 TYR        -0.0685
     27 CD2        -6.7060   11.6170   10.7540 C.ar      1 TYR        -0.0685
     28 CE1        -5.7800   13.4630    8.9290 C.ar      1 TYR        -0.0398
     29 CE2        -5.4100   12.0760   10.8430 C.ar      1 TYR        -0.0398
     30 CZ         -4.9510   12.9980    9.9300 C.ar      1 TYR         0.0805
     31 OH         -3.6580   13.4540   10.0180 O.3       1 TYR        -0.3376
     32 N         -11.9050   12.4590    8.6760 N.am      1 ASN        -0.2615
     33 CA        -13.2000   11.9920    8.2160 C.3       1 ASN         0.1476
     34 C         -13.2320   10.4840    8.0320 C.2       1 ASN         0.2064
     35 O         -14.1340    9.8150    8.5190 O.2       1 ASN        -0.3942
     36 CB        -13.5380   12.6340    6.8730 C.3       1 ASN         0.0773
     37 CG        -13.7890   14.1120    6.9800 C.2       1 ASN         0.1780
     38 OD1       -14.0880   14.6180    8.0550 O.2       1 ASN        -0.3970
     39 ND2       -13.7210   14.8130    5.8500 N.am      1 ASN        -0.3007
     40 N         -12.2450    9.9650    7.3090 N.am      1 ASN        -0.2615
     41 CA        -12.2360    8.5720    6.8820 C.3       1 ASN         0.1476
     42 C         -10.8130    8.0620    6.7240 C.2       1 ASN         0.2064
     43 O          -9.8810    8.8520    6.5630 O.2       1 ASN        -0.3942
     44 CB        -12.9720    8.4140    5.5470 C.3       1 ASN         0.0773
     45 CG        -14.4730    8.6360    5.6720 C.2       1 ASN         0.1780
     46 OD1       -15.1560    7.9120    6.3840 O.2       1 ASN        -0.3970
     47 ND2       -14.9880    9.6380    4.9690 N.am      1 ASN        -0.3007
     48 N         -10.6530    6.7420    6.7640 N.am      1 TYR        -0.2620
     49 CA         -9.3600    6.0960    6.5350 C.3       1 TYR         0.1390
     50 C          -9.4230    5.2280    5.2910 C.2       1 TYR         0.2057
     51 O         -10.4890    4.7480    4.9060 O.2       1 TYR        -0.3942
     52 CB         -8.9510    5.2570    7.7560 C.3       1 TYR         0.0163
     53 CG         -8.9200    6.1060    8.9940 C.ar      1 TYR        -0.0493
     54 CD1        -7.9050    7.0340    9.1800 C.ar      1 TYR        -0.0685
     55 CD2        -9.9360    6.0380    9.9360 C.ar      1 TYR        -0.0685
     56 CE1        -7.8850    7.8520   10.2750 C.ar      1 TYR        -0.0398
     57 CE2        -9.9260    6.8600   11.0430 C.ar      1 TYR        -0.0398
     58 CZ         -8.8930    7.7620   11.2020 C.ar      1 TYR         0.0805
     59 OH         -8.8570    8.5810   12.2960 O.3       1 TYR        -0.3376
     60 N          -8.2800    5.0320    4.6550 N.am      1 GLU        -0.2635
     61 CA         -8.2290    4.1880    3.4670 C.3       1 GLU         0.1325
     62 C          -7.3210    2.9940    3.7180 C.2       1 GLU         0.2038
     63 O          -6.4840    3.0300    4.6150 O.2       1 GLU        -0.3944
     64 CB         -7.7640    4.9900    2.2560 C.3       1 GLU        -0.0008
     65 CG         -6.4560    5.7190    2.4670 C.3       1 GLU         0.0044
     66 CD         -6.0590    6.5640    1.2690 C.2       1 GLU         0.0350
     67 OE1        -4.8660    6.9220    1.1610 O.co2     1 GLU        -0.5690
     68 OE2        -6.9400    6.8740    0.4370 O.co2     1 GLU        -0.5690
     69 N          -7.5230    1.9270    2.9510 N.am      1 GLY        -0.2664
     70 CA         -6.6960    0.7430    3.0610 C.3       1 GLY         0.1198
     71 C          -5.4270    0.9540    2.2710 C.2       1 GLY         0.1960
     72 O          -4.4470    0.2310    2.4370 O.2       1 GLY        -0.3951
     73 N          -5.4450    1.9670    1.4110 N.am      1 NH2        -0.2992
     74 H1         -5.8938   17.3268   16.1634 H         1 HIS         0.2016
     75 H2         -5.6754   15.7020   16.0156 H         1 HIS         0.2016
     76 H3         -7.0818   16.2903   16.6365 H         1 HIS         0.2016
     77 H4         -7.6680   17.3036   14.5879 H         1 HIS         0.1116
     78 H5         -5.1854   15.9085   13.4977 H         1 HIS         0.0453
     79 H6         -5.2473   17.6512   13.9286 H         1 HIS         0.0453
     80 H7         -6.3452   19.2816   11.9918 H         1 HIS         0.0729
     81 H8         -7.5919   16.1890    9.3389 H         1 HIS         0.1199
     82 H9         -7.3335   18.7164    9.6329 H         1 HIS         0.2361
     83 H10        -9.3449   16.1567   13.9192 H         1 LYS         0.1885
     84 H11        -9.1053   13.1834   13.9252 H         1 LYS         0.0800
     85 H12       -11.5686   13.1801   14.0760 H         1 LYS         0.0312
     86 H13       -11.5731   14.9760   14.0362 H         1 LYS         0.0312
     87 H14       -10.2438   14.9854   16.1497 H         1 LYS         0.0269
     88 H15       -10.3699   13.1943   16.2020 H         1 LYS         0.0269
     89 H16       -12.8194   13.3557   16.2915 H         1 LYS         0.0317
     90 H17       -12.7149   15.1464   16.1965 H         1 LYS         0.0317
     91 H18       -11.4599   15.1809   18.3273 H         1 LYS         0.0813
     92 H19       -11.5824   13.3914   18.4239 H         1 LYS         0.0813
     93 H20       -13.2946   14.4793   19.7056 H         1 LYS         0.1994
     94 H21       -13.9717   13.6326   18.4670 H         1 LYS         0.1994
     95 H22       -13.8594   15.2725   18.3785 H         1 LYS         0.1994
     96 H23        -9.6281   12.0170   12.1710 H         1 TYR         0.1885
     97 H24        -9.8547   13.5294    9.6276 H         1 TYR         0.0821
     98 H25        -9.1872   11.3278    8.6135 H         1 TYR         0.0453
     99 H26        -9.0574   10.6552   10.2741 H         1 TYR         0.0453
    100 H27        -7.7233   13.3655    8.0653 H         1 TYR         0.0530
    101 H28        -7.0661   10.8924   11.4754 H         1 TYR         0.0530
    102 H29        -5.4157   14.1888    8.2110 H         1 TYR         0.0525
    103 H30        -4.7557   11.7131   11.6274 H         1 TYR         0.0525
    104 H31        -3.4962   14.0801    9.3221 H         1 TYR         0.2458
    105 H32       -11.3881   13.1017    8.1105 H         1 ASN         0.1885
    106 H33       -13.9592   12.2777    8.9590 H         1 ASN         0.0826
    107 H34       -14.4415   12.1525    6.4709 H         1 ASN         0.0551
    108 H35       -12.6970   12.4695    6.1834 H         1 ASN         0.0551
    109 H36       -13.8795   15.8003    5.8637 H         1 ASN         0.1814
    110 H37       -13.5114   14.3522    4.9876 H         1 ASN         0.1814
    111 H38       -11.4793   10.5530    7.0481 H         1 ASN         0.1885
    112 H39       -12.7478    7.9682    7.6458 H         1 ASN         0.0826
    113 H40       -12.7975    7.3964    5.1675 H         1 ASN         0.0551
    114 H41       -12.5666    9.1461    4.8331 H         1 ASN         0.0551
    115 H42       -15.9687    9.8283    5.0142 H         1 ASN         0.1814
    116 H43       -14.3951   10.2022    4.3944 H         1 ASN         0.1814
    117 H44       -11.4484    6.1679    6.9584 H         1 TYR         0.1885
    118 H45        -8.6014    6.8771    6.3790 H         1 TYR         0.0821
    119 H46        -7.9511    4.8319    7.5841 H         1 TYR         0.0453
    120 H47        -9.6770    4.4423    7.8945 H         1 TYR         0.0453
    121 H48        -7.1135    7.1116    8.4434 H         1 TYR         0.0530
    122 H49       -10.7465    5.3311    9.8004 H         1 TYR         0.0530
    123 H50        -7.0801    8.5654   10.4100 H         1 TYR         0.0525
    124 H51       -10.7193    6.7988   11.7792 H         1 TYR         0.0525
    125 H52        -9.6374    9.1226   12.3105 H         1 TYR         0.2458
    126 H53        -7.4443    5.4660    4.9915 H         1 GLU         0.1883
    127 H54        -9.2431    3.8143    3.2621 H         1 GLU         0.0801
    128 H55        -8.5388    5.7325    2.0145 H         1 GLU         0.0330
    129 H56        -7.6420    4.2986    1.4092 H         1 GLU         0.0330
    130 H57        -5.6651    4.9773    2.6526 H         1 GLU         0.0433
    131 H58        -6.5560    6.3757    3.3438 H         1 GLU         0.0433
    132 H59        -8.2651    1.9423    2.2808 H         1 GLY         0.1881
    133 H60        -7.2398   -0.1251    2.6601 H         1 GLY         0.0763
    134 H61        -6.4471    0.5639    4.1174 H         1 GLY         0.0763
    135 H62        -4.6382    2.1646    0.8543 H         1 NH2         0.1815
    136 H63        -6.2654    2.5316    1.3206 H         1 NH2         0.1815
@<TRIPOS>BOND
     1    1    2 1  
     2    2    3 1  
     3    2    5 1  
     4    3    4 2  
     5    3   11 am 
     6    5    6 1  
     7    6    7 1  
     8    6    8 2  
     9    7    9 2  
    10    8   10 1  
    11    9   10 1  
    12   11   12 1  
    13   12   13 1  
    14   12   15 1  
    15   13   14 2  
    16   13   20 am 
    17   15   16 1  
    18   16   17 1  
    19   17   18 1  
    20   18   19 1  
    21   20   21 1  
    22   21   22 1  
    23   21   24 1  
    24   22   23 2  
    25   22   32 am 
    26   24   25 1  
    27   25   26 ar 
    28   25   27 ar 
    29   26   28 ar 
    30   27   29 ar 
    31   28   30 ar 
    32   29   30 ar 
    33   30   31 1  
    34   32   33 1  
    35   33   34 1  
    36   33   36 1  
    37   34   35 2  
    38   34   40 am 
    39   36   37 1  
    40   37   38 2  
    41   37   39 am 
    42   40   41 1  
    43   41   42 1  
    44   41   44 1  
    45   42   43 2  
    46   42   48 am 
    47   44   45 1  
    48   45   46 2  
    49   45   47 am 
    50   48   49 1  
    51   49   50 1  
    52   49   52 1  
    53   50   51 2  
    54   50   60 am 
    55   52   53 1  
    56   53   54 ar 
    57   53   55 ar 
    58   54   56 ar 
    59   55   57 ar 
    60   56   58 ar 
    61   57   58 ar 
    62   58   59 1  
    63   60   61 1  
    64   61   62 1  
    65   61   64 1  
    66   62   63 2  
    67   62   69 am 
    68   64   65 1  
    69   65   66 1  
    70   66   67 ar 
    71   66   68 ar 
    72   69   70 1  
    73   70   71 1  
    74   71   72 2  
    75   71   73 am 
    76    1   74 1  
    77    1   75 1  
    78    1   76 1  
    79    2   77 1  
    80    5   78 1  
    81    5   79 1  
    82    8   80 1  
    83    9   81 1  
    84   10   82 1  
    85   11   83 1  
    86   12   84 1  
    87   15   85 1  
    88   15   86 1  
    89   16   87 1  
    90   16   88 1  
    91   17   89 1  
    92   17   90 1  
    93   18   91 1  
    94   18   92 1  
    95   19   93 1  
    96   19   94 1  
    97   19   95 1  
    98   20   96 1  
    99   21   97 1  
   100   24   98 1  
   101   24   99 1  
   102   26  100 1  
   103   27  101 1  
   104   28  102 1  
   105   29  103 1  
   106   31  104 1  
   107   32  105 1  
   108   33  106 1  
   109   36  107 1  
   110   36  108 1  
   111   39  109 1  
   112   39  110 1  
   113   40  111 1  
   114   41  112 1  
   115   44  113 1  
   116   44  114 1  
   117   47  115 1  
   118   47  116 1  
   119   48  117 1  
   120   49  118 1  
   121   52  119 1  
   122   52  120 1  
   123   54  121 1  
   124   55  122 1  
   125   56  123 1  
   126   57  124 1  
   127   59  125 1  
   128   60  126 1  
   129   61  127 1  
   130   64  128 1  
   131   64  129 1  
   132   65  130 1  
   133   65  131 1  
   134   69  132 1  
   135   70  133 1  
   136   70  134 1  
   137   73  135 1  
   138   73  136 1  
@<TRIPOS>SUBSTRUCTURE
     1 HIS         1

