5jhb_ligand
  -I-interpret- 

 52 55  0  0  0  0  0  0  0  0999 V2000
   24.8020   -5.0470   16.9330 F   0  0  0  0  0
   24.2860   -4.7070   18.1280 C   0  0  0  0  0
   22.9900   -5.0400   18.0570 F   0  0  0  0  0
   24.2780   -3.3510   18.0830 F   0  0  0  0  0
   24.9880   -5.3200   19.3350 C   0  0  0  0  0
   26.3060   -5.7940   19.1050 C   0  0  0  0  0
   27.0390   -6.3750   20.1720 C   0  0  0  0  0
   28.3320   -6.8630   20.0220 N   0  0  0  0  0
   26.4160   -6.4460   21.4060 N   0  0  0  0  0
   25.1560   -5.9670   21.5440 C   0  0  0  0  0
   24.3150   -5.3630   20.5820 C   0  0  0  0  0
   22.8590   -4.8550   20.9180 C   0  0  0  0  0
   22.1060   -5.6400   21.7800 N   0  0  0  0  0
   22.3800   -3.6740   20.3700 N   0  0  0  0  0
   21.0710   -3.2730   20.7130 C   0  0  0  0  0
   20.4570   -2.0510   20.1970 N   0  0  0  0  0
   19.7880   -0.8480   20.8410 C   0  0  0  0  0
   19.9410   -1.6220   18.8610 C   0  0  0  0  0
   19.2580   -0.3120   19.4510 C   0  0  0  0  0
   17.7350   -0.2750   19.1960 C   0  0  0  0  0
   16.6480   -0.7140   20.6710 Cl  0  0  0  0  0
   19.9180    1.0020   18.9200 C   0  0  0  0  0
   19.6380    2.0550   19.8060 O   0  0  0  0  0
   20.2940   -4.0340   21.5700 N   0  0  0  0  0
   20.8350   -5.2060   22.0840 C   0  0  0  0  0
   19.9090   -5.9320   23.0000 N   0  0  0  0  0
   20.1840   -7.3560   23.4000 C   0  0  0  0  0
   19.2640   -7.8140   24.5730 C   0  0  0  0  0
   17.9080   -7.5900   24.3270 O   0  0  0  0  0
   17.6130   -6.2590   24.0150 C   0  0  0  0  0
   18.4290   -5.7710   22.7880 C   0  0  0  0  0
   26.7526   -5.7121   18.1141 H   0  0  0  0  0
   28.7943   -6.8118   19.1142 H   0  0  0  0  0
   28.8184   -7.2722   20.8197 H   0  0  0  0  0
   24.7288   -6.0612   22.5424 H   0  0  0  0  0
   20.3923   -0.1844   21.4595 H   0  0  0  0  0
   19.0692   -1.0182   21.6425 H   0  0  0  0  0
   19.3198   -2.3197   18.2994 H   0  0  0  0  0
   20.6540   -1.5091   18.0443 H   0  0  0  0  0
   17.5323   -1.0233   18.4298 H   0  0  0  0  0
   17.4919    0.7534   18.9289 H   0  0  0  0  0
   19.5167    1.2387   17.9346 H   0  0  0  0  0
   20.9968    0.8641   18.8475 H   0  0  0  0  0
   20.0431    2.8621   19.4803 H   0  0  0  0  0
   21.2207   -7.4260   23.7294 H   0  0  0  0  0
   19.9896   -7.9976   22.5406 H   0  0  0  0  0
   19.5400   -7.2358   25.4548 H   0  0  0  0  0
   19.4036   -8.8872   24.7031 H   0  0  0  0  0
   17.8711   -5.6370   24.8721 H   0  0  0  0  0
   16.5519   -6.1863   23.7763 H   0  0  0  0  0
   18.1399   -6.3702   21.9246 H   0  0  0  0  0
   18.2183   -4.7124   22.6361 H   0  0  0  0  0
  1  2  1  0  0  0
  2  3  1  0  0  0
  2  4  1  0  0  0
  2  5  1  0  0  0
  5  6  4  0  0  0
  5 11  4  0  0  0
  6  7  4  0  0  0
  7  8  1  0  0  0
  7  9  4  0  0  0
  9 10  4  0  0  0
 10 11  4  0  0  0
 11 12  1  0  0  0
 12 13  4  0  0  0
 12 14  4  0  0  0
 13 25  4  0  0  0
 14 15  4  0  0  0
 15 16  1  0  0  0
 15 24  4  0  0  0
 16 17  1  0  0  0
 16 18  1  0  0  0
 17 19  1  0  0  0
 18 19  1  0  0  0
 19 20  1  0  0  0
 19 22  1  0  0  0
 20 21  1  0  0  0
 22 23  1  0  0  0
 24 25  4  0  0  0
 25 26  1  0  0  0
 26 27  1  0  0  0
 26 31  1  0  0  0
 27 28  1  0  0  0
 28 29  1  0  0  0
 29 30  1  0  0  0
 30 31  1  0  0  0
  6 32  1  0  0  0
  8 33  1  0  0  0
  8 34  1  0  0  0
 10 35  1  0  0  0
 17 36  1  0  0  0
 17 37  1  0  0  0
 18 38  1  0  0  0
 18 39  1  0  0  0
 20 40  1  0  0  0
 20 41  1  0  0  0
 22 42  1  0  0  0
 22 43  1  0  0  0
 23 44  1  0  0  0
 27 45  1  0  0  0
 27 46  1  0  0  0
 28 47  1  0  0  0
 28 48  1  0  0  0
 30 49  1  0  0  0
 30 50  1  0  0  0
 31 51  1  0  0  0
 31 52  1  0  0  0
M  END
$$$$
