3el9_ligand
  -I-interpret- 

104106  0  0  0  0  0  0  0  0999 V2000
   20.8160   23.6110    9.1960 C   0  0  0  0  0
   21.1110   24.9970    9.3690 O   0  0  0  0  0
   21.6170   25.4580   10.6440 C   0  0  0  0  0
   21.8960   24.6520   11.5210 O   0  0  0  0  0
   21.7790   26.7720   10.7300 N   0  0  0  0  0
   22.3140   27.4440   11.8900 C   0  0  0  0  0
   23.7120   28.0040   11.6390 C   0  0  0  0  0
   24.0290   28.8620   12.8560 C   0  0  0  0  0
   23.7740   28.8120   10.3470 C   0  0  0  0  0
   24.7300   26.8710   11.5280 C   0  0  0  0  0
   21.2680   28.4470   12.3050 C   0  0  0  0  0
   21.0450   29.4470   11.6240 O   0  0  0  0  0
   20.6180   28.1410   13.4340 N   0  0  0  0  0
   19.5570   28.9830   13.9820 C   0  0  0  0  0
   18.2450   28.2090   13.8810 C   0  0  0  0  0
   17.9440   27.8080   12.4590 C   0  0  0  0  0
   18.3340   26.5510   12.0210 C   0  0  0  0  0
   18.0830   26.1430   10.7170 C   0  0  0  0  0
   17.4150   26.9910    9.8440 C   0  0  0  0  0
   17.0080   28.2520   10.2870 C   0  0  0  0  0
   17.2600   28.6580   11.5950 C   0  0  0  0  0
   19.9160   29.2840   15.4420 C   0  0  0  0  0
   20.1870   28.0870   16.1590 O   0  0  0  0  0
   21.1780   30.1260   15.5950 C   0  0  0  0  0
   20.9560   31.5530   15.4130 N   0  3  0  0  0
   19.9080   32.0380   16.0940 N   0  0  0  0  0
   18.9780   32.7680   15.4590 C   0  0  0  0  0
   18.9460   32.9540   14.2450 O   0  0  0  0  0
   17.9960   33.4650   16.3590 C   0  0  0  0  0
   16.5220   33.4080   15.9460 C   0  0  0  0  0
   15.6390   33.9470   17.0700 C   0  0  0  0  0
   16.1370   31.9480   15.7300 C   0  0  0  0  0
   16.2160   34.2250   14.6940 C   0  0  0  0  0
   18.4470   34.8330   16.4810 N   0  0  0  0  0
   18.6090   35.4360   17.6600 C   0  0  0  0  0
   18.4250   34.8810   18.7340 O   0  0  0  0  0
   19.0120   36.8310   17.6230 O   0  0  0  0  0
   19.3080   37.5110   18.8460 C   0  0  0  0  0
   22.2240   32.2190   15.7610 C   0  0  0  0  0
   22.1300   33.7320   15.7860 C   0  0  0  0  0
   22.0460   34.4240   14.6320 C   0  0  0  0  0
   21.9600   35.7530   14.7040 C   0  0  0  0  0
   22.1420   34.3910   16.8680 C   0  0  0  0  0
   22.0660   35.5880   16.9260 C   0  0  0  0  0
   21.9730   36.3490   15.9120 C   0  0  0  0  0
   21.8670   37.8580   16.0400 C   0  0  0  0  0
   21.0160   38.5910   15.2120 C   0  0  0  0  0
   20.9130   39.9770   15.3190 C   0  0  0  0  0
   21.6630   40.6410   16.2870 C   0  0  0  0  0
   22.4930   39.8830   17.1120 C   0  0  0  0  0
   22.5680   38.5470   16.9720 N   0  0  0  0  0
   21.7211   23.0253    9.3571 H   0  0  0  0  0
   20.0543   23.3104    9.9155 H   0  0  0  0  0
   20.4481   23.4427    8.1838 H   0  0  0  0  0
   21.5092   27.3417    9.9281 H   0  0  0  0  0
   22.4929   26.7633   12.7223 H   0  0  0  0  0
   25.0330   29.2744   12.7566 H   0  0  0  0  0
   23.3060   29.6749   12.9242 H   0  0  0  0  0
   23.9741   28.2488   13.7555 H   0  0  0  0  0
   23.0488   29.6244   10.3929 H   0  0  0  0  0
   24.7758   29.2240   10.2253 H   0  0  0  0  0
   23.5416   28.1631    9.5026 H   0  0  0  0  0
   25.7301   27.2918   11.4234 H   0  0  0  0  0
   24.6857   26.2552   12.4263 H   0  0  0  0  0
   24.4983   26.2603   10.6554 H   0  0  0  0  0
   20.8729   27.2875   13.9309 H   0  0  0  0  0
   19.4501   29.9229   13.4405 H   0  0  0  0  0
   17.4386   28.8511   14.2354 H   0  0  0  0  0
   18.3322   27.3042   14.4825 H   0  0  0  0  0
   18.8434   25.8754   12.7081 H   0  0  0  0  0
   18.4098   25.1593   10.3800 H   0  0  0  0  0
   17.2097   26.6755    8.8211 H   0  0  0  0  0
   16.4889   28.9236    9.6031 H   0  0  0  0  0
   16.9235   29.6357   11.9401 H   0  0  0  0  0
   19.0490   29.8216   15.8261 H   0  0  0  0  0
   20.4085   28.3029   17.0678 H   0  0  0  0  0
   21.8791   29.8047   14.8247 H   0  0  0  0  0
   21.5452   29.9806   16.6109 H   0  0  0  0  0
   20.6983   31.7389   14.4438 H   0  0  0  0  0
   19.8177   31.8525   17.0929 H   0  0  0  0  0
   17.9925   32.9264   17.3066 H   0  0  0  0  0
   15.7833   33.3424   17.9654 H   0  0  0  0  0
   15.9118   34.9811   17.2805 H   0  0  0  0  0
   14.5941   33.9008   16.7633 H   0  0  0  0  0
   16.7611   31.5214   14.9448 H   0  0  0  0  0
   16.2865   31.3933   16.6563 H   0  0  0  0  0
   15.0893   31.8897   15.4351 H   0  0  0  0  0
   16.4680   35.2702   14.8732 H   0  0  0  0  0
   16.8069   33.8452   13.8605 H   0  0  0  0  0
   15.1554   34.1411   14.4572 H   0  0  0  0  0
   18.6497   35.3588   15.6308 H   0  0  0  0  0
   18.4269   37.5022   19.4876 H   0  0  0  0  0
   20.1316   37.0061   19.3508 H   0  0  0  0  0
   19.5903   38.5411   18.6284 H   0  0  0  0  0
   22.9540   31.9501   14.9975 H   0  0  0  0  0
   22.4993   31.8927   16.7639 H   0  0  0  0  0
   22.0483   33.9128   13.6693 H   0  0  0  0  0
   21.8801   36.3501   13.7956 H   0  0  0  0  0
   22.2265   33.8377   17.8033 H   0  0  0  0  0
   22.0775   36.0522   17.9122 H   0  0  0  0  0
   20.4186   38.0682   14.4650 H   0  0  0  0  0
   20.2538   40.5343   14.6535 H   0  0  0  0  0
   21.6026   41.7238   16.3965 H   0  0  0  0  0
   23.0879   40.3785   17.8792 H   0  0  0  0  0
  1  2  1  0  0  0
  2  3  1  0  0  0
  3  4  2  0  0  0
  3  5  1  0  0  0
  5  6  1  0  0  0
  6  7  1  0  0  0
  6 11  1  0  0  0
  7  8  1  0  0  0
  7  9  1  0  0  0
  7 10  1  0  0  0
 11 12  2  0  0  0
 11 13  1  0  0  0
 13 14  1  0  0  0
 14 15  1  0  0  0
 14 22  1  0  0  0
 15 16  1  0  0  0
 16 17  4  0  0  0
 16 21  4  0  0  0
 17 18  4  0  0  0
 18 19  4  0  0  0
 19 20  4  0  0  0
 20 21  4  0  0  0
 22 23  1  0  0  0
 22 24  1  0  0  0
 24 25  1  0  0  0
 25 26  1  0  0  0
 25 39  1  0  0  0
 26 27  1  0  0  0
 27 28  2  0  0  0
 27 29  1  0  0  0
 29 30  1  0  0  0
 29 34  1  0  0  0
 30 31  1  0  0  0
 30 32  1  0  0  0
 30 33  1  0  0  0
 34 35  1  0  0  0
 35 36  2  0  0  0
 35 37  1  0  0  0
 37 38  1  0  0  0
 39 40  1  0  0  0
 40 41  4  0  0  0
 40 43  4  0  0  0
 41 42  4  0  0  0
 42 45  4  0  0  0
 43 44  4  0  0  0
 44 45  4  0  0  0
 45 46  1  0  0  0
 46 47  4  0  0  0
 46 51  4  0  0  0
 47 48  4  0  0  0
 48 49  4  0  0  0
 49 50  4  0  0  0
 50 51  4  0  0  0
  1 52  1  0  0  0
  1 53  1  0  0  0
  1 54  1  0  0  0
  5 55  1  0  0  0
  6 56  1  0  0  0
  8 57  1  0  0  0
  8 58  1  0  0  0
  8 59  1  0  0  0
  9 60  1  0  0  0
  9 61  1  0  0  0
  9 62  1  0  0  0
 10 63  1  0  0  0
 10 64  1  0  0  0
 10 65  1  0  0  0
 13 66  1  0  0  0
 14 67  1  0  0  0
 15 68  1  0  0  0
 15 69  1  0  0  0
 17 70  1  0  0  0
 18 71  1  0  0  0
 19 72  1  0  0  0
 20 73  1  0  0  0
 21 74  1  0  0  0
 22 75  1  0  0  0
 23 76  1  0  0  0
 24 77  1  0  0  0
 24 78  1  0  0  0
 25 79  1  0  0  0
 26 80  1  0  0  0
 29 81  1  0  0  0
 31 82  1  0  0  0
 31 83  1  0  0  0
 31 84  1  0  0  0
 32 85  1  0  0  0
 32 86  1  0  0  0
 32 87  1  0  0  0
 33 88  1  0  0  0
 33 89  1  0  0  0
 33 90  1  0  0  0
 34 91  1  0  0  0
 38 92  1  0  0  0
 38 93  1  0  0  0
 38 94  1  0  0  0
 39 95  1  0  0  0
 39 96  1  0  0  0
 41 97  1  0  0  0
 42 98  1  0  0  0
 43 99  1  0  0  0
 44100  1  0  0  0
 47101  1  0  0  0
 48102  1  0  0  0
 49103  1  0  0  0
 50104  1  0  0  0
M  END
$$$$
