2amv_ligand
  -I-interpret- 

 50 51  0  0  0  0  0  0  0  0999 V2000
   28.1030    2.4370   52.8170 C   0  0  0  0  0
   27.4550    3.8220   53.2110 C   0  0  0  0  0
   27.6440    4.3340   54.6160 C   0  0  0  0  0
   28.4830    3.5460   55.5770 C   0  0  0  0  0
   29.0730    2.3630   55.2320 C   0  0  0  0  0
   28.9040    1.7820   53.8950 C   0  0  0  0  0
   27.9610    1.7570   51.3900 C   0  0  0  0  0
   27.0460    0.3760   51.4150 C   0  0  0  0  0
   29.9990    0.3290   50.5870 C   0  0  0  0  0
   27.6410   -0.9080   51.1770 C   0  0  0  0  0
   29.3400    1.6580   50.7470 C   0  0  0  0  0
   30.0280    3.0170   50.3770 C   0  0  0  0  0
   31.3790    0.2200   50.1020 C   0  0  0  0  0
   26.9570   -2.2800   51.0880 C   0  0  0  0  0
   30.3800   -2.2620   52.9380 C   0  0  0  0  0
   29.9660   -2.1000   51.5030 C   0  0  0  0  0
   25.4960    0.5740   51.6760 C   0  0  0  0  0
   23.5260    2.1670   51.4330 C   0  0  0  0  0
   23.2920    2.5980   52.9070 C   0  0  0  0  0
   23.2690    3.2190   50.3990 C   0  0  0  0  0
   29.1850   -0.9100   51.0350 N   0  0  0  0  0
   29.3430    4.1010   50.2600 O   0  0  0  0  0
   31.2440    3.1440   50.3610 O   0  0  0  0  0
   32.2790    0.5670   50.9110 O   0  0  0  0  0
   31.5460   -0.1460   48.9130 O   0  0  0  0  0
   24.7800   -0.2850   52.1400 O   0  0  0  0  0
   25.0850    1.8260   51.3370 O   0  0  0  0  0
   26.6050    4.8260   52.2430 Cl  0  0  0  0  0
   27.1759    5.2669   54.9300 H   0  0  0  0  0
   28.6273    3.9306   56.5866 H   0  0  0  0  0
   29.6835    1.8384   55.9670 H   0  0  0  0  0
   29.3852    0.8283   53.6782 H   0  0  0  0  0
   27.3678    2.3883   50.7284 H   0  0  0  0  0
   26.4497   -2.4933   52.0288 H   0  0  0  0  0
   26.2301   -2.2702   50.2758 H   0  0  0  0  0
   27.7075   -3.0469   50.8964 H   0  0  0  0  0
   31.0122   -1.4232   53.2293 H   0  0  0  0  0
   29.4925   -2.2865   53.5703 H   0  0  0  0  0
   30.9346   -3.1934   53.0519 H   0  0  0  0  0
   29.2869   -2.9359   51.3350 H   0  0  0  0  0
   30.9129   -2.0122   50.9702 H   0  0  0  0  0
   22.8327    1.3527   51.2225 H   0  0  0  0  0
   23.9506    3.4321   53.1492 H   0  0  0  0  0
   22.2537    2.9044   53.0341 H   0  0  0  0  0
   23.5081    1.7589   53.5682 H   0  0  0  0  0
   22.2299    3.5421   50.4617 H   0  0  0  0  0
   23.9268    4.0698   50.5768 H   0  0  0  0  0
   23.4639    2.8082   49.4084 H   0  0  0  0  0
   28.4066    3.8907   50.2846 H   0  0  0  0  0
   31.8793    0.7988   51.7525 H   0  0  0  0  0
  1  2  4  0  0  0
  1  6  4  0  0  0
  7  1  1  0  0  0
  2  3  4  0  0  0
  2 28  1  0  0  0
  3  4  4  0  0  0
  5  4  4  0  0  0
  6  5  4  0  0  0
  8  7  1  0  0  0
  7 11  1  0  0  0
  8 10  2  0  0  0
 17  8  1  0  0  0
 11  9  2  0  0  0
  9 13  1  0  0  0
 21  9  1  0  0  0
 10 14  1  0  0  0
 10 21  1  0  0  0
 11 12  1  0  0  0
 12 22  1  0  0  0
 12 23  2  0  0  0
 13 24  1  0  0  0
 13 25  2  0  0  0
 16 15  1  0  0  0
 21 16  1  0  0  0
 17 26  2  0  0  0
 27 17  1  0  0  0
 18 19  1  0  0  0
 18 20  1  0  0  0
 18 27  1  0  0  0
  3 29  1  0  0  0
  4 30  1  0  0  0
  5 31  1  0  0  0
  6 32  1  0  0  0
  7 33  1  0  0  0
 14 34  1  0  0  0
 14 35  1  0  0  0
 14 36  1  0  0  0
 15 37  1  0  0  0
 15 38  1  0  0  0
 15 39  1  0  0  0
 16 40  1  0  0  0
 16 41  1  0  0  0
 18 42  1  0  0  0
 19 43  1  0  0  0
 19 44  1  0  0  0
 19 45  1  0  0  0
 20 46  1  0  0  0
 20 47  1  0  0  0
 20 48  1  0  0  0
 22 49  1  0  0  0
 24 50  1  0  0  0
M  END
$$$$
