3kid_ligand
  -I-interpret- 

 25 26  0  0  0  0  0  0  0  0999 V2000
   -0.6840  -30.6190  -12.3300 C   0  0  0  0  0
   -0.8810  -34.3990   -8.7520 S   0  0  0  0  0
   -0.1700  -28.9330  -10.5130 C   0  0  0  0  0
   -0.9760  -36.1120  -10.7520 N   0  0  0  0  0
   -1.1110  -29.6180  -11.3350 O   0  0  0  0  0
   -0.7250  -28.8460   -9.1220 C   0  0  0  0  0
   -0.7650  -32.0800  -11.9900 C   0  0  0  0  0
   -0.7800  -32.4530  -10.6270 C   0  0  0  0  0
   -0.8550  -33.8050  -10.3000 C   0  0  0  0  0
   -0.9620  -36.0120   -9.3870 C   0  0  0  0  0
   -0.9150  -34.8820  -11.3580 C   0  0  0  0  0
   -0.9000  -34.4690  -12.7180 C   0  0  0  0  0
   -0.2760  -30.2490  -13.4280 O   0  0  0  0  0
   -1.0030  -37.1030   -8.5830 N   0  0  0  0  0
   -0.8260  -33.0750  -13.0260 C   0  0  0  0  0
    0.0066  -27.9317  -10.9057 H   0  0  0  0  0
    0.7765  -29.4735  -10.5021 H   0  0  0  0  0
   -1.6682  -28.3001   -9.1420 H   0  0  0  0  0
   -0.8937  -29.8513   -8.7360 H   0  0  0  0  0
   -0.0149  -28.3236   -8.4809 H   0  0  0  0  0
   -0.7337  -31.6954   -9.8447 H   0  0  0  0  0
   -0.9445  -35.2079  -13.5181 H   0  0  0  0  0
   -0.9865  -36.9904   -7.5694 H   0  0  0  0  0
   -1.0503  -38.0363   -8.9918 H   0  0  0  0  0
   -0.8156  -32.7595  -14.0693 H   0  0  0  0  0
  1  5  1  0  0  0
  7  1  1  0  0  0
  1 13  2  0  0  0
  9  2  4  0  0  0
  2 10  4  0  0  0
  5  3  1  0  0  0
  3  6  1  0  0  0
 10  4  4  0  0  0
  4 11  4  0  0  0
  8  7  4  0  0  0
  7 15  4  0  0  0
  8  9  4  0  0  0
  9 11  4  0  0  0
 10 14  1  0  0  0
 11 12  4  0  0  0
 12 15  4  0  0  0
  3 16  1  0  0  0
  3 17  1  0  0  0
  6 18  1  0  0  0
  6 19  1  0  0  0
  6 20  1  0  0  0
  8 21  1  0  0  0
 12 22  1  0  0  0
 14 23  1  0  0  0
 14 24  1  0  0  0
 15 25  1  0  0  0
M  END
$$$$
