6ml9_ligand
  -I-interpret- 

 27 26  0  0  0  0  0  0  0  0999 V2000
   13.8860    1.2410  -12.2740 N   0  3  0  0  0
   13.7450    2.0480  -11.0390 C   0  0  0  0  0
   14.3250    1.2450   -9.8870 C   0  0  0  0  0
   14.7000    0.0710  -10.1040 O   0  0  0  0  0
   12.2610    2.4020  -10.7880 C   0  0  0  0  0
   11.3520    1.1860  -10.7850 C   0  0  0  0  0
    9.9950    1.4820  -10.1800 C   0  0  0  0  0
    9.0470    0.4130  -10.4510 N   0  0  0  0  0
    7.7680    0.4240  -10.0780 C   0  0  0  0  0
    7.2650    1.4430   -9.3970 N   0  0  0  0  0
    6.9940   -0.6090  -10.3570 N   0  0  0  0  0
   14.4420    1.7320   -8.7590 O   0  0  0  0  0
   14.8702    1.0178  -12.4224 H   0  0  0  0  0
   13.3511    0.3778  -12.1776 H   0  0  0  0  0
   13.5334    1.7739  -13.0690 H   0  0  0  0  0
   14.2841    2.9903  -11.1364 H   0  0  0  0  0
   14.5396   -0.1500  -11.0244 H   0  0  0  0  0
   11.9353    3.0575  -11.5957 H   0  0  0  0  0
   12.1931    2.8691   -9.8055 H   0  0  0  0  0
   11.8275    0.4106  -10.1844 H   0  0  0  0  0
   11.2002    0.8754  -11.8187 H   0  0  0  0  0
    9.6132    2.4026  -10.6214 H   0  0  0  0  0
   10.1110    1.5756   -9.1002 H   0  0  0  0  0
    9.3849   -0.4023  -10.9624 H   0  0  0  0  0
    6.2910    1.4234   -9.0949 H   0  0  0  0  0
    7.8518    2.2472   -9.1748 H   0  0  0  0  0
    7.3758   -1.4121  -10.8566 H   0  0  0  0  0
  1  2  1  0  0  0
  2  3  1  0  0  0
  2  5  1  0  0  0
  3  4  1  0  0  0
  3 12  2  0  0  0
  5  6  1  0  0  0
  6  7  1  0  0  0
  7  8  1  0  0  0
  8  9  1  0  0  0
  9 10  1  0  0  0
  9 11  2  0  0  0
  1 13  1  0  0  0
  1 14  1  0  0  0
  1 15  1  0  0  0
  2 16  1  0  0  0
  4 17  1  0  0  0
  5 18  1  0  0  0
  5 19  1  0  0  0
  6 20  1  0  0  0
  6 21  1  0  0  0
  7 22  1  0  0  0
  7 23  1  0  0  0
  8 24  1  0  0  0
 10 25  1  0  0  0
 10 26  1  0  0  0
 11 27  1  0  0  0
M  END
$$$$
