2qwd_ligand
  -I-interpret- 

 39 39  0  0  0  0  0  0  0  0999 V2000
   23.5470   19.8230   64.7940 C   0  0  0  0  0
   24.2390   20.8000   65.1250 O   0  0  0  0  0
   22.3200   19.7880   65.0250 O   0  0  0  0  0
   24.1870   18.8070   64.0730 C   0  0  0  0  0
   23.4970   17.7800   63.4710 C   0  0  0  0  0
   24.1870   16.6940   62.6390 C   0  0  0  0  0
   23.6370   15.4220   63.0820 N   0  3  0  0  0
   25.7000   16.7500   62.8310 C   0  0  0  0  0
   26.3270   16.0380   61.6930 N   0  0  0  0  0
   26.9210   14.8610   61.8820 C   0  0  0  0  0
   27.0190   14.3290   62.9950 O   0  0  0  0  0
   27.5300   14.1630   60.6590 C   0  0  0  0  0
   26.1490   18.2140   62.8170 C   0  0  0  0  0
   25.5780   18.8420   63.9410 O   0  0  0  0  0
   27.6690   18.3560   62.9040 C   0  0  0  0  0
   28.1410   17.7310   64.0780 O   0  0  0  0  0
   28.0520   19.8270   62.9040 C   0  0  0  0  0
   27.7350   20.2000   61.6320 O   0  0  0  0  0
   29.5230   20.1060   63.1000 C   0  0  0  0  0
   30.2940   19.3680   62.2300 O   0  0  0  0  0
   21.9577   18.9607   64.6995 H   0  0  0  0  0
   22.4145   17.7372   63.5910 H   0  0  0  0  0
   24.0085   16.8351   61.5730 H   0  0  0  0  0
   22.6271   15.4213   62.9388 H   0  0  0  0  0
   24.0584   14.6649   62.5439 H   0  0  0  0  0
   23.8412   15.2912   64.0727 H   0  0  0  0  0
   25.9879   16.2906   63.7766 H   0  0  0  0  0
   26.3036   16.4510   60.7607 H   0  0  0  0  0
   28.6030   14.0425   60.8079 H   0  0  0  0  0
   27.0672   13.1842   60.5329 H   0  0  0  0  0
   27.3510   14.7682   59.7703 H   0  0  0  0  0
   25.8282   18.6670   61.8789 H   0  0  0  0  0
   28.1241   17.8737   62.0389 H   0  0  0  0  0
   29.0953   17.8235   64.1269 H   0  0  0  0  0
   27.5532   20.3459   63.7226 H   0  0  0  0  0
   27.9384   21.1306   61.5125 H   0  0  0  0  0
   29.7944   19.8335   64.1199 H   0  0  0  0  0
   29.7032   21.1641   62.9103 H   0  0  0  0  0
   31.2214   19.5667   62.3786 H   0  0  0  0  0
  1  4  1  0  0  0
  1  3  1  0  0  0
  1  2  2  0  0  0
  4 14  1  0  0  0
  4  5  2  0  0  0
  5  6  1  0  0  0
  6  8  1  0  0  0
  6  7  1  0  0  0
  8 13  1  0  0  0
  8  9  1  0  0  0
  9 10  1  0  0  0
 10 12  1  0  0  0
 10 11  2  0  0  0
 13 15  1  0  0  0
 13 14  1  0  0  0
 15 17  1  0  0  0
 15 16  1  0  0  0
 17 19  1  0  0  0
 17 18  1  0  0  0
 19 20  1  0  0  0
  3 21  1  0  0  0
  5 22  1  0  0  0
  6 23  1  0  0  0
  7 24  1  0  0  0
  7 25  1  0  0  0
  7 26  1  0  0  0
  8 27  1  0  0  0
  9 28  1  0  0  0
 12 29  1  0  0  0
 12 30  1  0  0  0
 12 31  1  0  0  0
 13 32  1  0  0  0
 15 33  1  0  0  0
 16 34  1  0  0  0
 17 35  1  0  0  0
 18 36  1  0  0  0
 19 37  1  0  0  0
 19 38  1  0  0  0
 20 39  1  0  0  0
M  END
$$$$
