3sx9_ligand
  -I-interpret- 

 57 61  0  0  0  0  0  0  0  0999 V2000
   16.5260   11.8170   63.0580 N   0  0  0  0  0
   17.7270   12.3800   62.8390 C   0  0  0  0  0
   17.8120   13.7090   62.8750 N   0  0  0  0  0
   16.7330   14.4880   63.1410 C   0  0  0  0  0
   15.4840   13.9280   63.3830 C   0  0  0  0  0
   15.4010   12.5320   63.3340 C   0  0  0  0  0
    5.0910   14.2090   65.1440 C   0  0  0  0  0
   14.2670   11.8820   63.5530 N   0  0  0  0  0
    9.5210   13.6840   66.6250 C   0  0  0  0  0
   12.4140   15.7080   63.0720 C   0  0  0  0  0
   10.8910   13.6700   66.3660 C   0  0  0  0  0
   11.0440   15.7380   63.3180 C   0  0  0  0  0
    9.1620   15.0650   64.6840 C   0  0  0  0  0
   12.7590   14.3360   65.0170 C   0  0  0  0  0
    6.5150   14.6940   64.8940 C   0  0  0  0  0
   19.8750   18.0230   60.1110 C   0  0  0  0  0
   17.6210   17.8220   59.2860 C   0  0  0  0  0
   19.4530   17.7330   61.5470 C   0  0  0  0  0
   17.1260   17.2620   60.6370 C   0  0  0  0  0
   17.6880   16.7680   63.0420 C   0  0  0  0  0
   15.4160   16.1210   63.5050 N   0  0  0  0  0
   18.7640   18.7370   59.4670 N   0  3  0  0  0
    7.3180   14.3870   66.0480 O   0  0  0  0  0
    8.6540   14.3810   65.7830 C   0  0  0  0  0
   13.2850   15.0070   63.9110 C   0  0  0  0  0
   14.6550   15.0270   63.6230 C   0  0  0  0  0
   10.5280   15.0580   64.4200 C   0  0  0  0  0
   11.3910   14.3560   65.2670 C   0  0  0  0  0
   18.2420   16.7940   61.5880 C   0  0  0  0  0
   16.5790   15.8020   63.2350 N   0  0  0  0  0
   18.6056   11.7670   62.6379 H   0  0  0  0  0
    5.0997   13.1322   65.3132 H   0  0  0  0  0
    4.6858   14.7127   66.0216 H   0  0  0  0  0
    4.4732   14.4366   64.2753 H   0  0  0  0  0
   14.2474   10.8630   63.5133 H   0  0  0  0  0
   13.4138   12.4008   63.7613 H   0  0  0  0  0
    9.1260   13.1485   67.4883 H   0  0  0  0  0
   12.8146   16.2408   62.2096 H   0  0  0  0  0
   11.5667   13.1229   67.0234 H   0  0  0  0  0
   10.3792   16.2896   62.6532 H   0  0  0  0  0
    8.4858   15.6100   64.0253 H   0  0  0  0  0
   13.4245   13.7934   65.6883 H   0  0  0  0  0
    6.5138   15.7700   64.7201 H   0  0  0  0  0
    6.9258   14.1972   64.0151 H   0  0  0  0  0
   20.0941   17.0962   59.5809 H   0  0  0  0  0
   20.7818   18.6275   60.0922 H   0  0  0  0  0
   16.8051   18.3760   58.8218 H   0  0  0  0  0
   17.9419   16.9873   58.6627 H   0  0  0  0  0
   19.1816   18.6731   62.0272 H   0  0  0  0  0
   20.2838   17.2532   62.0643 H   0  0  0  0  0
   16.5137   16.3886   60.4128 H   0  0  0  0  0
   16.5985   18.0715   61.1415 H   0  0  0  0  0
   17.2989   17.7621   63.2623 H   0  0  0  0  0
   18.5040   16.4656   63.6983 H   0  0  0  0  0
   19.0674   19.0823   58.5564 H   0  0  0  0  0
   18.4796   19.5200   60.0556 H   0  0  0  0  0
   18.5628   15.8024   61.2688 H   0  0  0  0  0
  1  2  4  0  0  0
  6  1  4  0  0  0
  3  2  4  0  0  0
  4  3  4  0  0  0
  5  4  4  0  0  0
 30  4  4  0  0  0
  5  6  4  0  0  0
 26  5  4  0  0  0
  6  8  1  0  0  0
 15  7  1  0  0  0
 11  9  4  0  0  0
  9 24  4  0  0  0
 10 12  4  0  0  0
 25 10  4  0  0  0
 28 11  4  0  0  0
 12 27  4  0  0  0
 13 24  4  0  0  0
 27 13  4  0  0  0
 25 14  4  0  0  0
 14 28  4  0  0  0
 23 15  1  0  0  0
 18 16  1  0  0  0
 16 22  1  0  0  0
 19 17  1  0  0  0
 17 22  1  0  0  0
 29 18  1  0  0  0
 29 19  1  0  0  0
 20 29  1  0  0  0
 30 20  1  0  0  0
 26 21  4  0  0  0
 21 30  4  0  0  0
 24 23  1  0  0  0
 25 26  1  0  0  0
 27 28  4  0  0  0
  2 31  1  0  0  0
  7 32  1  0  0  0
  7 33  1  0  0  0
  7 34  1  0  0  0
  8 35  1  0  0  0
  8 36  1  0  0  0
  9 37  1  0  0  0
 10 38  1  0  0  0
 11 39  1  0  0  0
 12 40  1  0  0  0
 13 41  1  0  0  0
 14 42  1  0  0  0
 15 43  1  0  0  0
 15 44  1  0  0  0
 16 45  1  0  0  0
 16 46  1  0  0  0
 17 47  1  0  0  0
 17 48  1  0  0  0
 18 49  1  0  0  0
 18 50  1  0  0  0
 19 51  1  0  0  0
 19 52  1  0  0  0
 20 53  1  0  0  0
 20 54  1  0  0  0
 22 55  1  0  0  0
 22 56  1  0  0  0
 29 57  1  0  0  0
M  END
$$$$
