### 
### Created by X-TOOL on Mon Sep 10 21:12:55 2018
### 

@<TRIPOS>MOLECULE
2oc1_ligand
   98    98     1     0     0
SMALL
GAST_HUCK


@<TRIPOS>ATOM
      1 C1        193.5460   -8.5480   48.9920 C.2       1 HU2         0.1833
      2 C2        193.2670   -9.3040   47.6970 C.3       1 HU2         0.0575
      3 C3        191.7810   -9.6740   47.5630 C.3       1 HU2        -0.0164
      4 C4        191.2470  -10.5470   48.6160 C.2       1 HU2        -0.0962
      5 C5        189.9480  -10.2850   49.0120 C.2       1 HU2        -0.0983
      6 C6        189.2750  -11.0030   50.0760 C.3       1 HU2        -0.0341
      7 C7        188.0910  -10.1690   50.5850 C.3       1 HU2        -0.0402
      8 C8        186.8200  -10.4080   49.7680 C.3       1 HU2        -0.0611
      9 C9        187.8470  -10.4880   52.0440 C.3       1 HU2        -0.0611
     10 C10       193.6910   -8.3870   46.5290 C.3       1 HU2        -0.0254
     11 C11       195.1270   -7.8840   46.7210 C.3       1 HU2        -0.0602
     12 C12       193.5350   -9.1060   45.1980 C.3       1 HU2        -0.0602
     13 O13       193.0640   -7.4290   49.1950 O.2       1 HU2        -0.3964
     14 N14       194.3370   -9.1660   49.8580 N.am      1 HU2        -0.2653
     15 C15       194.6940   -8.5510   51.1240 C.3       1 HU2         0.1310
     16 C16       195.3290   -9.5810   52.0610 C.3       1 HU2        -0.0101
     17 C17       194.4450  -10.7670   52.4470 C.3       1 HU2        -0.0425
     18 C18       195.1720  -11.6260   53.4550 C.3       1 HU2        -0.0625
     19 C19       193.1260  -10.2780   53.0270 C.3       1 HU2        -0.0625
     20 C20       195.6630   -7.4090   50.8450 C.2       1 HU2         0.2021
     21 O21       196.7800   -7.6260   50.3640 O.2       1 HU2        -0.3945
     22 N22       195.2160   -6.1860   51.1020 N.am      1 HU2        -0.2772
     23 C23       196.0490   -5.0140   50.8710 C.3       1 HU2         0.0850
     24 C24       195.3470   -4.0180   49.9370 C.3       1 HU2        -0.0255
     25 C25       195.4690   -4.3510   48.4520 C.3       1 HU2        -0.0536
     26 C26       194.1200   -4.2460   47.8050 C.3       1 HU2        -0.0652
     27 O27       197.4310   -5.7690   52.8000 O.3       1 HU2        -0.3691
     28 C28       196.9340   -4.6250   52.0740 C.3       1 HU2         0.1663
     29 O29       198.0550   -2.8240   51.0010 O.2       1 HU2        -0.3940
     30 N30       199.3380   -4.5850   51.5700 N.am      1 HU2        -0.2661
     31 C31       200.6240   -3.9180   51.4570 C.3       1 HU2         0.1202
     32 C32       200.9790   -3.7870   49.9930 C.2       1 HU2         0.2019
     33 O33       200.1370   -3.9660   49.1110 O.2       1 HU2        -0.3946
     34 C34       198.1740   -3.9480   51.4970 C.2       1 HU2         0.2093
     35 N35       202.2360   -3.4380   49.7450 N.am      1 HU2        -0.2589
     36 C36       202.7670   -3.2820   48.4000 C.3       1 HU2         0.1278
     37 C37       202.5410   -1.9310   47.7160 C.ar      1 HU2        -0.0049
     38 C38       202.3410   -1.8810   46.3420 C.ar      1 HU2        -0.0564
     39 C39       202.5590   -0.7580   48.4540 C.ar      1 HU2        -0.0564
     40 C40       202.1610   -0.6350   45.7380 C.ar      1 HU2        -0.0682
     41 C41       202.3830    0.4810   47.8720 C.ar      1 HU2        -0.0682
     42 C42       202.1840    0.5410   46.5000 C.ar      1 HU2        -0.0685
     43 C43       204.2650   -3.5750   48.4460 C.2       1 HU2         0.0723
     44 O44       204.9840   -3.0420   49.3010 O.co2     1 HU2        -0.5642
     45 O45       204.7780   -4.3620   47.6480 O.co2     1 HU2        -0.5642
     46 H1        193.8649  -10.2271   47.6785 H         1 HU2         0.0560
     47 H2        191.6452  -10.1852   46.5985 H         1 HU2         0.0415
     48 H3        191.1981   -8.7412   47.5690 H         1 HU2         0.0415
     49 H4        191.8362  -11.3496   49.0571 H         1 HU2         0.0451
     50 H5        189.4014   -9.4967   48.4965 H         1 HU2         0.0450
     51 H6        189.9799  -11.1813   50.9014 H         1 HU2         0.0391
     52 H7        188.9074  -11.9665   49.6932 H         1 HU2         0.0391
     53 H8        188.3565   -9.1051   50.4978 H         1 HU2         0.0315
     54 H9        186.0038   -9.7901   50.1705 H         1 HU2         0.0234
     55 H10       186.5398  -11.4700   49.8281 H         1 HU2         0.0234
     56 H11       187.0024  -10.1357   48.7180 H         1 HU2         0.0234
     57 H12       188.7691  -10.3113   52.6171 H         1 HU2         0.0234
     58 H13       187.5495  -11.5423   52.1441 H         1 HU2         0.0234
     59 H14       187.0451   -9.8423   52.4314 H         1 HU2         0.0234
     60 H15       193.0237   -7.5126   46.5230 H         1 HU2         0.0324
     61 H16       195.4038   -7.2345   45.8775 H         1 HU2         0.0234
     62 H17       195.8136   -8.7423   46.7635 H         1 HU2         0.0234
     63 H18       195.1936   -7.3143   47.6596 H         1 HU2         0.0234
     64 H19       192.4974   -9.4544   45.0889 H         1 HU2         0.0234
     65 H20       194.2168   -9.9686   45.1651 H         1 HU2         0.0234
     66 H21       193.7779   -8.4151   44.3773 H         1 HU2         0.0234
     67 H22       194.6946  -10.0729   49.6351 H         1 HU2         0.1883
     68 H23       193.7878   -8.1492   51.6007 H         1 HU2         0.0800
     69 H24       195.6187   -9.0615   52.9863 H         1 HU2         0.0315
     70 H25       196.2279   -9.9776   51.5663 H         1 HU2         0.0315
     71 H26       194.2372  -11.3663   51.5483 H         1 HU2         0.0298
     72 H27       194.5376  -12.4801   53.7342 H         1 HU2         0.0232
     73 H28       195.3978  -11.0288   54.3507 H         1 HU2         0.0232
     74 H29       196.1099  -11.9946   53.0140 H         1 HU2         0.0232
     75 H30       192.6074   -9.6545   52.2838 H         1 HU2         0.0232
     76 H31       193.3212   -9.6838   53.9319 H         1 HU2         0.0232
     77 H32       192.4959  -11.1421   53.2845 H         1 HU2         0.0232
     78 H33       194.2902   -6.0671   51.4609 H         1 HU2         0.1857
     79 H34       196.8221   -5.4047   50.1930 H         1 HU2         0.0607
     80 H35       195.7854   -3.0229   50.1034 H         1 HU2         0.0290
     81 H36       194.2786   -3.9963   50.1978 H         1 HU2         0.0290
     82 H37       195.8528   -5.3753   48.3360 H         1 HU2         0.0263
     83 H38       196.1617   -3.6434   47.9730 H         1 HU2         0.0263
     84 H39       194.2069   -4.4858   46.7350 H         1 HU2         0.0230
     85 H40       193.7363   -3.2217   47.9212 H         1 HU2         0.0230
     86 H41       193.4274   -4.9536   48.2842 H         1 HU2         0.0230
     87 H42       196.6984   -6.2752   53.1311 H         1 HU2         0.2134
     88 H43       196.3816   -3.9544   52.7486 H         1 HU2         0.0861
     89 H44       199.3284   -5.5751   51.7100 H         1 HU2         0.1881
     90 H45       201.3942   -4.5106   51.9724 H         1 HU2         0.0763
     91 H46       200.5635   -2.9190   51.9134 H         1 HU2         0.0763
     92 H47       202.8466   -3.2747   50.5199 H         1 HU2         0.1901
     93 H48       202.2800   -4.0421   47.7715 H         1 HU2         0.0887
     94 H49       202.3250   -2.7899   45.7515 H         1 HU2         0.0560
     95 H50       202.7167   -0.8157   49.5249 H         1 HU2         0.0560
     96 H51       202.0016   -0.5766   44.6674 H         1 HU2         0.0600
     97 H52       202.3998    1.3841   48.4713 H         1 HU2         0.0600
     98 H53       202.0458    1.5010   46.0158 H         1 HU2         0.0560
@<TRIPOS>BOND
     1    1    2 1  
     2    1   13 2  
     3   14    1 am 
     4    2    3 1  
     5    2   10 1  
     6    3    4 1  
     7    4    5 2  
     8    5    6 1  
     9    6    7 1  
    10    7    8 1  
    11    7    9 1  
    12   10   11 1  
    13   10   12 1  
    14   15   14 1  
    15   15   16 1  
    16   20   15 1  
    17   16   17 1  
    18   17   18 1  
    19   17   19 1  
    20   20   21 2  
    21   22   20 am 
    22   23   22 1  
    23   23   24 1  
    24   28   23 1  
    25   24   25 1  
    26   25   26 1  
    27   28   27 1  
    28   34   28 1  
    29   34   29 2  
    30   30   31 1  
    31   30   34 am 
    32   31   32 1  
    33   32   33 2  
    34   32   35 am 
    35   35   36 1  
    36   36   37 1  
    37   36   43 1  
    38   37   38 ar 
    39   37   39 ar 
    40   38   40 ar 
    41   39   41 ar 
    42   40   42 ar 
    43   41   42 ar 
    44   43   44 ar 
    45   43   45 ar 
    46    2   46 1  
    47    3   47 1  
    48    3   48 1  
    49    4   49 1  
    50    5   50 1  
    51    6   51 1  
    52    6   52 1  
    53    7   53 1  
    54    8   54 1  
    55    8   55 1  
    56    8   56 1  
    57    9   57 1  
    58    9   58 1  
    59    9   59 1  
    60   10   60 1  
    61   11   61 1  
    62   11   62 1  
    63   11   63 1  
    64   12   64 1  
    65   12   65 1  
    66   12   66 1  
    67   14   67 1  
    68   15   68 1  
    69   16   69 1  
    70   16   70 1  
    71   17   71 1  
    72   18   72 1  
    73   18   73 1  
    74   18   74 1  
    75   19   75 1  
    76   19   76 1  
    77   19   77 1  
    78   22   78 1  
    79   23   79 1  
    80   24   80 1  
    81   24   81 1  
    82   25   82 1  
    83   25   83 1  
    84   26   84 1  
    85   26   85 1  
    86   26   86 1  
    87   27   87 1  
    88   28   88 1  
    89   30   89 1  
    90   31   90 1  
    91   31   91 1  
    92   35   92 1  
    93   36   93 1  
    94   38   94 1  
    95   39   95 1  
    96   40   96 1  
    97   41   97 1  
    98   42   98 1  
@<TRIPOS>SUBSTRUCTURE
     1 HU2         1

