2oc1_ligand
  -I-interpret- 

 99 99  0  0  0  0  0  0  0  0999 V2000
  193.5460   -8.5480   48.9920 C   0  0  0  0  0
  193.2670   -9.3040   47.6970 C   0  0  0  0  0
  191.7810   -9.6740   47.5630 C   0  0  0  0  0
  191.2470  -10.5470   48.6160 C   0  0  0  0  0
  189.9480  -10.2850   49.0120 C   0  0  0  0  0
  189.2750  -11.0030   50.0760 C   0  0  0  0  0
  188.0910  -10.1690   50.5850 C   0  0  0  0  0
  186.8200  -10.4080   49.7680 C   0  0  0  0  0
  187.8470  -10.4880   52.0440 C   0  0  0  0  0
  193.6910   -8.3870   46.5290 C   0  0  0  0  0
  195.1270   -7.8840   46.7210 C   0  0  0  0  0
  193.5350   -9.1060   45.1980 C   0  0  0  0  0
  193.0640   -7.4290   49.1950 O   0  0  0  0  0
  194.3370   -9.1660   49.8580 N   0  0  0  0  0
  194.6940   -8.5510   51.1240 C   0  0  0  0  0
  195.3290   -9.5810   52.0610 C   0  0  0  0  0
  194.4450  -10.7670   52.4470 C   0  0  0  0  0
  195.1720  -11.6260   53.4550 C   0  0  0  0  0
  193.1260  -10.2780   53.0270 C   0  0  0  0  0
  195.6630   -7.4090   50.8450 C   0  0  0  0  0
  196.7800   -7.6260   50.3640 O   0  0  0  0  0
  195.2160   -6.1860   51.1020 N   0  0  0  0  0
  196.0490   -5.0140   50.8710 C   0  0  0  0  0
  195.3470   -4.0180   49.9370 C   0  0  0  0  0
  195.4690   -4.3510   48.4520 C   0  0  0  0  0
  194.1200   -4.2460   47.8050 C   0  0  0  0  0
  197.4310   -5.7690   52.8000 O   0  0  0  0  0
  196.9340   -4.6250   52.0740 C   0  0  0  0  0
  198.0550   -2.8240   51.0010 O   0  0  0  0  0
  199.3380   -4.5850   51.5700 N   0  0  0  0  0
  200.6240   -3.9180   51.4570 C   0  0  0  0  0
  200.9790   -3.7870   49.9930 C   0  0  0  0  0
  200.1370   -3.9660   49.1110 O   0  0  0  0  0
  198.1740   -3.9480   51.4970 C   0  0  0  0  0
  202.2360   -3.4380   49.7450 N   0  0  0  0  0
  202.7670   -3.2820   48.4000 C   0  0  0  0  0
  202.5410   -1.9310   47.7160 C   0  0  0  0  0
  202.3410   -1.8810   46.3420 C   0  0  0  0  0
  202.5590   -0.7580   48.4540 C   0  0  0  0  0
  202.1610   -0.6350   45.7380 C   0  0  0  0  0
  202.3830    0.4810   47.8720 C   0  0  0  0  0
  202.1840    0.5410   46.5000 C   0  0  0  0  0
  204.2650   -3.5750   48.4460 C   0  0  0  0  0
  204.9840   -3.0420   49.3010 O   0  0  0  0  0
  204.7780   -4.3620   47.6480 O   0  0  0  0  0
  193.8278  -10.2387   47.6909 H   0  0  0  0  0
  191.6819  -10.2226   46.6264 H   0  0  0  0  0
  191.2228   -8.7397   47.6230 H   0  0  0  0  0
  191.8368  -11.3504   49.0575 H   0  0  0  0  0
  189.4009   -9.4960   48.4961 H   0  0  0  0  0
  189.9735  -11.1802   50.8938 H   0  0  0  0  0
  188.9111  -11.9580   49.6970 H   0  0  0  0  0
  188.3465   -9.1155   50.4710 H   0  0  0  0  0
  186.5222  -11.4526   49.8590 H   0  0  0  0  0
  186.0222   -9.7674   50.1438 H   0  0  0  0  0
  187.0131  -10.1738   48.7211 H   0  0  0  0  0
  187.0523   -9.8476   52.4266 H   0  0  0  0  0
  187.5522  -11.5328   52.1418 H   0  0  0  0  0
  188.7614  -10.3125   52.6108 H   0  0  0  0  0
  193.0330   -7.5180   46.5216 H   0  0  0  0  0
  195.8131   -8.7307   46.6993 H   0  0  0  0  0
  195.3781   -7.1906   45.9184 H   0  0  0  0  0
  195.2068   -7.3745   47.6813 H   0  0  0  0  0
  193.7760   -8.4203   44.3857 H   0  0  0  0  0
  194.2111   -9.9604   45.1666 H   0  0  0  0  0
  192.5065   -9.4507   45.0911 H   0  0  0  0  0
  194.7017  -10.0910   49.6307 H   0  0  0  0  0
  193.8005   -8.1659   51.6154 H   0  0  0  0  0
  195.5570   -9.0538   52.9874 H   0  0  0  0  0
  196.1836   -9.9962   51.5268 H   0  0  0  0  0
  194.2296  -11.3582   51.5569 H   0  0  0  0  0
  196.1011  -11.9905   53.0169 H   0  0  0  0  0
  195.3952  -11.0331   54.3420 H   0  0  0  0  0
  194.5424  -12.4719   53.7308 H   0  0  0  0  0
  193.3217   -9.6763   53.9146 H   0  0  0  0  0
  192.6058   -9.6734   52.2841 H   0  0  0  0  0
  192.5090  -11.1352   53.2964 H   0  0  0  0  0
  194.2717   -6.0648   51.4680 H   0  0  0  0  0
  196.9195   -5.1974   50.2412 H   0  0  0  0  0
  195.8229   -3.0490   50.0873 H   0  0  0  0  0
  194.2856   -4.0422   50.1837 H   0  0  0  0  0
  195.8498   -5.3658   48.3368 H   0  0  0  0  0
  196.1557   -3.6502   47.9772 H   0  0  0  0  0
  193.4347   -4.9475   48.2807 H   0  0  0  0  0
  193.7409   -3.2306   47.9209 H   0  0  0  0  0
  194.2074   -4.4838   46.7449 H   0  0  0  0  0
  197.9727   -5.4701   53.5341 H   0  0  0  0  0
  196.3358   -4.0087   52.7451 H   0  0  0  0  0
  199.3282   -5.5949   51.7128 H   0  0  0  0  0
  201.3883   -4.5005   51.9714 H   0  0  0  0  0
  200.5684   -2.9296   51.9132 H   0  0  0  0  0
  202.8588   -3.2714   50.5354 H   0  0  0  0  0
  202.2026   -3.9851   47.7875 H   0  0  0  0  0
  202.3249   -2.7949   45.7482 H   0  0  0  0  0
  202.7176   -0.8160   49.5308 H   0  0  0  0  0
  202.0008   -0.5763   44.6614 H   0  0  0  0  0
  202.3999    1.3891   48.4746 H   0  0  0  0  0
  202.0451    1.5063   46.0132 H   0  0  0  0  0
  204.4515   -2.4591   49.8471 H   0  0  0  0  0
  1  2  1  0  0  0
  1 13  2  0  0  0
 14  1  1  0  0  0
  2  3  1  0  0  0
  2 10  1  0  0  0
  3  4  1  0  0  0
  4  5  2  0  0  0
  5  6  1  0  0  0
  6  7  1  0  0  0
  7  8  1  0  0  0
  7  9  1  0  0  0
 10 11  1  0  0  0
 10 12  1  0  0  0
 15 14  1  0  0  0
 15 16  1  0  0  0
 20 15  1  0  0  0
 16 17  1  0  0  0
 17 18  1  0  0  0
 17 19  1  0  0  0
 20 21  2  0  0  0
 22 20  1  0  0  0
 23 22  1  0  0  0
 23 24  1  0  0  0
 28 23  1  0  0  0
 24 25  1  0  0  0
 25 26  1  0  0  0
 28 27  1  0  0  0
 34 28  1  0  0  0
 34 29  2  0  0  0
 30 31  1  0  0  0
 30 34  1  0  0  0
 31 32  1  0  0  0
 32 33  2  0  0  0
 32 35  1  0  0  0
 35 36  1  0  0  0
 36 37  1  0  0  0
 36 43  1  0  0  0
 37 38  4  0  0  0
 37 39  4  0  0  0
 38 40  4  0  0  0
 39 41  4  0  0  0
 40 42  4  0  0  0
 41 42  4  0  0  0
 43 44  1  0  0  0
 43 45  2  0  0  0
  2 46  1  0  0  0
  3 47  1  0  0  0
  3 48  1  0  0  0
  4 49  1  0  0  0
  5 50  1  0  0  0
  6 51  1  0  0  0
  6 52  1  0  0  0
  7 53  1  0  0  0
  8 54  1  0  0  0
  8 55  1  0  0  0
  8 56  1  0  0  0
  9 57  1  0  0  0
  9 58  1  0  0  0
  9 59  1  0  0  0
 10 60  1  0  0  0
 11 61  1  0  0  0
 11 62  1  0  0  0
 11 63  1  0  0  0
 12 64  1  0  0  0
 12 65  1  0  0  0
 12 66  1  0  0  0
 14 67  1  0  0  0
 15 68  1  0  0  0
 16 69  1  0  0  0
 16 70  1  0  0  0
 17 71  1  0  0  0
 18 72  1  0  0  0
 18 73  1  0  0  0
 18 74  1  0  0  0
 19 75  1  0  0  0
 19 76  1  0  0  0
 19 77  1  0  0  0
 22 78  1  0  0  0
 23 79  1  0  0  0
 24 80  1  0  0  0
 24 81  1  0  0  0
 25 82  1  0  0  0
 25 83  1  0  0  0
 26 84  1  0  0  0
 26 85  1  0  0  0
 26 86  1  0  0  0
 27 87  1  0  0  0
 28 88  1  0  0  0
 30 89  1  0  0  0
 31 90  1  0  0  0
 31 91  1  0  0  0
 35 92  1  0  0  0
 36 93  1  0  0  0
 38 94  1  0  0  0
 39 95  1  0  0  0
 40 96  1  0  0  0
 41 97  1  0  0  0
 42 98  1  0  0  0
 44 99  1  0  0  0
M  END
$$$$
