1al8_ligand
  -I-interpret- 

 41 41  0  0  0  0  0  0  0  0999 V2000
   24.3430   71.5920   -4.9150 N   0  0  0  0  0
   24.5940   71.4280   -7.0310 C   0  0  0  0  0
   24.9670   71.1230   -8.1090 O   0  0  0  0  0
   25.0730   71.0360   -5.8620 C   0  0  0  0  0
   26.1220   70.2170   -5.5960 O   0  0  0  0  0
   23.4580   72.4250   -5.5130 C   0  0  0  0  0
   22.8420   73.0620   -4.3450 O   0  0  0  0  0
   23.5260   72.2910   -6.8530 C   0  0  0  0  0
   22.6320   72.9080   -7.9440 C   0  0  0  0  0
   23.2680   74.1170   -8.6570 C   0  0  0  0  0
   22.3660   74.6850   -9.7710 C   0  0  0  0  0
   22.2790   73.7670  -11.0050 C   0  0  0  0  0
   22.5100   74.5270  -12.3220 C   0  0  0  0  0
   22.6420   73.5990  -13.5460 C   0  0  0  0  0
   24.0440   73.6590  -14.1820 C   0  0  0  0  0
   24.0060   73.7420  -15.7190 C   0  0  0  0  0
   24.3820   72.4130  -16.3980 C   0  0  0  0  0
   25.7620   72.4990  -17.1330 C   0  0  0  0  0
   24.4293   71.4249   -3.9125 H   0  0  0  0  0
   25.7116   70.5221   -8.0306 H   0  0  0  0  0
   21.7211   73.2584   -7.4588 H   0  0  0  0  0
   22.4601   72.1392   -8.6973 H   0  0  0  0  0
   24.2004   73.7861   -9.1144 H   0  0  0  0  0
   23.4231   74.9015   -7.9164 H   0  0  0  0  0
   22.7954   75.6335  -10.0935 H   0  0  0  0  0
   21.3605   74.7876   -9.3629 H   0  0  0  0  0
   21.2773   73.3384  -11.0353 H   0  0  0  0  0
   23.0555   73.0074  -10.9144 H   0  0  0  0  0
   23.4449   75.0788  -12.2245 H   0  0  0  0  0
   21.6455   75.1699  -12.4875 H   0  0  0  0  0
   21.9187   73.9235  -14.2941 H   0  0  0  0  0
   22.4667   72.5759  -13.2133 H   0  0  0  0  0
   24.5698   72.7431  -13.9124 H   0  0  0  0  0
   24.5370   74.5586  -13.8135 H   0  0  0  0  0
   24.7320   74.4930  -16.0306 H   0  0  0  0  0
   22.9868   73.9910  -16.0146 H   0  0  0  0  0
   23.6161   72.1797  -17.1376 H   0  0  0  0  0
   24.4536   71.6452  -15.6276 H   0  0  0  0  0
   25.7163   73.2724  -17.8997 H   0  0  0  0  0
   26.5414   72.7458  -16.4121 H   0  0  0  0  0
   25.9855   71.5384  -17.5970 H   0  0  0  0  0
  4  1  1  0  0  0
  1  6  1  0  0  0
  2  3  1  0  0  0
  2  4  1  0  0  0
  2  8  2  0  0  0
  4  5  2  0  0  0
  6  7  2  0  0  0
  6  8  1  0  0  0
  8  9  1  0  0  0
  9 10  1  0  0  0
 10 11  1  0  0  0
 11 12  1  0  0  0
 12 13  1  0  0  0
 13 14  1  0  0  0
 14 15  1  0  0  0
 15 16  1  0  0  0
 16 17  1  0  0  0
 17 18  1  0  0  0
  1 19  1  0  0  0
  3 20  1  0  0  0
  9 21  1  0  0  0
  9 22  1  0  0  0
 10 23  1  0  0  0
 10 24  1  0  0  0
 11 25  1  0  0  0
 11 26  1  0  0  0
 12 27  1  0  0  0
 12 28  1  0  0  0
 13 29  1  0  0  0
 13 30  1  0  0  0
 14 31  1  0  0  0
 14 32  1  0  0  0
 15 33  1  0  0  0
 15 34  1  0  0  0
 16 35  1  0  0  0
 16 36  1  0  0  0
 17 37  1  0  0  0
 17 38  1  0  0  0
 18 39  1  0  0  0
 18 40  1  0  0  0
 18 41  1  0  0  0
M  END
$$$$
