4fns_ligand
  -I-interpret- 

 25 25  0  0  0  0  0  0  0  0999 V2000
  -93.3920   12.2300  -44.7850 C   0  0  0  0  0
  -93.2390   10.8620  -44.1340 C   0  0  0  0  0
  -92.5570   10.9570  -42.9190 O   0  0  0  0  0
  -92.5750    9.9440  -45.1300 C   0  0  0  0  0
  -92.3170    8.7010  -44.5530 O   0  0  0  0  0
  -93.4760    9.7870  -46.3210 C   0  0  0  0  0
  -94.6140    9.1110  -45.9300 O   0  0  0  0  0
  -93.7820   11.1600  -46.9110 C   0  0  0  0  0
  -94.2450   12.1310  -45.9540 N   0  3  0  0  0
  -94.8070   10.9560  -48.0120 C   0  0  0  0  0
  -95.3270   12.1850  -48.4230 O   0  0  0  0  0
  -92.4104   12.5948  -45.0874 H   0  0  0  0  0
  -93.8421   12.9188  -44.0701 H   0  0  0  0  0
  -94.2116   10.4416  -43.8782 H   0  0  0  0  0
  -93.0298   11.5532  -42.3337 H   0  0  0  0  0
  -91.6238   10.3749  -45.4424 H   0  0  0  0  0
  -91.7407    8.8153  -43.7938 H   0  0  0  0  0
  -92.9933    9.2024  -47.1041 H   0  0  0  0  0
  -94.3686    8.2567  -45.5672 H   0  0  0  0  0
  -92.8516   11.5808  -47.2922 H   0  0  0  0  0
  -94.2479   13.0417  -46.4134 H   0  0  0  0  0
  -95.1699   11.8386  -45.6387 H   0  0  0  0  0
  -95.6185   10.3350  -47.6325 H   0  0  0  0  0
  -94.3256   10.4711  -48.8613 H   0  0  0  0  0
  -95.9729   12.0414  -49.1185 H   0  0  0  0  0
  1  2  1  0  0  0
  1  9  1  0  0  0
  2  3  1  0  0  0
  2  4  1  0  0  0
  4  5  1  0  0  0
  4  6  1  0  0  0
  6  7  1  0  0  0
  6  8  1  0  0  0
  8  9  1  0  0  0
  8 10  1  0  0  0
 10 11  1  0  0  0
  1 12  1  0  0  0
  1 13  1  0  0  0
  2 14  1  0  0  0
  3 15  1  0  0  0
  4 16  1  0  0  0
  5 17  1  0  0  0
  6 18  1  0  0  0
  7 19  1  0  0  0
  8 20  1  0  0  0
  9 21  1  0  0  0
  9 22  1  0  0  0
 10 23  1  0  0  0
 10 24  1  0  0  0
 11 25  1  0  0  0
M  END
$$$$
