4o3a_ligand
  -I-interpret- 

 17 16  0  0  0  0  0  0  0  0999 V2000
  -50.7870   12.4060   -5.6400 N   0  3  0  0  0
  -51.5860   13.6230   -5.8390 C   0  0  0  0  0
  -51.7550   13.9450   -7.3210 C   0  0  0  0  0
  -51.5000   13.0550   -8.1420 O   0  0  0  0  0
  -51.0070   14.8220   -5.0700 C   0  0  0  0  0
  -52.0470   15.4500   -4.1090 C   0  0  0  0  0
  -52.8200   16.3040   -4.5630 O   0  0  0  0  0
  -52.1230   15.0850   -2.9100 O   0  0  0  0  0
  -52.1770   15.0610   -7.6920 O   0  0  0  0  0
  -51.2038   11.6374   -6.1652 H   0  0  0  0  0
  -49.8354   12.5678   -5.9695 H   0  0  0  0  0
  -50.7691   12.1709   -4.6476 H   0  0  0  0  0
  -52.5760   13.4242   -5.4286 H   0  0  0  0  0
  -50.7095   15.5805   -5.7940 H   0  0  0  0  0
  -50.1622   14.4715   -4.4770 H   0  0  0  0  0
  -51.4510   14.4220   -2.7353 H   0  0  0  0  0
  -52.3186   15.6197   -6.9243 H   0  0  0  0  0
  1  2  1  0  0  0
  2  3  1  0  0  0
  2  5  1  0  0  0
  3  4  2  0  0  0
  3  9  1  0  0  0
  5  6  1  0  0  0
  6  7  2  0  0  0
  6  8  1  0  0  0
  1 10  1  0  0  0
  1 11  1  0  0  0
  1 12  1  0  0  0
  2 13  1  0  0  0
  5 14  1  0  0  0
  5 15  1  0  0  0
  8 16  1  0  0  0
  9 17  1  0  0  0
M  END
$$$$
