5tts_ligand
  -I-interpret- 

 38 40  0  0  0  0  0  0  0  0999 V2000
    1.3810   12.1060   -3.5390 N   0  0  0  0  0
   -2.3540   19.5080   -6.3980 C   0  0  0  0  0
   -0.9730   15.9650   -4.5800 N   0  0  0  0  0
   -1.2850   17.3800   -4.7330 C   0  0  0  0  0
   -2.7930   17.5770   -4.8470 C   0  0  0  0  0
    0.1040   15.3720   -4.0230 C   0  0  0  0  0
    1.4320   13.4700   -3.5060 C   0  0  0  0  0
   -0.5780   17.9340   -5.9620 C   0  0  0  0  0
    1.1080   16.1750   -3.6020 N   0  0  0  0  0
   -0.3340   21.9600   -7.9910 C   0  0  0  0  0
   -0.4550   21.7460   -6.4940 C   0  0  0  0  0
   -0.0040   20.3520   -6.1150 C   0  0  0  0  0
    1.1540   20.1660   -5.7660 O   0  0  0  0  0
   -0.9140   19.3470   -6.1510 N   0  0  0  0  0
   -3.1410   19.0310   -5.1840 C   0  0  0  0  0
    0.1740   13.9410   -3.9950 C   0  0  0  0  0
   -0.6170   12.7810   -4.3040 C   0  0  0  0  0
    0.1500   11.7000   -4.0050 C   0  0  0  0  0
    2.4540   14.2420   -3.0840 N   0  0  0  0  0
    2.2100   15.5550   -3.1620 C   0  0  0  0  0
   -2.6392   18.9166   -7.2681 H   0  0  0  0  0
   -2.5735   20.5601   -6.5797 H   0  0  0  0  0
   -1.6756   15.3250   -4.9503 H   0  0  0  0  0
   -0.9341   17.9207   -3.8540 H   0  0  0  0  0
   -3.2492   17.3240   -3.8899 H   0  0  0  0  0
   -3.1671   16.9367   -5.6459 H   0  0  0  0  0
   -0.8989   17.3724   -6.8394 H   0  0  0  0  0
    0.4992   17.8407   -5.8240 H   0  0  0  0  0
    0.7056   21.8312   -8.2923 H   0  0  0  0  0
   -0.9574   21.2334   -8.5122 H   0  0  0  0  0
   -0.6636   22.9686   -8.2404 H   0  0  0  0  0
   -1.4982   21.8701   -6.2034 H   0  0  0  0  0
    0.1764   22.4721   -5.9820 H   0  0  0  0  0
   -4.2058   19.0947   -5.4081 H   0  0  0  0  0
   -2.8868   19.6601   -4.3309 H   0  0  0  0  0
   -1.6324   12.7707   -4.7002 H   0  0  0  0  0
   -0.1634   10.6621   -4.1176 H   0  0  0  0  0
    3.0152   16.2064   -2.8223 H   0  0  0  0  0
  7  1  4  0  0  0
  1 18  4  0  0  0
 14  2  1  0  0  0
  2 15  1  0  0  0
  4  3  1  0  0  0
  3  6  1  0  0  0
  4  5  1  0  0  0
  8  4  1  0  0  0
 15  5  1  0  0  0
  6  9  4  0  0  0
  6 16  4  0  0  0
 16  7  4  0  0  0
  7 19  4  0  0  0
 14  8  1  0  0  0
  9 20  4  0  0  0
 11 10  1  0  0  0
 12 11  1  0  0  0
 12 13  2  0  0  0
 12 14  1  0  0  0
 16 17  4  0  0  0
 17 18  4  0  0  0
 19 20  4  0  0  0
  2 21  1  0  0  0
  2 22  1  0  0  0
  3 23  1  0  0  0
  4 24  1  0  0  0
  5 25  1  0  0  0
  5 26  1  0  0  0
  8 27  1  0  0  0
  8 28  1  0  0  0
 10 29  1  0  0  0
 10 30  1  0  0  0
 10 31  1  0  0  0
 11 32  1  0  0  0
 11 33  1  0  0  0
 15 34  1  0  0  0
 15 35  1  0  0  0
 17 36  1  0  0  0
 18 37  1  0  0  0
 20 38  1  0  0  0
M  END
$$$$
