3stj_ligand
  -I-interpret- 

 54 53  0  0  0  0  0  0  0  0999 V2000
  -46.6580   88.8420  -25.3080 N   0  3  0  0  0
  -45.8130   89.8950  -24.7440 C   0  0  0  0  0
  -44.3490   89.4210  -24.5050 C   0  0  0  0  0
  -44.0950   88.2140  -24.3860 O   0  0  0  0  0
  -46.4150   90.4040  -23.4390 C   0  0  0  0  0
  -43.3990   90.3890  -24.4260 N   0  0  0  0  0
  -41.9730   90.1400  -24.2010 C   0  0  0  0  0
  -41.6820   89.8110  -22.7420 C   0  0  0  0  0
  -41.9910   90.6040  -21.8450 O   0  0  0  0  0
  -41.1440   91.3460  -24.6280 C   0  0  0  0  0
  -41.0750   88.6430  -22.5130 N   0  0  0  0  0
  -40.6890   88.2140  -21.1750 C   0  0  0  0  0
  -39.2010   88.4730  -20.9600 C   0  0  0  0  0
  -38.4300   88.4450  -21.9210 O   0  0  0  0  0
  -41.0110   86.7360  -20.9800 C   0  0  0  0  0
  -38.8030   88.7400  -19.7070 N   0  0  0  0  0
  -37.4040   88.9610  -19.3680 C   0  0  0  0  0
  -36.6480   87.6200  -19.2770 C   0  0  0  0  0
  -37.1810   86.6330  -18.7650 O   0  0  0  0  0
  -37.2870   89.7280  -18.0600 C   0  0  0  0  0
  -35.4230   87.5900  -19.8140 N   0  0  0  0  0
  -34.5170   86.4410  -19.8090 C   0  0  0  0  0
  -33.1040   86.9180  -19.5140 C   0  0  0  0  0
  -32.3120   86.1138  -18.9539 O   0  0  0  0  0
  -34.5600   85.6990  -21.1430 C   0  0  0  0  0
  -32.7357   88.0833  -19.8206 O   0  0  0  0  0
  -46.2471   88.5085  -26.1799 H   0  0  0  0  0
  -46.7249   88.0698  -24.6450 H   0  0  0  0  0
  -47.5891   89.2163  -25.4908 H   0  0  0  0  0
  -45.7752   90.7031  -25.4745 H   0  0  0  0  0
  -46.4129   89.6011  -22.7018 H   0  0  0  0  0
  -45.8222   91.2404  -23.0688 H   0  0  0  0  0
  -47.4388   90.7331  -23.6167 H   0  0  0  0  0
  -43.7000   91.3579  -24.5308 H   0  0  0  0  0
  -41.6968   89.2774  -24.8074 H   0  0  0  0  0
  -41.4022   92.2019  -24.0044 H   0  0  0  0  0
  -40.0847   91.1166  -24.5119 H   0  0  0  0  0
  -41.3544   91.5787  -25.6719 H   0  0  0  0  0
  -40.8746   88.0297  -23.3030 H   0  0  0  0  0
  -41.2546   88.7859  -20.4394 H   0  0  0  0  0
  -42.0817   86.5785  -21.1100 H   0  0  0  0  0
  -40.4638   86.1462  -21.7153 H   0  0  0  0  0
  -40.7168   86.4308  -19.9758 H   0  0  0  0  0
  -39.5034   88.7899  -18.9672 H   0  0  0  0  0
  -36.9502   89.5573  -20.1596 H   0  0  0  0  0
  -37.7841   90.6928  -18.1604 H   0  0  0  0  0
  -37.7592   89.1559  -17.2613 H   0  0  0  0  0
  -36.2342   89.8831  -17.8241 H   0  0  0  0  0
  -35.0918   88.4422  -20.2662 H   0  0  0  0  0
  -34.8373   85.7450  -19.0337 H   0  0  0  0  0
  -32.7620   85.2805  -18.7968 H   0  0  0  0  0
  -35.5737   85.3429  -21.3267 H   0  0  0  0  0
  -34.2606   86.3756  -21.9434 H   0  0  0  0  0
  -33.8763   84.8508  -21.1077 H   0  0  0  0  0
  1  2  1  0  0  0
  2  3  1  0  0  0
  2  5  1  0  0  0
  3  4  2  0  0  0
  3  6  1  0  0  0
  6  7  1  0  0  0
  7  8  1  0  0  0
  7 10  1  0  0  0
  8  9  2  0  0  0
  8 11  1  0  0  0
 11 12  1  0  0  0
 12 13  1  0  0  0
 12 15  1  0  0  0
 13 14  2  0  0  0
 13 16  1  0  0  0
 16 17  1  0  0  0
 17 18  1  0  0  0
 17 20  1  0  0  0
 18 19  2  0  0  0
 18 21  1  0  0  0
 21 22  1  0  0  0
 22 23  1  0  0  0
 22 25  1  0  0  0
 23 24  1  0  0  0
 23 26  2  0  0  0
  1 27  1  0  0  0
  1 28  1  0  0  0
  1 29  1  0  0  0
  2 30  1  0  0  0
  5 31  1  0  0  0
  5 32  1  0  0  0
  5 33  1  0  0  0
  6 34  1  0  0  0
  7 35  1  0  0  0
 10 36  1  0  0  0
 10 37  1  0  0  0
 10 38  1  0  0  0
 11 39  1  0  0  0
 12 40  1  0  0  0
 15 41  1  0  0  0
 15 42  1  0  0  0
 15 43  1  0  0  0
 16 44  1  0  0  0
 17 45  1  0  0  0
 20 46  1  0  0  0
 20 47  1  0  0  0
 20 48  1  0  0  0
 21 49  1  0  0  0
 22 50  1  0  0  0
 24 51  1  0  0  0
 25 52  1  0  0  0
 25 53  1  0  0  0
 25 54  1  0  0  0
M  END
$$$$
