5kkr_ligand
  -I-interpret- 

 50 53  0  0  0  0  0  0  0  0999 V2000
  -70.1040   53.5200   -7.5770 C   0  0  0  0  0
  -70.9230   53.5870   -6.4550 C   0  0  0  0  0
  -71.7230   52.4980   -6.1180 C   0  0  0  0  0
  -71.7010   51.3960   -6.8810 N   0  0  0  0  0
  -70.0700   52.4290   -8.3520 N   0  0  0  0  0
  -74.5250   53.0770   -3.1910 C   0  0  0  0  0
  -73.3250   53.8500   -3.1010 O   0  0  0  0  0
  -72.5570   53.7050   -4.2160 C   0  0  0  0  0
  -72.5450   52.5520   -4.9950 C   0  0  0  0  0
  -71.7580   54.7870   -4.5500 C   0  0  0  0  0
  -71.8370   55.8700   -3.7250 O   0  0  0  0  0
  -70.5750   56.5380   -3.6240 C   0  0  0  0  0
  -70.9370   54.7380   -5.6710 C   0  0  0  0  0
  -70.8750   51.3350   -8.0140 C   0  0  0  0  0
  -69.3760   54.6050   -7.8320 N   0  0  0  0  0
  -68.4130   54.5390   -8.7520 C   0  0  0  0  0
  -68.7480   54.8920  -10.0560 C   0  0  0  0  0
  -70.0390   55.2810  -10.3900 C   0  0  0  0  0
  -67.7740   54.8490  -11.0440 C   0  0  0  0  0
  -67.1160   54.1580   -8.4300 C   0  0  0  0  0
  -66.1440   54.1210   -9.4250 C   0  0  0  0  0
  -66.4770   54.4580  -10.7360 C   0  0  0  0  0
  -65.5430   54.4400  -11.7280 O   0  0  0  0  0
  -65.0330   53.2150  -12.0360 C   0  0  0  0  0
  -63.7270   53.1390  -12.5020 C   0  0  0  0  0
  -63.1720   51.9100  -12.8320 C   0  0  0  0  0
  -63.9300   50.7530  -12.7000 C   0  0  0  0  0
  -65.2400   50.8250  -12.2390 C   0  0  0  0  0
  -65.7940   52.0560  -11.9100 C   0  0  0  0  0
  -75.1028   53.4047   -4.0552 H   0  0  0  0  0
  -74.2694   52.0232   -3.3016 H   0  0  0  0  0
  -75.1141   53.2161   -2.2845 H   0  0  0  0  0
  -73.1718   51.7008   -4.7293 H   0  0  0  0  0
  -69.8316   55.8488   -3.2234 H   0  0  0  0  0
  -70.2639   56.8756   -4.6126 H   0  0  0  0  0
  -70.6719   57.3965   -2.9594 H   0  0  0  0  0
  -70.3112   55.5910   -5.9334 H   0  0  0  0  0
  -70.8604   50.4362   -8.6304 H   0  0  0  0  0
  -69.5525   55.4753   -7.3303 H   0  0  0  0  0
  -70.7314   54.4701  -10.1639 H   0  0  0  0  0
  -70.3116   56.1647   -9.8130 H   0  0  0  0  0
  -70.0835   55.5124  -11.4542 H   0  0  0  0  0
  -68.0283   55.1237  -12.0677 H   0  0  0  0  0
  -66.8617   53.8898   -7.4046 H   0  0  0  0  0
  -65.1230   53.8287   -9.1795 H   0  0  0  0  0
  -63.1352   54.0481  -12.6091 H   0  0  0  0  0
  -62.1452   51.8529  -13.1934 H   0  0  0  0  0
  -63.4968   49.7867  -12.9584 H   0  0  0  0  0
  -65.8322   49.9157  -12.1358 H   0  0  0  0  0
  -66.8225   52.1142  -11.5539 H   0  0  0  0  0
  2  1  4  0  0  0
  1  5  4  0  0  0
  1 15  1  0  0  0
  3  2  4  0  0  0
  2 13  4  0  0  0
  3  4  4  0  0  0
  9  3  4  0  0  0
  4 14  4  0  0  0
 14  5  4  0  0  0
  7  6  1  0  0  0
  8  7  1  0  0  0
  8  9  4  0  0  0
  8 10  4  0  0  0
 10 11  1  0  0  0
 10 13  4  0  0  0
 11 12  1  0  0  0
 15 16  1  0  0  0
 16 17  4  0  0  0
 16 20  4  0  0  0
 17 18  1  0  0  0
 17 19  4  0  0  0
 19 22  4  0  0  0
 20 21  4  0  0  0
 21 22  4  0  0  0
 22 23  1  0  0  0
 23 24  1  0  0  0
 24 25  4  0  0  0
 24 29  4  0  0  0
 25 26  4  0  0  0
 26 27  4  0  0  0
 27 28  4  0  0  0
 28 29  4  0  0  0
  6 30  1  0  0  0
  6 31  1  0  0  0
  6 32  1  0  0  0
  9 33  1  0  0  0
 12 34  1  0  0  0
 12 35  1  0  0  0
 12 36  1  0  0  0
 13 37  1  0  0  0
 14 38  1  0  0  0
 15 39  1  0  0  0
 18 40  1  0  0  0
 18 41  1  0  0  0
 18 42  1  0  0  0
 19 43  1  0  0  0
 20 44  1  0  0  0
 21 45  1  0  0  0
 25 46  1  0  0  0
 26 47  1  0  0  0
 27 48  1  0  0  0
 28 49  1  0  0  0
 29 50  1  0  0  0
M  END
$$$$
