### 
### Created by X-TOOL on Wed Jan  1 15:39:37 2020
### 

@<TRIPOS>MOLECULE
6fkp_ligand
  103   102     1     0     0
SMALL
GAST_HUCK


@<TRIPOS>ATOM
      1 N          21.3710   38.8190   17.6380 N.4       1 ALA         0.2377
      2 CA         20.6440   37.5740   17.2430 C.3       1 ALA         0.0621
      3 C          20.1590   37.6460   15.8000 C.2       1 ALA         0.2264
      4 O          20.2140   38.7040   15.1670 O.2       1 ALA        -0.3907
      5 CB         19.4710   37.3220   18.1800 C.3       1 ALA        -0.0040
      6 N          19.6920   36.5080   15.2940 N.am      1 ARG        -0.2610
      7 CA         19.1830   36.4000   13.9300 C.3       1 ARG         0.1313
      8 C          17.8150   35.7260   13.8990 C.2       1 ARG         0.2040
      9 O          17.3650   35.1420   14.8920 O.2       1 ARG        -0.3944
     10 CB         20.1780   35.6430   13.0410 C.3       1 ARG        -0.0076
     11 CG         20.4610   34.2020   13.4450 C.3       1 ARG        -0.0084
     12 CD         21.3660   33.5250   12.4280 C.3       1 ARG        -0.0352
     13 NE         21.4940   32.0930   12.6760 N.4       1 ARG         0.2185
     14 N          17.1710   35.8200   12.7390 N.am      1 THR        -0.2613
     15 CA         15.8440   35.2570   12.5100 C.3       1 THR         0.1565
     16 C          15.9190   34.0850   11.5440 C.2       1 THR         0.2065
     17 O          16.9530   33.8540   10.9140 O.2       1 THR        -0.3943
     18 CB         14.8890   36.3200   11.9340 C.3       1 THR         0.0924
     19 OG1        15.3590   36.7570   10.6510 O.3       1 THR        -0.3874
     20 CG2        14.8010   37.5090   12.8710 C.3       1 THR        -0.0346
     21 N          14.8130   33.3560   11.4300 N.am      1 ALA        -0.2639
     22 CA         14.7080   32.2370   10.4840 C.3       1 ALA         0.1282
     23 C          14.7500   32.6950    9.0150 C.2       1 ALA         0.2036
     24 O          15.1310   31.9170    8.1400 O.2       1 ALA        -0.3944
     25 CB         13.4510   31.4190   10.7570 C.3       1 ALA        -0.0244
     26 N          14.3560   33.9450    8.7560 N.am      1 ALA        -0.2640
     27 CA         14.4810   34.5510    7.4250 C.3       1 ALA         0.1282
     28 C          15.9340   34.9070    7.1010 C.2       1 ALA         0.2037
     29 O          16.4290   34.5700    6.0230 O.2       1 ALA        -0.3944
     30 CB         13.6030   35.7900    7.3170 C.3       1 ALA        -0.0244
     31 N          16.6040   35.5900    8.0310 N.am      1 THR        -0.2613
     32 CA         18.0100   35.9890    7.8540 C.3       1 THR         0.1565
     33 C          18.9910   34.8080    7.8540 C.2       1 THR         0.2065
     34 O          20.0820   34.9210    7.2950 O.2       1 THR        -0.3943
     35 CB         18.4610   37.0060    8.9240 C.3       1 THR         0.0924
     36 OG1        18.1850   36.4880   10.2310 O.3       1 THR        -0.3874
     37 CG2        17.7380   38.3330    8.7440 C.3       1 THR        -0.0346
     38 N          18.6090   33.6920    8.4810 N.am      1 ALA        -0.2639
     39 CA         19.4000   32.4580    8.4290 C.3       1 ALA         0.1282
     40 C          19.3100   31.8110    7.0440 C.2       1 ALA         0.2031
     41 O          20.3360   31.6090    6.3890 O.2       1 ALA        -0.3944
     42 CB         18.9430   31.4800    9.5030 C.3       1 ALA        -0.0244
     43 N          18.0840   31.5000    6.6120 N.am      1 ARG        -0.2695
     44 CA         17.8230   30.8930    5.2950 C.3       1 ARG         0.0941
     45 C          17.1930   31.9050    4.3380 C.2       1 ARG         0.0601
     46 O          17.8240   32.8910    3.9560 O.co2     1 ARG        -0.5666
     47 CB         16.9170   29.6600    5.4310 C.3       1 ARG        -0.0208
     48 CG         15.4500   29.9630    5.7070 C.3       1 ARG        -0.0616
     49 OXT        16.0410   31.7560    3.9290 O.co2     1 ARG        -0.5666
     50 H1         21.6778   38.7397   18.5949 H         1 ALA         0.2015
     51 H2         20.7544   39.6112   17.5475 H         1 ALA         0.2015
     52 H3         22.1711   38.9456   17.0381 H         1 ALA         0.2015
     53 H4         21.3427   36.7287   17.3280 H         1 ALA         0.1095
     54 H5         18.9486   36.4034   17.8746 H         1 ALA         0.0310
     55 H6         18.7749   38.1724   18.1331 H         1 ALA         0.0310
     56 H7         19.8418   37.2080   19.2093 H         1 ALA         0.0310
     57 H8         19.6895   35.6921   15.8722 H         1 ARG         0.1884
     58 H9         19.0697   37.4176   13.5279 H         1 ARG         0.0800
     59 H10        21.1311   36.1919   13.0572 H         1 ARG         0.0314
     60 H11        19.7772   35.6343   12.0167 H         1 ARG         0.0314
     61 H12        19.5109   33.6510   13.5056 H         1 ARG         0.0319
     62 H13        20.9535   34.1931   14.4285 H         1 ARG         0.0319
     63 H14        22.3640   33.9846   12.4796 H         1 ARG         0.0813
     64 H15        20.9448   33.6748   11.4229 H         1 ARG         0.0813
     65 H16        22.1001   31.6846   11.9817 H         1 ARG         0.1994
     66 H17        20.5850   31.6605   12.6246 H         1 ARG         0.1994
     67 H18        21.8855   31.9444   13.5929 H         1 ARG         0.1994
     68 H19        17.6189   36.3010   11.9853 H         1 THR         0.1884
     69 H20        15.4436   34.9022   13.4712 H         1 THR         0.0826
     70 H21        13.8884   35.8775   11.8198 H         1 THR         0.0639
     71 H22        16.2266   37.1326   10.7439 H         1 THR         0.2101
     72 H23        14.1168   38.2593   12.4480 H         1 THR         0.0257
     73 H24        15.7999   37.9526   12.9954 H         1 THR         0.0257
     74 H25        14.4224   37.1777   13.8492 H         1 THR         0.0257
     75 H26        14.0268   33.5767   12.0072 H         1 ALA         0.1883
     76 H27        15.5771   31.5834   10.6497 H         1 ALA         0.0797
     77 H28        13.3915   30.5877   10.0391 H         1 ALA         0.0277
     78 H29        12.5647   32.0614   10.6484 H         1 ALA         0.0277
     79 H30        13.4898   31.0176   11.7804 H         1 ALA         0.0277
     80 H31        13.9610   34.4883    9.4969 H         1 ALA         0.1883
     81 H32        14.1353   33.8164    6.6829 H         1 ALA         0.0797
     82 H33        13.7103   36.2291    6.3142 H         1 ALA         0.0277
     83 H34        13.9120   36.5256    8.0742 H         1 ALA         0.0277
     84 H35        12.5523   35.5106    7.4845 H         1 ALA         0.0277
     85 H36        16.1346   35.8396    8.8780 H         1 THR         0.1884
     86 H37        18.0816   36.4788    6.8717 H         1 THR         0.0826
     87 H38        19.5436   37.1724    8.8230 H         1 THR         0.0639
     88 H39        17.2519   36.3320   10.3180 H         1 THR         0.2101
     89 H40        18.0741   39.0413    9.5156 H         1 THR         0.0257
     90 H41        16.6535   38.1754    8.8384 H         1 THR         0.0257
     91 H42        17.9639   38.7415    7.7480 H         1 THR         0.0257
     92 H43        17.7560   33.6981    9.0028 H         1 ALA         0.1883
     93 H44        20.4519   32.7155    8.6216 H         1 ALA         0.0797
     94 H45        19.5485   30.5634    9.4459 H         1 ALA         0.0277
     95 H46        17.8836   31.2300    9.3445 H         1 ALA         0.0277
     96 H47        19.0668   31.9400   10.4945 H         1 ALA         0.0277
     97 H48        17.3062   31.6884    7.2116 H         1 ARG         0.1875
     98 H49        18.7850   30.5698    4.8706 H         1 ARG         0.0726
     99 H50        17.2997   29.0457    6.2594 H         1 ARG         0.0303
    100 H51        16.9762   29.0886    4.4930 H         1 ARG         0.0303
    101 H52        14.8895   29.0199    5.7868 H         1 ARG         0.0232
    102 H53        15.0388   30.5654    4.8836 H         1 ARG         0.0232
    103 H54        15.3622   30.5225    6.6500 H         1 ARG         0.0232
@<TRIPOS>BOND
     1    1    2 1  
     2    2    3 1  
     3    2    5 1  
     4    3    4 2  
     5    3    6 am 
     6    6    7 1  
     7    7    8 1  
     8    7   10 1  
     9    8    9 2  
    10    8   14 am 
    11   10   11 1  
    12   11   12 1  
    13   12   13 1  
    14   14   15 1  
    15   15   16 1  
    16   15   18 1  
    17   16   17 2  
    18   16   21 am 
    19   18   19 1  
    20   18   20 1  
    21   21   22 1  
    22   22   23 1  
    23   22   25 1  
    24   23   24 2  
    25   23   26 am 
    26   26   27 1  
    27   27   28 1  
    28   27   30 1  
    29   28   29 2  
    30   28   31 am 
    31   31   32 1  
    32   32   33 1  
    33   32   35 1  
    34   33   34 2  
    35   33   38 am 
    36   35   36 1  
    37   35   37 1  
    38   38   39 1  
    39   39   40 1  
    40   39   42 1  
    41   40   41 2  
    42   40   43 am 
    43   43   44 1  
    44   44   45 1  
    45   44   47 1  
    46   45   46 ar 
    47   45   49 ar 
    48   47   48 1  
    49    1   50 1  
    50    1   51 1  
    51    1   52 1  
    52    2   53 1  
    53    5   54 1  
    54    5   55 1  
    55    5   56 1  
    56    6   57 1  
    57    7   58 1  
    58   10   59 1  
    59   10   60 1  
    60   11   61 1  
    61   11   62 1  
    62   12   63 1  
    63   12   64 1  
    64   13   65 1  
    65   13   66 1  
    66   13   67 1  
    67   14   68 1  
    68   15   69 1  
    69   18   70 1  
    70   19   71 1  
    71   20   72 1  
    72   20   73 1  
    73   20   74 1  
    74   21   75 1  
    75   22   76 1  
    76   25   77 1  
    77   25   78 1  
    78   25   79 1  
    79   26   80 1  
    80   27   81 1  
    81   30   82 1  
    82   30   83 1  
    83   30   84 1  
    84   31   85 1  
    85   32   86 1  
    86   35   87 1  
    87   36   88 1  
    88   37   89 1  
    89   37   90 1  
    90   37   91 1  
    91   38   92 1  
    92   39   93 1  
    93   42   94 1  
    94   42   95 1  
    95   42   96 1  
    96   43   97 1  
    97   44   98 1  
    98   47   99 1  
    99   47  100 1  
   100   48  101 1  
   101   48  102 1  
   102   48  103 1  
@<TRIPOS>SUBSTRUCTURE
     1 ALA         1

