6fkp_ligand
  -I-interpret- 

104103  0  0  0  0  0  0  0  0999 V2000
   21.3710   38.8190   17.6380 N   0  3  0  0  0
   20.6440   37.5740   17.2430 C   0  0  0  0  0
   20.1590   37.6460   15.8000 C   0  0  0  0  0
   20.2140   38.7040   15.1670 O   0  0  0  0  0
   19.4710   37.3220   18.1800 C   0  0  0  0  0
   19.6920   36.5080   15.2940 N   0  0  0  0  0
   19.1830   36.4000   13.9300 C   0  0  0  0  0
   17.8150   35.7260   13.8990 C   0  0  0  0  0
   17.3650   35.1420   14.8920 O   0  0  0  0  0
   20.1780   35.6430   13.0410 C   0  0  0  0  0
   20.4610   34.2020   13.4450 C   0  0  0  0  0
   21.3660   33.5250   12.4280 C   0  0  0  0  0
   21.4940   32.0930   12.6760 N   0  3  0  0  0
   17.1710   35.8200   12.7390 N   0  0  0  0  0
   15.8440   35.2570   12.5100 C   0  0  0  0  0
   15.9190   34.0850   11.5440 C   0  0  0  0  0
   16.9530   33.8540   10.9140 O   0  0  0  0  0
   14.8890   36.3200   11.9340 C   0  0  0  0  0
   15.3590   36.7570   10.6510 O   0  0  0  0  0
   14.8010   37.5090   12.8710 C   0  0  0  0  0
   14.8130   33.3560   11.4300 N   0  0  0  0  0
   14.7080   32.2370   10.4840 C   0  0  0  0  0
   14.7500   32.6950    9.0150 C   0  0  0  0  0
   15.1310   31.9170    8.1400 O   0  0  0  0  0
   13.4510   31.4190   10.7570 C   0  0  0  0  0
   14.3560   33.9450    8.7560 N   0  0  0  0  0
   14.4810   34.5510    7.4250 C   0  0  0  0  0
   15.9340   34.9070    7.1010 C   0  0  0  0  0
   16.4290   34.5700    6.0230 O   0  0  0  0  0
   13.6030   35.7900    7.3170 C   0  0  0  0  0
   16.6040   35.5900    8.0310 N   0  0  0  0  0
   18.0100   35.9890    7.8540 C   0  0  0  0  0
   18.9910   34.8080    7.8540 C   0  0  0  0  0
   20.0820   34.9210    7.2950 O   0  0  0  0  0
   18.4610   37.0060    8.9240 C   0  0  0  0  0
   18.1850   36.4880   10.2310 O   0  0  0  0  0
   17.7380   38.3330    8.7440 C   0  0  0  0  0
   18.6090   33.6920    8.4810 N   0  0  0  0  0
   19.4000   32.4580    8.4290 C   0  0  0  0  0
   19.3100   31.8110    7.0440 C   0  0  0  0  0
   20.3360   31.6090    6.3890 O   0  0  0  0  0
   18.9430   31.4800    9.5030 C   0  0  0  0  0
   18.0840   31.5000    6.6120 N   0  0  0  0  0
   17.8230   30.8930    5.2950 C   0  0  0  0  0
   17.1930   31.9050    4.3380 C   0  0  0  0  0
   17.8240   32.8910    3.9560 O   0  0  0  0  0
   16.9170   29.6600    5.4310 C   0  0  0  0  0
   15.4500   29.9630    5.7070 C   0  0  0  0  0
   16.0410   31.7560    3.9290 O   0  0  0  0  0
   22.1523   38.9718   17.0004 H   0  0  0  0  0
   20.7326   39.6132   17.5919 H   0  0  0  0  0
   21.7224   38.7185   18.5903 H   0  0  0  0  0
   21.3448   36.7428   17.3210 H   0  0  0  0  0
   18.7508   38.1347   18.0852 H   0  0  0  0  0
   18.9930   36.3786   17.9161 H   0  0  0  0  0
   19.8322   37.2729   19.2072 H   0  0  0  0  0
   19.6894   35.6758   15.8838 H   0  0  0  0  0
   19.0652   37.4101   13.5377 H   0  0  0  0  0
   21.1258   36.1762   13.1152 H   0  0  0  0  0
   19.7346   35.6032   12.0460 H   0  0  0  0  0
   19.5175   33.6584   13.4933 H   0  0  0  0  0
   20.9582   34.1997   14.4150 H   0  0  0  0  0
   22.3568   33.9732   12.5026 H   0  0  0  0  0
   20.9284   33.6613   11.4391 H   0  0  0  0  0
   22.1074   31.6809   11.9729 H   0  0  0  0  0
   21.8902   31.9440   13.6040 H   0  0  0  0  0
   20.5736   31.6565   12.6238 H   0  0  0  0  0
   17.6278   36.3106   11.9702 H   0  0  0  0  0
   15.4620   34.9131   13.4712 H   0  0  0  0  0
   13.8993   35.8763   11.8256 H   0  0  0  0  0
   14.7585   37.4186   10.2998 H   0  0  0  0  0
   14.4258   37.1794   13.8399 H   0  0  0  0  0
   15.7913   37.9475   12.9934 H   0  0  0  0  0
   14.1228   38.2517   12.4508 H   0  0  0  0  0
   14.0110   33.5811   12.0187 H   0  0  0  0  0
   15.5832   31.6068   10.6423 H   0  0  0  0  0
   13.4907   31.0219   11.7713 H   0  0  0  0  0
   12.5736   32.0566   10.6491 H   0  0  0  0  0
   13.3931   30.5956   10.0451 H   0  0  0  0  0
   13.9531   34.4991    9.5117 H   0  0  0  0  0
   14.1459   33.8121    6.6971 H   0  0  0  0  0
   12.5623   35.5118    7.4832 H   0  0  0  0  0
   13.9102   36.5180    8.0678 H   0  0  0  0  0
   13.7101   36.2241    6.3229 H   0  0  0  0  0
   16.1252   35.8446    8.8949 H   0  0  0  0  0
   18.0390   36.4516    6.8674 H   0  0  0  0  0
   19.5324   37.1717    8.8115 H   0  0  0  0  0
   18.4673   37.1241   10.8923 H   0  0  0  0  0
   17.9626   38.7367    7.7567 H   0  0  0  0  0
   16.6635   38.1755    8.8377 H   0  0  0  0  0
   18.0719   39.0339    9.5091 H   0  0  0  0  0
   17.7389   33.6983    9.0132 H   0  0  0  0  0
   20.4416   32.7171    8.6188 H   0  0  0  0  0
   19.0662   31.9370   10.4849 H   0  0  0  0  0
   17.8932   31.2331    9.3448 H   0  0  0  0  0
   19.5437   30.5723    9.4454 H   0  0  0  0  0
   17.2907   31.6922    7.2236 H   0  0  0  0  0
   18.7809   30.5779    4.8812 H   0  0  0  0  0
   17.2861   29.0922    6.2851 H   0  0  0  0  0
   16.9548   29.1361    4.4759 H   0  0  0  0  0
   15.3644   30.5174    6.6416 H   0  0  0  0  0
   15.0437   30.5599    4.8904 H   0  0  0  0  0
   14.8957   29.0278    5.7858 H   0  0  0  0  0
   15.6710   30.9532    4.3035 H   0  0  0  0  0
  1  2  1  0  0  0
  2  3  1  0  0  0
  2  5  1  0  0  0
  3  4  2  0  0  0
  3  6  1  0  0  0
  6  7  1  0  0  0
  7  8  1  0  0  0
  7 10  1  0  0  0
  8  9  2  0  0  0
  8 14  1  0  0  0
 10 11  1  0  0  0
 11 12  1  0  0  0
 12 13  1  0  0  0
 14 15  1  0  0  0
 15 16  1  0  0  0
 15 18  1  0  0  0
 16 17  2  0  0  0
 16 21  1  0  0  0
 18 19  1  0  0  0
 18 20  1  0  0  0
 21 22  1  0  0  0
 22 23  1  0  0  0
 22 25  1  0  0  0
 23 24  2  0  0  0
 23 26  1  0  0  0
 26 27  1  0  0  0
 27 28  1  0  0  0
 27 30  1  0  0  0
 28 29  2  0  0  0
 28 31  1  0  0  0
 31 32  1  0  0  0
 32 33  1  0  0  0
 32 35  1  0  0  0
 33 34  2  0  0  0
 33 38  1  0  0  0
 35 36  1  0  0  0
 35 37  1  0  0  0
 38 39  1  0  0  0
 39 40  1  0  0  0
 39 42  1  0  0  0
 40 41  2  0  0  0
 40 43  1  0  0  0
 43 44  1  0  0  0
 44 45  1  0  0  0
 44 47  1  0  0  0
 45 46  2  0  0  0
 45 49  1  0  0  0
 47 48  1  0  0  0
  1 50  1  0  0  0
  1 51  1  0  0  0
  1 52  1  0  0  0
  2 53  1  0  0  0
  5 54  1  0  0  0
  5 55  1  0  0  0
  5 56  1  0  0  0
  6 57  1  0  0  0
  7 58  1  0  0  0
 10 59  1  0  0  0
 10 60  1  0  0  0
 11 61  1  0  0  0
 11 62  1  0  0  0
 12 63  1  0  0  0
 12 64  1  0  0  0
 13 65  1  0  0  0
 13 66  1  0  0  0
 13 67  1  0  0  0
 14 68  1  0  0  0
 15 69  1  0  0  0
 18 70  1  0  0  0
 19 71  1  0  0  0
 20 72  1  0  0  0
 20 73  1  0  0  0
 20 74  1  0  0  0
 21 75  1  0  0  0
 22 76  1  0  0  0
 25 77  1  0  0  0
 25 78  1  0  0  0
 25 79  1  0  0  0
 26 80  1  0  0  0
 27 81  1  0  0  0
 30 82  1  0  0  0
 30 83  1  0  0  0
 30 84  1  0  0  0
 31 85  1  0  0  0
 32 86  1  0  0  0
 35 87  1  0  0  0
 36 88  1  0  0  0
 37 89  1  0  0  0
 37 90  1  0  0  0
 37 91  1  0  0  0
 38 92  1  0  0  0
 39 93  1  0  0  0
 42 94  1  0  0  0
 42 95  1  0  0  0
 42 96  1  0  0  0
 43 97  1  0  0  0
 44 98  1  0  0  0
 47 99  1  0  0  0
 47100  1  0  0  0
 48101  1  0  0  0
 48102  1  0  0  0
 48103  1  0  0  0
 49104  1  0  0  0
M  END
$$$$
