4bjb_ligand
  -I-interpret- 

 40 42  0  0  0  0  0  0  0  0999 V2000
   10.5980   10.5460   22.3960 C   0  0  0  0  0
   11.6630    9.9240   21.6110 N   0  3  0  0  0
   12.9940    9.8840   22.2250 C   0  0  0  0  0
   11.2170    8.5020   21.6640 C   0  0  0  0  0
   11.7380    7.6880   20.4560 C   0  0  0  0  0
   12.5470    8.1790   19.6690 O   0  0  0  0  0
   11.2160    6.4410   20.4010 N   0  0  0  0  0
   11.4850    5.5260   19.4410 C   0  0  0  0  0
   11.7160    5.8110   18.0830 C   0  0  0  0  0
   11.9550    4.7810   17.1460 C   0  0  0  0  0
   12.2030    5.0240   15.7750 C   0  0  0  0  0
   12.2310    6.3270   15.2540 C   0  0  0  0  0
   12.4730    6.5600   13.9060 C   0  0  0  0  0
   12.6860    5.4930   13.0460 C   0  0  0  0  0
   12.6610    4.1890   13.5360 C   0  0  0  0  0
   12.4220    3.9440   14.8910 C   0  0  0  0  0
   12.4000    2.6260   15.3630 C   0  0  0  0  0
   12.5850    1.6620   14.6260 O   0  0  0  0  0
   12.1560    2.3850   16.7130 N   0  0  0  0  0
   11.9320    3.4530   17.5970 C   0  0  0  0  0
   11.6900    3.1650   18.9390 C   0  0  0  0  0
   11.4630    4.1920   19.8490 C   0  0  0  0  0
    9.6380   10.3618   21.9138 H   0  0  0  0  0
   10.5903   10.1185   23.3986 H   0  0  0  0  0
   10.7744   11.6198   22.4588 H   0  0  0  0  0
   11.7700   10.4198   20.7261 H   0  0  0  0  0
   12.9107    9.5112   23.2459 H   0  0  0  0  0
   13.6397    9.2229   21.6469 H   0  0  0  0  0
   13.4175   10.8883   22.2370 H   0  0  0  0  0
   10.1273    8.4848   21.6431 H   0  0  0  0  0
   11.6136    8.0534   22.5748 H   0  0  0  0  0
   10.5690    6.1693   21.1412 H   0  0  0  0  0
   11.7105    6.8478   17.7467 H   0  0  0  0  0
   12.0595    7.1726   15.9201 H   0  0  0  0  0
   12.4955    7.5808   13.5245 H   0  0  0  0  0
   12.8728    5.6744   11.9876 H   0  0  0  0  0
   12.8292    3.3531   12.8570 H   0  0  0  0  0
   12.1399    1.4266   17.0618 H   0  0  0  0  0
   11.6786    2.1289   19.2773 H   0  0  0  0  0
   11.2655    3.9517   20.8937 H   0  0  0  0  0
  1  2  1  0  0  0
  2  3  1  0  0  0
  2  4  1  0  0  0
  4  5  1  0  0  0
  5  6  2  0  0  0
  5  7  1  0  0  0
  7  8  1  0  0  0
  8  9  4  0  0  0
  8 22  4  0  0  0
  9 10  4  0  0  0
 10 11  1  0  0  0
 10 20  4  0  0  0
 11 12  4  0  0  0
 11 16  4  0  0  0
 12 13  4  0  0  0
 13 14  4  0  0  0
 14 15  4  0  0  0
 15 16  4  0  0  0
 16 17  1  0  0  0
 17 18  2  0  0  0
 17 19  1  0  0  0
 19 20  1  0  0  0
 20 21  4  0  0  0
 21 22  4  0  0  0
  1 23  1  0  0  0
  1 24  1  0  0  0
  1 25  1  0  0  0
  2 26  1  0  0  0
  3 27  1  0  0  0
  3 28  1  0  0  0
  3 29  1  0  0  0
  4 30  1  0  0  0
  4 31  1  0  0  0
  7 32  1  0  0  0
  9 33  1  0  0  0
 12 34  1  0  0  0
 13 35  1  0  0  0
 14 36  1  0  0  0
 15 37  1  0  0  0
 19 38  1  0  0  0
 21 39  1  0  0  0
 22 40  1  0  0  0
M  END
$$$$
