5db0_ligand
  -I-interpret- 

 66 70  0  0  0  0  0  0  0  0999 V2000
  -11.0610   -7.7080  -12.5410 C   0  0  0  0  0
  -10.7680   -9.0390  -12.4180 C   0  0  0  0  0
  -11.8000   -9.8930  -12.0130 C   0  0  0  0  0
  -13.0430   -9.4200  -11.7240 N   0  0  0  0  0
  -12.2740   -7.1770  -12.2910 N   0  0  0  0  0
   -6.8160   -6.4570  -11.7620 F   0  0  0  0  0
   -6.4630   -7.6550  -12.1620 C   0  0  0  0  0
   -6.6380   -8.3880  -11.1300 F   0  0  0  0  0
   -5.1610   -7.6490  -12.4370 F   0  0  0  0  0
   -7.2980   -8.0460  -13.4110 C   0  0  0  0  0
   -8.7760   -8.1300  -13.0460 C   0  0  0  0  0
   -9.7480   -6.7670  -13.0580 S   0  0  0  0  0
   -9.4280   -9.2710  -12.7000 C   0  0  0  0  0
  -13.2440   -8.0440  -11.8820 C   0  0  0  0  0
  -11.5990  -11.2080  -11.9090 N   0  0  0  0  0
  -12.6760  -12.1890  -11.6520 C   0  0  0  0  0
  -12.5340  -13.3840  -12.5720 C   0  0  0  0  0
  -13.5800  -14.4670  -12.3070 C   0  0  0  0  0
  -12.5540  -12.6600  -10.2450 C   0  0  0  0  0
  -13.5370  -13.7850   -9.9770 C   0  0  0  0  0
  -13.3680  -14.8980  -10.9240 N   0  3  0  0  0
  -14.3860  -15.9510  -10.6390 C   0  0  0  0  0
  -14.3070  -17.2000  -11.4320 C   0  0  0  0  0
  -15.4650  -17.7240  -12.0280 C   0  0  0  0  0
  -13.1260  -17.9590  -11.5510 C   0  0  0  0  0
  -13.1350  -19.1610  -12.2740 C   0  0  0  0  0
  -14.2770  -19.6140  -12.8190 C   0  0  0  0  0
  -15.4300  -18.9130  -12.6920 C   0  0  0  0  0
  -16.3970  -19.6220  -13.3310 C   0  0  0  0  0
  -15.8200  -20.7380  -13.8060 C   0  0  0  0  0
  -16.4310  -21.8130  -14.5700 C   0  0  0  0  0
  -16.8830  -22.6500  -15.1500 N   0  0  0  0  0
  -14.5190  -20.7580  -13.5130 N   0  0  0  0  0
  -13.5530  -21.8260  -13.8180 C   0  0  0  0  0
  -13.5760  -22.8500  -12.6390 C   0  0  0  0  0
  -13.1680  -22.2490  -11.3850 O   0  0  0  0  0
  -12.6160  -23.9950  -12.9790 C   0  0  0  0  0
  -12.4030  -24.7550  -11.7770 O   0  0  0  0  0
   -6.9634   -9.0170  -13.7760 H   0  0  0  0  0
   -7.1623   -7.2894  -14.1839 H   0  0  0  0  0
   -8.9554  -10.2519  -12.6498 H   0  0  0  0  0
  -14.2337   -7.6418  -11.6655 H   0  0  0  0  0
  -10.6464  -11.5575  -12.0128 H   0  0  0  0  0
  -13.6424  -11.7163  -11.8274 H   0  0  0  0  0
  -11.5508  -13.8217  -12.3996 H   0  0  0  0  0
  -12.6693  -13.0340  -13.5954 H   0  0  0  0  0
  -13.4729  -15.2997  -13.0022 H   0  0  0  0  0
  -14.5907  -14.0856  -12.4525 H   0  0  0  0  0
  -12.7718  -11.8303   -9.5725 H   0  0  0  0  0
  -11.5409  -13.0267  -10.0798 H   0  0  0  0  0
  -14.5469  -13.3906  -10.0896 H   0  0  0  0  0
  -13.3583  -14.1626   -8.9702 H   0  0  0  0  0
  -12.4160  -15.2469  -10.8129 H   0  0  0  0  0
  -15.3500  -15.5051  -10.8837 H   0  0  0  0  0
  -14.2237  -16.2472   -9.6027 H   0  0  0  0  0
  -16.4030  -17.1731  -11.9587 H   0  0  0  0  0
  -12.2055  -17.6122  -11.0813 H   0  0  0  0  0
  -12.2128  -19.7295  -12.3942 H   0  0  0  0  0
  -17.4440  -19.3385  -13.4380 H   0  0  0  0  0
  -12.5532  -21.4074  -13.9333 H   0  0  0  0  0
  -13.8214  -22.3208  -14.7514 H   0  0  0  0  0
  -14.5981  -23.2080  -12.5155 H   0  0  0  0  0
  -13.1964  -22.9107  -10.6901 H   0  0  0  0  0
  -11.6708  -23.6007  -13.3521 H   0  0  0  0  0
  -13.0398  -24.6277  -13.7589 H   0  0  0  0  0
  -11.8032  -25.4816  -11.9612 H   0  0  0  0  0
  1  2  4  0  0  0
  1  5  4  0  0  0
 12  1  4  0  0  0
  2  3  4  0  0  0
  2 13  4  0  0  0
  3  4  4  0  0  0
  3 15  1  0  0  0
 14  4  4  0  0  0
  5 14  4  0  0  0
  7  6  1  0  0  0
  7  8  1  0  0  0
  7  9  1  0  0  0
 10  7  1  0  0  0
 11 10  1  0  0  0
 11 12  4  0  0  0
 11 13  4  0  0  0
 15 16  1  0  0  0
 16 17  1  0  0  0
 16 19  1  0  0  0
 17 18  1  0  0  0
 18 21  1  0  0  0
 19 20  1  0  0  0
 20 21  1  0  0  0
 21 22  1  0  0  0
 22 23  1  0  0  0
 23 24  4  0  0  0
 23 25  4  0  0  0
 24 28  4  0  0  0
 25 26  4  0  0  0
 26 27  4  0  0  0
 27 28  4  0  0  0
 27 33  4  0  0  0
 28 29  4  0  0  0
 29 30  4  0  0  0
 30 31  1  0  0  0
 30 33  4  0  0  0
 31 32  3  0  0  0
 33 34  1  0  0  0
 34 35  1  0  0  0
 35 36  1  0  0  0
 35 37  1  0  0  0
 37 38  1  0  0  0
 10 39  1  0  0  0
 10 40  1  0  0  0
 13 41  1  0  0  0
 14 42  1  0  0  0
 15 43  1  0  0  0
 16 44  1  0  0  0
 17 45  1  0  0  0
 17 46  1  0  0  0
 18 47  1  0  0  0
 18 48  1  0  0  0
 19 49  1  0  0  0
 19 50  1  0  0  0
 20 51  1  0  0  0
 20 52  1  0  0  0
 21 53  1  0  0  0
 22 54  1  0  0  0
 22 55  1  0  0  0
 24 56  1  0  0  0
 25 57  1  0  0  0
 26 58  1  0  0  0
 29 59  1  0  0  0
 34 60  1  0  0  0
 34 61  1  0  0  0
 35 62  1  0  0  0
 36 63  1  0  0  0
 37 64  1  0  0  0
 37 65  1  0  0  0
 38 66  1  0  0  0
M  END
$$$$
