6r8o_ligand
  -I-interpret- 

 67 71  0  0  0  0  0  0  0  0999 V2000
    0.6730   -2.6630  -27.7270 C   0  0  0  0  0
    1.7870   -3.6270  -25.5710 C   0  0  0  0  0
    3.1270   -3.4140  -25.1990 C   0  0  0  0  0
    3.4520   -3.0140  -23.9060 C   0  0  0  0  0
    2.4300   -2.8570  -22.9670 C   0  0  0  0  0
    1.1090   -3.0730  -23.3360 C   0  0  0  0  0
    0.7410   -3.4260  -24.6250 C   0  0  0  0  0
   -1.4140   -5.4910  -23.5920 C   0  0  0  0  0
   -2.2690   -4.2590  -23.2210 C   0  0  0  0  0
   -1.6980   -3.1640  -24.0030 N   0  0  0  0  0
   -1.3740   -0.8300  -24.7040 C   0  0  0  0  0
   -3.2200    0.6060  -25.2130 C   0  0  0  0  0
   -5.1290    2.1070  -25.5560 C   0  0  0  0  0
   -6.9920    3.5840  -24.6940 C   0  0  0  0  0
   -8.0370    3.8640  -23.8120 C   0  0  0  0  0
  -10.1200    4.5340  -21.9290 C   0  0  0  0  0
   -7.5180    1.8550  -22.5850 C   0  0  0  0  0
   -6.4930    1.5850  -23.4810 C   0  0  0  0  0
   -9.4010    5.6320  -21.1330 C   0  0  0  0  0
   -8.0850    6.0320  -21.8010 C   0  0  0  0  0
    1.4000   -4.1540  -27.2080 S   0  0  0  0  0
   -0.7370   -3.6900  -24.9730 C   0  0  0  0  0
   -1.0070   -5.2000  -25.0340 C   0  0  0  0  0
   -2.0530   -1.8830  -23.8270 C   0  0  0  0  0
   -2.8800   -1.6230  -22.9580 O   0  0  0  0  0
   -2.1040    0.3910  -24.5020 N   0  0  0  0  0
   -3.5740   -0.1700  -26.1170 O   0  0  0  0  0
   -3.9120    1.7110  -24.8900 N   0  0  0  0  0
   -6.2180    2.4450  -24.5400 C   0  0  0  0  0
   -8.8360    5.1480  -23.9820 C   0  0  0  0  0
  -10.2430    4.9460  -23.4020 C   0  0  0  0  0
   -9.3550    3.2730  -21.8560 N   0  0  0  0  0
   -8.2930    3.0130  -22.7480 C   0  0  0  0  0
  -10.2670    6.7780  -21.0420 O   0  0  0  0  0
   -8.2580    6.2400  -23.2120 O   0  0  0  0  0
   -0.1831   -2.4371  -27.0913 H   0  0  0  0  0
    1.4046   -1.8584  -27.6529 H   0  0  0  0  0
    0.3432   -2.7618  -28.7612 H   0  0  0  0  0
    3.9199   -3.5639  -25.9318 H   0  0  0  0  0
    4.4896   -2.8259  -23.6301 H   0  0  0  0  0
    2.6695   -2.5649  -21.9445 H   0  0  0  0  0
    0.3301   -2.9605  -22.5819 H   0  0  0  0  0
   -1.9563   -6.4306  -23.4861 H   0  0  0  0  0
   -0.5591   -5.6285  -22.9299 H   0  0  0  0  0
   -2.2427   -4.0523  -22.1511 H   0  0  0  0  0
   -3.3244   -4.4130  -23.4460 H   0  0  0  0  0
   -1.3853   -1.1257  -25.7531 H   0  0  0  0  0
   -0.3250   -0.7101  -24.4332 H   0  0  0  0  0
   -5.4734    1.2814  -26.1788 H   0  0  0  0  0
   -4.9268    2.9905  -26.1615 H   0  0  0  0  0
   -6.7821    4.2702  -25.5145 H   0  0  0  0  0
  -11.1119    4.3918  -21.5000 H   0  0  0  0  0
   -7.7195    1.1717  -21.7600 H   0  0  0  0  0
   -5.8931    0.6839  -23.3530 H   0  0  0  0  0
   -9.1677    5.2504  -20.1390 H   0  0  0  0  0
   -7.3633    5.2284  -21.6546 H   0  0  0  0  0
   -7.7374    6.9629  -21.3531 H   0  0  0  0  0
   -0.8789   -3.1814  -25.9266 H   0  0  0  0  0
   -1.7633   -5.4801  -25.7673 H   0  0  0  0  0
   -0.1518   -5.7842  -25.3738 H   0  0  0  0  0
   -1.7781    1.0836  -23.8279 H   0  0  0  0  0
   -3.5592    2.3000  -24.1357 H   0  0  0  0  0
   -8.8418    5.3834  -25.0463 H   0  0  0  0  0
  -10.8095    5.8741  -23.4786 H   0  0  0  0  0
  -10.7629    4.1672  -23.9599 H   0  0  0  0  0
   -9.5982    2.5788  -21.1494 H   0  0  0  0  0
   -9.8268    7.4717  -20.5455 H   0  0  0  0  0
 21  1  1  0  0  0
  2  3  4  0  0  0
  7  2  4  0  0  0
  2 21  1  0  0  0
  3  4  4  0  0  0
  5  4  4  0  0  0
  6  5  4  0  0  0
  7  6  4  0  0  0
 22  7  1  0  0  0
  9  8  1  0  0  0
 23  8  1  0  0  0
 10  9  1  0  0  0
 10 22  1  0  0  0
 24 10  1  0  0  0
 11 24  1  0  0  0
 26 11  1  0  0  0
 12 26  1  0  0  0
 12 27  2  0  0  0
 28 12  1  0  0  0
 13 28  1  0  0  0
 29 13  1  0  0  0
 15 14  4  0  0  0
 14 29  4  0  0  0
 30 15  1  0  0  0
 15 33  4  0  0  0
 16 19  1  0  0  0
 31 16  1  0  0  0
 16 32  1  0  0  0
 17 18  4  0  0  0
 33 17  4  0  0  0
 29 18  4  0  0  0
 19 20  1  0  0  0
 19 34  1  0  0  0
 20 35  1  0  0  0
 22 23  1  0  0  0
 24 25  2  0  0  0
 30 31  1  0  0  0
 30 35  1  0  0  0
 32 33  1  0  0  0
  1 36  1  0  0  0
  1 37  1  0  0  0
  1 38  1  0  0  0
  3 39  1  0  0  0
  4 40  1  0  0  0
  5 41  1  0  0  0
  6 42  1  0  0  0
  8 43  1  0  0  0
  8 44  1  0  0  0
  9 45  1  0  0  0
  9 46  1  0  0  0
 11 47  1  0  0  0
 11 48  1  0  0  0
 13 49  1  0  0  0
 13 50  1  0  0  0
 14 51  1  0  0  0
 16 52  1  0  0  0
 17 53  1  0  0  0
 18 54  1  0  0  0
 19 55  1  0  0  0
 20 56  1  0  0  0
 20 57  1  0  0  0
 22 58  1  0  0  0
 23 59  1  0  0  0
 23 60  1  0  0  0
 26 61  1  0  0  0
 28 62  1  0  0  0
 30 63  1  0  0  0
 31 64  1  0  0  0
 31 65  1  0  0  0
 32 66  1  0  0  0
 34 67  1  0  0  0
M  END
$$$$
