4nq6_ligand
  -I-interpret- 

 25 26  0  0  0  0  0  0  0  0999 V2000
   12.1550    7.9590   27.9570 O   0  0  0  0  0
   10.1020    9.4700   25.3840 N   0  3  0  0  0
   11.5700    8.0510   26.8800 C   0  0  0  0  0
   11.2970    7.0690   26.1200 O   0  0  0  0  0
   11.1080    9.5150   26.4980 C   0  0  0  0  0
   12.2920   10.4830   26.1730 C   0  0  0  0  0
   12.0210   10.9990   24.4770 S   0  0  0  0  0
   10.3430   10.4450   24.2460 C   0  0  0  0  0
    9.4500   11.6490   24.3670 C   0  0  0  0  0
    8.9980   11.4610   26.0980 S   0  0  0  0  0
    8.7830    9.7060   25.9960 C   0  0  0  0  0
    7.6620    9.2880   25.1000 C   0  0  0  0  0
    8.1460    7.6810   24.3760 S   0  0  0  0  0
   10.1752    8.5562   24.9367 H   0  0  0  0  0
   10.8390    7.3880   25.3389 H   0  0  0  0  0
   10.6332    9.9358   27.3843 H   0  0  0  0  0
   13.2582    9.9937   26.2960 H   0  0  0  0  0
   12.3160   11.3336   26.8542 H   0  0  0  0  0
   10.1531    9.9737   23.2817 H   0  0  0  0  0
    8.6150   11.6834   23.6673 H   0  0  0  0  0
    9.9117   12.6011   24.1056 H   0  0  0  0  0
    8.5271    9.1774   26.9143 H   0  0  0  0  0
    7.4883   10.0301   24.3208 H   0  0  0  0  0
    6.7296    9.1994   25.6576 H   0  0  0  0  0
    7.1829    7.2542   23.5641 H   0  0  0  0  0
  3  1  2  0  0  0
  5  2  1  0  0  0
  2  8  1  0  0  0
  2 11  1  0  0  0
  3  4  1  0  0  0
  3  5  1  0  0  0
  5  6  1  0  0  0
  6  7  1  0  0  0
  7  8  1  0  0  0
  8  9  1  0  0  0
  9 10  1  0  0  0
 10 11  1  0  0  0
 11 12  1  0  0  0
 12 13  1  0  0  0
  2 14  1  0  0  0
  4 15  1  0  0  0
  5 16  1  0  0  0
  6 17  1  0  0  0
  6 18  1  0  0  0
  8 19  1  0  0  0
  9 20  1  0  0  0
  9 21  1  0  0  0
 11 22  1  0  0  0
 12 23  1  0  0  0
 12 24  1  0  0  0
 13 25  1  0  0  0
M  END
$$$$
