1fv9_ligand
  -I-interpret- 

 17 18  0  0  0  0  0  0  0  0999 V2000
   21.0210   16.0610   33.5870 C   0  0  0  0  0
   21.0130   17.3660   34.0060 C   0  0  0  0  0
   19.8440   18.0310   33.9110 C   0  0  0  0  0
   18.7770   17.5240   33.4730 C   0  0  0  0  0
   18.6710   16.2560   33.0310 C   0  0  0  0  0
   19.8380   15.4740   33.0780 C   0  0  0  0  0
   19.7560   19.3420   34.2640 N   0  0  0  0  0
   18.4010   19.5750   33.9580 C   0  0  0  0  0
   17.7440   18.4180   33.4490 N   0  0  0  0  0
   17.7880   20.7780   34.1480 N   0  0  0  0  0
   22.1710   15.3420   33.6520 O   0  0  0  0  0
   21.9106   17.8443   34.3980 H   0  0  0  0  0
   17.7285   15.8568   32.6561 H   0  0  0  0  0
   19.8321   14.4407   32.7309 H   0  0  0  0  0
   18.3145   21.5641   34.5292 H   0  0  0  0  0
   16.8030   20.8919   33.9089 H   0  0  0  0  0
   22.0109   14.4540   33.3241 H   0  0  0  0  0
  1  2  4  0  0  0
  1  6  4  0  0  0
  1 11  1  0  0  0
  2  3  4  0  0  0
  3  4  4  0  0  0
  3  7  4  0  0  0
  4  5  4  0  0  0
  4  9  4  0  0  0
  5  6  4  0  0  0
  7  8  4  0  0  0
  8  9  4  0  0  0
  8 10  1  0  0  0
  2 12  1  0  0  0
  5 13  1  0  0  0
  6 14  1  0  0  0
 10 15  1  0  0  0
 10 16  1  0  0  0
 11 17  1  0  0  0
M  END
$$$$
