6asz_ligand
  -I-interpret- 

110109  0  0  0  0  0  0  0  0999 V2000
  -20.4370   -5.5390    1.6310 N   0  3  0  0  0
  -19.1510   -5.5160    2.3230 C   0  0  0  0  0
  -19.1790   -6.4250    3.5510 C   0  0  0  0  0
  -19.1280   -5.9690    4.7020 O   0  0  0  0  0
  -18.7950   -4.0920    2.7160 C   0  0  0  0  0
  -17.3790   -3.9080    3.2090 C   0  0  0  0  0
  -16.9320   -2.4660    3.1110 C   0  0  0  0  0
  -16.7780   -1.9360    2.0140 O   0  0  0  0  0
  -16.7320   -1.8160    4.2610 N   0  0  0  0  0
  -19.2580   -7.7290    3.2960 N   0  0  0  0  0
  -19.4050   -8.7210    4.3520 C   0  0  0  0  0
  -18.4640   -9.8830    4.0780 C   0  0  0  0  0
  -17.8880   -9.9990    2.9940 O   0  0  0  0  0
  -20.8480   -9.2430    4.4560 C   0  0  0  0  0
  -21.2130   -9.8970    3.2310 O   0  0  0  0  0
  -21.8310   -8.1060    4.7520 C   0  0  0  0  0
  -18.3220  -10.7590    5.0710 N   0  0  0  0  0
  -17.5470  -11.9790    4.8930 C   0  0  0  0  0
  -18.0270  -13.0440    5.8620 C   0  0  0  0  0
  -18.5170  -12.7470    6.9560 O   0  0  0  0  0
  -16.0470  -11.7420    5.1000 C   0  0  0  0  0
  -17.8730  -14.2940    5.4410 N   0  0  0  0  0
  -18.0700  -15.4430    6.3030 C   0  0  0  0  0
  -16.9010  -15.5210    7.2790 C   0  0  0  0  0
  -15.7530  -15.3850    6.8850 O   0  0  0  0  0
  -18.1710  -16.7100    5.4540 C   0  0  0  0  0
  -18.5600  -17.9680    6.1770 C   0  0  0  0  0
  -18.6290  -19.1030    5.1670 C   0  0  0  0  0
  -19.1490  -20.3350    5.7390 N   0  0  0  0  0
  -20.4370  -20.6560    5.7760 C   0  0  0  0  0
  -21.3490  -19.8330    5.2690 N   0  0  0  0  0
  -20.8120  -21.8060    6.3160 N   0  0  0  0  0
  -17.1900  -15.7260    8.5530 N   0  0  0  0  0
  -16.1530  -15.8160    9.5470 C   0  0  0  0  0
  -16.4800  -14.9640   10.7810 C   0  0  0  0  0
  -15.2870  -14.8710   11.7060 C   0  0  0  0  0
  -15.7430  -14.4980   13.1050 C   0  0  0  0  0
  -16.5630  -13.2290   12.9680 C   0  0  0  0  0
  -16.7650  -12.3550   14.1890 N   0  3  0  0  0
  -15.9530  -17.2480   10.0070 C   0  0  0  0  0
  -16.8840  -17.9790   10.3330 O   0  0  0  0  0
  -15.5120  -12.1510   14.9780 C   0  0  0  0  0
  -17.2710  -11.0340   13.7140 C   0  0  0  0  0
  -17.7900  -12.9960   15.0750 C   0  0  0  0  0
  -14.6970  -17.6780   10.0210 N   0  0  0  0  0
  -14.4060  -19.0520   10.4220 C   0  0  0  0  0
  -13.6290  -19.0920   11.7340 C   0  0  0  0  0
  -14.1710  -19.4720   12.7750 O   0  0  0  0  0
  -13.6420  -19.7860    9.3150 C   0  0  0  0  0
  -12.4780  -19.0760    8.9220 O   0  0  0  0  0
  -12.4460  -18.7450   11.7760 O   0  0  0  0  0
  -20.6654   -6.4988    1.3723 H   0  0  0  0  0
  -21.1606   -5.1706    2.2484 H   0  0  0  0  0
  -20.3800   -4.9635    0.7908 H   0  0  0  0  0
  -18.3851   -5.8923    1.6448 H   0  0  0  0  0
  -19.4554   -3.8154    3.5379 H   0  0  0  0  0
  -18.9010   -3.4799    1.8203 H   0  0  0  0  0
  -16.7190   -4.5139    2.5883 H   0  0  0  0  0
  -17.3394   -4.2083    4.2561 H   0  0  0  0  0
  -16.4391   -0.8390    4.2504 H   0  0  0  0  0
  -16.8722   -2.2968    5.1496 H   0  0  0  0  0
  -19.2140   -8.0445    2.3270 H   0  0  0  0  0
  -19.1581   -8.2428    5.2999 H   0  0  0  0  0
  -20.8960   -9.9533    5.2814 H   0  0  0  0  0
  -22.1139  -10.2216    3.2990 H   0  0  0  0  0
  -21.5636   -7.6331    5.6970 H   0  0  0  0  0
  -21.7849   -7.3695    3.9498 H   0  0  0  0  0
  -22.8414   -8.5093    4.8191 H   0  0  0  0  0
  -18.7635  -10.5723    5.9713 H   0  0  0  0  0
  -17.6963  -12.3123    3.8660 H   0  0  0  0  0
  -15.6938  -11.0055    4.3783 H   0  0  0  0  0
  -15.8749  -11.3733    6.1112 H   0  0  0  0  0
  -15.5093  -12.6793    4.9572 H   0  0  0  0  0
  -17.6047  -14.4525    4.4698 H   0  0  0  0  0
  -18.9970  -15.3459    6.8681 H   0  0  0  0  0
  -17.1727  -16.8869    5.0536 H   0  0  0  0  0
  -18.9590  -16.5238    4.7243 H   0  0  0  0  0
  -19.5301  -17.8369    6.6564 H   0  0  0  0  0
  -17.8227  -18.1984    6.9460 H   0  0  0  0  0
  -17.6161  -19.2994    4.8156 H   0  0  0  0  0
  -19.3017  -18.7967    4.3659 H   0  0  0  0  0
  -18.4812  -20.9951    6.1375 H   0  0  0  0  0
  -22.3365  -20.0871    5.2959 H   0  0  0  0  0
  -21.0615  -18.9472    4.8529 H   0  0  0  0  0
  -20.1125  -22.4407    6.7011 H   0  0  0  0  0
  -18.1652  -15.8221    8.8363 H   0  0  0  0  0
  -15.2432  -15.4459    9.0743 H   0  0  0  0  0
  -17.3050  -15.4303   11.3196 H   0  0  0  0  0
  -16.7470  -13.9597   10.4521 H   0  0  0  0  0
  -14.6045  -14.1062   11.3353 H   0  0  0  0  0
  -14.7823  -15.8366   11.7387 H   0  0  0  0  0
  -14.8894  -14.3413   13.7645 H   0  0  0  0  0
  -16.3349  -15.2986   13.5485 H   0  0  0  0  0
  -17.5625  -13.5668   12.6940 H   0  0  0  0  0
  -16.0074  -12.6082   12.2651 H   0  0  0  0  0
  -15.1384  -13.1161   15.3202 H   0  0  0  0  0
  -14.7619  -11.6720   14.3488 H   0  0  0  0  0
  -15.7252  -11.5167   15.8384 H   0  0  0  0  0
  -16.5395  -10.5869   13.0408 H   0  0  0  0  0
  -18.2137  -11.1761   13.1856 H   0  0  0  0  0
  -17.4281  -10.3775   14.5698 H   0  0  0  0  0
  -18.7289  -13.0944   14.5301 H   0  0  0  0  0
  -17.4398  -13.9824   15.3790 H   0  0  0  0  0
  -17.9441  -12.3757   15.9579 H   0  0  0  0  0
  -13.9382  -17.0513    9.7528 H   0  0  0  0  0
  -15.3552  -19.5631   10.5826 H   0  0  0  0  0
  -15.0833  -19.7081   12.5917 H   0  0  0  0  0
  -14.2970  -19.8786    8.4487 H   0  0  0  0  0
  -13.3377  -20.7609    9.6958 H   0  0  0  0  0
  -12.0259  -19.5633    8.2294 H   0  0  0  0  0
  1  2  1  0  0  0
  2  3  1  0  0  0
  2  5  1  0  0  0
  3  4  2  0  0  0
  3 10  1  0  0  0
  5  6  1  0  0  0
  6  7  1  0  0  0
  7  8  2  0  0  0
  7  9  1  0  0  0
 10 11  1  0  0  0
 11 12  1  0  0  0
 11 14  1  0  0  0
 12 13  2  0  0  0
 12 17  1  0  0  0
 14 15  1  0  0  0
 14 16  1  0  0  0
 17 18  1  0  0  0
 18 19  1  0  0  0
 18 21  1  0  0  0
 19 20  2  0  0  0
 19 22  1  0  0  0
 22 23  1  0  0  0
 23 24  1  0  0  0
 23 26  1  0  0  0
 24 25  2  0  0  0
 24 33  1  0  0  0
 26 27  1  0  0  0
 27 28  1  0  0  0
 28 29  1  0  0  0
 29 30  1  0  0  0
 30 31  1  0  0  0
 30 32  2  0  0  0
 33 34  1  0  0  0
 34 35  1  0  0  0
 34 40  1  0  0  0
 35 36  1  0  0  0
 36 37  1  0  0  0
 37 38  1  0  0  0
 38 39  1  0  0  0
 39 42  1  0  0  0
 39 43  1  0  0  0
 39 44  1  0  0  0
 40 41  2  0  0  0
 40 45  1  0  0  0
 45 46  1  0  0  0
 46 47  1  0  0  0
 46 49  1  0  0  0
 47 48  1  0  0  0
 47 51  2  0  0  0
 49 50  1  0  0  0
  1 52  1  0  0  0
  1 53  1  0  0  0
  1 54  1  0  0  0
  2 55  1  0  0  0
  5 56  1  0  0  0
  5 57  1  0  0  0
  6 58  1  0  0  0
  6 59  1  0  0  0
  9 60  1  0  0  0
  9 61  1  0  0  0
 10 62  1  0  0  0
 11 63  1  0  0  0
 14 64  1  0  0  0
 15 65  1  0  0  0
 16 66  1  0  0  0
 16 67  1  0  0  0
 16 68  1  0  0  0
 17 69  1  0  0  0
 18 70  1  0  0  0
 21 71  1  0  0  0
 21 72  1  0  0  0
 21 73  1  0  0  0
 22 74  1  0  0  0
 23 75  1  0  0  0
 26 76  1  0  0  0
 26 77  1  0  0  0
 27 78  1  0  0  0
 27 79  1  0  0  0
 28 80  1  0  0  0
 28 81  1  0  0  0
 29 82  1  0  0  0
 31 83  1  0  0  0
 31 84  1  0  0  0
 32 85  1  0  0  0
 33 86  1  0  0  0
 34 87  1  0  0  0
 35 88  1  0  0  0
 35 89  1  0  0  0
 36 90  1  0  0  0
 36 91  1  0  0  0
 37 92  1  0  0  0
 37 93  1  0  0  0
 38 94  1  0  0  0
 38 95  1  0  0  0
 42 96  1  0  0  0
 42 97  1  0  0  0
 42 98  1  0  0  0
 43 99  1  0  0  0
 43100  1  0  0  0
 43101  1  0  0  0
 44102  1  0  0  0
 44103  1  0  0  0
 44104  1  0  0  0
 45105  1  0  0  0
 46106  1  0  0  0
 48107  1  0  0  0
 49108  1  0  0  0
 49109  1  0  0  0
 50110  1  0  0  0
M  END
$$$$
