### 
### Created by X-TOOL on Mon Sep 10 21:13:34 2018
### 

@<TRIPOS>MOLECULE
6asz_ligand
  110   109     1     0     0
SMALL
GAST_HUCK


@<TRIPOS>ATOM
      1 N         -20.4370   -5.5390    1.6310 N.4       1 GLN         0.2380
      2 CA        -19.1510   -5.5160    2.3230 C.3       1 GLN         0.0671
      3 C         -19.1790   -6.4250    3.5510 C.2       1 GLN         0.2269
      4 O         -19.1280   -5.9690    4.7020 O.2       1 GLN        -0.3907
      5 CB        -18.7950   -4.0920    2.7160 C.3       1 GLN         0.0247
      6 CG        -17.3790   -3.9080    3.2090 C.3       1 GLN         0.0443
      7 CD        -16.9320   -2.4660    3.1110 C.2       1 GLN         0.1738
      8 OE1       -16.7780   -1.9360    2.0140 O.2       1 GLN        -0.3973
      9 NE2       -16.7320   -1.8160    4.2610 N.am      1 GLN        -0.3009
     10 N         -19.2580   -7.7290    3.2960 N.am      1 THR        -0.2586
     11 CA        -19.4050   -8.7210    4.3520 C.3       1 THR         0.1566
     12 C         -18.4640   -9.8830    4.0780 C.2       1 THR         0.2065
     13 O         -17.8880   -9.9990    2.9940 O.2       1 THR        -0.3943
     14 CB        -20.8480   -9.2430    4.4560 C.3       1 THR         0.0924
     15 OG1       -21.2130   -9.8970    3.2310 O.3       1 THR        -0.3874
     16 CG2       -21.8310   -8.1060    4.7520 C.3       1 THR        -0.0346
     17 N         -18.3220  -10.7590    5.0710 N.am      1 ALA        -0.2639
     18 CA        -17.5470  -11.9790    4.8930 C.3       1 ALA         0.1282
     19 C         -18.0270  -13.0440    5.8620 C.2       1 ALA         0.2036
     20 O         -18.5170  -12.7470    6.9560 O.2       1 ALA        -0.3944
     21 CB        -16.0470  -11.7420    5.1000 C.3       1 ALA        -0.0244
     22 N         -17.8730  -14.2940    5.4410 N.am      1 ARG        -0.2637
     23 CA        -18.0700  -15.4430    6.3030 C.3       1 ARG         0.1311
     24 C         -16.9010  -15.5210    7.2790 C.2       1 ARG         0.2039
     25 O         -15.7530  -15.3850    6.8850 O.2       1 ARG        -0.3944
     26 CB        -18.1710  -16.7100    5.4540 C.3       1 ARG        -0.0092
     27 CG        -18.5600  -17.9680    6.1770 C.3       1 ARG        -0.0156
     28 CD        -18.6290  -19.1030    5.1670 C.3       1 ARG         0.0627
     29 NE        -19.1490  -20.3350    5.7390 N.pl3     1 ARG        -0.2723
     30 CZ        -20.4370  -20.6560    5.7760 C.cat     1 ARG         0.2882
     31 NH1       -21.3490  -19.8330    5.2690 N.pl3     1 ARG        -0.2849
     32 NH2       -20.8120  -21.8060    6.3160 N.pl3     1 ARG        -0.2849
     33 N         -17.1900  -15.7260    8.5530 N.am      1 M3L        -0.2637
     34 CA        -16.1530  -15.8160    9.5470 C.3       1 M3L         0.1309
     35 CB        -16.4800  -14.9640   10.7810 C.3       1 M3L        -0.0122
     36 CG        -15.2870  -14.8710   11.7060 C.3       1 M3L        -0.0440
     37 CD        -15.7430  -14.4980   13.1050 C.3       1 M3L        -0.0123
     38 CE        -16.5630  -13.2290   12.9680 C.3       1 M3L        -0.0309
     39 NZ        -16.7650  -12.3550   14.1890 N.4       1 M3L         0.2369
     40 C         -15.9530  -17.2480   10.0070 C.2       1 M3L         0.2034
     41 O         -16.8840  -17.9790   10.3330 O.2       1 M3L        -0.3944
     42 CM1       -15.5120  -12.1510   14.9780 C.3       1 M3L        -0.0418
     43 CM2       -17.2710  -11.0340   13.7140 C.3       1 M3L        -0.0418
     44 CM3       -17.7900  -12.9960   15.0750 C.3       1 M3L        -0.0418
     45 N         -14.6970  -17.6780   10.0210 N.am      1 SER        -0.2672
     46 CA        -14.4060  -19.0520   10.4220 C.3       1 SER         0.1173
     47 C         -13.6290  -19.0920   11.7340 C.2       1 SER         0.0623
     48 O         -14.1710  -19.4720   12.7750 O.co2     1 SER        -0.5665
     49 CB        -13.6420  -19.7860    9.3150 C.3       1 SER         0.0789
     50 OG        -12.4780  -19.0760    8.9220 O.3       1 SER        -0.3910
     51 OXT       -12.4460  -18.7450   11.7760 O.co2     1 SER        -0.5665
     52 H1        -20.3962   -4.9338    0.8259 H         1 GLN         0.2015
     53 H2        -21.1605   -5.2188    2.2556 H         1 GLN         0.2015
     54 H3        -20.6419   -6.4801    1.3338 H         1 GLN         0.2015
     55 H4        -18.3791   -5.8899    1.6343 H         1 GLN         0.1100
     56 H5        -19.4801   -3.7761    3.5165 H         1 GLN         0.0370
     57 H6        -18.9376   -3.4479    1.8358 H         1 GLN         0.0370
     58 H7        -16.7066   -4.5311    2.6010 H         1 GLN         0.0506
     59 H8        -17.3239   -4.2270    4.2603 H         1 GLN         0.0506
     60 H9        -16.4360   -0.8609    4.2505 H         1 GLN         0.1814
     61 H10       -16.8783   -2.2846    5.1322 H         1 GLN         0.1814
     62 H11       -19.2149   -8.0383    2.3460 H         1 THR         0.1885
     63 H12       -19.1322   -8.2555    5.3106 H         1 THR         0.0826
     64 H13       -20.8989   -9.9723    5.2779 H         1 THR         0.0639
     65 H14       -20.6237  -10.6255    3.0745 H         1 THR         0.2101
     66 H15       -22.8512   -8.5117    4.8200 H         1 THR         0.0257
     67 H16       -21.7855   -7.3620    3.9431 H         1 THR         0.0257
     68 H17       -21.5623   -7.6279    5.7055 H         1 THR         0.0257
     69 H18       -18.7548  -10.5759    5.9537 H         1 ALA         0.1883
     70 H19       -17.7025  -12.3392    3.8654 H         1 ALA         0.0797
     71 H20       -15.5032  -12.6873    4.9562 H         1 ALA         0.0277
     72 H21       -15.8719  -11.3699    6.1202 H         1 ALA         0.0277
     73 H22       -15.6893  -10.9988    4.3722 H         1 ALA         0.0277
     74 H23       -17.6099  -14.4494    4.4888 H         1 ARG         0.1883
     75 H24       -19.0045  -15.3194    6.8700 H         1 ARG         0.0800
     76 H25       -17.1887  -16.8810    4.9894 H         1 ARG         0.0313
     77 H26       -18.9210  -16.5289    4.6700 H         1 ARG         0.0313
     78 H27       -19.5429  -17.8340    6.6524 H         1 ARG         0.0301
     79 H28       -17.8093  -18.2011    6.9464 H         1 ARG         0.0301
     80 H29       -17.6161  -19.2939    4.7829 H         1 ARG         0.0689
     81 H30       -19.2838  -18.7966    4.3380 H         1 ARG         0.0689
     82 H31       -18.4747  -21.0015    6.1414 H         1 ARG         0.2642
     83 H32       -22.3466  -20.0874    5.3006 H         1 ARG         0.2615
     84 H33       -21.0583  -18.9407    4.8445 H         1 ARG         0.2615
     85 H34       -20.1061  -22.4447    6.7093 H         1 ARG         0.2615
     86 H35       -21.8095  -22.0615    6.3426 H         1 ARG         0.2615
     87 H36       -18.1460  -15.8202    8.8307 H         1 M3L         0.1883
     88 H37       -15.2163  -15.4508    9.1006 H         1 M3L         0.0800
     89 H38       -17.3204  -15.4227   11.3226 H         1 M3L         0.0312
     90 H39       -16.7624  -13.9521   10.4551 H         1 M3L         0.0312
     91 H40       -14.5947  -14.1026   11.3315 H         1 M3L         0.0269
     92 H41       -14.7736  -15.8433   11.7373 H         1 M3L         0.0269
     93 H42       -14.8725  -14.3195   13.7533 H         1 M3L         0.0317
     94 H43       -16.3586  -15.3038   13.5313 H         1 M3L         0.0317
     95 H44       -17.5614  -13.5258   12.6142 H         1 M3L         0.0815
     96 H45       -16.0727  -12.6082   12.2037 H         1 M3L         0.0815
     97 H46       -15.7258  -11.5109   15.8467 H         1 M3L         0.0778
     98 H47       -14.7541  -11.6676   14.3441 H         1 M3L         0.0778
     99 H48       -15.1340  -13.1243   15.3240 H         1 M3L         0.0778
    100 H49       -18.1933  -11.1820   13.1330 H         1 M3L         0.0778
    101 H50       -16.5102  -10.5567   13.0789 H         1 M3L         0.0778
    102 H51       -17.4826  -10.3895   14.5799 H         1 M3L         0.0778
    103 H52       -17.4155  -13.9695   15.4242 H         1 M3L         0.0778
    104 H53       -18.7224  -13.1431   14.5102 H         1 M3L         0.0778
    105 H54       -17.9843  -12.3459   15.9408 H         1 M3L         0.0778
    106 H55       -13.9531  -17.0636    9.7580 H         1 SER         0.1876
    107 H56       -15.3633  -19.5708   10.5784 H         1 SER         0.0749
    108 H57       -14.3015  -19.9005    8.4421 H         1 SER         0.0599
    109 H58       -13.3463  -20.7792    9.6840 H         1 SER         0.0599
    110 H59       -12.7261  -18.2185    8.5971 H         1 SER         0.2096
@<TRIPOS>BOND
     1    1    2 1  
     2    2    3 1  
     3    2    5 1  
     4    3    4 2  
     5    3   10 am 
     6    5    6 1  
     7    6    7 1  
     8    7    8 2  
     9    7    9 am 
    10   10   11 1  
    11   11   12 1  
    12   11   14 1  
    13   12   13 2  
    14   12   17 am 
    15   14   15 1  
    16   14   16 1  
    17   17   18 1  
    18   18   19 1  
    19   18   21 1  
    20   19   20 2  
    21   19   22 am 
    22   22   23 1  
    23   23   24 1  
    24   23   26 1  
    25   24   25 2  
    26   24   33 am 
    27   26   27 1  
    28   27   28 1  
    29   28   29 1  
    30   29   30 ar 
    31   30   31 ar 
    32   30   32 ar 
    33   33   34 1  
    34   34   35 1  
    35   34   40 1  
    36   35   36 1  
    37   36   37 1  
    38   37   38 1  
    39   38   39 1  
    40   39   42 1  
    41   39   43 1  
    42   39   44 1  
    43   40   41 2  
    44   40   45 am 
    45   45   46 1  
    46   46   47 1  
    47   46   49 1  
    48   47   48 ar 
    49   47   51 ar 
    50   49   50 1  
    51    1   52 1  
    52    1   53 1  
    53    1   54 1  
    54    2   55 1  
    55    5   56 1  
    56    5   57 1  
    57    6   58 1  
    58    6   59 1  
    59    9   60 1  
    60    9   61 1  
    61   10   62 1  
    62   11   63 1  
    63   14   64 1  
    64   15   65 1  
    65   16   66 1  
    66   16   67 1  
    67   16   68 1  
    68   17   69 1  
    69   18   70 1  
    70   21   71 1  
    71   21   72 1  
    72   21   73 1  
    73   22   74 1  
    74   23   75 1  
    75   26   76 1  
    76   26   77 1  
    77   27   78 1  
    78   27   79 1  
    79   28   80 1  
    80   28   81 1  
    81   29   82 1  
    82   31   83 1  
    83   31   84 1  
    84   32   85 1  
    85   32   86 1  
    86   33   87 1  
    87   34   88 1  
    88   35   89 1  
    89   35   90 1  
    90   36   91 1  
    91   36   92 1  
    92   37   93 1  
    93   37   94 1  
    94   38   95 1  
    95   38   96 1  
    96   42   97 1  
    97   42   98 1  
    98   42   99 1  
    99   43  100 1  
   100   43  101 1  
   101   43  102 1  
   102   44  103 1  
   103   44  104 1  
   104   44  105 1  
   105   45  106 1  
   106   46  107 1  
   107   49  108 1  
   108   49  109 1  
   109   50  110 1  
@<TRIPOS>SUBSTRUCTURE
     1 GLN         1

