3uii_ligand
  -I-interpret- 

 73 72  0  0  0  0  0  0  0  0999 V2000
   35.5090  -14.0850    1.3210 N   0  3  0  0  0
   34.5820  -13.1260    0.6340 C   0  0  0  0  0
   35.2990  -12.2210   -0.3730 C   0  0  0  0  0
   36.5110  -12.0080   -0.2820 O   0  0  0  0  0
   33.8260  -12.2920    1.6520 C   0  0  0  0  0
   34.5380  -11.6940   -1.3300 N   0  0  0  0  0
   35.0800  -10.8300   -2.3800 C   0  0  0  0  0
   34.1640   -9.6170   -2.5950 C   0  0  0  0  0
   32.9710   -9.6790   -2.2880 O   0  0  0  0  0
   35.2890  -11.6290   -3.6920 C   0  0  0  0  0
   34.0360  -11.7970   -4.5780 C   0  0  0  0  0
   34.2570  -12.7470   -5.7610 C   0  0  0  0  0
   33.6230  -14.0550   -5.5630 N   0  0  0  0  0
   32.4170  -14.3940   -6.0260 C   0  0  0  0  0
   31.9270  -15.6090   -5.7950 N   0  0  0  0  0
   31.6930  -13.5220   -6.7230 N   0  0  0  0  0
   34.7160   -8.5280   -3.1330 N   0  0  0  0  0
   33.9330   -7.3250   -3.4460 C   0  0  0  0  0
   32.8540   -7.6020   -4.5080 C   0  0  0  0  0
   32.9460   -8.5730   -5.2650 O   0  0  0  0  0
   34.8370   -6.1510   -3.9190 C   0  0  0  0  0
   36.1550   -6.2840   -3.3670 O   0  0  0  0  0
   34.2470   -4.8040   -3.4930 C   0  0  0  0  0
   31.8320   -6.7530   -4.5480 N   0  0  0  0  0
   30.7670   -6.8620   -5.5340 C   0  0  0  0  0
   31.2760   -6.4110   -6.9040 C   0  0  0  0  0
   31.0560   -7.0800   -7.9160 O   0  0  0  0  0
   29.5760   -6.0030   -5.0950 C   0  0  0  0  0
   28.3140   -6.1640   -5.9230 C   0  0  0  0  0
   27.3360   -5.0510   -5.6170 C   0  0  0  0  0
   26.3830   -4.8160   -6.7840 C   0  0  0  0  0
   25.5240   -3.6140   -6.5500 N   0  3  0  0  0
   31.9190   -5.3670   -7.0310 O   0  0  0  0  0
   36.0069  -14.6352    0.6211 H   0  0  0  0  0
   36.1797  -13.5628    1.8848 H   0  0  0  0  0
   34.9685  -14.7067    1.9225 H   0  0  0  0  0
   33.8740  -13.7296    0.0662 H   0  0  0  0  0
   34.5267  -11.6508    2.1868 H   0  0  0  0  0
   33.0872  -11.6764    1.1388 H   0  0  0  0  0
   33.3231  -12.9519    2.3589 H   0  0  0  0  0
   33.5391  -11.9002   -1.3316 H   0  0  0  0  0
   36.0556  -10.4601   -2.0646 H   0  0  0  0  0
   35.5964  -12.6324   -3.3975 H   0  0  0  0  0
   36.0132  -11.0687   -4.2834 H   0  0  0  0  0
   33.7839  -10.8171   -4.9834 H   0  0  0  0  0
   33.2463  -12.2201   -3.9571 H   0  0  0  0  0
   35.3301  -12.9076   -5.8652 H   0  0  0  0  0
   33.8121  -12.2899   -6.6449 H   0  0  0  0  0
   34.1407  -14.7563   -5.0334 H   0  0  0  0  0
   32.4728  -16.2862   -5.2623 H   0  0  0  0  0
   30.7729  -13.7881   -7.0738 H   0  0  0  0  0
   32.0581  -12.5874   -6.9065 H   0  0  0  0  0
   35.7160   -8.5308   -3.3339 H   0  0  0  0  0
   33.4418   -7.0348   -2.5173 H   0  0  0  0  0
   34.8912   -6.1874   -5.0070 H   0  0  0  0  0
   36.7014   -5.5538   -3.6667 H   0  0  0  0  0
   33.2575   -4.6862   -3.9348 H   0  0  0  0  0
   34.1674   -4.7710   -2.4064 H   0  0  0  0  0
   34.8975   -3.9992   -3.8356 H   0  0  0  0  0
   31.7927   -5.9981   -3.8632 H   0  0  0  0  0
   30.4460   -7.9009   -5.6101 H   0  0  0  0  0
   30.5502   -7.8606   -7.6785 H   0  0  0  0  0
   29.8868   -4.9637   -5.2016 H   0  0  0  0  0
   29.3244   -6.3158   -4.0816 H   0  0  0  0  0
   27.8503   -7.1202   -5.6807 H   0  0  0  0  0
   28.5761   -6.1252   -6.9803 H   0  0  0  0  0
   27.8979   -4.1344   -5.4374 H   0  0  0  0  0
   26.7507   -5.3337   -4.7420 H   0  0  0  0  0
   25.7382   -5.6888   -6.8868 H   0  0  0  0  0
   26.9725   -4.6511   -7.6859 H   0  0  0  0  0
   24.8994   -3.4838   -7.3458 H   0  0  0  0  0
   24.9730   -3.7511   -5.7027 H   0  0  0  0  0
   26.1159   -2.7903   -6.4425 H   0  0  0  0  0
  1  2  1  0  0  0
  2  3  1  0  0  0
  2  5  1  0  0  0
  3  4  2  0  0  0
  3  6  1  0  0  0
  6  7  1  0  0  0
  7  8  1  0  0  0
  7 10  1  0  0  0
  8  9  2  0  0  0
  8 17  1  0  0  0
 10 11  1  0  0  0
 11 12  1  0  0  0
 12 13  1  0  0  0
 13 14  1  0  0  0
 14 15  2  0  0  0
 14 16  1  0  0  0
 17 18  1  0  0  0
 18 19  1  0  0  0
 18 21  1  0  0  0
 19 20  2  0  0  0
 19 24  1  0  0  0
 21 22  1  0  0  0
 21 23  1  0  0  0
 24 25  1  0  0  0
 25 26  1  0  0  0
 25 28  1  0  0  0
 26 27  1  0  0  0
 26 33  2  0  0  0
 28 29  1  0  0  0
 29 30  1  0  0  0
 30 31  1  0  0  0
 31 32  1  0  0  0
  1 34  1  0  0  0
  1 35  1  0  0  0
  1 36  1  0  0  0
  2 37  1  0  0  0
  5 38  1  0  0  0
  5 39  1  0  0  0
  5 40  1  0  0  0
  6 41  1  0  0  0
  7 42  1  0  0  0
 10 43  1  0  0  0
 10 44  1  0  0  0
 11 45  1  0  0  0
 11 46  1  0  0  0
 12 47  1  0  0  0
 12 48  1  0  0  0
 13 49  1  0  0  0
 15 50  1  0  0  0
 16 51  1  0  0  0
 16 52  1  0  0  0
 17 53  1  0  0  0
 18 54  1  0  0  0
 21 55  1  0  0  0
 22 56  1  0  0  0
 23 57  1  0  0  0
 23 58  1  0  0  0
 23 59  1  0  0  0
 24 60  1  0  0  0
 25 61  1  0  0  0
 27 62  1  0  0  0
 28 63  1  0  0  0
 28 64  1  0  0  0
 29 65  1  0  0  0
 29 66  1  0  0  0
 30 67  1  0  0  0
 30 68  1  0  0  0
 31 69  1  0  0  0
 31 70  1  0  0  0
 32 71  1  0  0  0
 32 72  1  0  0  0
 32 73  1  0  0  0
M  END
$$$$
