6g9n_ligand
  -I-interpret- 

 71 75  0  0  0  0  0  0  0  0999 V2000
    1.5360   10.2120   45.1560 C   0  0  0  0  0
    2.1630    8.8790   45.5470 C   0  0  0  0  0
    5.8280    9.5070   45.4570 C   0  0  0  0  0
    7.0500   10.1450   45.4320 C   0  0  0  0  0
    8.1930    9.4340   45.1330 C   0  0  0  0  0
    8.1390    8.0690   44.8210 C   0  0  0  0  0
    5.7550    8.1440   45.1850 C   0  0  0  0  0
    4.3340    7.7320   45.2350 C   0  0  0  0  0
    9.4080    7.3440   44.5650 C   0  0  0  0  0
   11.4820    7.4650   43.6240 C   0  0  0  0  0
   13.1450   11.4630   41.1950 C   0  0  0  0  0
   11.1820   10.5790   40.1970 C   0  0  0  0  0
   11.3350    9.2780   40.9540 C   0  0  0  0  0
   10.9800    5.5850   44.7780 C   0  0  0  0  0
    9.7240    6.0880   45.0720 C   0  0  0  0  0
    1.7780    8.4960   46.9770 C   0  0  0  0  0
   -1.0690    6.7740   48.2000 C   0  0  0  0  0
   -1.8960   10.0600   51.0590 C   0  0  0  0  0
   -2.3110   11.1430   50.3000 C   0  0  0  0  0
   -2.0360   11.2110   48.9400 C   0  0  0  0  0
   -2.4540   12.4050   48.1200 C   0  0  0  0  0
   -1.3140   10.1740   48.3650 C   0  0  0  0  0
    3.6120    8.8830   45.4090 N   0  0  0  0  0
    4.4520   10.0420   45.7160 C   0  0  0  0  0
    6.8980    7.4230   44.8470 C   0  0  0  0  0
    3.8570    6.6140   45.1400 O   0  0  0  0  0
   10.2870    8.0370   43.8360 N   0  0  0  0  0
   12.3650    8.1710   42.8740 N   0  0  0  0  0
   12.1140    9.4720   42.2450 C   0  0  0  0  0
   13.4160   10.1990   41.9720 C   0  0  0  0  0
   12.4520   11.1980   39.9580 O   0  0  0  0  0
   11.8750    6.2600   44.0610 N   0  0  0  0  0
    8.6500    5.1350   46.0400 Cl  0  0  0  0  0
    2.6300    8.3420   47.8530 O   0  0  0  0  0
    0.4700    8.3530   47.1760 N   0  0  0  0  0
   -0.1300    7.9400   48.4490 C   0  0  0  0  0
   -2.0920    7.1180   47.3020 O   0  0  0  0  0
   -0.8850    9.0770   49.1110 C   0  0  0  0  0
   -1.1940    9.0250   50.4640 C   0  0  0  0  0
    0.4506   10.1340   45.2193 H   0  0  0  0  0
    1.8859   10.9897   45.8349 H   0  0  0  0  0
    1.8246   10.4623   44.1351 H   0  0  0  0  0
    1.7686    8.1351   44.8547 H   0  0  0  0  0
    7.1126   11.2114   45.6486 H   0  0  0  0  0
    9.1566    9.9434   45.1395 H   0  0  0  0  0
   14.1013   11.9289   40.9572 H   0  0  0  0  0
   12.5165   12.1109   41.8060 H   0  0  0  0  0
   10.5735   11.2576   40.7948 H   0  0  0  0  0
   10.7142   10.3669   39.2356 H   0  0  0  0  0
   11.8801    8.5746   40.3245 H   0  0  0  0  0
   10.3416    8.9050   41.2032 H   0  0  0  0  0
   11.2466    4.5954   45.1491 H   0  0  0  0  0
   -1.5243    6.4894   49.1486 H   0  0  0  0  0
   -0.4939    5.9541   47.7697 H   0  0  0  0  0
   -2.1222   10.0229   52.1246 H   0  0  0  0  0
   -2.8615   11.9536   50.7775 H   0  0  0  0  0
   -3.5376   12.5137   48.1650 H   0  0  0  0  0
   -1.9807   13.3020   48.5193 H   0  0  0  0  0
   -2.1448   12.2595   47.0849 H   0  0  0  0  0
   -1.0762   10.2186   47.3022 H   0  0  0  0  0
    4.2108   10.9206   45.1177 H   0  0  0  0  0
    4.3181   10.4154   46.7312 H   0  0  0  0  0
    6.8262    6.3628   44.6044 H   0  0  0  0  0
   13.2878    7.7594   42.7348 H   0  0  0  0  0
   11.5241   10.0818   42.9293 H   0  0  0  0  0
   13.8908   10.4542   42.9194 H   0  0  0  0  0
   14.0732    9.5531   41.3898 H   0  0  0  0  0
   -0.1554    8.5428   46.3929 H   0  0  0  0  0
    0.6720    7.6420   49.1243 H   0  0  0  0  0
   -2.6660    6.3604   47.1672 H   0  0  0  0  0
   -0.8830    8.1667   51.0596 H   0  0  0  0  0
  2  1  1  0  0  0
 16  2  1  0  0  0
  2 23  1  0  0  0
  3  4  4  0  0  0
  3  7  4  0  0  0
 24  3  1  0  0  0
  4  5  4  0  0  0
  5  6  4  0  0  0
  6  9  1  0  0  0
 25  6  4  0  0  0
  8  7  1  0  0  0
  7 25  4  0  0  0
 23  8  1  0  0  0
  8 26  2  0  0  0
  9 15  4  0  0  0
  9 27  4  0  0  0
 27 10  4  0  0  0
 10 28  1  0  0  0
 10 32  4  0  0  0
 30 11  1  0  0  0
 11 31  1  0  0  0
 13 12  1  0  0  0
 12 31  1  0  0  0
 29 13  1  0  0  0
 15 14  4  0  0  0
 14 32  4  0  0  0
 15 33  1  0  0  0
 16 34  2  0  0  0
 35 16  1  0  0  0
 36 17  1  0  0  0
 17 37  1  0  0  0
 19 18  4  0  0  0
 18 39  4  0  0  0
 20 19  4  0  0  0
 20 21  1  0  0  0
 22 20  4  0  0  0
 38 22  4  0  0  0
 23 24  1  0  0  0
 28 29  1  0  0  0
 29 30  1  0  0  0
 36 35  1  0  0  0
 36 38  1  0  0  0
 38 39  4  0  0  0
  1 40  1  0  0  0
  1 41  1  0  0  0
  1 42  1  0  0  0
  2 43  1  0  0  0
  4 44  1  0  0  0
  5 45  1  0  0  0
 11 46  1  0  0  0
 11 47  1  0  0  0
 12 48  1  0  0  0
 12 49  1  0  0  0
 13 50  1  0  0  0
 13 51  1  0  0  0
 14 52  1  0  0  0
 17 53  1  0  0  0
 17 54  1  0  0  0
 18 55  1  0  0  0
 19 56  1  0  0  0
 21 57  1  0  0  0
 21 58  1  0  0  0
 21 59  1  0  0  0
 22 60  1  0  0  0
 24 61  1  0  0  0
 24 62  1  0  0  0
 25 63  1  0  0  0
 28 64  1  0  0  0
 29 65  1  0  0  0
 30 66  1  0  0  0
 30 67  1  0  0  0
 35 68  1  0  0  0
 36 69  1  0  0  0
 37 70  1  0  0  0
 39 71  1  0  0  0
M  END
$$$$
