1bmm_ligand
  -I-interpret- 

 67 69  0  0  0  0  0  0  0  0999 V2000
   10.9130   47.9230   22.0170 C   0  0  0  0  0
   11.3460   48.8200   21.1460 C   0  0  0  0  0
   12.8900   50.4720   20.8230 C   0  0  0  0  0
   13.9140   51.1740   21.4530 C   0  0  0  0  0
   14.3090   51.1210   22.8050 C   0  0  0  0  0
   13.6510   50.3150   23.6070 C   0  0  0  0  0
   12.1090   48.6970   23.6530 C   0  0  0  0  0
   11.3060   47.9150   23.1990 C   0  0  0  0  0
   12.2510   49.6820   21.6080 C   0  0  0  0  0
   12.6360   49.6140   22.9540 C   0  0  0  0  0
    9.9810   46.5140   21.7150 S   0  0  0  0  0
    8.6800   46.8860   21.1350 O   0  0  0  0  0
    9.5740   45.9630   22.9530 O   0  0  0  0  0
   10.6350   45.5750   20.9180 N   0  0  0  0  0
   11.5470   44.8970   21.3590 C   0  0  0  0  0
   11.8980   43.6900   20.5610 C   0  0  0  0  0
   10.6850   43.0680   20.4350 O   0  0  0  0  0
   12.6480   45.7050   20.9680 C   0  0  0  0  0
   12.5100   46.1940   19.7730 O   0  0  0  0  0
   13.7350   45.6210   21.8180 N   0  0  0  0  0
   13.7420   45.0740   23.2630 C   0  0  0  0  0
   15.0590   44.5900   23.3910 C   0  0  0  0  0
   15.6000   45.6250   22.6470 C   0  0  0  0  0
   14.9560   45.9150   21.4080 C   0  0  0  0  0
   15.4120   44.9070   20.5350 C   0  0  0  0  0
   15.1800   44.7030   19.0280 N   0  0  0  0  0
   14.8680   43.5620   18.2060 C   0  0  0  0  0
   14.8240   42.2270   18.4340 O   0  0  0  0  0
   14.6200   43.7730   16.9250 C   0  0  0  0  0
   13.1260   43.7070   16.8620 C   0  0  0  0  0
   12.7030   43.7500   15.5350 C   0  0  0  0  0
   11.4210   43.7390   15.3540 N   0  0  0  0  0
   10.8980   44.0430   14.1690 C   0  0  0  0  0
   11.7210   44.2910   13.2180 N   0  0  0  0  0
    9.6950   43.9820   14.1280 N   0  0  0  0  0
   10.9859   48.8517   20.1177 H   0  0  0  0  0
   12.6534   50.5824   19.7647 H   0  0  0  0  0
   14.4841   51.8525   20.8185 H   0  0  0  0  0
   15.1346   51.7298   23.1736 H   0  0  0  0  0
   13.8738   50.2055   24.6684 H   0  0  0  0  0
   12.3902   48.6102   24.7025 H   0  0  0  0  0
   10.9003   47.1548   23.8666 H   0  0  0  0  0
   10.3448   45.4532   19.9478 H   0  0  0  0  0
   11.3166   44.6212   22.3881 H   0  0  0  0  0
   12.6557   43.0655   21.0343 H   0  0  0  0  0
   12.3630   43.9261   19.6039 H   0  0  0  0  0
   10.7920   42.2604   19.9272 H   0  0  0  0  0
   12.9842   44.3102   23.4374 H   0  0  0  0  0
   13.4859   45.8264   24.0089 H   0  0  0  0  0
   15.2628   43.5680   23.0714 H   0  0  0  0  0
   15.4482   44.4228   24.3953 H   0  0  0  0  0
   16.6165   45.3208   22.3973 H   0  0  0  0  0
   15.5016   46.5223   23.2580 H   0  0  0  0  0
   15.0830   46.8870   20.9313 H   0  0  0  0  0
   14.8614   44.0526   20.9285 H   0  0  0  0  0
   16.4797   45.1263   20.5340 H   0  0  0  0  0
   15.2662   45.5668   18.4924 H   0  0  0  0  0
   15.1049   43.0461   16.2734 H   0  0  0  0  0
   15.0185   44.7219   16.5661 H   0  0  0  0  0
   12.7063   44.5570   17.4000 H   0  0  0  0  0
   12.7886   42.7753   17.3161 H   0  0  0  0  0
   13.0899   42.8494   15.0583 H   0  0  0  0  0
   13.0645   44.6935   15.1261 H   0  0  0  0  0
   10.8047   43.4944   16.1291 H   0  0  0  0  0
   11.3730   44.4693   12.2759 H   0  0  0  0  0
   12.7238   44.3100   13.4034 H   0  0  0  0  0
    9.1692   43.7146   14.9602 H   0  0  0  0  0
  2  1  4  0  0  0
  1  8  4  0  0  0
  1 11  1  0  0  0
  9  2  4  0  0  0
  3  4  4  0  0  0
  3  9  4  0  0  0
  4  5  4  0  0  0
  5  6  4  0  0  0
  6 10  4  0  0  0
  8  7  4  0  0  0
  7 10  4  0  0  0
  9 10  4  0  0  0
 11 12  2  0  0  0
 11 13  2  0  0  0
 11 14  1  0  0  0
 14 15  1  0  0  0
 15 16  1  0  0  0
 15 18  1  0  0  0
 16 17  1  0  0  0
 18 19  2  0  0  0
 18 20  1  0  0  0
 20 21  1  0  0  0
 20 24  1  0  0  0
 21 22  1  0  0  0
 22 23  1  0  0  0
 23 24  1  0  0  0
 24 25  1  0  0  0
 25 26  1  0  0  0
 26 27  1  0  0  0
 27 28  2  0  0  0
 27 29  1  0  0  0
 29 30  1  0  0  0
 30 31  1  0  0  0
 31 32  1  0  0  0
 32 33  1  0  0  0
 33 34  1  0  0  0
 33 35  2  0  0  0
  2 36  1  0  0  0
  3 37  1  0  0  0
  4 38  1  0  0  0
  5 39  1  0  0  0
  6 40  1  0  0  0
  7 41  1  0  0  0
  8 42  1  0  0  0
 14 43  1  0  0  0
 15 44  1  0  0  0
 16 45  1  0  0  0
 16 46  1  0  0  0
 17 47  1  0  0  0
 21 48  1  0  0  0
 21 49  1  0  0  0
 22 50  1  0  0  0
 22 51  1  0  0  0
 23 52  1  0  0  0
 23 53  1  0  0  0
 24 54  1  0  0  0
 25 55  1  0  0  0
 25 56  1  0  0  0
 26 57  1  0  0  0
 29 58  1  0  0  0
 29 59  1  0  0  0
 30 60  1  0  0  0
 30 61  1  0  0  0
 31 62  1  0  0  0
 31 63  1  0  0  0
 32 64  1  0  0  0
 34 65  1  0  0  0
 34 66  1  0  0  0
 35 67  1  0  0  0
M  END
$$$$
