4nja_ligand
  -I-interpret- 

 42 45  0  0  0  0  0  0  0  0999 V2000
  -30.5000  -18.9310   14.1040 O   0  0  0  0  0
  -31.0140  -17.5570   13.7240 S   0  0  0  0  0
  -31.7950  -17.7010   12.4750 O   0  0  0  0  0
  -29.7530  -16.7600   13.5620 O   0  0  0  0  0
  -31.9720  -16.9470   14.8790 C   0  0  0  0  0
  -31.6240  -15.8110   15.6010 C   0  0  0  0  0
  -32.4550  -15.2710   16.6020 C   0  0  0  0  0
  -31.9980  -13.9420   17.4300 S   0  0  0  0  0
  -30.6120  -13.6370   17.1460 O   0  0  0  0  0
  -32.9930  -12.8970   17.1290 O   0  0  0  0  0
  -32.0850  -14.1100   18.8530 O   0  0  0  0  0
  -33.6930  -15.9020   16.8560 C   0  0  0  0  0
  -34.5590  -15.4160   17.8640 C   0  0  0  0  0
  -35.7720  -16.0330   18.1560 C   0  0  0  0  0
  -33.1760  -17.5650   15.1540 C   0  0  0  0  0
  -34.0410  -17.0580   16.1440 C   0  0  0  0  0
  -35.2550  -17.6850   16.4270 C   0  0  0  0  0
  -36.1200  -17.1840   17.4390 C   0  0  0  0  0
  -33.5340  -18.6930   14.4090 C   0  0  0  0  0
  -34.7860  -19.2990   14.6740 C   0  0  0  0  0
  -35.6230  -18.8290   15.6900 C   0  0  0  0  0
  -36.8490  -19.4790   15.9700 C   0  0  0  0  0
  -37.2330  -20.6290   15.2950 O   0  0  0  0  0
  -38.5730  -21.1380   15.3740 C   0  0  0  0  0
  -37.6910  -18.9740   16.9690 C   0  0  0  0  0
  -37.3490  -17.8290   17.7100 C   0  0  0  0  0
  -38.3950  -17.3660   18.8890 S   0  0  0  0  0
  -37.7320  -17.5070   20.2070 O   0  0  0  0  0
  -38.8370  -15.9410   18.8260 O   0  0  0  0  0
  -39.5120  -18.3780   18.9070 O   0  0  0  0  0
  -29.9880  -18.8673   14.9136 H   0  0  0  0  0
  -30.6747  -15.3210   15.3849 H   0  0  0  0  0
  -33.8691  -13.2153   17.3586 H   0  0  0  0  0
  -34.2671  -14.5310   18.4294 H   0  0  0  0  0
  -36.4337  -15.6305   18.9229 H   0  0  0  0  0
  -32.8677  -19.0946   13.6455 H   0  0  0  0  0
  -35.1040  -20.1506   14.0726 H   0  0  0  0  0
  -38.8118  -21.3693   16.4121 H   0  0  0  0  0
  -39.2682  -20.3872   14.9985 H   0  0  0  0  0
  -38.6528  -22.0427   14.7712 H   0  0  0  0  0
  -38.6335  -19.4805   17.1769 H   0  0  0  0  0
  -39.9890  -18.3413   18.0747 H   0  0  0  0  0
  1  2  1  0  0  0
  2  3  2  0  0  0
  2  4  2  0  0  0
  2  5  1  0  0  0
  5  6  4  0  0  0
  5 15  4  0  0  0
  6  7  4  0  0  0
  7  8  1  0  0  0
  7 12  4  0  0  0
  8  9  2  0  0  0
  8 10  1  0  0  0
  8 11  2  0  0  0
 12 13  4  0  0  0
 12 16  4  0  0  0
 13 14  4  0  0  0
 14 18  4  0  0  0
 15 16  4  0  0  0
 15 19  4  0  0  0
 16 17  4  0  0  0
 17 18  4  0  0  0
 17 21  4  0  0  0
 18 26  4  0  0  0
 19 20  4  0  0  0
 20 21  4  0  0  0
 21 22  4  0  0  0
 22 23  1  0  0  0
 22 25  4  0  0  0
 23 24  1  0  0  0
 25 26  4  0  0  0
 26 27  1  0  0  0
 27 28  2  0  0  0
 27 29  2  0  0  0
 27 30  1  0  0  0
  1 31  1  0  0  0
  6 32  1  0  0  0
 10 33  1  0  0  0
 13 34  1  0  0  0
 14 35  1  0  0  0
 19 36  1  0  0  0
 20 37  1  0  0  0
 24 38  1  0  0  0
 24 39  1  0  0  0
 24 40  1  0  0  0
 25 41  1  0  0  0
 30 42  1  0  0  0
M  END
$$$$
