4os7_ligand
  -I-interpret- 

218220  0  0  0  0  0  0  0  0999 V2000
    4.4570  -19.9100  -14.3270 N   0  3  0  0  0
    3.6720  -18.9510  -13.5050 C   0  0  0  0  0
    2.2060  -19.0060  -13.8480 C   0  0  0  0  0
    1.6570  -20.0820  -14.1210 O   0  0  0  0  0
   -0.2090  -16.4490  -14.8480 C   0  0  0  0  0
    1.5450  -17.8590  -13.8430 N   0  0  0  0  0
    0.1890  -17.8500  -14.3530 C   0  0  0  0  0
   -0.8030  -18.5200  -13.3990 C   0  0  0  0  0
   -1.0280  -17.7620  -12.1020 C   0  0  0  0  0
   -1.3620  -16.6250  -12.2880 O   0  0  0  0  0
   -0.8990  -18.2750  -10.8130 N   0  0  0  0  0
    0.2490  -15.4160  -14.3380 O   0  0  0  0  0
   -0.5300  -19.6760  -10.5440 C   0  0  0  0  0
   -1.1630  -17.4930   -9.5990 C   0  0  0  0  0
   -2.6340  -17.0730   -9.5060 C   0  0  0  0  0
   -2.8790  -16.2000   -8.2840 C   0  0  0  0  0
   -2.1380  -14.5320   -8.3250 S   0  0  0  0  0
    0.7970  -19.9340   -9.8160 C   0  0  0  0  0
    0.7850  -21.3430   -9.2420 C   0  0  0  0  0
    0.6690  -22.7040  -10.4640 S   0  0  0  0  0
   -1.0630  -16.4560  -15.8630 N   0  0  0  0  0
   -1.4480  -15.2490  -16.5760 C   0  0  0  0  0
   -2.8340  -14.8230  -16.1130 C   0  0  0  0  0
   -3.6630  -14.4230  -16.9270 O   0  0  0  0  0
   -1.4410  -15.5210  -18.0780 C   0  0  0  0  0
   -3.0740  -14.9040  -14.8030 N   0  0  0  0  0
   -4.4170  -14.7080  -14.2460 C   0  0  0  0  0
   -4.6540  -13.3030  -13.6770 C   0  0  0  0  0
   -5.6540  -13.0700  -12.9850 O   0  0  0  0  0
   -4.7040  -15.7910  -13.2070 C   0  0  0  0  0
   -4.5230  -17.2090  -13.7890 C   0  0  0  0  0
   -4.7360  -18.2780  -12.7300 C   0  0  0  0  0
   -5.4420  -17.4450  -14.9810 C   0  0  0  0  0
   -3.7490  -12.3730  -13.9870 N   0  0  0  0  0
   -4.0200  -10.9490  -13.8220 C   0  0  0  0  0
   -3.0730  -10.2540  -12.8660 C   0  0  0  0  0
   -2.0450  -10.8080  -12.4540 O   0  0  0  0  0
   -3.4210   -9.0150  -12.5490 N   0  0  0  0  0
   -2.6950   -8.2410  -11.5630 C   0  0  0  0  0
   -2.7230   -8.9990  -10.2320 C   0  0  0  0  0
   -3.7770   -9.4030   -9.7570 O   0  0  0  0  0
   -3.3120   -6.8550  -11.4260 C   0  0  0  0  0
   -3.2180   -6.0190  -12.7010 C   0  0  0  0  0
   -4.1780   -4.8460  -12.6360 C   0  0  0  0  0
   -5.5480   -5.2500  -12.9220 N   0  0  0  0  0
   -6.5690   -4.4030  -13.0340 C   0  0  0  0  0
   -6.3860   -3.0990  -12.8740 N   0  0  0  0  0
   -7.7740   -4.8670  -13.3170 N   0  0  0  0  0
   -1.5460   -9.2010   -9.6580 N   0  0  0  0  0
   -1.3840   -9.9960   -8.4480 C   0  0  0  0  0
   -0.5840  -11.2600   -8.6810 C   0  0  0  0  0
   -0.0320  -11.8380   -7.7370 O   0  0  0  0  0
   -0.4960  -11.6790   -9.9440 N   0  0  0  0  0
    0.0250  -12.9910  -10.2870 C   0  0  0  0  0
    1.3410  -12.9610  -11.0760 C   0  0  0  0  0
    1.8480  -14.0150  -11.4580 O   0  0  0  0  0
   -1.0580  -13.7470  -11.0570 C   0  0  0  0  0
   -2.6350  -13.7870  -10.1580 S   0  0  0  0  0
    1.9130  -11.7700  -11.2750 N   0  0  0  0  0
    3.1880  -11.6180  -11.9920 C   0  0  0  0  0
    4.2780  -12.3990  -11.2800 C   0  0  0  0  0
    4.3020  -12.4360  -10.0460 O   0  0  0  0  0
    3.6410  -10.1500  -12.0540 C   0  0  0  0  0
    2.7800   -9.2580  -12.9410 C   0  0  0  0  0
    1.6300   -8.6230  -12.1960 C   0  0  0  0  0
    1.2980   -9.0730  -11.0730 O   0  0  0  0  0
    1.0700   -7.6480  -12.7320 O   0  0  0  0  0
    5.1620  -13.0150  -12.0520 N   0  0  0  0  0
    6.3810  -13.6070  -11.5090 C   0  0  0  0  0
    6.0630  -14.6550  -10.4290 C   0  0  0  0  0
    6.7170  -14.7040   -9.3880 O   0  0  0  0  0
    7.2660  -12.4800  -10.9360 C   0  0  0  0  0
    8.6960  -12.9180  -10.6770 C   0  0  0  0  0
    9.2840  -13.6600  -11.4710 O   0  0  0  0  0
    9.2780  -12.4280   -9.5760 N   0  0  0  0  0
    5.0400  -15.4730  -10.6800 N   0  0  0  0  0
    4.6540  -16.5360   -9.7490 C   0  0  0  0  0
    5.2000  -17.8860  -10.1840 C   0  0  0  0  0
    5.6170  -18.0770  -11.3260 O   0  0  0  0  0
    3.1380  -16.5710   -9.5410 C   0  0  0  0  0
    2.6700  -15.6640   -8.4470 C   0  0  0  0  0
    2.9440  -14.3150   -8.4390 N   0  0  0  0  0
    1.9660  -15.9140   -7.3150 C   0  0  0  0  0
    2.4270  -13.7720   -7.3500 C   0  0  0  0  0
    1.8320  -14.7200   -6.6500 N   0  0  0  0  0
    5.2040  -18.8130   -9.2360 N   0  0  0  0  0
    5.9190  -20.0760   -9.3720 C   0  0  0  0  0
    4.8980  -21.1700   -9.1350 C   0  0  0  0  0
    4.1370  -21.1000   -8.1710 O   0  0  0  0  0
    7.0020  -20.1280   -8.2920 C   0  0  0  0  0
    8.1790  -21.0300   -8.5780 C   0  0  0  0  0
    9.3450  -20.6780   -7.6680 C   0  0  0  0  0
    9.0000  -20.7360   -6.2400 N   0  0  0  0  0
    8.7970  -21.8610   -5.5570 C   0  0  0  0  0
    8.8700  -23.0440   -6.1610 N   0  0  0  0  0
    8.5140  -21.8060   -4.2610 N   0  0  0  0  0
    4.8610  -22.1750   -9.9970 N   0  0  0  0  0
    3.8850  -23.2400   -9.8110 C   0  0  0  0  0
    4.4230  -24.3620   -8.9190 C   0  0  0  0  0
    5.4780  -24.9290   -9.1910 O   0  0  0  0  0
    3.3470  -23.7090  -11.1600 C   0  0  0  0  0
    2.2140  -22.4460  -11.8010 S   0  0  0  0  0
    3.6620  -24.6310   -7.8480 N   0  0  0  0  0
    4.0660  -25.4060   -6.6520 C   0  0  0  0  0
    4.8250  -24.5270   -5.6510 C   0  0  0  0  0
    6.0090  -24.2310   -5.8260 O   0  0  0  0  0
    4.8560  -26.6890   -6.9880 C   0  0  0  0  0
    5.7040  -27.3420   -5.8800 C   0  0  0  0  0
    4.9640  -27.4790   -4.5510 C   0  0  0  0  0
    6.2080  -28.7010   -6.3480 C   0  0  0  0  0
    4.1140  -24.1090   -4.5700 N   0  0  0  0  0
    5.4424  -19.8481  -14.0711 H   0  0  0  0  0
    4.1193  -20.8574  -14.1572 H   0  0  0  0  0
    4.3458  -19.6800  -15.3145 H   0  0  0  0  0
    4.0370  -17.9436  -13.7049 H   0  0  0  0  0
    3.7922  -19.2157  -12.4545 H   0  0  0  0  0
    1.9782  -17.0057  -13.4900 H   0  0  0  0  0
    0.1494  -18.4832  -15.2393 H   0  0  0  0  0
   -0.3885  -19.4930  -13.1352 H   0  0  0  0  0
   -1.7624  -18.5680  -13.9141 H   0  0  0  0  0
   -0.4228  -20.1436  -11.5227 H   0  0  0  0  0
   -1.3063  -20.0615   -9.8831 H   0  0  0  0  0
   -0.5494  -16.5926   -9.6296 H   0  0  0  0  0
   -0.9264  -18.1114   -8.7332 H   0  0  0  0  0
   -3.2479  -17.9698   -9.4224 H   0  0  0  0  0
   -2.8908  -16.5029  -10.3988 H   0  0  0  0  0
   -2.4184  -16.7175   -7.4425 H   0  0  0  0  0
   -3.9575  -16.0530   -8.2257 H   0  0  0  0  0
    0.9192  -19.2109   -9.0096 H   0  0  0  0  0
    1.6255  -19.8309  -10.5168 H   0  0  0  0  0
   -0.1065  -21.4131   -8.6188 H   0  0  0  0  0
    1.7369  -21.4729   -8.7272 H   0  0  0  0  0
   -1.4666  -17.3459  -16.1556 H   0  0  0  0  0
   -0.7412  -14.4459  -16.3673 H   0  0  0  0  0
   -0.4400  -15.8224  -18.3867 H   0  0  0  0  0
   -2.1482  -16.3188  -18.3048 H   0  0  0  0  0
   -1.7298  -14.6153  -18.6113 H   0  0  0  0  0
   -2.3007  -15.1083  -14.1700 H   0  0  0  0  0
   -5.1224  -14.7983  -15.0721 H   0  0  0  0  0
   -5.7383  -15.6852  -12.8797 H   0  0  0  0  0
   -4.0022  -15.6679  -12.3821 H   0  0  0  0  0
   -3.4929  -17.2813  -14.1379 H   0  0  0  0  0
   -4.0133  -18.1400  -11.9258 H   0  0  0  0  0
   -5.7466  -18.1953  -12.3302 H   0  0  0  0  0
   -4.6003  -19.2627  -13.1772 H   0  0  0  0  0
   -6.4794  -17.3303  -14.6667 H   0  0  0  0  0
   -5.2154  -16.7194  -15.7621 H   0  0  0  0  0
   -5.2864  -18.4536  -15.3640 H   0  0  0  0  0
   -2.8418  -12.6659  -14.3497 H   0  0  0  0  0
   -5.0249  -10.8547  -13.4105 H   0  0  0  0  0
   -3.8991  -10.4796  -14.7983 H   0  0  0  0  0
   -4.2251   -8.5934  -13.0138 H   0  0  0  0  0
   -1.6591   -8.1074  -11.8746 H   0  0  0  0  0
   -2.7630   -6.3271  -10.6463 H   0  0  0  0  0
   -4.3696   -6.9877  -11.1979 H   0  0  0  0  0
   -3.4782   -6.6439  -13.5553 H   0  0  0  0  0
   -2.2010   -5.6403  -12.8032 H   0  0  0  0  0
   -3.8742   -4.1134  -13.3837 H   0  0  0  0  0
   -4.1464   -4.4335  -11.6276 H   0  0  0  0  0
   -5.7370   -6.2449  -13.0442 H   0  0  0  0  0
   -7.1736   -2.4580  -12.9694 H   0  0  0  0  0
   -5.4576   -2.7373  -12.6556 H   0  0  0  0  0
   -7.9171   -5.8684  -13.4481 H   0  0  0  0  0
   -0.7180   -8.7820  -10.0814 H   0  0  0  0  0
   -2.3764  -10.2871   -8.1039 H   0  0  0  0  0
   -0.8463   -9.3896   -7.7191 H   0  0  0  0  0
   -0.8042  -11.0587  -10.6928 H   0  0  0  0  0
    0.2744  -13.5008   -9.3564 H   0  0  0  0  0
   -0.7208  -14.7740  -11.1973 H   0  0  0  0  0
   -1.2206  -13.2350  -12.0054 H   0  0  0  0  0
    1.4484  -10.9357  -10.9165 H   0  0  0  0  0
    3.0272  -11.9902  -13.0038 H   0  0  0  0  0
    4.6458  -10.1444  -12.4765 H   0  0  0  0  0
    3.5730   -9.7527  -11.0413 H   0  0  0  0  0
    2.3613   -9.8799  -13.7322 H   0  0  0  0  0
    3.4131   -8.4566  -13.3218 H   0  0  0  0  0
    1.8565   -9.8218  -10.8517 H   0  0  0  0  0
    4.9854  -13.0772  -13.0547 H   0  0  0  0  0
    6.9138  -14.1240  -12.3071 H   0  0  0  0  0
    6.8358  -12.1740   -9.9824 H   0  0  0  0  0
    7.2943  -11.6755  -11.6709 H   0  0  0  0  0
   10.2473  -12.6639   -9.3635 H   0  0  0  0  0
    8.7523  -11.8186   -8.9494 H   0  0  0  0  0
    4.5116  -15.3551  -11.5445 H   0  0  0  0  0
    5.1057  -16.3082   -8.7835 H   0  0  0  0  0
    2.8669  -17.5896   -9.2632 H   0  0  0  0  0
    2.6704  -16.2382  -10.4677 H   0  0  0  0  0
    1.5792  -16.8810   -6.9935 H   0  0  0  0  0
    2.4827  -12.7184   -7.0761 H   0  0  0  0  0
    4.6853  -18.6350   -8.3760 H   0  0  0  0  0
    6.3866  -20.1890  -10.3501 H   0  0  0  0  0
    6.5229  -20.5244   -7.3968 H   0  0  0  0  0
    7.4030  -19.1176   -8.2116 H   0  0  0  0  0
    8.4847  -20.8987   -9.6160 H   0  0  0  0  0
    7.8868  -22.0647   -8.3989 H   0  0  0  0  0
    9.6452  -19.6550   -7.8949 H   0  0  0  0  0
   10.1365  -21.4056   -7.8473 H   0  0  0  0  0
    8.9099  -19.8530   -5.7374 H   0  0  0  0  0
    8.7091  -23.8991   -5.6288 H   0  0  0  0  0
    9.0869  -23.0959   -7.1563 H   0  0  0  0  0
    8.4524  -20.9032   -3.7903 H   0  0  0  0  0
    5.5098  -22.2028  -10.7836 H   0  0  0  0  0
    3.0298  -22.8451   -9.2626 H   0  0  0  0  0
    2.8192  -24.6552  -11.0407 H   0  0  0  0  0
    4.1714  -23.8568  -11.8576 H   0  0  0  0  0
    2.7098  -24.2654   -7.8580 H   0  0  0  0  0
    3.1407  -25.7405   -6.1829 H   0  0  0  0  0
    5.5706  -26.3907   -7.7551 H   0  0  0  0  0
    4.0992  -27.4311   -7.2421 H   0  0  0  0  0
    6.5456  -26.6750   -5.6931 H   0  0  0  0  0
    4.6677  -26.4912   -4.1981 H   0  0  0  0  0
    4.0772  -28.0968   -4.6924 H   0  0  0  0  0
    5.6208  -27.9464   -3.8174 H   0  0  0  0  0
    5.3576  -29.3432   -6.5772 H   0  0  0  0  0
    6.8191  -28.5725   -7.2414 H   0  0  0  0  0
    6.8067  -29.1564   -5.5592 H   0  0  0  0  0
    4.5588  -23.5252   -3.8617 H   0  0  0  0  0
    3.1358  -24.3792   -4.4674 H   0  0  0  0  0
  2  1  1  0  0  0
  3  2  1  0  0  0
  3  4  2  0  0  0
  6  3  1  0  0  0
  7  5  1  0  0  0
  5 12  2  0  0  0
  5 21  1  0  0  0
  6  7  1  0  0  0
  7  8  1  0  0  0
  8  9  1  0  0  0
  9 10  2  0  0  0
  9 11  1  0  0  0
 11 13  1  0  0  0
 11 14  1  0  0  0
 13 18  1  0  0  0
 14 15  1  0  0  0
 15 16  1  0  0  0
 16 17  1  0  0  0
 17 58  1  0  0  0
 18 19  1  0  0  0
 19 20  1  0  0  0
 20102  1  0  0  0
 21 22  1  0  0  0
 22 23  1  0  0  0
 22 25  1  0  0  0
 23 24  2  0  0  0
 23 26  1  0  0  0
 26 27  1  0  0  0
 27 28  1  0  0  0
 27 30  1  0  0  0
 28 29  2  0  0  0
 28 34  1  0  0  0
 30 31  1  0  0  0
 31 32  1  0  0  0
 31 33  1  0  0  0
 34 35  1  0  0  0
 35 36  1  0  0  0
 36 37  2  0  0  0
 36 38  1  0  0  0
 38 39  1  0  0  0
 39 40  1  0  0  0
 39 42  1  0  0  0
 40 41  2  0  0  0
 40 49  1  0  0  0
 42 43  1  0  0  0
 43 44  1  0  0  0
 44 45  1  0  0  0
 45 46  1  0  0  0
 46 47  1  0  0  0
 46 48  2  0  0  0
 49 50  1  0  0  0
 50 51  1  0  0  0
 51 52  2  0  0  0
 51 53  1  0  0  0
 53 54  1  0  0  0
 54 55  1  0  0  0
 54 57  1  0  0  0
 55 56  2  0  0  0
 55 59  1  0  0  0
 57 58  1  0  0  0
 59 60  1  0  0  0
 60 61  1  0  0  0
 60 63  1  0  0  0
 61 62  2  0  0  0
 61 68  1  0  0  0
 63 64  1  0  0  0
 64 65  1  0  0  0
 65 66  1  0  0  0
 65 67  2  0  0  0
 68 69  1  0  0  0
 69 70  1  0  0  0
 69 72  1  0  0  0
 70 71  2  0  0  0
 70 76  1  0  0  0
 72 73  1  0  0  0
 73 74  2  0  0  0
 73 75  1  0  0  0
 76 77  1  0  0  0
 77 78  1  0  0  0
 77 80  1  0  0  0
 78 79  2  0  0  0
 78 86  1  0  0  0
 80 81  1  0  0  0
 81 82  4  0  0  0
 81 83  4  0  0  0
 82 84  4  0  0  0
 83 85  4  0  0  0
 84 85  4  0  0  0
 86 87  1  0  0  0
 87 88  1  0  0  0
 87 90  1  0  0  0
 88 89  2  0  0  0
 88 97  1  0  0  0
 90 91  1  0  0  0
 91 92  1  0  0  0
 92 93  1  0  0  0
 93 94  1  0  0  0
 94 95  1  0  0  0
 94 96  2  0  0  0
 97 98  1  0  0  0
 98 99  1  0  0  0
 98101  1  0  0  0
 99100  2  0  0  0
 99103  1  0  0  0
101102  1  0  0  0
103104  1  0  0  0
104105  1  0  0  0
104107  1  0  0  0
105106  2  0  0  0
105111  1  0  0  0
107108  1  0  0  0
108109  1  0  0  0
108110  1  0  0  0
  1112  1  0  0  0
  1113  1  0  0  0
  1114  1  0  0  0
  2115  1  0  0  0
  2116  1  0  0  0
  6117  1  0  0  0
  7118  1  0  0  0
  8119  1  0  0  0
  8120  1  0  0  0
 13121  1  0  0  0
 13122  1  0  0  0
 14123  1  0  0  0
 14124  1  0  0  0
 15125  1  0  0  0
 15126  1  0  0  0
 16127  1  0  0  0
 16128  1  0  0  0
 18129  1  0  0  0
 18130  1  0  0  0
 19131  1  0  0  0
 19132  1  0  0  0
 21133  1  0  0  0
 22134  1  0  0  0
 25135  1  0  0  0
 25136  1  0  0  0
 25137  1  0  0  0
 26138  1  0  0  0
 27139  1  0  0  0
 30140  1  0  0  0
 30141  1  0  0  0
 31142  1  0  0  0
 32143  1  0  0  0
 32144  1  0  0  0
 32145  1  0  0  0
 33146  1  0  0  0
 33147  1  0  0  0
 33148  1  0  0  0
 34149  1  0  0  0
 35150  1  0  0  0
 35151  1  0  0  0
 38152  1  0  0  0
 39153  1  0  0  0
 42154  1  0  0  0
 42155  1  0  0  0
 43156  1  0  0  0
 43157  1  0  0  0
 44158  1  0  0  0
 44159  1  0  0  0
 45160  1  0  0  0
 47161  1  0  0  0
 47162  1  0  0  0
 48163  1  0  0  0
 49164  1  0  0  0
 50165  1  0  0  0
 50166  1  0  0  0
 53167  1  0  0  0
 54168  1  0  0  0
 57169  1  0  0  0
 57170  1  0  0  0
 59171  1  0  0  0
 60172  1  0  0  0
 63173  1  0  0  0
 63174  1  0  0  0
 64175  1  0  0  0
 64176  1  0  0  0
 66177  1  0  0  0
 68178  1  0  0  0
 69179  1  0  0  0
 72180  1  0  0  0
 72181  1  0  0  0
 75182  1  0  0  0
 75183  1  0  0  0
 76184  1  0  0  0
 77185  1  0  0  0
 80186  1  0  0  0
 80187  1  0  0  0
 83188  1  0  0  0
 84189  1  0  0  0
 86190  1  0  0  0
 87191  1  0  0  0
 90192  1  0  0  0
 90193  1  0  0  0
 91194  1  0  0  0
 91195  1  0  0  0
 92196  1  0  0  0
 92197  1  0  0  0
 93198  1  0  0  0
 95199  1  0  0  0
 95200  1  0  0  0
 96201  1  0  0  0
 97202  1  0  0  0
 98203  1  0  0  0
101204  1  0  0  0
101205  1  0  0  0
103206  1  0  0  0
104207  1  0  0  0
107208  1  0  0  0
107209  1  0  0  0
108210  1  0  0  0
109211  1  0  0  0
109212  1  0  0  0
109213  1  0  0  0
110214  1  0  0  0
110215  1  0  0  0
110216  1  0  0  0
111217  1  0  0  0
111218  1  0  0  0
M  END
$$$$
