### 
### Created by X-TOOL on Mon Sep 10 21:13:17 2018
### 

@<TRIPOS>MOLECULE
4os7_ligand
  220   222     1     0     0
SMALL
GAST_HUCK


@<TRIPOS>ATOM
      1 N           4.4570  -19.9100  -14.3270 N.4       1 GLY         0.2357
      2 CA          3.6720  -18.9510  -13.5050 C.3       1 GLY         0.0545
      3 C           2.2060  -19.0060  -13.8480 C.2       1 GLY         0.2238
      4 O           1.6570  -20.0820  -14.1210 O.2       1 GLY        -0.3910
      5 C          -0.2090  -16.4490  -14.8480 C.2       1 823         0.2062
      6 N           1.5450  -17.8590  -13.8430 N.am      1 823        -0.2591
      7 CA          0.1890  -17.8500  -14.3530 C.3       1 823         0.1477
      8 CB         -0.8030  -18.5200  -13.3990 C.3       1 823         0.0777
      9 CG         -1.0280  -17.7620  -12.1020 C.2       1 823         0.1830
     10 OD2        -1.3620  -16.6250  -12.2880 O.2       1 823        -0.3966
     11 ND         -0.8990  -18.2750  -10.8130 N.am      1 823        -0.2730
     12 O           0.2490  -15.4160  -14.3380 O.2       1 823        -0.3942
     13 CE         -0.5300  -19.6760  -10.5440 C.3       1 823         0.0346
     14 CE2        -1.1630  -17.4930   -9.5990 C.3       1 823         0.0346
     15 CZ2        -2.6340  -17.0730   -9.5060 C.3       1 823        -0.0227
     16 CH2        -2.8790  -16.2000   -8.2840 C.3       1 823         0.0058
     17 ST2        -2.1380  -14.5320   -8.3250 S.3       1 823        -0.0928
     18 CZ          0.7970  -19.9340   -9.8160 C.3       1 823        -0.0227
     19 CH          0.7850  -21.3430   -9.2420 C.3       1 823         0.0058
     20 ST          0.6690  -22.7040  -10.4640 S.3       1 823        -0.0928
     21 N          -1.0630  -16.4560  -15.8630 N.am      1 ALA        -0.2639
     22 CA         -1.4480  -15.2490  -16.5760 C.3       1 ALA         0.1282
     23 C          -2.8340  -14.8230  -16.1130 C.2       1 ALA         0.2036
     24 O          -3.6630  -14.4230  -16.9270 O.2       1 ALA        -0.3944
     25 CB         -1.4410  -15.5210  -18.0780 C.3       1 ALA        -0.0244
     26 N          -3.0740  -14.9040  -14.8030 N.am      1 LEU        -0.2637
     27 CA         -4.4170  -14.7080  -14.2460 C.3       1 LEU         0.1312
     28 C          -4.6540  -13.3030  -13.6770 C.2       1 LEU         0.2037
     29 O          -5.6540  -13.0700  -12.9850 O.2       1 LEU        -0.3944
     30 CB         -4.7040  -15.7910  -13.2070 C.3       1 LEU        -0.0101
     31 CG         -4.5230  -17.2090  -13.7890 C.3       1 LEU        -0.0425
     32 CD1        -4.7360  -18.2780  -12.7300 C.3       1 LEU        -0.0625
     33 CD2        -5.4420  -17.4450  -14.9810 C.3       1 LEU        -0.0625
     34 N          -3.7490  -12.3730  -13.9870 N.am      1 GLY        -0.2664
     35 CA         -4.0200  -10.9490  -13.8220 C.3       1 GLY         0.1201
     36 C          -3.0730  -10.2540  -12.8660 C.2       1 GLY         0.2007
     37 O          -2.0450  -10.8080  -12.4540 O.2       1 GLY        -0.3947
     38 N          -3.4210   -9.0150  -12.5490 N.am      1 ARG        -0.2640
     39 CA         -2.6950   -8.2410  -11.5630 C.3       1 ARG         0.1311
     40 C          -2.7230   -8.9990  -10.2320 C.2       1 ARG         0.2037
     41 O          -3.7770   -9.4030   -9.7570 O.2       1 ARG        -0.3944
     42 CB         -3.3120   -6.8550  -11.4260 C.3       1 ARG        -0.0092
     43 CG         -3.2180   -6.0190  -12.7010 C.3       1 ARG        -0.0156
     44 CD         -4.1780   -4.8460  -12.6360 C.3       1 ARG         0.0627
     45 NE         -5.5480   -5.2500  -12.9220 N.pl3     1 ARG        -0.2723
     46 CZ         -6.5690   -4.4030  -13.0340 C.cat     1 ARG         0.2882
     47 NH1        -6.3860   -3.0990  -12.8740 N.pl3     1 ARG        -0.2849
     48 NH2        -7.7740   -4.8670  -13.3170 N.pl3     1 ARG        -0.2849
     49 N          -1.5460   -9.2010   -9.6580 N.am      1 GLY        -0.2664
     50 CA         -1.3840   -9.9960   -8.4480 C.3       1 GLY         0.1201
     51 C          -0.5840  -11.2600   -8.6810 C.2       1 GLY         0.2008
     52 O          -0.0320  -11.8380   -7.7370 O.2       1 GLY        -0.3947
     53 N          -0.4960  -11.6790   -9.9440 N.am      1 CYS        -0.2631
     54 CA          0.0250  -12.9910  -10.2870 C.3       1 CYS         0.1406
     55 C           1.3410  -12.9610  -11.0760 C.2       1 CYS         0.2047
     56 O           1.8480  -14.0150  -11.4580 O.2       1 CYS        -0.3944
     57 CB         -1.0580  -13.7470  -11.0570 C.3       1 CYS         0.0443
     58 SG         -2.6350  -13.7870  -10.1580 S.3       1 CYS        -0.0884
     59 N           1.9130  -11.7700  -11.2750 N.am      1 GLU        -0.2636
     60 CA          3.1880  -11.6180  -11.9920 C.3       1 GLU         0.1325
     61 C           4.2780  -12.3990  -11.2800 C.2       1 GLU         0.2041
     62 O           4.3020  -12.4360  -10.0460 O.2       1 GLU        -0.3944
     63 CB          3.6410  -10.1500  -12.0540 C.3       1 GLU        -0.0008
     64 CG          2.7800   -9.2580  -12.9410 C.3       1 GLU         0.0044
     65 CD          1.6300   -8.6230  -12.1960 C.2       1 GLU         0.0350
     66 OE1         1.2980   -9.0730  -11.0730 O.co2     1 GLU        -0.5690
     67 OE2         1.0700   -7.6480  -12.7320 O.co2     1 GLU        -0.5690
     68 N           5.1620  -13.0150  -12.0520 N.am      1 ASN        -0.2616
     69 CA          6.3810  -13.6070  -11.5090 C.3       1 ASN         0.1476
     70 C           6.0630  -14.6550  -10.4290 C.2       1 ASN         0.2063
     71 O           6.7170  -14.7040   -9.3880 O.2       1 ASN        -0.3942
     72 CB          7.2660  -12.4800  -10.9360 C.3       1 ASN         0.0773
     73 CG          8.6960  -12.9180  -10.6770 C.2       1 ASN         0.1780
     74 OD1         9.2840  -13.6600  -11.4710 O.2       1 ASN        -0.3970
     75 ND2         9.2780  -12.4280   -9.5760 N.am      1 ASN        -0.3007
     76 N           5.0400  -15.4730  -10.6800 N.am      1 HIS        -0.2623
     77 CA          4.6540  -16.5360   -9.7490 C.3       1 HIS         0.1369
     78 C           5.2000  -17.8860  -10.1840 C.2       1 HIS         0.2054
     79 O           5.6170  -18.0770  -11.3260 O.2       1 HIS        -0.3942
     80 CB          3.1380  -16.5710   -9.5410 C.3       1 HIS         0.0145
     81 CG          2.6700  -15.6640   -8.4470 C.2       1 HIS        -0.0027
     82 ND1         2.9440  -14.3150   -8.4390 N.2       1 HIS        -0.3252
     83 CD2         1.9660  -15.9140   -7.3150 C.2       1 HIS         0.0291
     84 CE1         2.4270  -13.7720   -7.3500 C.2       1 HIS         0.0907
     85 NE2         1.8320  -14.7200   -6.6500 N.pl3     1 HIS        -0.2752
     86 N           5.2040  -18.8130   -9.2360 N.am      1 ARG        -0.2636
     87 CA          5.9190  -20.0760   -9.3720 C.3       1 ARG         0.1311
     88 C           4.8980  -21.1700   -9.1350 C.2       1 ARG         0.2039
     89 O           4.1370  -21.1000   -8.1710 O.2       1 ARG        -0.3944
     90 CB          7.0020  -20.1280   -8.2920 C.3       1 ARG        -0.0092
     91 CG          8.1790  -21.0300   -8.5780 C.3       1 ARG        -0.0156
     92 CD          9.3450  -20.6780   -7.6680 C.3       1 ARG         0.0627
     93 NE          9.0000  -20.7360   -6.2400 N.pl3     1 ARG        -0.2723
     94 CZ          8.7970  -21.8610   -5.5570 C.cat     1 ARG         0.2882
     95 NH1         8.8700  -23.0440   -6.1610 N.pl3     1 ARG        -0.2849
     96 NH2         8.5140  -21.8060   -4.2610 N.pl3     1 ARG        -0.2849
     97 N           4.8610  -22.1750   -9.9970 N.am      1 CYS        -0.2629
     98 CA          3.8850  -23.2400   -9.8110 C.3       1 CYS         0.1406
     99 C           4.4230  -24.3620   -8.9190 C.2       1 CYS         0.2047
    100 O           5.4780  -24.9290   -9.1910 O.2       1 CYS        -0.3944
    101 CB          3.3470  -23.7090  -11.1600 C.3       1 CYS         0.0443
    102 SG          2.2140  -22.4460  -11.8010 S.3       1 CYS        -0.0884
    103 N           3.6620  -24.6310   -7.8480 N.am      1 LEU        -0.2637
    104 CA          4.0660  -25.4060   -6.6520 C.3       1 LEU         0.1309
    105 C           4.8250  -24.5270   -5.6510 C.2       1 LEU         0.1992
    106 O           6.0090  -24.2310   -5.8260 O.2       1 LEU        -0.3947
    107 CB          4.8560  -26.6890   -6.9880 C.3       1 LEU        -0.0101
    108 CG          5.7040  -27.3420   -5.8800 C.3       1 LEU        -0.0425
    109 CD1         4.9640  -27.4790   -4.5510 C.3       1 LEU        -0.0625
    110 CD2         6.2080  -28.7010   -6.3480 C.3       1 LEU        -0.0625
    111 N           4.1140  -24.1090   -4.5700 N.am      1 NH2        -0.2990
    112 H           5.4311  -19.8497  -14.0749 H         1 GLY         0.2012
    113 H           4.3480  -19.6836  -15.3032 H         1 GLY         0.2012
    114 H           4.1241  -20.8467  -14.1600 H         1 GLY         0.2012
    115 H           4.0448  -17.9326  -13.6892 H         1 GLY         0.1061
    116 H           3.8006  -19.2018  -12.4417 H         1 GLY         0.1061
    117 H           1.9697  -17.0224  -13.4970 H         1 823         0.1886
    118 H           0.1984  -18.4857  -15.2507 H         1 823         0.0826
    119 H          -0.4210  -19.5214  -13.1515 H         1 823         0.0551
    120 H          -1.7694  -18.6136  -13.9160 H         1 823         0.0551
    121 H          -0.4804  -20.1951  -11.5125 H         1 823         0.0522
    122 H          -1.3317  -20.1160   -9.9327 H         1 823         0.0522
    123 H          -0.5344  -16.5904   -9.6123 H         1 823         0.0522
    124 H          -0.9099  -18.1032   -8.7195 H         1 823         0.0522
    125 H          -3.2610  -17.9740   -9.4351 H         1 823         0.0293
    126 H          -2.9042  -16.5085  -10.4106 H         1 823         0.0293
    127 H          -2.4724  -16.7266   -7.4081 H         1 823         0.0385
    128 H          -3.9665  -16.0816   -8.1684 H         1 823         0.0385
    129 H           0.9175  -19.2054   -9.0008 H         1 823         0.0293
    130 H           1.6318  -19.8324  -10.5250 H         1 823         0.0293
    131 H          -0.0780  -21.4237   -8.5647 H         1 823         0.0385
    132 H           1.7143  -21.4819   -8.6701 H         1 823         0.0385
    133 H          -1.4587  -17.3284  -16.1499 H         1 ALA         0.1883
    134 H          -0.7295  -14.4467  -16.3524 H         1 ALA         0.0797
    135 H          -1.7323  -14.6076  -18.6174 H         1 ALA         0.0277
    136 H          -2.1544  -16.3260  -18.3082 H         1 ALA         0.0277
    137 H          -0.4313  -15.8252  -18.3909 H         1 ALA         0.0277
    138 H          -2.3159  -15.1043  -14.1824 H         1 LEU         0.1883
    139 H          -5.1325  -14.8408  -15.0708 H         1 LEU         0.0800
    140 H          -5.7403  -15.6806  -12.8551 H         1 LEU         0.0315
    141 H          -4.0136  -15.6634  -12.3602 H         1 LEU         0.0315
    142 H          -3.4853  -17.2917  -14.1445 H         1 LEU         0.0298
    143 H          -4.5993  -19.2723  -13.1801 H         1 LEU         0.0232
    144 H          -5.7557  -18.1956  -12.3257 H         1 LEU         0.0232
    145 H          -4.0072  -18.1399  -11.9178 H         1 LEU         0.0232
    146 H          -5.2729  -16.6621  -15.7350 H         1 LEU         0.0232
    147 H          -6.4899  -17.4131  -14.6481 H         1 LEU         0.0232
    148 H          -5.2267  -18.4301  -15.4206 H         1 LEU         0.0232
    149 H          -2.8596  -12.6602  -14.3426 H         1 GLY         0.1881
    150 H          -5.0452  -10.8328  -13.4405 H         1 GLY         0.0763
    151 H          -3.9377  -10.4639  -14.8058 H         1 GLY         0.0763
    152 H          -4.2093   -8.6016  -13.0047 H         1 ARG         0.1883
    153 H          -1.6502   -8.1297  -11.8885 H         1 ARG         0.0800
    154 H          -2.7903   -6.3196  -10.6191 H         1 ARG         0.0313
    155 H          -4.3737   -6.9707  -11.1627 H         1 ARG         0.0313
    156 H          -3.4726   -6.6482  -13.5666 H         1 ARG         0.0301
    157 H          -2.1909   -5.6411  -12.8118 H         1 ARG         0.0301
    158 H          -3.8682   -4.0914  -13.3739 H         1 ARG         0.0689
    159 H          -4.1390   -4.4098  -11.6269 H         1 ARG         0.0689
    160 H          -5.7389   -6.2546  -13.0454 H         1 ARG         0.2642
    161 H          -7.1828   -2.4524  -12.9628 H         1 ARG         0.2615
    162 H          -5.4471   -2.7330  -12.6610 H         1 ARG         0.2615
    163 H          -7.9200   -5.8789  -13.4419 H         1 ARG         0.2615
    164 H          -8.5670   -4.2166  -13.4126 H         1 ARG         0.2615
    165 H          -0.7342   -8.7902  -10.0731 H         1 GLY         0.1881
    166 H          -2.3803  -10.2743   -8.0740 H         1 GLY         0.0763
    167 H          -0.8661   -9.3861   -7.6931 H         1 GLY         0.0763
    168 H          -0.7982  -11.0709  -10.6781 H         1 CYS         0.1884
    169 H           0.2219  -13.5288   -9.3478 H         1 CYS         0.0808
    170 H          -0.7188  -14.7800  -11.2238 H         1 CYS         0.0432
    171 H          -1.2151  -13.2515  -12.0264 H         1 CYS         0.0432
    172 H           1.4575  -10.9521  -10.9235 H         1 GLU         0.1883
    173 H           3.0658  -12.0028  -13.0152 H         1 GLU         0.0801
    174 H           4.6712  -10.1246  -12.4387 H         1 GLU         0.0330
    175 H           3.6206   -9.7410  -11.0331 H         1 GLU         0.0330
    176 H           2.3730   -9.8670  -13.7616 H         1 GLU         0.0433
    177 H           3.4129   -8.4597  -13.3558 H         1 GLU         0.0433
    178 H           4.9889  -13.0760  -13.0350 H         1 ASN         0.1885
    179 H           6.9250  -14.1057  -12.3247 H         1 ASN         0.0826
    180 H           6.8272  -12.1389   -9.9867 H         1 ASN         0.0551
    181 H           7.2799  -11.6467  -11.6539 H         1 ASN         0.0551
    182 H          10.2194  -12.6812   -9.3532 H         1 ASN         0.1814
    183 H           8.7715  -11.8086   -8.9761 H         1 ASN         0.1814
    184 H           4.5219  -15.3574  -11.5275 H         1 HIS         0.1885
    185 H           5.1102  -16.2998   -8.7763 H         1 HIS         0.0817
    186 H           2.8435  -17.6009   -9.2907 H         1 HIS         0.0420
    187 H           2.6497  -16.2677  -10.4789 H         1 HIS         0.0420
    188 H           1.5796  -16.8801   -6.9938 H         1 HIS         0.0729
    189 H           2.4827  -12.7194   -7.0764 H         1 HIS         0.1199
    190 H           1.3464  -14.5860   -5.7516 H         1 HIS         0.2361
    191 H           4.6955  -18.6385   -8.3928 H         1 ARG         0.1883
    192 H           6.3688  -20.1720  -10.3712 H         1 ARG         0.0800
    193 H           6.5315  -20.4740   -7.3599 H         1 ARG         0.0313
    194 H           7.3867  -19.1071   -8.1516 H         1 ARG         0.0313
    195 H           8.4862  -20.9047   -9.6268 H         1 ARG         0.0301
    196 H           7.8857  -22.0758   -8.4043 H         1 ARG         0.0301
    197 H           9.6793  -19.6575   -7.9062 H         1 ARG         0.0689
    198 H          10.1646  -21.3864   -7.8592 H         1 ARG         0.0689
    199 H           8.9090  -19.8443   -5.7325 H         1 ARG         0.2642
    200 H           8.7111  -23.9077   -5.6228 H         1 ARG         0.2615
    201 H           9.0854  -23.0963   -7.1669 H         1 ARG         0.2615
    202 H           8.4554  -20.8945   -3.7849 H         1 ARG         0.2615
    203 H           8.3531  -22.6748   -3.7317 H         1 ARG         0.2615
    204 H           5.4971  -22.2023  -10.7681 H         1 CYS         0.1884
    205 H           3.0325  -22.8024   -9.2709 H         1 CYS         0.0808
    206 H           2.8089  -24.6601  -11.0341 H         1 CYS         0.0432
    207 H           4.1811  -23.8498  -11.8631 H         1 CYS         0.0432
    208 H           2.7285  -24.2726   -7.8578 H         1 LEU         0.1883
    209 H           3.1378  -25.7291   -6.1580 H         1 LEU         0.0800
    210 H           5.5373  -26.4433   -7.8159 H         1 LEU         0.0315
    211 H           4.1266  -27.4407   -7.3241 H         1 LEU         0.0315
    212 H           6.5764  -26.6949   -5.7060 H         1 LEU         0.0298
    213 H           5.6259  -27.9506   -3.8097 H         1 LEU         0.0232
    214 H           4.0688  -28.1024   -4.6923 H         1 LEU         0.0232
    215 H           4.6645  -26.4827   -4.1937 H         1 LEU         0.0232
    216 H           6.7380  -28.5858   -7.3050 H         1 LEU         0.0232
    217 H           5.3549  -29.3825   -6.4811 H         1 LEU         0.0232
    218 H           6.8951  -29.1161   -5.5960 H         1 LEU         0.0232
    219 H           4.5487  -23.5326   -3.8781 H         1 NH2         0.1815
    220 H           3.1564  -24.3780   -4.4669 H         1 NH2         0.1815
@<TRIPOS>BOND
     1    2    1 1  
     2    3    2 1  
     3    3    4 2  
     4    6    3 am 
     5    7    5 1  
     6    5   12 2  
     7    5   21 am 
     8    6    7 1  
     9    7    8 1  
    10    8    9 1  
    11    9   10 2  
    12    9   11 am 
    13   11   13 1  
    14   11   14 1  
    15   13   18 1  
    16   14   15 1  
    17   15   16 1  
    18   16   17 1  
    19   17   58 1  
    20   18   19 1  
    21   19   20 1  
    22   20  102 1  
    23   21   22 1  
    24   22   23 1  
    25   22   25 1  
    26   23   24 2  
    27   23   26 am 
    28   26   27 1  
    29   27   28 1  
    30   27   30 1  
    31   28   29 2  
    32   28   34 am 
    33   30   31 1  
    34   31   32 1  
    35   31   33 1  
    36   34   35 1  
    37   35   36 1  
    38   36   37 2  
    39   36   38 am 
    40   38   39 1  
    41   39   40 1  
    42   39   42 1  
    43   40   41 2  
    44   40   49 am 
    45   42   43 1  
    46   43   44 1  
    47   44   45 1  
    48   45   46 ar 
    49   46   47 ar 
    50   46   48 ar 
    51   49   50 1  
    52   50   51 1  
    53   51   52 2  
    54   51   53 am 
    55   53   54 1  
    56   54   55 1  
    57   54   57 1  
    58   55   56 2  
    59   55   59 am 
    60   57   58 1  
    61   59   60 1  
    62   60   61 1  
    63   60   63 1  
    64   61   62 2  
    65   61   68 am 
    66   63   64 1  
    67   64   65 1  
    68   65   66 ar 
    69   65   67 ar 
    70   68   69 1  
    71   69   70 1  
    72   69   72 1  
    73   70   71 2  
    74   70   76 am 
    75   72   73 1  
    76   73   74 2  
    77   73   75 am 
    78   76   77 1  
    79   77   78 1  
    80   77   80 1  
    81   78   79 2  
    82   78   86 am 
    83   80   81 1  
    84   81   82 1  
    85   81   83 2  
    86   82   84 2  
    87   83   85 1  
    88   84   85 1  
    89   86   87 1  
    90   87   88 1  
    91   87   90 1  
    92   88   89 2  
    93   88   97 am 
    94   90   91 1  
    95   91   92 1  
    96   92   93 1  
    97   93   94 ar 
    98   94   95 ar 
    99   94   96 ar 
   100   97   98 1  
   101   98   99 1  
   102   98  101 1  
   103   99  100 2  
   104   99  103 am 
   105  101  102 1  
   106  103  104 1  
   107  104  105 1  
   108  104  107 1  
   109  105  106 2  
   110  105  111 am 
   111  107  108 1  
   112  108  109 1  
   113  108  110 1  
   114    1  112 1  
   115    1  113 1  
   116    1  114 1  
   117    2  115 1  
   118    2  116 1  
   119    6  117 1  
   120    7  118 1  
   121    8  119 1  
   122    8  120 1  
   123   13  121 1  
   124   13  122 1  
   125   14  123 1  
   126   14  124 1  
   127   15  125 1  
   128   15  126 1  
   129   16  127 1  
   130   16  128 1  
   131   18  129 1  
   132   18  130 1  
   133   19  131 1  
   134   19  132 1  
   135   21  133 1  
   136   22  134 1  
   137   25  135 1  
   138   25  136 1  
   139   25  137 1  
   140   26  138 1  
   141   27  139 1  
   142   30  140 1  
   143   30  141 1  
   144   31  142 1  
   145   32  143 1  
   146   32  144 1  
   147   32  145 1  
   148   33  146 1  
   149   33  147 1  
   150   33  148 1  
   151   34  149 1  
   152   35  150 1  
   153   35  151 1  
   154   38  152 1  
   155   39  153 1  
   156   42  154 1  
   157   42  155 1  
   158   43  156 1  
   159   43  157 1  
   160   44  158 1  
   161   44  159 1  
   162   45  160 1  
   163   47  161 1  
   164   47  162 1  
   165   48  163 1  
   166   48  164 1  
   167   49  165 1  
   168   50  166 1  
   169   50  167 1  
   170   53  168 1  
   171   54  169 1  
   172   57  170 1  
   173   57  171 1  
   174   59  172 1  
   175   60  173 1  
   176   63  174 1  
   177   63  175 1  
   178   64  176 1  
   179   64  177 1  
   180   68  178 1  
   181   69  179 1  
   182   72  180 1  
   183   72  181 1  
   184   75  182 1  
   185   75  183 1  
   186   76  184 1  
   187   77  185 1  
   188   80  186 1  
   189   80  187 1  
   190   83  188 1  
   191   84  189 1  
   192   85  190 1  
   193   86  191 1  
   194   87  192 1  
   195   90  193 1  
   196   90  194 1  
   197   91  195 1  
   198   91  196 1  
   199   92  197 1  
   200   92  198 1  
   201   93  199 1  
   202   95  200 1  
   203   95  201 1  
   204   96  202 1  
   205   96  203 1  
   206   97  204 1  
   207   98  205 1  
   208  101  206 1  
   209  101  207 1  
   210  103  208 1  
   211  104  209 1  
   212  107  210 1  
   213  107  211 1  
   214  108  212 1  
   215  109  213 1  
   216  109  214 1  
   217  109  215 1  
   218  110  216 1  
   219  110  217 1  
   220  110  218 1  
   221  111  219 1  
   222  111  220 1  
@<TRIPOS>SUBSTRUCTURE
     1 GLY         1

