### 
### Created by X-TOOL on Mon Sep 10 21:13:10 2018
### 

@<TRIPOS>MOLECULE
3v9b_ligand
   67    71     1     0     0
SMALL
GAST_HUCK


@<TRIPOS>ATOM
      1 C01        22.0370   -4.2780   32.7590 C.ar      1 IHM         0.1187
      2 C02        21.7330   -3.0170   32.0400 C.ar      1 IHM        -0.0476
      3 C03        21.4470   -3.0270   30.6450 C.ar      1 IHM        -0.0764
      4 C04        21.4500   -4.2800   29.9280 C.ar      1 IHM        -0.0195
      5 C05        21.7360   -5.5000   30.6160 C.ar      1 IHM        -0.0361
      6 C06        22.0280   -5.5250   32.0140 C.ar      1 IHM         0.1139
      7 O07        22.3520   -4.3750   34.1410 O.3       1 IHM        -0.2657
      8 C08        22.4370   -3.2780   35.0400 C.3       1 IHM         0.3632
      9 F09        21.2610   -2.5950   35.1890 F         1 IHM        -0.1743
     10 F10        23.4030   -2.4000   34.5850 F         1 IHM        -0.1743
     11 O11        22.3230   -6.6530   32.7530 O.3       1 IHM        -0.3231
     12 C12        22.9330   -7.7620   32.0400 C.3       1 IHM         0.0706
     13 C13        23.1440   -8.8430   33.0390 C.3       1 IHM        -0.0135
     14 C14        21.8400   -9.4940   33.4440 C.3       1 IHM        -0.0475
     15 C15        23.0720  -10.2930   33.0350 C.3       1 IHM        -0.0475
     16 C16        21.1720   -4.3070   28.4470 C.3       1 IHM         0.1421
     17 O17        19.0310   -4.2710   22.5600 O.2       1 IHM        -0.1361
     18 C18        22.9210   -5.6760   27.1440 C.2       1 IHM         0.0545
     19 C19        22.9780   -6.9990   26.6710 C.2       1 IHM        -0.0408
     20 C20        21.7090   -7.5970   27.0760 C.2       1 IHM         0.0335
     21 N21        20.9700   -6.6710   27.7470 N.2       1 IHM        -0.2074
     22 N22        21.6750   -5.5350   27.7910 N.pl3     1 IHM        -0.1863
     23 C23        21.2320   -8.9660   26.8300 C.ar      1 IHM        -0.0283
     24 C24        19.9250   -9.3210   27.3240 C.ar      1 IHM        -0.0351
     25 C25        19.3710  -10.6550   27.1110 C.ar      1 IHM         0.0655
     26 C26        20.1710  -11.6430   26.3800 C.ar      1 IHM        -0.0419
     27 C27        21.4890  -11.2840   25.8860 C.ar      1 IHM        -0.0755
     28 C28        22.0260   -9.9540   26.1020 C.ar      1 IHM        -0.0702
     29 N29        18.0770  -10.9240   27.6210 N.am      1 IHM        -0.2345
     30 C30        16.8890  -10.1890   27.4710 C.2       1 IHM         0.2004
     31 O31        16.8000   -9.1150   26.8220 O.2       1 IHM        -0.3852
     32 C32        19.6310   -4.0670   28.1340 C.3       1 IHM         0.0920
     33 C33        15.6810  -10.7780   28.1600 C.3       1 IHM         0.0316
     34 C34        19.4630   -4.1050   26.6450 C.ar      1 IHM         0.1085
     35 C35        20.0870   -3.1000   25.7970 C.ar      1 IHM         0.0741
     36 C36        19.9260   -3.1690   24.3920 C.ar      1 IHM         0.1184
     37 N37        19.1570   -4.2170   23.7870 N.ar      1 IHM        -0.0960
     38 C38        18.5390   -5.2070   24.6280 C.ar      1 IHM         0.1184
     39 C39        18.6840   -5.1590   26.0370 C.ar      1 IHM         0.0741
     40 H1         21.7285   -2.0782   32.5819 H         1 IHM         0.0493
     41 H2         21.2287   -2.1009   30.1255 H         1 IHM         0.0437
     42 H3         21.7311   -6.4315   30.0617 H         1 IHM         0.0451
     43 H4         22.7363   -3.6651   36.0251 H         1 IHM         0.1412
     44 H5         23.8955   -7.4518   31.6072 H         1 IHM         0.0612
     45 H6         22.2658   -8.1110   31.2381 H         1 IHM         0.0612
     46 H7         23.8339   -8.4368   33.7933 H         1 IHM         0.0326
     47 H8         20.9626   -9.4442   32.7825 H         1 IHM         0.0269
     48 H9         21.5098   -9.4761   34.4931 H         1 IHM         0.0269
     49 H10        23.6252  -10.8703   33.7904 H         1 IHM         0.0269
     50 H11        23.0780  -10.8384   32.0798 H         1 IHM         0.0269
     51 H12        21.7239   -3.4637   28.0062 H         1 IHM         0.0912
     52 H13        23.6877   -4.9107   27.0328 H         1 IHM         0.0994
     53 H14        23.7905   -7.4736   26.1228 H         1 IHM         0.0352
     54 H15        19.3424   -8.5834   27.8639 H         1 IHM         0.0495
     55 H16        19.7796  -12.6392   26.2086 H         1 IHM         0.0498
     56 H17        22.0783  -12.0188   25.3495 H         1 IHM         0.0576
     57 H18        23.0091   -9.6946   25.7262 H         1 IHM         0.0489
     58 H19        17.9976  -11.7580   28.1670 H         1 IHM         0.2255
     59 H20        19.3169   -3.0870   28.5225 H         1 IHM         0.0921
     60 H21        19.0253   -4.8578   28.6006 H         1 IHM         0.0921
     61 H22        14.8076  -10.1329   27.9838 H         1 IHM         0.0472
     62 H23        15.8731  -10.8479   29.2408 H         1 IHM         0.0472
     63 H24        15.4824  -11.7821   27.7572 H         1 IHM         0.0472
     64 H25        20.6725   -2.3021   26.2392 H         1 IHM         0.1192
     65 H26        20.3913   -2.4179   23.7640 H         1 IHM         0.1101
     66 H27        17.9542   -6.0009   24.1777 H         1 IHM         0.1101
     67 H28        18.2113   -5.9118   26.6574 H         1 IHM         0.1192
@<TRIPOS>BOND
     1    2    1 ar 
     2    6    1 ar 
     3    1    7 1  
     4    3    2 ar 
     5    4    3 ar 
     6    4    5 ar 
     7   16    4 1  
     8    5    6 ar 
     9    6   11 1  
    10    7    8 1  
    11    8    9 1  
    12    8   10 1  
    13   11   12 1  
    14   12   13 1  
    15   13   14 1  
    16   13   15 1  
    17   15   14 1  
    18   16   22 1  
    19   32   16 1  
    20   37   17 2  
    21   18   19 2  
    22   22   18 1  
    23   20   19 1  
    24   21   20 2  
    25   20   23 1  
    26   22   21 1  
    27   23   24 ar 
    28   23   28 ar 
    29   24   25 ar 
    30   25   26 ar 
    31   25   29 1  
    32   27   26 ar 
    33   28   27 ar 
    34   29   30 am 
    35   30   31 2  
    36   30   33 1  
    37   34   32 1  
    38   35   34 ar 
    39   34   39 ar 
    40   36   35 ar 
    41   36   37 ar 
    42   37   38 ar 
    43   38   39 ar 
    44    2   40 1  
    45    3   41 1  
    46    5   42 1  
    47    8   43 1  
    48   12   44 1  
    49   12   45 1  
    50   13   46 1  
    51   14   47 1  
    52   14   48 1  
    53   15   49 1  
    54   15   50 1  
    55   16   51 1  
    56   18   52 1  
    57   19   53 1  
    58   24   54 1  
    59   26   55 1  
    60   27   56 1  
    61   28   57 1  
    62   29   58 1  
    63   32   59 1  
    64   32   60 1  
    65   33   61 1  
    66   33   62 1  
    67   33   63 1  
    68   35   64 1  
    69   36   65 1  
    70   38   66 1  
    71   39   67 1  
@<TRIPOS>SUBSTRUCTURE
     1 IHM         1

