### 
### Created by X-TOOL on Mon Aug  2 16:11:05 2021
### 

@<TRIPOS>MOLECULE
6om4_ligand
  137   139     1     0     0
SMALL
GAST_HUCK


@<TRIPOS>ATOM
      1 N         -22.7340   11.0070  -17.2370 N.am      1 FME        -0.2672
      2 CN        -23.7180   10.0110  -16.8720 C.2       1 FME         0.1716
      3 O1        -23.3780    8.9490  -16.4780 O.2       1 FME        -0.3830
      4 CA        -21.2960   10.6690  -17.0970 C.3       1 FME         0.1319
      5 CB        -20.5180   10.7230  -18.4250 C.3       1 FME        -0.0032
      6 CG        -20.7830   12.0230  -19.2220 C.3       1 FME        -0.0024
      7 SD        -19.7400   12.1340  -20.6790 S.3       1 FME        -0.1639
      8 CE        -18.0440   11.7180  -20.1080 C.3       1 FME        -0.0181
      9 C         -20.6070   11.6200  -16.1030 C.2       1 FME         0.2041
     10 O         -19.4360   11.8470  -16.1110 O.2       1 FME        -0.3944
     11 N         -21.4450   12.1580  -15.0350 N.am      1 FME        -0.2637
     12 CA        -20.9150   13.0350  -13.9530 C.3       1 FME         0.1311
     13 C         -20.4220   12.1910  -12.8010 C.2       1 FME         0.2040
     14 O         -20.1090   12.7010  -11.7600 O.2       1 FME        -0.3944
     15 CB        -21.9940   14.0400  -13.5670 C.3       1 FME        -0.0092
     16 CG        -22.0630   14.9730  -14.8400 C.3       1 FME        -0.0156
     17 CD        -22.9540   16.2140  -14.8830 C.3       1 FME         0.0627
     18 NE        -21.9520   17.2320  -14.7830 N.pl3     1 FME        -0.2723
     19 CZ        -21.6260   18.3140  -15.6420 C.cat     1 FME         0.2882
     20 NH1       -20.5080   19.0700  -15.1380 N.pl3     1 FME        -0.2849
     21 NH2       -22.1930   18.6420  -16.7560 N.pl3     1 FME        -0.2849
     22 N         -20.4190   10.7430  -12.9300 N.am      1 FME        -0.2613
     23 CA        -19.8560    9.8720  -11.9430 C.3       1 FME         0.1565
     24 C         -18.7800    9.1050  -12.7450 C.2       1 FME         0.2063
     25 O         -18.6470    9.1230  -13.9640 O.2       1 FME        -0.3943
     26 CB        -20.8170    8.9220  -11.2570 C.3       1 FME         0.0924
     27 OG1       -21.4370    8.1870  -12.2610 O.3       1 FME        -0.3874
     28 CG2       -21.7920    9.7880  -10.4270 C.3       1 FME        -0.0346
     29 N         -17.9230    8.3210  -11.8860 N.am      1 FME        -0.2663
     30 CA        -16.8690    7.5610  -12.4490 C.3       1 FME         0.1201
     31 C         -17.2990    6.3870  -13.3000 C.2       1 FME         0.2009
     32 O         -18.3490    5.7950  -13.1590 O.2       1 FME        -0.3947
     33 N         -16.2950    5.9360  -14.1990 N.am      1 FME        -0.2618
     34 CA        -16.7300    4.7730  -14.9570 C.3       1 FME         0.1476
     35 C         -16.3190    3.4230  -14.3530 C.2       1 FME         0.2062
     36 O         -15.5440    3.2520  -13.4350 O.2       1 FME        -0.3942
     37 CB        -16.2390    4.9040  -16.3200 C.3       1 FME         0.0773
     38 CG        -14.9090    5.4790  -16.5960 C.2       1 FME         0.1780
     39 OD1       -14.8110    6.6100  -16.8770 O.2       1 FME        -0.3970
     40 ND2       -13.8520    4.5810  -16.5250 N.am      1 FME        -0.3007
     41 N         -17.0710    2.3180  -14.9390 N.am      1 FME        -0.2639
     42 CA        -16.7620    0.9540  -14.6240 C.3       1 FME         0.1282
     43 C         -16.1710    0.4370  -15.9290 C.2       1 FME         0.2037
     44 O         -16.2970    1.0250  -16.9640 O.2       1 FME        -0.3944
     45 CB        -18.0070    0.2070  -14.1790 C.3       1 FME        -0.0244
     46 N         -15.4680   -0.8080  -15.9310 N.am      1 FME        -0.2621
     47 CA        -14.8490   -1.2820  -17.1750 C.3       1 FME         0.1436
     48 C         -14.5670   -2.7580  -17.2430 C.2       1 FME         0.2207
     49 O         -13.9140   -3.2470  -18.1390 O.2       1 FME        -0.3929
     50 CB        -13.4910   -0.5680  -17.3550 C.3       1 FME         0.0407
     51 CG        -12.8390   -0.0310  -16.0830 C.2       1 FME         0.0393
     52 OD1       -12.3370   -0.9660  -15.3750 O.co2     1 FME        -0.5688
     53 OD2       -12.8460    1.2450  -15.8450 O.co2     1 FME        -0.5688
     54 O1A       -15.7420   -5.5000  -14.7620 O.co2     1 FME        -0.6037
     55 PA        -15.0460   -5.1890  -16.0560 P.3       1 FME         0.2318
     56 O2A       -15.5610   -5.8650  -17.3190 O.co2     1 FME        -0.6037
     57 N3A       -15.2030   -3.5050  -16.2110 N.am      1 FME        -0.1850
     58 O5'       -13.4910   -5.4980  -16.0220 O.3       1 FME        -0.2531
     59 C5'       -12.7510   -4.9270  -14.9000 C.3       1 FME         0.1133
     60 C4'       -11.4960   -5.8240  -14.7470 C.3       1 FME         0.1191
     61 C3'       -11.9320   -7.1860  -14.1080 C.3       1 FME         0.1150
     62 O3'       -11.4400   -8.2730  -14.7910 O.3       1 FME        -0.3864
     63 C2'       -11.4570   -6.9820  -12.6070 C.3       1 FME         0.1385
     64 O2'       -10.9930   -8.2670  -12.0370 O.3       1 FME        -0.3836
     65 C1'       -10.4100   -6.1490  -12.6790 C.3       1 FME         0.2010
     66 O4'       -10.6930   -5.1880  -13.9530 O.3       1 FME        -0.3364
     67 N9        -10.2080   -5.2470  -11.5810 N.pl3     1 FME        -0.1919
     68 C4         -9.0380   -5.0550  -10.9110 C.ar      1 FME         0.1613
     69 C5         -9.2610   -4.1140   -9.9700 C.ar      1 FME         0.1045
     70 N7        -10.5510   -3.7160  -10.0630 N.2       1 FME        -0.2958
     71 C8        -11.1000   -4.3980  -11.0490 C.2       1 FME         0.1123
     72 N3         -7.8260   -5.6320  -11.0510 N.ar      1 FME        -0.2714
     73 C2         -6.8550   -5.2590  -10.2730 C.ar      1 FME         0.0533
     74 N1         -7.0500   -4.3420   -9.3190 N.ar      1 FME        -0.2698
     75 C6         -8.2070   -3.7580   -9.1550 C.ar      1 FME         0.1298
     76 N6         -8.3920   -2.7660   -8.1110 N.pl3     1 FME        -0.3152
     77 H1        -23.0170   11.9041  -17.5764 H         1 FME         0.1892
     78 H2        -24.7788   10.2408  -16.9607 H         1 FME         0.1545
     79 H3        -21.2325    9.6432  -16.7050 H         1 FME         0.0802
     80 H4        -20.8180    9.8642  -19.0434 H         1 FME         0.0320
     81 H5        -19.4421   10.6586  -18.2051 H         1 FME         0.0320
     82 H6        -20.5803   12.8870  -18.5721 H         1 FME         0.0378
     83 H7        -21.8370   12.0397  -19.5362 H         1 FME         0.0378
     84 H8        -17.3483   11.7675  -20.9586 H         1 FME         0.0340
     85 H9        -18.0376   10.7015  -19.6877 H         1 FME         0.0340
     86 H10       -17.7306   12.4360  -19.3359 H         1 FME         0.0340
     87 H11       -22.4181   11.9276  -15.0294 H         1 FME         0.1883
     88 H12       -20.0550   13.5976  -14.3453 H         1 FME         0.0800
     89 H13       -21.7046   14.6098  -12.6717 H         1 FME         0.0313
     90 H14       -22.9573   13.5400  -13.3879 H         1 FME         0.0313
     91 H15       -22.3849   14.3330  -15.6747 H         1 FME         0.0301
     92 H16       -21.0364   15.3238  -15.0216 H         1 FME         0.0301
     93 H17       -23.6552   16.2446  -14.0360 H         1 FME         0.0689
     94 H18       -23.5154   16.2829  -15.8264 H         1 FME         0.0689
     95 H19       -21.3645   17.1679  -13.9394 H         1 FME         0.2642
     96 H20       -20.1609   19.8867  -15.6609 H         1 FME         0.2615
     97 H21       -20.0558   18.7939  -14.2547 H         1 FME         0.2615
     98 H22       -22.9917   18.0951  -17.1079 H         1 FME         0.2615
     99 H23       -21.8462   19.4503  -17.2920 H         1 FME         0.2615
    100 H24       -20.8293   10.3363  -13.7462 H         1 FME         0.1884
    101 H25       -19.3802   10.4793  -11.1589 H         1 FME         0.0826
    102 H26       -20.2764    8.2385  -10.5858 H         1 FME         0.0639
    103 H27       -21.9018    8.7770  -12.8429 H         1 FME         0.2101
    104 H28       -22.5112    9.1364   -9.9092 H         1 FME         0.0257
    105 H29       -22.3335   10.4735  -11.0954 H         1 FME         0.0257
    106 H30       -21.2251   10.3703   -9.6857 H         1 FME         0.0257
    107 H31       -18.0735    8.3150  -10.8974 H         1 FME         0.1881
    108 H32       -16.2513    7.1746  -11.6249 H         1 FME         0.0763
    109 H33       -16.2645    8.2320  -13.0770 H         1 FME         0.0763
    110 H34       -15.3978    6.3662  -14.2985 H         1 FME         0.1885
    111 H35       -17.8295    4.7902  -14.9850 H         1 FME         0.0826
    112 H36       -16.9677    5.5297  -16.8562 H         1 FME         0.0551
    113 H37       -16.2376    3.8918  -16.7507 H         1 FME         0.0551
    114 H38       -12.9181    4.8932  -16.6992 H         1 FME         0.1814
    115 H39       -14.0248    3.6222  -16.2997 H         1 FME         0.1814
    116 H40       -17.8177    2.5165  -15.5738 H         1 FME         0.1883
    117 H41       -16.0135    0.8987  -13.8199 H         1 FME         0.0797
    118 H42       -17.7448   -0.8350  -13.9434 H         1 FME         0.0277
    119 H43       -18.7531    0.2236  -14.9871 H         1 FME         0.0277
    120 H44       -18.4249    0.6912  -13.2841 H         1 FME         0.0277
    121 H45       -15.3987   -1.3503  -15.0937 H         1 FME         0.1884
    122 H46       -15.5194   -1.0200  -18.0068 H         1 FME         0.0819
    123 H47       -13.6458    0.2810  -18.0371 H         1 FME         0.0478
    124 H48       -12.7932   -1.2842  -17.8134 H         1 FME         0.0478
    125 H49       -15.7681   -3.0155  -15.5469 H         1 FME         0.2110
    126 H50       -13.3584   -4.9529  -13.9833 H         1 FME         0.0651
    127 H51       -12.4596   -3.8889  -15.1176 H         1 FME         0.0651
    128 H52       -11.0169   -5.9999  -15.7214 H         1 FME         0.0651
    129 H53       -13.0284   -7.2734  -14.1247 H         1 FME         0.0648
    130 H54       -10.4905   -8.2417  -14.7920 H         1 FME         0.2100
    131 H55       -12.2647   -6.5591  -11.9916 H         1 FME         0.0676
    132 H56       -10.2653   -8.5960  -12.5515 H         1 FME         0.2101
    133 H57        -9.4963   -6.7441  -12.8236 H         1 FME         0.0996
    134 H58       -12.1304   -4.2878  -11.3837 H         1 FME         0.1349
    135 H59        -5.8717   -5.6976  -10.3988 H         1 FME         0.0996
    136 H60        -7.6020   -2.5031   -7.5046 H         1 FME         0.1820
    137 H61        -9.3132   -2.3252   -7.9768 H         1 FME         0.1820
@<TRIPOS>BOND
     1    1    2 am 
     2    4    1 1  
     3    2    3 2  
     4    4    5 1  
     5    9    4 1  
     6    5    6 1  
     7    6    7 1  
     8    7    8 1  
     9    9   10 2  
    10   11    9 am 
    11   12   11 1  
    12   13   12 1  
    13   12   15 1  
    14   13   14 2  
    15   22   13 am 
    16   15   16 1  
    17   16   17 1  
    18   17   18 1  
    19   18   19 ar 
    20   19   20 ar 
    21   19   21 ar 
    22   23   22 1  
    23   24   23 1  
    24   23   26 1  
    25   24   25 2  
    26   29   24 am 
    27   26   27 1  
    28   26   28 1  
    29   30   29 1  
    30   31   30 1  
    31   31   32 2  
    32   33   31 am 
    33   34   33 1  
    34   35   34 1  
    35   34   37 1  
    36   35   36 2  
    37   41   35 am 
    38   37   38 1  
    39   38   39 2  
    40   38   40 am 
    41   42   41 1  
    42   43   42 1  
    43   42   45 1  
    44   43   44 2  
    45   46   43 am 
    46   47   46 1  
    47   48   47 1  
    48   47   50 1  
    49   48   49 2  
    50   57   48 am 
    51   50   51 1  
    52   51   52 ar 
    53   51   53 ar 
    54   55   54 ar 
    55   55   56 ar 
    56   55   57 am 
    57   55   58 1  
    58   58   59 1  
    59   59   60 1  
    60   60   61 1  
    61   60   66 1  
    62   61   62 1  
    63   61   63 1  
    64   63   64 1  
    65   63   65 1  
    66   65   66 1  
    67   65   67 1  
    68   67   68 1  
    69   67   71 1  
    70   68   69 ar 
    71   68   72 ar 
    72   69   70 1  
    73   69   75 ar 
    74   70   71 2  
    75   72   73 ar 
    76   73   74 ar 
    77   74   75 ar 
    78   75   76 1  
    79    1   77 1  
    80    2   78 1  
    81    4   79 1  
    82    5   80 1  
    83    5   81 1  
    84    6   82 1  
    85    6   83 1  
    86    8   84 1  
    87    8   85 1  
    88    8   86 1  
    89   11   87 1  
    90   12   88 1  
    91   15   89 1  
    92   15   90 1  
    93   16   91 1  
    94   16   92 1  
    95   17   93 1  
    96   17   94 1  
    97   18   95 1  
    98   20   96 1  
    99   20   97 1  
   100   21   98 1  
   101   21   99 1  
   102   22  100 1  
   103   23  101 1  
   104   26  102 1  
   105   27  103 1  
   106   28  104 1  
   107   28  105 1  
   108   28  106 1  
   109   29  107 1  
   110   30  108 1  
   111   30  109 1  
   112   33  110 1  
   113   34  111 1  
   114   37  112 1  
   115   37  113 1  
   116   40  114 1  
   117   40  115 1  
   118   41  116 1  
   119   42  117 1  
   120   45  118 1  
   121   45  119 1  
   122   45  120 1  
   123   46  121 1  
   124   47  122 1  
   125   50  123 1  
   126   50  124 1  
   127   57  125 1  
   128   59  126 1  
   129   59  127 1  
   130   60  128 1  
   131   61  129 1  
   132   62  130 1  
   133   63  131 1  
   134   64  132 1  
   135   65  133 1  
   136   71  134 1  
   137   73  135 1  
   138   76  136 1  
   139   76  137 1  
@<TRIPOS>SUBSTRUCTURE
     1 FME         1

