6om4_ligand
  -I-interpret- 

138140  0  0  0  0  0  0  0  0999 V2000
  -22.7340   11.0070  -17.2370 N   0  0  0  0  0
  -23.7180   10.0110  -16.8720 C   0  0  0  0  0
  -23.3780    8.9490  -16.4780 O   0  0  0  0  0
  -21.2960   10.6690  -17.0970 C   0  0  0  0  0
  -20.5180   10.7230  -18.4250 C   0  0  0  0  0
  -20.7830   12.0230  -19.2220 C   0  0  0  0  0
  -19.7400   12.1340  -20.6790 S   0  0  0  0  0
  -18.0440   11.7180  -20.1080 C   0  0  0  0  0
  -20.6070   11.6200  -16.1030 C   0  0  0  0  0
  -19.4360   11.8470  -16.1110 O   0  0  0  0  0
  -21.4450   12.1580  -15.0350 N   0  0  0  0  0
  -20.9150   13.0350  -13.9530 C   0  0  0  0  0
  -20.4220   12.1910  -12.8010 C   0  0  0  0  0
  -20.1090   12.7010  -11.7600 O   0  0  0  0  0
  -21.9940   14.0400  -13.5670 C   0  0  0  0  0
  -22.0630   14.9730  -14.8400 C   0  0  0  0  0
  -22.9540   16.2140  -14.8830 C   0  0  0  0  0
  -21.9520   17.2320  -14.7830 N   0  0  0  0  0
  -21.6260   18.3140  -15.6420 C   0  0  0  0  0
  -20.5080   19.0700  -15.1380 N   0  0  0  0  0
  -22.1930   18.6420  -16.7560 N   0  0  0  0  0
  -20.4190   10.7430  -12.9300 N   0  0  0  0  0
  -19.8560    9.8720  -11.9430 C   0  0  0  0  0
  -18.7800    9.1050  -12.7450 C   0  0  0  0  0
  -18.6470    9.1230  -13.9640 O   0  0  0  0  0
  -20.8170    8.9220  -11.2570 C   0  0  0  0  0
  -21.4370    8.1870  -12.2610 O   0  0  0  0  0
  -21.7920    9.7880  -10.4270 C   0  0  0  0  0
  -17.9230    8.3210  -11.8860 N   0  0  0  0  0
  -16.8690    7.5610  -12.4490 C   0  0  0  0  0
  -17.2990    6.3870  -13.3000 C   0  0  0  0  0
  -18.3490    5.7950  -13.1590 O   0  0  0  0  0
  -16.2950    5.9360  -14.1990 N   0  0  0  0  0
  -16.7300    4.7730  -14.9570 C   0  0  0  0  0
  -16.3190    3.4230  -14.3530 C   0  0  0  0  0
  -15.5440    3.2520  -13.4350 O   0  0  0  0  0
  -16.2390    4.9040  -16.3200 C   0  0  0  0  0
  -14.9090    5.4790  -16.5960 C   0  0  0  0  0
  -14.8110    6.6100  -16.8770 O   0  0  0  0  0
  -13.8520    4.5810  -16.5250 N   0  0  0  0  0
  -17.0710    2.3180  -14.9390 N   0  0  0  0  0
  -16.7620    0.9540  -14.6240 C   0  0  0  0  0
  -16.1710    0.4370  -15.9290 C   0  0  0  0  0
  -16.2970    1.0250  -16.9640 O   0  0  0  0  0
  -18.0070    0.2070  -14.1790 C   0  0  0  0  0
  -15.4680   -0.8080  -15.9310 N   0  0  0  0  0
  -14.8490   -1.2820  -17.1750 C   0  0  0  0  0
  -14.5670   -2.7580  -17.2430 C   0  0  0  0  0
  -13.9140   -3.2470  -18.1390 O   0  0  0  0  0
  -13.4910   -0.5680  -17.3550 C   0  0  0  0  0
  -12.8390   -0.0310  -16.0830 C   0  0  0  0  0
  -12.3370   -0.9660  -15.3750 O   0  0  0  0  0
  -12.8460    1.2450  -15.8450 O   0  0  0  0  0
  -15.7420   -5.5000  -14.7620 O   0  0  0  0  0
  -15.0460   -5.1890  -16.0560 P   0  0  0  0  0
  -15.5610   -5.8650  -17.3190 O   0  0  0  0  0
  -15.2030   -3.5050  -16.2110 N   0  0  0  0  0
  -13.4910   -5.4980  -16.0220 O   0  0  0  0  0
  -12.7510   -4.9270  -14.9000 C   0  0  0  0  0
  -11.4960   -5.8240  -14.7470 C   0  0  0  0  0
  -11.9320   -7.1860  -14.1080 C   0  0  0  0  0
  -11.4400   -8.2730  -14.7910 O   0  0  0  0  0
  -11.4570   -6.9820  -12.6070 C   0  0  0  0  0
  -10.9930   -8.2670  -12.0370 O   0  0  0  0  0
  -10.4100   -6.1490  -12.6790 C   0  0  0  0  0
  -10.6930   -5.1880  -13.9530 O   0  0  0  0  0
  -10.2080   -5.2470  -11.5810 N   0  0  0  0  0
   -9.0380   -5.0550  -10.9110 C   0  0  0  0  0
   -9.2610   -4.1140   -9.9700 C   0  0  0  0  0
  -10.5510   -3.7160  -10.0630 N   0  0  0  0  0
  -11.1000   -4.3980  -11.0490 C   0  0  0  0  0
   -7.8260   -5.6320  -11.0510 N   0  0  0  0  0
   -6.8550   -5.2590  -10.2730 C   0  0  0  0  0
   -7.0500   -4.3420   -9.3190 N   0  0  0  0  0
   -8.2070   -3.7580   -9.1550 C   0  0  0  0  0
   -8.3920   -2.7660   -8.1110 N   0  0  0  0  0
  -23.0227   11.9220  -17.5832 H   0  0  0  0  0
  -24.7798   10.2410  -16.9608 H   0  0  0  0  0
  -21.2772    9.6412  -16.7346 H   0  0  0  0  0
  -20.8446    9.8829  -19.0379 H   0  0  0  0  0
  -19.4541   10.6858  -18.1907 H   0  0  0  0  0
  -20.5617   12.8726  -18.5761 H   0  0  0  0  0
  -21.8242   12.0215  -19.5446 H   0  0  0  0  0
  -17.7347   12.4301  -19.3429 H   0  0  0  0  0
  -18.0390   10.7106  -19.6918 H   0  0  0  0  0
  -17.3556   11.7673  -20.9517 H   0  0  0  0  0
  -22.4375   11.9230  -15.0293 H   0  0  0  0  0
  -20.0512   13.6066  -14.2924 H   0  0  0  0  0
  -21.7632   14.5837  -12.6509 H   0  0  0  0  0
  -22.9488   13.5712  -13.3287 H   0  0  0  0  0
  -22.4842   14.3269  -15.6102 H   0  0  0  0  0
  -21.0539   15.3778  -14.9175 H   0  0  0  0  0
  -23.7179   16.2513  -14.1064 H   0  0  0  0  0
  -23.5883   16.2868  -15.7664 H   0  0  0  0  0
  -21.3702   17.1685  -13.9476 H   0  0  0  0  0
  -20.1572   19.8721  -15.6615 H   0  0  0  0  0
  -20.0672   18.8032  -14.2577 H   0  0  0  0  0
  -22.9757   18.0926  -17.1110 H   0  0  0  0  0
  -20.8375   10.3282  -13.7626 H   0  0  0  0  0
  -19.4847   10.4490  -11.0960 H   0  0  0  0  0
  -20.3431    8.2170  -10.5740 H   0  0  0  0  0
  -22.0576    7.5694  -11.8672 H   0  0  0  0  0
  -21.2291   10.3644   -9.6929 H   0  0  0  0  0
  -22.3279   10.4668  -11.0904 H   0  0  0  0  0
  -22.5041    9.1413   -9.9145 H   0  0  0  0  0
  -18.0765    8.3149  -10.8776 H   0  0  0  0  0
  -16.3017    7.1493  -11.6143 H   0  0  0  0  0
  -16.3152    8.2339  -13.1037 H   0  0  0  0  0
  -15.3798    6.3748  -14.3005 H   0  0  0  0  0
  -17.8196    4.7609  -14.9299 H   0  0  0  0  0
  -16.9320    5.6056  -16.7844 H   0  0  0  0  0
  -16.1609    3.8757  -16.6729 H   0  0  0  0  0
  -12.9024    4.8941  -16.7264 H   0  0  0  0  0
  -14.0253    3.6083  -16.2714 H   0  0  0  0  0
  -17.8327    2.5205  -15.5865 H   0  0  0  0  0
  -16.0725    0.8261  -13.7895 H   0  0  0  0  0
  -18.4201    0.6878  -13.2923 H   0  0  0  0  0
  -18.7454    0.2242  -14.9806 H   0  0  0  0  0
  -17.7459   -0.8253  -13.9459 H   0  0  0  0  0
  -15.3973   -1.3612  -15.0769 H   0  0  0  0  0
  -15.5801   -1.0596  -17.9522 H   0  0  0  0  0
  -13.6837    0.2984  -17.9878 H   0  0  0  0  0
  -12.8055   -1.3139  -17.7573 H   0  0  0  0  0
  -13.2984    1.7001  -16.5590 H   0  0  0  0  0
  -15.0332   -5.5828  -18.0696 H   0  0  0  0  0
  -15.7794   -3.0057  -15.5336 H   0  0  0  0  0
  -13.3489   -4.9110  -13.9888 H   0  0  0  0  0
  -12.4832   -3.8861  -15.0813 H   0  0  0  0  0
  -11.0113   -6.0308  -15.7011 H   0  0  0  0  0
  -12.9952   -7.4217  -14.1543 H   0  0  0  0  0
  -11.7343   -9.0795  -14.3613 H   0  0  0  0  0
  -12.2654   -6.6011  -11.9829 H   0  0  0  0  0
  -10.7090   -8.1296  -11.1303 H   0  0  0  0  0
   -9.5324   -6.7945  -12.7142 H   0  0  0  0  0
  -12.1314   -4.2877  -11.3840 H   0  0  0  0  0
   -5.8663   -5.7000  -10.3995 H   0  0  0  0  0
   -9.3042   -2.3295   -7.9781 H   0  0  0  0  0
   -7.6097   -2.5056   -7.5105 H   0  0  0  0  0
  1  2  1  0  0  0
  4  1  1  0  0  0
  2  3  2  0  0  0
  4  5  1  0  0  0
  9  4  1  0  0  0
  5  6  1  0  0  0
  6  7  1  0  0  0
  7  8  1  0  0  0
  9 10  2  0  0  0
 11  9  1  0  0  0
 12 11  1  0  0  0
 13 12  1  0  0  0
 12 15  1  0  0  0
 13 14  2  0  0  0
 22 13  1  0  0  0
 15 16  1  0  0  0
 16 17  1  0  0  0
 17 18  1  0  0  0
 18 19  1  0  0  0
 19 20  1  0  0  0
 19 21  2  0  0  0
 23 22  1  0  0  0
 24 23  1  0  0  0
 23 26  1  0  0  0
 24 25  2  0  0  0
 29 24  1  0  0  0
 26 27  1  0  0  0
 26 28  1  0  0  0
 30 29  1  0  0  0
 31 30  1  0  0  0
 31 32  2  0  0  0
 33 31  1  0  0  0
 34 33  1  0  0  0
 35 34  1  0  0  0
 34 37  1  0  0  0
 35 36  2  0  0  0
 41 35  1  0  0  0
 37 38  1  0  0  0
 38 39  2  0  0  0
 38 40  1  0  0  0
 42 41  1  0  0  0
 43 42  1  0  0  0
 42 45  1  0  0  0
 43 44  2  0  0  0
 46 43  1  0  0  0
 47 46  1  0  0  0
 48 47  1  0  0  0
 47 50  1  0  0  0
 48 49  2  0  0  0
 57 48  1  0  0  0
 50 51  1  0  0  0
 51 52  2  0  0  0
 51 53  1  0  0  0
 55 54  2  0  0  0
 55 56  1  0  0  0
 55 57  1  0  0  0
 55 58  1  0  0  0
 58 59  1  0  0  0
 59 60  1  0  0  0
 60 61  1  0  0  0
 60 66  1  0  0  0
 61 62  1  0  0  0
 61 63  1  0  0  0
 63 64  1  0  0  0
 63 65  1  0  0  0
 65 66  1  0  0  0
 65 67  1  0  0  0
 67 68  4  0  0  0
 67 71  4  0  0  0
 68 69  4  0  0  0
 68 72  4  0  0  0
 69 70  4  0  0  0
 69 75  4  0  0  0
 70 71  4  0  0  0
 72 73  4  0  0  0
 73 74  4  0  0  0
 74 75  4  0  0  0
 75 76  1  0  0  0
  1 77  1  0  0  0
  2 78  1  0  0  0
  4 79  1  0  0  0
  5 80  1  0  0  0
  5 81  1  0  0  0
  6 82  1  0  0  0
  6 83  1  0  0  0
  8 84  1  0  0  0
  8 85  1  0  0  0
  8 86  1  0  0  0
 11 87  1  0  0  0
 12 88  1  0  0  0
 15 89  1  0  0  0
 15 90  1  0  0  0
 16 91  1  0  0  0
 16 92  1  0  0  0
 17 93  1  0  0  0
 17 94  1  0  0  0
 18 95  1  0  0  0
 20 96  1  0  0  0
 20 97  1  0  0  0
 21 98  1  0  0  0
 22 99  1  0  0  0
 23100  1  0  0  0
 26101  1  0  0  0
 27102  1  0  0  0
 28103  1  0  0  0
 28104  1  0  0  0
 28105  1  0  0  0
 29106  1  0  0  0
 30107  1  0  0  0
 30108  1  0  0  0
 33109  1  0  0  0
 34110  1  0  0  0
 37111  1  0  0  0
 37112  1  0  0  0
 40113  1  0  0  0
 40114  1  0  0  0
 41115  1  0  0  0
 42116  1  0  0  0
 45117  1  0  0  0
 45118  1  0  0  0
 45119  1  0  0  0
 46120  1  0  0  0
 47121  1  0  0  0
 50122  1  0  0  0
 50123  1  0  0  0
 53124  1  0  0  0
 56125  1  0  0  0
 57126  1  0  0  0
 59127  1  0  0  0
 59128  1  0  0  0
 60129  1  0  0  0
 61130  1  0  0  0
 62131  1  0  0  0
 63132  1  0  0  0
 64133  1  0  0  0
 65134  1  0  0  0
 71135  1  0  0  0
 73136  1  0  0  0
 76137  1  0  0  0
 76138  1  0  0  0
M  END
$$$$
