### 
### Created by X-TOOL on Mon Sep 10 21:13:12 2018
### 

@<TRIPOS>MOLECULE
4gao_ligand
  142   141     1     0     0
SMALL
GAST_HUCK


@<TRIPOS>ATOM
      1 CT2         5.3460   34.0700    5.5880 C.3       1 AME         0.0258
      2 CT1         4.5320   33.8250    6.8260 C.2       1 AME         0.1751
      3 OT          3.6080   33.0240    6.8430 O.2       1 AME        -0.3972
      4 CB          5.3310   34.6470   10.2160 C.3       1 AME        -0.0034
      5 CG          6.4660   33.6390   10.0660 C.3       1 AME        -0.0024
      6 SD          6.0040   32.1270   10.8490 S.3       1 AME        -0.1639
      7 CE          7.2850   30.9540   10.4680 C.3       1 AME        -0.0181
      8 C           3.1540   35.5080    9.3430 C.2       1 AME         0.2039
      9 O           3.1700   36.2580   10.3060 O.2       1 AME        -0.3944
     10 N           4.8910   34.5430    7.8910 N.am      1 AME        -0.2658
     11 CA          4.2220   34.4450    9.1830 C.3       1 AME         0.1316
     12 N           2.2230   35.5470    8.3870 N.am      1 ILE        -0.2635
     13 CA          1.2300   36.6580    8.2430 C.3       1 ILE         0.1335
     14 C           0.6220   37.0760    9.5830 C.2       1 ILE         0.2041
     15 O           0.5650   38.2660    9.8870 O.2       1 ILE        -0.3944
     16 CB          0.0970   36.2840    7.2410 C.3       1 ILE        -0.0037
     17 CG1         0.6420   36.1490    5.8120 C.3       1 ILE        -0.0491
     18 CG2        -1.0590   37.2870    7.2990 C.3       1 ILE        -0.0582
     19 CD1         1.0210   37.4610    5.1490 C.3       1 ILE        -0.0648
     20 N           0.1910   36.1030   10.3880 N.am      1 LYS        -0.2640
     21 CA         -0.5150   36.3990   11.6380 C.3       1 LYS         0.1282
     22 C           0.3810   36.8630   12.8030 C.2       1 LYS         0.2036
     23 O          -0.1260   37.1470   13.8920 O.2       1 LYS        -0.3944
     24 CB         -1.3960   35.2110   12.0650 C.3       1 LYS        -0.0244
     25 N           1.6920   36.9650   12.5750 N.am      1 LEU        -0.2637
     26 CA          2.6370   37.2950   13.6540 C.3       1 LEU         0.1312
     27 C           2.4500   38.6810   14.2610 C.2       1 LEU         0.2039
     28 O           2.6980   38.8670   15.4550 O.2       1 LEU        -0.3944
     29 CB          4.0940   37.1040   13.2110 C.3       1 LEU        -0.0101
     30 CG          5.1490   37.0880   14.3260 C.3       1 LEU        -0.0425
     31 CD1         4.9120   35.9300   15.2800 C.3       1 LEU        -0.0625
     32 CD2         6.5650   37.0490   13.7680 C.3       1 LEU        -0.0625
     33 N           2.0250   39.6460   13.4440 N.am      1 PHE        -0.2640
     34 CA          1.7860   41.0120   13.9210 C.3       1 PHE         0.1282
     35 C           0.5670   41.0850   14.8490 C.2       1 PHE         0.2036
     36 O           0.6270   41.6970   15.9190 O.2       1 PHE        -0.3944
     37 CB          1.6330   41.9850   12.7470 C.3       1 PHE        -0.0244
     38 N          -0.5290   40.4510   14.4350 N.am      1 SER        -0.2640
     39 CA         -1.7430   40.3840   15.2470 C.3       1 SER         0.1282
     40 C          -1.5110   39.6190   16.5490 C.2       1 SER         0.2036
     41 O          -2.0310   40.0010   17.5970 O.2       1 SER        -0.3944
     42 CB         -2.8910   39.7460   14.4580 C.3       1 SER        -0.0244
     43 N          -0.7220   38.5500   16.4750 N.am      1 LEU        -0.2640
     44 CA         -0.4450   37.7030   17.6340 C.3       1 LEU         0.1282
     45 C           0.5360   38.3390   18.6270 C.2       1 LEU         0.2036
     46 O           0.6140   37.9090   19.7810 O.2       1 LEU        -0.3944
     47 CB          0.0390   36.3160   17.1960 C.3       1 LEU        -0.0244
     48 N           1.2750   39.3580   18.1780 N.am      1 LYS        -0.2640
     49 CA          2.1600   40.1350   19.0570 C.3       1 LYS         0.1282
     50 C           1.3880   41.2600   19.7500 C.2       1 LYS         0.2036
     51 O           1.5610   41.4900   20.9470 O.2       1 LYS        -0.3944
     52 CB          3.3570   40.6980   18.2830 C.3       1 LYS        -0.0244
     53 N           0.5270   41.9420   18.9940 N.am      1 GLN        -0.2640
     54 CA         -0.3590   42.9780   19.5360 C.3       1 GLN         0.1282
     55 C          -1.4370   42.4150   20.4770 C.2       1 GLN         0.2036
     56 O          -2.0330   43.1580   21.2670 O.2       1 GLN        -0.3944
     57 CB         -1.0050   43.7830   18.3990 C.3       1 GLN        -0.0244
     58 N          -1.6780   41.1070   20.3880 N.am      1 GLN        -0.2640
     59 CA         -2.6570   40.4280   21.2440 C.3       1 GLN         0.1282
     60 C          -2.0350   39.8010   22.5020 C.2       1 GLN         0.2031
     61 O          -2.7550   39.4680   23.4530 O.2       1 GLN        -0.3944
     62 CB         -3.4330   39.3600   20.4500 C.3       1 GLN        -0.0244
     63 N          -0.7100   39.6350   22.5000 N.am      1 LYS        -0.2698
     64 CA          0.0040   39.0620   23.6500 C.3       1 LYS         0.0916
     65 C           0.7490   40.1330   24.4550 C.2       1 LYS         0.0598
     66 O           0.3953   40.4265   25.6282 O.co2     1 LYS        -0.5666
     67 CB          0.9660   37.9480   23.2130 C.3       1 LYS        -0.0300
     68 H           5.8218   33.1398    5.2775 H         1 AME         0.0467
     69 H           4.6945   34.4298    4.7916 H         1 AME         0.0467
     70 H           6.1105   34.8176    5.7994 H         1 AME         0.0467
     71 H           5.7471   35.6438   10.0697 H         1 AME         0.0320
     72 H           4.8944   34.5145   11.2059 H         1 AME         0.0320
     73 H           7.3692   34.0322   10.5327 H         1 AME         0.0378
     74 H           6.6593   33.4597    9.0084 H         1 AME         0.0378
     75 H           7.3527   30.8302    9.3872 H         1 AME         0.0340
     76 H           8.2368   31.3194   10.8535 H         1 AME         0.0340
     77 H           7.0479   29.9959   10.9306 H         1 AME         0.0340
     78 H           5.6718   35.1926    7.7972 H         1 AME         0.1882
     79 H           3.7127   33.4878    9.2944 H         1 AME         0.0800
     80 H           2.1862   34.7778    7.7181 H         1 ILE         0.1883
     81 H           1.7841   37.5094    7.8478 H         1 ILE         0.0803
     82 H          -0.2969   35.3131    7.5415 H         1 ILE         0.0345
     83 H          -0.1529   35.7083    5.2103 H         1 ILE         0.0267
     84 H           1.5517   35.5519    5.8752 H         1 ILE         0.0267
     85 H          -1.4781   37.2987    8.3052 H         1 ILE         0.0235
     86 H          -0.6891   38.2808    7.0465 H         1 ILE         0.0235
     87 H          -1.8296   36.9929    6.5865 H         1 ILE         0.0235
     88 H           0.1432   38.1046    5.0918 H         1 ILE         0.0230
     89 H           1.7961   37.9529    5.7366 H         1 ILE         0.0230
     90 H           1.3949   37.2642    4.1442 H         1 ILE         0.0230
     91 H           0.3566   35.1308   10.1275 H         1 LYS         0.1883
     92 H          -1.1429   37.2596   11.4071 H         1 LYS         0.0797
     93 H          -2.1309   35.0070   11.2863 H         1 LYS         0.0277
     94 H          -0.7699   34.3314   12.2150 H         1 LYS         0.0277
     95 H          -1.9088   35.4564   12.9950 H         1 LYS         0.0277
     96 H           2.0472   36.8107   11.6314 H         1 LEU         0.1883
     97 H           2.4026   36.5835   14.4458 H         1 LEU         0.0800
     98 H           4.3334   37.9597   12.5797 H         1 LEU         0.0315
     99 H           4.1403   36.1240   12.7360 H         1 LEU         0.0315
    100 H           5.0451   38.0193   14.8827 H         1 LEU         0.0298
    101 H           3.9251   36.0294   15.7320 H         1 LEU         0.0232
    102 H           4.9682   34.9906   14.7301 H         1 LEU         0.0232
    103 H           5.6732   35.9420   16.0601 H         1 LEU         0.0232
    104 H           6.6918   36.1501   13.1646 H         1 LEU         0.0232
    105 H           6.7348   37.9303   13.1494 H         1 LEU         0.0232
    106 H           7.2786   37.0388   14.5918 H         1 LEU         0.0232
    107 H           1.8619   39.4279   12.4610 H         1 PHE         0.1883
    108 H           2.6594   41.3092   14.5015 H         1 PHE         0.0797
    109 H           2.5445   41.9774   12.1493 H         1 PHE         0.0277
    110 H           0.7893   41.6772   12.1293 H         1 PHE         0.0277
    111 H           1.4568   42.9900   13.1303 H         1 PHE         0.0277
    112 H          -0.5210   39.9974   13.5215 H         1 SER         0.1883
    113 H          -2.0166   41.4075   15.5033 H         1 SER         0.0797
    114 H          -3.0948   40.3427   13.5689 H         1 SER         0.0277
    115 H          -2.6093   38.7354   14.1622 H         1 SER         0.0277
    116 H          -3.7828   39.7075   15.0836 H         1 SER         0.0277
    117 H          -0.2959   38.3134   15.5790 H         1 LEU         0.1883
    118 H          -1.3900   37.5930   18.1660 H         1 LEU         0.0797
    119 H          -0.7305   35.8390   16.5890 H         1 LEU         0.0277
    120 H           0.9528   36.4195   16.6109 H         1 LEU         0.0277
    121 H           0.2376   35.7067   18.0777 H         1 LEU         0.0277
    122 H           1.2229   39.6053   17.1898 H         1 LYS         0.1883
    123 H           2.5432   39.4599   19.8222 H         1 LYS         0.0797
    124 H           3.9288   39.8760   17.8524 H         1 LYS         0.0277
    125 H           2.9988   41.3497   17.4861 H         1 LYS         0.0277
    126 H           3.9918   41.2674   18.9619 H         1 LYS         0.0277
    127 H           0.4825   41.7345   17.9963 H         1 GLN         0.1883
    128 H           0.2656   43.6392   20.1367 H         1 GLN         0.0797
    129 H          -0.2255   44.2590   17.8041 H         1 GLN         0.0277
    130 H          -1.5881   43.1131   17.7670 H         1 GLN         0.0277
    131 H          -1.6584   44.5463   18.8216 H         1 GLN         0.0277
    132 H          -1.1629   40.5582   19.6996 H         1 GLN         0.1883
    133 H          -3.3456   41.2016   21.5839 H         1 GLN         0.0797
    134 H          -3.9597   39.8356   19.6227 H         1 GLN         0.0277
    135 H          -2.7342   38.6199   20.0600 H         1 GLN         0.0277
    136 H          -4.1522   38.8715   21.1075 H         1 GLN         0.0277
    137 H          -0.1776   39.9141   21.6760 H         1 LYS         0.1875
    138 H          -0.7513   38.6247   24.3030 H         1 LYS         0.0723
    139 O           1.7301   40.7289   23.9355 O.co2     1 LYS        -0.5666
    140 H           0.4019   37.1536   22.7242 H         1 LYS         0.0270
    141 H           1.6996   38.3554   22.5173 H         1 LYS         0.0270
    142 H           1.4770   37.5469   24.0883 H         1 LYS         0.0270
@<TRIPOS>BOND
     1    2    1 1  
     2    2    3 2  
     3   10    2 am 
     4    4    5 1  
     5   11    4 1  
     6    5    6 1  
     7    6    7 1  
     8    8    9 2  
     9   11    8 1  
    10    8   12 am 
    11   10   11 1  
    12   12   13 1  
    13   13   14 1  
    14   13   16 1  
    15   14   15 2  
    16   14   20 am 
    17   16   17 1  
    18   16   18 1  
    19   17   19 1  
    20   20   21 1  
    21   21   22 1  
    22   21   24 1  
    23   22   23 2  
    24   22   25 am 
    25   25   26 1  
    26   26   27 1  
    27   26   29 1  
    28   27   28 2  
    29   27   33 am 
    30   29   30 1  
    31   30   31 1  
    32   30   32 1  
    33   33   34 1  
    34   34   35 1  
    35   34   37 1  
    36   35   36 2  
    37   35   38 am 
    38   38   39 1  
    39   39   40 1  
    40   39   42 1  
    41   40   41 2  
    42   40   43 am 
    43   43   44 1  
    44   44   45 1  
    45   44   47 1  
    46   45   46 2  
    47   45   48 am 
    48   48   49 1  
    49   49   50 1  
    50   49   52 1  
    51   50   51 2  
    52   50   53 am 
    53   53   54 1  
    54   54   55 1  
    55   54   57 1  
    56   55   56 2  
    57   55   58 am 
    58   58   59 1  
    59   59   60 1  
    60   59   62 1  
    61   60   61 2  
    62   60   63 am 
    63   63   64 1  
    64   64   65 1  
    65   64   67 1  
    66   65   66 ar 
    67    1   68 1  
    68    1   69 1  
    69    1   70 1  
    70    4   71 1  
    71    4   72 1  
    72    5   73 1  
    73    5   74 1  
    74    7   75 1  
    75    7   76 1  
    76    7   77 1  
    77   10   78 1  
    78   11   79 1  
    79   12   80 1  
    80   13   81 1  
    81   16   82 1  
    82   17   83 1  
    83   17   84 1  
    84   18   85 1  
    85   18   86 1  
    86   18   87 1  
    87   19   88 1  
    88   19   89 1  
    89   19   90 1  
    90   20   91 1  
    91   21   92 1  
    92   24   93 1  
    93   24   94 1  
    94   24   95 1  
    95   25   96 1  
    96   26   97 1  
    97   29   98 1  
    98   29   99 1  
    99   30  100 1  
   100   31  101 1  
   101   31  102 1  
   102   31  103 1  
   103   32  104 1  
   104   32  105 1  
   105   32  106 1  
   106   33  107 1  
   107   34  108 1  
   108   37  109 1  
   109   37  110 1  
   110   37  111 1  
   111   38  112 1  
   112   39  113 1  
   113   42  114 1  
   114   42  115 1  
   115   42  116 1  
   116   43  117 1  
   117   44  118 1  
   118   47  119 1  
   119   47  120 1  
   120   47  121 1  
   121   48  122 1  
   122   49  123 1  
   123   52  124 1  
   124   52  125 1  
   125   52  126 1  
   126   53  127 1  
   127   54  128 1  
   128   57  129 1  
   129   57  130 1  
   130   57  131 1  
   131   58  132 1  
   132   59  133 1  
   133   62  134 1  
   134   62  135 1  
   135   62  136 1  
   136   63  137 1  
   137   64  138 1  
   138   65  139 ar 
   139   67  140 1  
   140   67  141 1  
   141   67  142 1  
@<TRIPOS>SUBSTRUCTURE
     1 AME         1

