4gao_ligand
  -I-interpret- 

143142  0  0  0  0  0  0  0  0999 V2000
    5.3460   34.0700    5.5880 C   0  0  0  0  0
    4.5320   33.8250    6.8260 C   0  0  0  0  0
    3.6080   33.0240    6.8430 O   0  0  0  0  0
    5.3310   34.6470   10.2160 C   0  0  0  0  0
    6.4660   33.6390   10.0660 C   0  0  0  0  0
    6.0040   32.1270   10.8490 S   0  0  0  0  0
    7.2850   30.9540   10.4680 C   0  0  0  0  0
    3.1540   35.5080    9.3430 C   0  0  0  0  0
    3.1700   36.2580   10.3060 O   0  0  0  0  0
    4.8910   34.5430    7.8910 N   0  0  0  0  0
    4.2220   34.4450    9.1830 C   0  0  0  0  0
    2.2230   35.5470    8.3870 N   0  0  0  0  0
    1.2300   36.6580    8.2430 C   0  0  0  0  0
    0.6220   37.0760    9.5830 C   0  0  0  0  0
    0.5650   38.2660    9.8870 O   0  0  0  0  0
    0.0970   36.2840    7.2410 C   0  0  0  0  0
    0.6420   36.1490    5.8120 C   0  0  0  0  0
   -1.0590   37.2870    7.2990 C   0  0  0  0  0
    1.0210   37.4610    5.1490 C   0  0  0  0  0
    0.1910   36.1030   10.3880 N   0  0  0  0  0
   -0.5150   36.3990   11.6380 C   0  0  0  0  0
    0.3810   36.8630   12.8030 C   0  0  0  0  0
   -0.1260   37.1470   13.8920 O   0  0  0  0  0
   -1.3960   35.2110   12.0650 C   0  0  0  0  0
    1.6920   36.9650   12.5750 N   0  0  0  0  0
    2.6370   37.2950   13.6540 C   0  0  0  0  0
    2.4500   38.6810   14.2610 C   0  0  0  0  0
    2.6980   38.8670   15.4550 O   0  0  0  0  0
    4.0940   37.1040   13.2110 C   0  0  0  0  0
    5.1490   37.0880   14.3260 C   0  0  0  0  0
    4.9120   35.9300   15.2800 C   0  0  0  0  0
    6.5650   37.0490   13.7680 C   0  0  0  0  0
    2.0250   39.6460   13.4440 N   0  0  0  0  0
    1.7860   41.0120   13.9210 C   0  0  0  0  0
    0.5670   41.0850   14.8490 C   0  0  0  0  0
    0.6270   41.6970   15.9190 O   0  0  0  0  0
    1.6330   41.9850   12.7470 C   0  0  0  0  0
   -0.5290   40.4510   14.4350 N   0  0  0  0  0
   -1.7430   40.3840   15.2470 C   0  0  0  0  0
   -1.5110   39.6190   16.5490 C   0  0  0  0  0
   -2.0310   40.0010   17.5970 O   0  0  0  0  0
   -2.8910   39.7460   14.4580 C   0  0  0  0  0
   -0.7220   38.5500   16.4750 N   0  0  0  0  0
   -0.4450   37.7030   17.6340 C   0  0  0  0  0
    0.5360   38.3390   18.6270 C   0  0  0  0  0
    0.6140   37.9090   19.7810 O   0  0  0  0  0
    0.0390   36.3160   17.1960 C   0  0  0  0  0
    1.2750   39.3580   18.1780 N   0  0  0  0  0
    2.1600   40.1350   19.0570 C   0  0  0  0  0
    1.3880   41.2600   19.7500 C   0  0  0  0  0
    1.5610   41.4900   20.9470 O   0  0  0  0  0
    3.3570   40.6980   18.2830 C   0  0  0  0  0
    0.5270   41.9420   18.9940 N   0  0  0  0  0
   -0.3590   42.9780   19.5360 C   0  0  0  0  0
   -1.4370   42.4150   20.4770 C   0  0  0  0  0
   -2.0330   43.1580   21.2670 O   0  0  0  0  0
   -1.0050   43.7830   18.3990 C   0  0  0  0  0
   -1.6780   41.1070   20.3880 N   0  0  0  0  0
   -2.6570   40.4280   21.2440 C   0  0  0  0  0
   -2.0350   39.8010   22.5020 C   0  0  0  0  0
   -2.7550   39.4680   23.4530 O   0  0  0  0  0
   -3.4330   39.3600   20.4500 C   0  0  0  0  0
   -0.7100   39.6350   22.5000 N   0  0  0  0  0
    0.0040   39.0620   23.6500 C   0  0  0  0  0
    0.7490   40.1330   24.4550 C   0  0  0  0  0
    0.3953   40.4265   25.6282 O   0  0  0  0  0
    0.9660   37.9480   23.2130 C   0  0  0  0  0
    1.7301   40.7289   23.9355 O   0  0  0  0  0
    5.8218   33.1398    5.2775 H   0  0  0  0  0
    4.6945   34.4298    4.7916 H   0  0  0  0  0
    6.1105   34.8176    5.7994 H   0  0  0  0  0
    5.7471   35.6438   10.0697 H   0  0  0  0  0
    4.8944   34.5145   11.2059 H   0  0  0  0  0
    7.3692   34.0322   10.5327 H   0  0  0  0  0
    6.6593   33.4597    9.0084 H   0  0  0  0  0
    7.3527   30.8302    9.3872 H   0  0  0  0  0
    8.2368   31.3194   10.8535 H   0  0  0  0  0
    7.0479   29.9959   10.9306 H   0  0  0  0  0
    5.6718   35.1926    7.7972 H   0  0  0  0  0
    3.7127   33.4878    9.2944 H   0  0  0  0  0
    2.1862   34.7778    7.7181 H   0  0  0  0  0
    1.7841   37.5094    7.8478 H   0  0  0  0  0
   -0.2969   35.3131    7.5415 H   0  0  0  0  0
   -0.1529   35.7083    5.2103 H   0  0  0  0  0
    1.5517   35.5519    5.8752 H   0  0  0  0  0
   -1.4781   37.2987    8.3052 H   0  0  0  0  0
   -0.6891   38.2808    7.0465 H   0  0  0  0  0
   -1.8296   36.9929    6.5865 H   0  0  0  0  0
    0.1432   38.1046    5.0918 H   0  0  0  0  0
    1.7961   37.9529    5.7366 H   0  0  0  0  0
    1.3949   37.2642    4.1442 H   0  0  0  0  0
    0.3566   35.1308   10.1275 H   0  0  0  0  0
   -1.1429   37.2596   11.4071 H   0  0  0  0  0
   -2.1309   35.0070   11.2863 H   0  0  0  0  0
   -0.7699   34.3314   12.2150 H   0  0  0  0  0
   -1.9088   35.4564   12.9950 H   0  0  0  0  0
    2.0472   36.8107   11.6314 H   0  0  0  0  0
    2.4026   36.5835   14.4458 H   0  0  0  0  0
    4.3334   37.9597   12.5797 H   0  0  0  0  0
    4.1403   36.1240   12.7360 H   0  0  0  0  0
    5.0451   38.0193   14.8827 H   0  0  0  0  0
    3.9251   36.0294   15.7320 H   0  0  0  0  0
    4.9682   34.9906   14.7301 H   0  0  0  0  0
    5.6732   35.9420   16.0601 H   0  0  0  0  0
    6.6918   36.1501   13.1646 H   0  0  0  0  0
    6.7348   37.9303   13.1494 H   0  0  0  0  0
    7.2786   37.0388   14.5918 H   0  0  0  0  0
    1.8619   39.4279   12.4610 H   0  0  0  0  0
    2.6594   41.3092   14.5015 H   0  0  0  0  0
    2.5445   41.9774   12.1493 H   0  0  0  0  0
    0.7893   41.6772   12.1293 H   0  0  0  0  0
    1.4568   42.9900   13.1303 H   0  0  0  0  0
   -0.5210   39.9974   13.5215 H   0  0  0  0  0
   -2.0166   41.4075   15.5033 H   0  0  0  0  0
   -3.0948   40.3427   13.5689 H   0  0  0  0  0
   -2.6093   38.7354   14.1622 H   0  0  0  0  0
   -3.7828   39.7075   15.0836 H   0  0  0  0  0
   -0.2959   38.3134   15.5790 H   0  0  0  0  0
   -1.3900   37.5930   18.1660 H   0  0  0  0  0
   -0.7305   35.8390   16.5890 H   0  0  0  0  0
    0.9528   36.4195   16.6109 H   0  0  0  0  0
    0.2376   35.7067   18.0777 H   0  0  0  0  0
    1.2229   39.6053   17.1898 H   0  0  0  0  0
    2.5432   39.4599   19.8222 H   0  0  0  0  0
    3.9288   39.8760   17.8524 H   0  0  0  0  0
    2.9988   41.3497   17.4861 H   0  0  0  0  0
    3.9918   41.2674   18.9619 H   0  0  0  0  0
    0.4825   41.7345   17.9963 H   0  0  0  0  0
    0.2656   43.6392   20.1367 H   0  0  0  0  0
   -0.2255   44.2590   17.8041 H   0  0  0  0  0
   -1.5881   43.1131   17.7670 H   0  0  0  0  0
   -1.6584   44.5463   18.8216 H   0  0  0  0  0
   -1.1629   40.5582   19.6996 H   0  0  0  0  0
   -3.3456   41.2016   21.5839 H   0  0  0  0  0
   -3.9597   39.8356   19.6227 H   0  0  0  0  0
   -2.7342   38.6199   20.0600 H   0  0  0  0  0
   -4.1522   38.8715   21.1075 H   0  0  0  0  0
   -0.1776   39.9141   21.6760 H   0  0  0  0  0
   -0.7513   38.6247   24.3030 H   0  0  0  0  0
   -0.3605   39.8895   25.8772 H   0  0  0  0  0
    0.4019   37.1536   22.7242 H   0  0  0  0  0
    1.6996   38.3554   22.5173 H   0  0  0  0  0
    1.4770   37.5469   24.0883 H   0  0  0  0  0
  2  1  1  0  0  0
  2  3  2  0  0  0
 10  2  1  0  0  0
  4  5  1  0  0  0
 11  4  1  0  0  0
  5  6  1  0  0  0
  6  7  1  0  0  0
  8  9  2  0  0  0
 11  8  1  0  0  0
  8 12  1  0  0  0
 10 11  1  0  0  0
 12 13  1  0  0  0
 13 14  1  0  0  0
 13 16  1  0  0  0
 14 15  2  0  0  0
 14 20  1  0  0  0
 16 17  1  0  0  0
 16 18  1  0  0  0
 17 19  1  0  0  0
 20 21  1  0  0  0
 21 22  1  0  0  0
 21 24  1  0  0  0
 22 23  2  0  0  0
 22 25  1  0  0  0
 25 26  1  0  0  0
 26 27  1  0  0  0
 26 29  1  0  0  0
 27 28  2  0  0  0
 27 33  1  0  0  0
 29 30  1  0  0  0
 30 31  1  0  0  0
 30 32  1  0  0  0
 33 34  1  0  0  0
 34 35  1  0  0  0
 34 37  1  0  0  0
 35 36  2  0  0  0
 35 38  1  0  0  0
 38 39  1  0  0  0
 39 40  1  0  0  0
 39 42  1  0  0  0
 40 41  2  0  0  0
 40 43  1  0  0  0
 43 44  1  0  0  0
 44 45  1  0  0  0
 44 47  1  0  0  0
 45 46  2  0  0  0
 45 48  1  0  0  0
 48 49  1  0  0  0
 49 50  1  0  0  0
 49 52  1  0  0  0
 50 51  2  0  0  0
 50 53  1  0  0  0
 53 54  1  0  0  0
 54 55  1  0  0  0
 54 57  1  0  0  0
 55 56  2  0  0  0
 55 58  1  0  0  0
 58 59  1  0  0  0
 59 60  1  0  0  0
 59 62  1  0  0  0
 60 61  2  0  0  0
 60 63  1  0  0  0
 63 64  1  0  0  0
 64 65  1  0  0  0
 64 67  1  0  0  0
 65 66  1  0  0  0
 65 68  2  0  0  0
  1 69  1  0  0  0
  1 70  1  0  0  0
  1 71  1  0  0  0
  4 72  1  0  0  0
  4 73  1  0  0  0
  5 74  1  0  0  0
  5 75  1  0  0  0
  7 76  1  0  0  0
  7 77  1  0  0  0
  7 78  1  0  0  0
 10 79  1  0  0  0
 11 80  1  0  0  0
 12 81  1  0  0  0
 13 82  1  0  0  0
 16 83  1  0  0  0
 17 84  1  0  0  0
 17 85  1  0  0  0
 18 86  1  0  0  0
 18 87  1  0  0  0
 18 88  1  0  0  0
 19 89  1  0  0  0
 19 90  1  0  0  0
 19 91  1  0  0  0
 20 92  1  0  0  0
 21 93  1  0  0  0
 24 94  1  0  0  0
 24 95  1  0  0  0
 24 96  1  0  0  0
 25 97  1  0  0  0
 26 98  1  0  0  0
 29 99  1  0  0  0
 29100  1  0  0  0
 30101  1  0  0  0
 31102  1  0  0  0
 31103  1  0  0  0
 31104  1  0  0  0
 32105  1  0  0  0
 32106  1  0  0  0
 32107  1  0  0  0
 33108  1  0  0  0
 34109  1  0  0  0
 37110  1  0  0  0
 37111  1  0  0  0
 37112  1  0  0  0
 38113  1  0  0  0
 39114  1  0  0  0
 42115  1  0  0  0
 42116  1  0  0  0
 42117  1  0  0  0
 43118  1  0  0  0
 44119  1  0  0  0
 47120  1  0  0  0
 47121  1  0  0  0
 47122  1  0  0  0
 48123  1  0  0  0
 49124  1  0  0  0
 52125  1  0  0  0
 52126  1  0  0  0
 52127  1  0  0  0
 53128  1  0  0  0
 54129  1  0  0  0
 57130  1  0  0  0
 57131  1  0  0  0
 57132  1  0  0  0
 58133  1  0  0  0
 59134  1  0  0  0
 62135  1  0  0  0
 62136  1  0  0  0
 62137  1  0  0  0
 63138  1  0  0  0
 64139  1  0  0  0
 66140  1  0  0  0
 67141  1  0  0  0
 67142  1  0  0  0
 67143  1  0  0  0
M  END
$$$$
