3qox_ligand
  -I-interpret- 

 47 49  0  0  0  0  0  0  0  0999 V2000
   41.8560   51.3360    1.4430 N   0  3  0  0  0
   41.5950   52.7270    1.9560 C   0  0  0  0  0
   42.2760   52.9610    3.3260 C   0  0  0  0  0
   43.8070   52.8570    3.3140 C   0  0  0  0  0
   44.4650   53.1980    4.9230 S   0  0  0  0  0
   42.0710   53.7240    0.9240 C   0  0  0  0  0
   41.5410   54.8350    0.7830 O   0  0  0  0  0
   43.0140   53.4450    0.1850 O   0  0  0  0  0
   45.1710   51.6630    5.4490 C   0  0  0  0  0
   44.1380   50.8630    6.2410 C   0  0  0  0  0
   44.6050   49.5150    6.3440 O   0  0  0  0  0
   43.9540   51.3520    7.6820 C   0  0  0  0  0
   42.5650   51.5950    7.9370 O   0  0  0  0  0
   44.4170   50.1910    8.5490 C   0  0  0  0  0
   43.5890   50.0310    9.6960 O   0  0  0  0  0
   44.1750   49.0340    7.6140 C   0  0  0  0  0
   44.8820   47.8210    8.0420 N   0  0  0  0  0
   46.1780   47.7380    8.4470 C   0  0  0  0  0
   46.4740   46.4620    8.7670 N   0  0  0  0  0
   45.3670   45.7060    8.5770 C   0  0  0  0  0
   44.9950   44.2720    8.7310 C   0  0  0  0  0
   45.8930   43.3580    9.1770 N   0  0  0  0  0
   43.7220   43.9090    8.4150 N   0  0  0  0  0
   42.8150   44.8090    7.9680 C   0  0  0  0  0
   43.0870   46.1190    7.8160 N   0  0  0  0  0
   44.3170   46.6140    8.0890 C   0  0  0  0  0
   41.5380   50.6553    2.1328 H   0  0  0  0  0
   41.3502   51.1970    0.5682 H   0  0  0  0  0
   42.8560   51.2165    1.2816 H   0  0  0  0  0
   40.5247   52.8577    2.1154 H   0  0  0  0  0
   41.9125   52.1817    3.9958 H   0  0  0  0  0
   42.0317   53.9790    3.6296 H   0  0  0  0  0
   44.2057   53.5845    2.6070 H   0  0  0  0  0
   44.0909   51.8458    3.0225 H   0  0  0  0  0
   40.8238   54.9286    1.4142 H   0  0  0  0  0
   46.0356   51.8621    6.0823 H   0  0  0  0  0
   45.4783   51.0892    4.5747 H   0  0  0  0  0
   43.1913   50.9701    5.7114 H   0  0  0  0  0
   44.5038   52.2730    7.8760 H   0  0  0  0  0
   42.4554   51.9009    8.8403 H   0  0  0  0  0
   45.4345   50.3046    8.9230 H   0  0  0  0  0
   43.9083   49.2922   10.2193 H   0  0  0  0  0
   43.1299   48.7252    7.5914 H   0  0  0  0  0
   46.8723   48.5763    8.5042 H   0  0  0  0  0
   46.8417   43.6485    9.4134 H   0  0  0  0  0
   45.6194   42.3804    9.2759 H   0  0  0  0  0
   41.8145   44.4556    7.7186 H   0  0  0  0  0
  1  2  1  0  0  0
  2  3  1  0  0  0
  2  6  1  0  0  0
  3  4  1  0  0  0
  4  5  1  0  0  0
  5  9  1  0  0  0
  6  7  1  0  0  0
  6  8  2  0  0  0
  9 10  1  0  0  0
 10 11  1  0  0  0
 10 12  1  0  0  0
 11 16  1  0  0  0
 12 13  1  0  0  0
 12 14  1  0  0  0
 14 15  1  0  0  0
 14 16  1  0  0  0
 16 17  1  0  0  0
 17 18  4  0  0  0
 17 26  4  0  0  0
 18 19  4  0  0  0
 19 20  4  0  0  0
 20 21  4  0  0  0
 20 26  4  0  0  0
 21 22  1  0  0  0
 21 23  4  0  0  0
 23 24  4  0  0  0
 24 25  4  0  0  0
 25 26  4  0  0  0
  1 27  1  0  0  0
  1 28  1  0  0  0
  1 29  1  0  0  0
  2 30  1  0  0  0
  3 31  1  0  0  0
  3 32  1  0  0  0
  4 33  1  0  0  0
  4 34  1  0  0  0
  7 35  1  0  0  0
  9 36  1  0  0  0
  9 37  1  0  0  0
 10 38  1  0  0  0
 12 39  1  0  0  0
 13 40  1  0  0  0
 14 41  1  0  0  0
 15 42  1  0  0  0
 16 43  1  0  0  0
 18 44  1  0  0  0
 22 45  1  0  0  0
 22 46  1  0  0  0
 24 47  1  0  0  0
M  END
$$$$
