6aec_ligand
  -I-interpret- 

 47 49  0  0  0  0  0  0  0  0999 V2000
    2.6290   85.6290   48.1050 P   0  0  0  0  0
    2.9630   84.8510   46.8690 O   0  0  0  0  0
    1.1490   85.6710   48.4400 O   0  0  0  0  0
    3.4700   85.2180   49.2980 O   0  0  0  0  0
    2.0340   88.4420   47.9870 P   0  0  0  0  0
    0.7140   88.2240   47.2930 O   0  0  0  0  0
    2.8610   89.6600   47.6480 O   0  0  0  0  0
    3.0370   87.1770   47.8140 O   0  0  0  0  0
    0.3550   88.5410   50.3510 P   0  0  0  0  0
   -0.7060   87.7640   49.5930 O   0  0  0  0  0
    0.5840   88.1050   51.7610 O   0  0  0  0  0
    1.7720   88.5210   49.5830 O   0  0  0  0  0
    0.0440   90.1250   50.3540 O   0  0  0  0  0
    0.0880   90.9560   49.1870 C   0  0  0  0  0
   -0.3160   92.3790   49.5400 C   0  0  0  0  0
   -1.7290   92.3750   49.7570 O   0  0  0  0  0
    0.3480   92.9170   50.8030 C   0  0  0  0  0
    0.9160   94.2220   50.5510 O   0  0  0  0  0
   -0.7660   92.9080   51.8450 C   0  0  0  0  0
   -0.9460   94.2120   52.4040 O   0  0  0  0  0
   -2.0500   92.4650   51.1410 C   0  0  0  0  0
   -2.6250   91.1640   51.6120 N   0  0  0  0  0
   -2.7220   90.0050   50.9020 C   0  0  0  0  0
   -3.3120   89.0180   51.6200 N   0  0  0  0  0
   -3.6130   89.5440   52.8250 C   0  0  0  0  0
   -4.2630   89.0530   54.0610 C   0  0  0  0  0
   -4.7010   87.7720   54.1410 N   0  0  0  0  0
   -4.3890   89.9210   55.1010 N   0  0  0  0  0
   -3.9600   91.2020   55.0340 C   0  0  0  0  0
   -3.3680   91.7200   53.9360 N   0  0  0  0  0
   -3.1690   90.9550   52.8170 C   0  0  0  0  0
    1.0176   86.1849   49.2401 H   0  0  0  0  0
    3.2189   85.7433   50.0613 H   0  0  0  0  0
    3.6662   89.6542   48.1706 H   0  0  0  0  0
   -0.7819   88.1137   48.7022 H   0  0  0  0  0
   -0.6044   90.5628   48.4427 H   0  0  0  0  0
    1.1034   90.9613   48.7908 H   0  0  0  0  0
   -0.0004   93.0223   48.7186 H   0  0  0  0  0
    1.1923   92.3225   51.1520 H   0  0  0  0  0
    1.3305   94.5495   51.3526 H   0  0  0  0  0
   -0.5120   92.2287   52.6587 H   0  0  0  0  0
   -1.6500   94.1850   53.0561 H   0  0  0  0  0
   -2.8260   93.1965   51.3663 H   0  0  0  0  0
   -2.3673   89.8856   49.8783 H   0  0  0  0  0
   -4.5832   87.1422   53.3473 H   0  0  0  0  0
   -5.1483   87.4383   54.9948 H   0  0  0  0  0
   -4.0980   91.8442   55.9039 H   0  0  0  0  0
  1  2  2  0  0  0
  1  3  1  0  0  0
  1  4  1  0  0  0
  8  1  1  0  0  0
  5  6  2  0  0  0
  5  7  1  0  0  0
  5  8  1  0  0  0
 12  5  1  0  0  0
  9 10  1  0  0  0
  9 11  2  0  0  0
  9 12  1  0  0  0
  9 13  1  0  0  0
 13 14  1  0  0  0
 14 15  1  0  0  0
 15 16  1  0  0  0
 15 17  1  0  0  0
 16 21  1  0  0  0
 17 18  1  0  0  0
 17 19  1  0  0  0
 19 20  1  0  0  0
 19 21  1  0  0  0
 21 22  1  0  0  0
 22 23  4  0  0  0
 22 31  4  0  0  0
 23 24  4  0  0  0
 24 25  4  0  0  0
 25 26  4  0  0  0
 25 31  4  0  0  0
 26 27  1  0  0  0
 26 28  4  0  0  0
 28 29  4  0  0  0
 29 30  4  0  0  0
 30 31  4  0  0  0
  3 32  1  0  0  0
  4 33  1  0  0  0
  7 34  1  0  0  0
 10 35  1  0  0  0
 14 36  1  0  0  0
 14 37  1  0  0  0
 15 38  1  0  0  0
 17 39  1  0  0  0
 18 40  1  0  0  0
 19 41  1  0  0  0
 20 42  1  0  0  0
 21 43  1  0  0  0
 23 44  1  0  0  0
 27 45  1  0  0  0
 27 46  1  0  0  0
 29 47  1  0  0  0
M  END
$$$$
