### 
### Created by X-TOOL on Mon Aug  2 16:12:35 2021
### 

@<TRIPOS>MOLECULE
6aec_ligand
   43    45     1     0     0
SMALL
GAST_HUCK


@<TRIPOS>ATOM
      1 PG          2.6290   85.6290   48.1050 P.3       1 ATP         0.1879
      2 O1G         2.9630   84.8510   46.8690 O.co2     1 ATP        -0.6091
      3 O2G         1.1490   85.6710   48.4400 O.co2     1 ATP        -0.6091
      4 O3G         3.4700   85.2180   49.2980 O.co2     1 ATP        -0.6091
      5 PB          2.0340   88.4420   47.9870 P.3       1 ATP         0.3553
      6 O1B         0.7140   88.2240   47.2930 O.co2     1 ATP        -0.5652
      7 O2B         2.8610   89.6600   47.6480 O.co2     1 ATP        -0.5652
      8 O3B         3.0370   87.1770   47.8140 O.3       1 ATP        -0.1546
      9 PA          0.3550   88.5410   50.3510 P.3       1 ATP         0.3266
     10 O1A        -0.7060   87.7640   49.5930 O.co2     1 ATP        -0.5692
     11 O2A         0.5840   88.1050   51.7610 O.co2     1 ATP        -0.5692
     12 O3A         1.7720   88.5210   49.5830 O.3       1 ATP        -0.1171
     13 O5'         0.0440   90.1250   50.3540 O.3       1 ATP        -0.2441
     14 C5'         0.0880   90.9560   49.1870 C.3       1 ATP         0.1131
     15 C4'        -0.3160   92.3790   49.5400 C.3       1 ATP         0.1189
     16 O4'        -1.7290   92.3750   49.7570 O.3       1 ATP        -0.3364
     17 C3'         0.3480   92.9170   50.8030 C.3       1 ATP         0.1149
     18 O3'         0.9160   94.2220   50.5510 O.3       1 ATP        -0.3864
     19 C2'        -0.7660   92.9080   51.8450 C.3       1 ATP         0.1385
     20 O2'        -0.9460   94.2120   52.4040 O.3       1 ATP        -0.3836
     21 C1'        -2.0500   92.4650   51.1410 C.3       1 ATP         0.2010
     22 N9         -2.6250   91.1640   51.6120 N.pl3     1 ATP        -0.1919
     23 C8         -2.7220   90.0050   50.9020 C.2       1 ATP         0.1123
     24 N7         -3.3120   89.0180   51.6200 N.2       1 ATP        -0.2958
     25 C5         -3.6130   89.5440   52.8250 C.ar      1 ATP         0.1045
     26 C6         -4.2630   89.0530   54.0610 C.ar      1 ATP         0.1298
     27 N6         -4.7010   87.7720   54.1410 N.pl3     1 ATP        -0.3152
     28 N1         -4.3890   89.9210   55.1010 N.ar      1 ATP        -0.2698
     29 C2         -3.9600   91.2020   55.0340 C.ar      1 ATP         0.0533
     30 N3         -3.3680   91.7200   53.9360 N.ar      1 ATP        -0.2714
     31 C4         -3.1690   90.9550   52.8170 C.ar      1 ATP         0.1613
     32 H1         -0.6054   90.5583   48.4314 H         1 ATP         0.0648
     33 H2          1.1104   90.9587   48.7812 H         1 ATP         0.0648
     34 H3         -0.0636   93.0404   48.6981 H         1 ATP         0.0651
     35 H4          1.1567   92.2446   51.1253 H         1 ATP         0.0648
     36 H5          0.2277   94.8192   50.2823 H         1 ATP         0.2100
     37 H6         -0.5164   92.1999   52.6489 H         1 ATP         0.0676
     38 H7         -1.1759   94.8224   51.7133 H         1 ATP         0.2101
     39 H8         -2.8140   93.2419   51.2918 H         1 ATP         0.0996
     40 H9         -2.3676   89.8858   49.8792 H         1 ATP         0.1349
     41 H10        -5.1527   87.4351   55.0032 H         1 ATP         0.1820
     42 H11        -4.5820   87.1360   53.3396 H         1 ATP         0.1820
     43 H12        -4.0973   91.8406   55.8991 H         1 ATP         0.0996
@<TRIPOS>BOND
     1    1    2 ar 
     2    1    3 ar 
     3    1    4 ar 
     4    8    1 1  
     5    5    6 ar 
     6    5    7 ar 
     7    5    8 1  
     8   12    5 1  
     9    9   10 ar 
    10    9   11 ar 
    11    9   12 1  
    12    9   13 1  
    13   13   14 1  
    14   14   15 1  
    15   15   16 1  
    16   15   17 1  
    17   16   21 1  
    18   17   18 1  
    19   17   19 1  
    20   19   20 1  
    21   19   21 1  
    22   21   22 1  
    23   22   23 1  
    24   22   31 1  
    25   23   24 2  
    26   24   25 1  
    27   25   26 ar 
    28   25   31 ar 
    29   26   27 1  
    30   26   28 ar 
    31   28   29 ar 
    32   29   30 ar 
    33   30   31 ar 
    34   14   32 1  
    35   14   33 1  
    36   15   34 1  
    37   17   35 1  
    38   18   36 1  
    39   19   37 1  
    40   20   38 1  
    41   21   39 1  
    42   23   40 1  
    43   27   41 1  
    44   27   42 1  
    45   29   43 1  
@<TRIPOS>SUBSTRUCTURE
     1 ATP         1

