5mxk_ligand
  -I-interpret- 

 28 29  0  0  0  0  0  0  0  0999 V2000
  127.5610   26.5350    5.0060 C   0  0  0  0  0
  130.2520   26.7200    2.1810 C   0  0  0  0  0
  129.6400   26.8260    3.4440 C   0  0  0  0  0
  130.4200   27.2510    4.5320 C   0  0  0  0  0
  131.7810   27.5620    4.3790 C   0  0  0  0  0
  132.3970   27.4430    3.1230 C   0  0  0  0  0
  131.6140   27.0280    2.0200 C   0  0  0  0  0
  133.8090   27.8070    3.0180 N   0  0  0  0  0
  134.6530   27.8430    1.8290 C   0  0  0  0  0
  136.0960   28.3030    2.0110 C   0  0  0  0  0
  134.2660   27.5250    0.7480 O   0  0  0  0  0
  129.7340   27.3600    5.9510 C   0  0  0  0  0
  128.5790   26.3550    6.0930 C   0  0  0  0  0
  128.1550   26.5040    3.6560 C   0  0  0  0  0
  127.4490   26.2460    2.7440 O   0  0  0  0  0
  127.0948   27.5107    5.1434 H   0  0  0  0  0
  126.8486   25.7130    5.0763 H   0  0  0  0  0
  129.6653   26.3966    1.3212 H   0  0  0  0  0
  132.3613   27.8971    5.2387 H   0  0  0  0  0
  132.0721   26.9462    1.0343 H   0  0  0  0  0
  134.2642   28.0707    3.8919 H   0  0  0  0  0
  136.7719   27.5024    1.7105 H   0  0  0  0  0
  136.2761   29.1831    1.3936 H   0  0  0  0  0
  136.2675   28.5511    3.0584 H   0  0  0  0  0
  129.3332   28.3671    6.0658 H   0  0  0  0  0
  130.4803   27.1405    6.7145 H   0  0  0  0  0
  128.9866   25.3466    6.0223 H   0  0  0  0  0
  128.0923   26.5202    7.0542 H   0  0  0  0  0
  1 13  1  0  0  0
 14  1  1  0  0  0
  3  2  4  0  0  0
  2  7  4  0  0  0
  3  4  4  0  0  0
  3 14  1  0  0  0
  4  5  4  0  0  0
  4 12  1  0  0  0
  5  6  4  0  0  0
  6  7  4  0  0  0
  6  8  1  0  0  0
  8  9  1  0  0  0
  9 10  1  0  0  0
  9 11  2  0  0  0
 12 13  1  0  0  0
 14 15  2  0  0  0
  1 16  1  0  0  0
  1 17  1  0  0  0
  2 18  1  0  0  0
  5 19  1  0  0  0
  7 20  1  0  0  0
  8 21  1  0  0  0
 10 22  1  0  0  0
 10 23  1  0  0  0
 10 24  1  0  0  0
 12 25  1  0  0  0
 12 26  1  0  0  0
 13 27  1  0  0  0
 13 28  1  0  0  0
M  END
$$$$
