1uxa_ligand
  -I-interpret- 

 61 62  0  0  0  0  0  0  0  0999 V2000
   45.6100   53.3010   66.3770 C   0  0  0  0  0
   46.5790   52.9010   65.2170 C   0  0  0  0  0
   46.6810   51.3810   65.1080 C   0  0  0  0  0
   45.4200   50.7190   64.5000 C   0  0  0  0  0
   45.0050   51.4340   63.1900 C   0  0  0  0  0
   44.8610   52.9260   63.5110 C   0  0  0  0  0
   44.4710   53.7230   62.2760 C   0  0  0  0  0
   44.4580   55.2140   62.6210 C   0  0  0  0  0
   43.7460   55.9860   61.5300 C   0  0  0  0  0
   43.5570   50.1530   61.6940 C   0  0  0  0  0
   42.0640   49.8570   61.3800 C   0  0  0  0  0
   43.7200   50.8590   62.7980 N   0  0  0  0  0
   45.6500   52.6590   67.4510 O   0  0  0  0  0
   44.8290   54.2710   66.2550 O   0  0  0  0  0
   45.6910   49.3630   64.2410 O   0  0  0  0  0
   46.1270   53.4530   63.9800 O   0  0  0  0  0
   45.4470   53.4930   61.2680 O   0  0  0  0  0
   43.8060   55.4410   63.8610 O   0  0  0  0  0
   44.0250   57.3710   61.6750 O   0  0  0  0  0
   44.4740   49.8260   60.8760 O   0  0  0  0  0
   49.3320   56.8000   64.7540 C   0  0  0  0  0
   49.1250   55.3100   64.5780 C   0  0  0  0  0
   47.9640   54.8520   65.4830 C   0  0  0  0  0
   48.2180   55.2650   66.9130 C   0  0  0  0  0
   48.5120   56.7700   66.9720 C   0  0  0  0  0
   48.8200   57.3100   68.3460 C   0  0  0  0  0
   50.3790   57.2390   63.9550 O   0  0  0  0  0
   48.8370   55.0500   63.2260 O   0  0  0  0  0
   47.8560   53.4160   65.4430 O   0  0  0  0  0
   49.3370   54.5210   67.3700 O   0  0  0  0  0
   49.6360   57.0740   66.1250 O   0  0  0  0  0
   48.8390   58.7300   68.3220 O   0  0  0  0  0
   46.8030   50.9877   66.1172 H   0  0  0  0  0
   47.5194   51.1554   64.4489 H   0  0  0  0  0
   44.5969   50.8023   65.2097 H   0  0  0  0  0
   45.7281   51.3128   62.3834 H   0  0  0  0  0
   44.0860   53.0193   64.2718 H   0  0  0  0  0
   43.4837   53.4183   61.9288 H   0  0  0  0  0
   45.4901   55.5552   62.7019 H   0  0  0  0  0
   42.6715   55.8205   61.6082 H   0  0  0  0  0
   44.0939   55.6442   60.5552 H   0  0  0  0  0
   41.7793   50.3679   60.4602 H   0  0  0  0  0
   41.9257   48.7827   61.2581 H   0  0  0  0  0
   41.4435   50.2135   62.2022 H   0  0  0  0  0
   42.9134   51.0096   63.4039 H   0  0  0  0  0
   46.2965   51.9532   67.3767 H   0  0  0  0  0
   45.9472   48.9275   65.0572 H   0  0  0  0  0
   45.4617   52.5593   61.0455 H   0  0  0  0  0
   43.8101   56.3810   64.0560 H   0  0  0  0  0
   43.5740   57.8612   60.9837 H   0  0  0  0  0
   48.4212   57.3224   64.4616 H   0  0  0  0  0
   50.0234   54.7610   64.8602 H   0  0  0  0  0
   47.0453   55.3146   65.1223 H   0  0  0  0  0
   47.3489   55.0691   67.5410 H   0  0  0  0  0
   47.5900   57.2483   66.6415 H   0  0  0  0  0
   49.7975   56.9454   68.6618 H   0  0  0  0  0
   48.0506   56.9752   69.0417 H   0  0  0  0  0
   50.4986   58.1837   64.0767 H   0  0  0  0  0
   48.7040   54.1071   63.1039 H   0  0  0  0  0
   49.5280   54.7591   68.2802 H   0  0  0  0  0
   49.0359   59.0612   69.2013 H   0  0  0  0  0
  2  1  1  0  0  0
  1 13  1  0  0  0
  1 14  2  0  0  0
  2  3  1  0  0  0
  2 16  1  0  0  0
 29  2  1  0  0  0
  3  4  1  0  0  0
  4  5  1  0  0  0
  4 15  1  0  0  0
  6  5  1  0  0  0
  5 12  1  0  0  0
  6  7  1  0  0  0
 16  6  1  0  0  0
  7  8  1  0  0  0
  7 17  1  0  0  0
  8  9  1  0  0  0
  8 18  1  0  0  0
  9 19  1  0  0  0
 10 11  1  0  0  0
 12 10  1  0  0  0
 10 20  2  0  0  0
 22 21  1  0  0  0
 21 27  1  0  0  0
 21 31  1  0  0  0
 23 22  1  0  0  0
 22 28  1  0  0  0
 23 24  1  0  0  0
 23 29  1  0  0  0
 24 25  1  0  0  0
 24 30  1  0  0  0
 25 26  1  0  0  0
 25 31  1  0  0  0
 26 32  1  0  0  0
  3 33  1  0  0  0
  3 34  1  0  0  0
  4 35  1  0  0  0
  5 36  1  0  0  0
  6 37  1  0  0  0
  7 38  1  0  0  0
  8 39  1  0  0  0
  9 40  1  0  0  0
  9 41  1  0  0  0
 11 42  1  0  0  0
 11 43  1  0  0  0
 11 44  1  0  0  0
 12 45  1  0  0  0
 13 46  1  0  0  0
 15 47  1  0  0  0
 17 48  1  0  0  0
 18 49  1  0  0  0
 19 50  1  0  0  0
 21 51  1  0  0  0
 22 52  1  0  0  0
 23 53  1  0  0  0
 24 54  1  0  0  0
 25 55  1  0  0  0
 26 56  1  0  0  0
 26 57  1  0  0  0
 27 58  1  0  0  0
 28 59  1  0  0  0
 30 60  1  0  0  0
 32 61  1  0  0  0
M  END
$$$$
