6h7b_ligand
  -I-interpret- 

186190  0  0  0  0  0  0  0  0999 V2000
    5.3700  -43.9900   -6.1770 N   0  3  0  0  0
    5.3650  -43.5230   -4.7950 C   0  0  0  0  0
    6.6510  -42.7740   -4.4550 C   0  0  0  0  0
    6.6550  -41.9010   -3.5890 O   0  0  0  0  0
    5.1610  -44.6960   -3.8390 C   0  0  0  0  0
    3.7750  -45.2590   -3.8750 C   0  0  0  0  0
    2.6920  -44.5970   -3.3390 N   0  0  0  0  0
    3.2930  -46.4140   -4.3920 C   0  0  0  0  0
    1.6020  -45.3220   -3.5190 C   0  0  0  0  0
    1.9390  -46.4290   -4.1550 N   0  0  0  0  0
    7.7390  -43.1290   -5.1350 N   0  0  0  0  0
    8.9570  -42.3350   -5.0560 C   0  0  0  0  0
    8.6760  -40.9230   -5.5590 C   0  0  0  0  0
    8.0020  -40.7360   -6.5750 O   0  0  0  0  0
   10.0650  -42.9970   -5.8790 C   0  0  0  0  0
   11.3050  -42.1690   -6.0250 C   0  0  0  0  0
   11.5170  -41.3270   -7.0960 N   0  0  0  0  0
   12.4120  -42.0770   -5.2500 C   0  0  0  0  0
   12.6940  -40.7410   -6.9680 C   0  0  0  0  0
   13.2570  -41.1790   -5.8560 N   0  0  0  0  0
    9.1740  -39.9260   -4.8290 N   0  0  0  0  0
    8.8640  -38.5410   -5.1600 C   0  0  0  0  0
    9.3560  -38.1990   -6.5620 C   0  0  0  0  0
   10.3860  -38.6940   -7.0250 O   0  0  0  0  0
    9.4740  -37.5900   -4.1310 C   0  0  0  0  0
    8.6160  -37.4220   -2.8880 C   0  0  0  0  0
    9.2130  -36.1250   -1.7900 S   0  0  0  0  0
   10.7440  -36.8540   -1.2360 C   0  0  0  0  0
    8.5960  -37.3390   -7.2370 N   0  0  0  0  0
    8.7670  -37.0920   -8.6600 C   0  0  0  0  0
    9.4680  -35.7600   -8.8760 C   0  0  0  0  0
    8.8730  -34.7080   -8.6000 O   0  0  0  0  0
    7.4020  -37.1040   -9.3510 C   0  0  0  0  0
    7.4620  -36.6640  -10.8040 C   0  0  0  0  0
    8.5140  -36.6960  -11.4420 O   0  0  0  0  0
    6.3140  -36.2550  -11.3370 N   0  0  0  0  0
   10.7120  -35.7440   -9.3700 N   0  0  0  0  0
   11.3890  -34.4630   -9.6260 C   0  0  0  0  0
   10.7680  -33.6610  -10.7570 C   0  0  0  0  0
   11.1000  -32.4780  -10.9070 O   0  0  0  0  0
   12.8210  -34.8870   -9.9710 C   0  0  0  0  0
   12.6640  -36.2550  -10.5450 C   0  0  0  0  0
   11.5330  -36.8960   -9.7790 C   0  0  0  0  0
    9.8850  -34.2590  -11.5530 N   0  0  0  0  0
    9.1990  -33.5520  -12.6250 C   0  0  0  0  0
    7.8360  -33.0270  -12.2010 C   0  0  0  0  0
    7.0490  -32.6180  -13.0610 O   0  0  0  0  0
    9.0480  -34.4620  -13.8470 C   0  0  0  0  0
   10.3820  -34.8960  -14.4190 C   0  0  0  0  0
   11.1540  -34.0760  -14.9150 O   0  0  0  0  0
   10.6570  -36.1950  -14.3630 N   0  0  0  0  0
    7.5420  -33.0280  -10.9040 N   0  0  0  0  0
    6.2350  -32.5940  -10.4290 C   0  0  0  0  0
    5.9920  -31.1270  -10.7720 C   0  0  0  0  0
    6.9270  -30.3340  -10.9060 O   0  0  0  0  0
    6.1250  -32.8050   -8.9180 C   0  0  0  0  0
    4.7160  -30.7710  -10.9180 N   0  0  0  0  0
    4.3520  -29.3940  -11.2290 C   0  0  0  0  0
    4.5130  -28.5170   -9.9930 C   0  0  0  0  0
    4.0770  -28.8850   -8.8970 O   0  0  0  0  0
    2.9110  -29.3210  -11.7380 C   0  0  0  0  0
    2.7210  -30.2650  -12.7990 O   0  0  0  0  0
    2.6020  -27.9240  -12.2590 C   0  0  0  0  0
    5.1400  -27.3560  -10.1680 N   0  0  0  0  0
    5.3600  -26.4520   -9.0480 C   0  0  0  0  0
    4.0340  -25.9210   -8.5150 C   0  0  0  0  0
    3.0730  -25.7210   -9.2610 O   0  0  0  0  0
    6.2490  -25.2840   -9.4720 C   0  0  0  0  0
    7.6480  -25.6950   -9.8910 C   0  0  0  0  0
    8.4630  -24.5330  -10.4240 C   0  0  0  0  0
    8.1110  -23.3710  -10.1300 O   0  0  0  0  0
    9.4550  -24.7850  -11.1400 O   0  0  0  0  0
    3.9890  -25.6830   -7.2070 N   0  0  0  0  0
    2.8250  -25.0960   -6.5600 C   0  0  0  0  0
    3.1060  -23.6410   -6.2110 C   0  0  0  0  0
    4.1010  -23.3380   -5.5460 O   0  0  0  0  0
    2.4390  -25.8650   -5.2940 C   0  0  0  0  0
    1.2520  -25.2790   -4.5780 C   0  0  0  0  0
   -0.0380  -25.6010   -4.9720 C   0  0  0  0  0
    1.4230  -24.3920   -3.5270 C   0  0  0  0  0
   -1.1330  -25.0570   -4.3250 C   0  0  0  0  0
    0.3330  -23.8420   -2.8800 C   0  0  0  0  0
   -0.9460  -24.1760   -3.2780 C   0  0  0  0  0
    2.2190  -22.7490   -6.6460 N   0  0  0  0  0
    2.2660  -21.3520   -6.2400 C   0  0  0  0  0
    1.0610  -21.0430   -5.3670 C   0  0  0  0  0
   -0.0790  -21.2780   -5.7920 O   0  0  0  0  0
    2.2990  -20.4240   -7.4530 C   0  0  0  0  0
    3.6460  -20.3760   -8.1550 C   0  0  0  0  0
    5.0100  -20.0540   -7.0130 S   0  0  0  0  0
    4.5230  -18.4720   -6.3210 C   0  0  0  0  0
    1.2590  -20.5300   -4.1450 N   0  0  0  0  0
    0.1680  -20.1900   -3.2240 C   0  0  0  0  0
   -0.7300  -19.0750   -3.7540 C   0  0  0  0  0
   -0.2880  -18.3060   -4.6070 O   0  0  0  0  0
    0.9060  -19.7380   -1.9580 C   0  0  0  0  0
    2.2630  -19.3250   -2.4350 C   0  0  0  0  0
    2.5820  -20.2550   -3.5610 C   0  0  0  0  0
   -1.8750  -18.9710   -3.3160 O   0  0  0  0  0
    5.5070  -43.1960   -6.8024 H   0  0  0  0  0
    6.1281  -44.6603   -6.3054 H   0  0  0  0  0
    4.4784  -44.4391   -6.3861 H   0  0  0  0  0
    4.5347  -42.8262   -4.6801 H   0  0  0  0  0
    5.3407  -44.3305   -2.8279 H   0  0  0  0  0
    5.8453  -45.4887   -4.1414 H   0  0  0  0  0
    3.8700  -47.1864   -4.9004 H   0  0  0  0  0
    0.5961  -45.0522   -3.1973 H   0  0  0  0  0
    7.7192  -43.9661   -5.7175 H   0  0  0  0  0
    9.2907  -42.2767   -4.0200 H   0  0  0  0  0
    9.6672  -43.1574   -6.8811 H   0  0  0  0  0
   10.3496  -43.9104   -5.3567 H   0  0  0  0  0
   12.5976  -42.6145   -4.3201 H   0  0  0  0  0
   13.1266  -40.0196   -7.6612 H   0  0  0  0  0
    9.7766  -40.1335   -4.0327 H   0  0  0  0  0
    7.7809  -38.4208   -5.1379 H   0  0  0  0  0
    9.5689  -36.6113   -4.6014 H   0  0  0  0  0
   10.4296  -38.0109   -3.8182 H   0  0  0  0  0
    8.6428  -38.3619   -2.3367 H   0  0  0  0  0
    7.6125  -37.1465   -3.2122 H   0  0  0  0  0
   10.5342  -37.7969   -0.7311 H   0  0  0  0  0
   11.3899  -37.0362   -2.0949 H   0  0  0  0  0
   11.2401  -36.1727   -0.5447 H   0  0  0  0  0
    7.8651  -36.8335   -6.7364 H   0  0  0  0  0
    9.3850  -37.8784   -9.0933 H   0  0  0  0  0
    6.7573  -36.4034   -8.8204 H   0  0  0  0  0
    7.0312  -38.1288   -9.3315 H   0  0  0  0  0
    6.2830  -35.9521  -12.3105 H   0  0  0  0  0
    5.4647  -36.2443  -10.7722 H   0  0  0  0  0
   11.3185  -33.7948   -8.7677 H   0  0  0  0  0
   13.4760  -34.8772   -9.0998 H   0  0  0  0  0
   13.2990  -34.1988  -10.6681 H   0  0  0  0  0
   13.5837  -36.8323  -10.4504 H   0  0  0  0  0
   12.4466  -36.2142  -11.6123 H   0  0  0  0  0
   10.9769  -37.6195  -10.3752 H   0  0  0  0  0
   11.8798  -37.4883   -8.9322 H   0  0  0  0  0
    9.6816  -35.2478  -11.4069 H   0  0  0  0  0
    9.8140  -32.6889  -12.8798 H   0  0  0  0  0
    8.5185  -33.9026  -14.6182 H   0  0  0  0  0
    8.5102  -35.3570  -13.5342 H   0  0  0  0  0
   11.5370  -36.5467  -14.7402 H   0  0  0  0  0
    9.9881  -36.8403  -13.9428 H   0  0  0  0  0
    8.2430  -33.3377  -10.2309 H   0  0  0  0  0
    5.4743  -33.1942  -10.9281 H   0  0  0  0  0
    6.2549  -33.8629   -8.6897 H   0  0  0  0  0
    6.8987  -32.2256   -8.4142 H   0  0  0  0  0
    5.1432  -32.4763   -8.5771 H   0  0  0  0  0
    3.9832  -31.4724  -10.8106 H   0  0  0  0  0
    5.0165  -29.0299  -12.0126 H   0  0  0  0  0
    2.2416  -29.5539  -10.9099 H   0  0  0  0  0
    1.8153  -30.2136  -13.1132 H   0  0  0  0  0
    2.7318  -27.2005  -11.4542 H   0  0  0  0  0
    3.2808  -27.6845  -13.0776 H   0  0  0  0  0
    1.5730  -27.8905  -12.6169 H   0  0  0  0  0
    5.4702  -27.0966  -11.0975 H   0  0  0  0  0
    5.8587  -27.0108   -8.2561 H   0  0  0  0  0
    6.3499  -24.6245   -8.6100 H   0  0  0  0  0
    5.7772  -24.8149  -10.3354 H   0  0  0  0  0
    7.5559  -26.4331  -10.6878 H   0  0  0  0  0
    8.1593  -26.0876   -9.0121 H   0  0  0  0  0
    7.3290  -23.4057   -9.5743 H   0  0  0  0  0
    4.8003  -25.9207   -6.6364 H   0  0  0  0  0
    1.9897  -25.1530   -7.2579 H   0  0  0  0  0
    3.2882  -25.8227   -4.6119 H   0  0  0  0  0
    2.1747  -26.8793   -5.5932 H   0  0  0  0  0
   -0.1910  -26.2912   -5.8017 H   0  0  0  0  0
    2.4301  -24.1249   -3.2067 H   0  0  0  0  0
   -2.1417  -25.3232   -4.6410 H   0  0  0  0  0
    0.4829  -23.1447   -2.0557 H   0  0  0  0  0
   -1.8068  -23.7451   -2.7668 H   0  0  0  0  0
    1.4835  -23.0539   -7.2836 H   0  0  0  0  0
    3.1809  -21.1824   -5.6724 H   0  0  0  0  0
    2.0831  -19.4168   -7.0966 H   0  0  0  0  0
    1.5724  -20.8035   -8.1714 H   0  0  0  0  0
    3.6176  -19.5648   -8.8825 H   0  0  0  0  0
    3.8181  -21.3469   -8.6195 H   0  0  0  0  0
    4.4447  -17.7356   -7.1208 H   0  0  0  0  0
    3.5580  -18.5755   -5.8249 H   0  0  0  0  0
    5.2715  -18.1471   -5.5983 H   0  0  0  0  0
   -0.5067  -21.0313   -3.0659 H   0  0  0  0  0
    0.6167  -18.5489   -4.8172 H   0  0  0  0  0
    0.9613  -20.5330   -1.2143 H   0  0  0  0  0
    0.3868  -18.9226   -1.4544 H   0  0  0  0  0
    3.0053  -19.3873   -1.6392 H   0  0  0  0  0
    2.2765  -18.2838   -2.7571 H   0  0  0  0  0
    3.2809  -19.8262   -4.2792 H   0  0  0  0  0
    3.0953  -21.1583   -3.2315 H   0  0  0  0  0
  1  2  1  0  0  0
  2  3  1  0  0  0
  2  5  1  0  0  0
  3  4  2  0  0  0
  3 11  1  0  0  0
  5  6  1  0  0  0
  6  7  4  0  0  0
  6  8  4  0  0  0
  7  9  4  0  0  0
  8 10  4  0  0  0
  9 10  4  0  0  0
 11 12  1  0  0  0
 12 13  1  0  0  0
 12 15  1  0  0  0
 13 14  2  0  0  0
 13 21  1  0  0  0
 15 16  1  0  0  0
 16 17  4  0  0  0
 16 18  4  0  0  0
 17 19  4  0  0  0
 18 20  4  0  0  0
 19 20  4  0  0  0
 21 22  1  0  0  0
 22 23  1  0  0  0
 22 25  1  0  0  0
 23 24  2  0  0  0
 23 29  1  0  0  0
 25 26  1  0  0  0
 26 27  1  0  0  0
 27 28  1  0  0  0
 29 30  1  0  0  0
 30 31  1  0  0  0
 30 33  1  0  0  0
 31 32  2  0  0  0
 31 37  1  0  0  0
 33 34  1  0  0  0
 34 35  2  0  0  0
 34 36  1  0  0  0
 37 38  1  0  0  0
 37 43  1  0  0  0
 38 39  1  0  0  0
 38 41  1  0  0  0
 39 40  2  0  0  0
 39 44  1  0  0  0
 41 42  1  0  0  0
 42 43  1  0  0  0
 44 45  1  0  0  0
 45 46  1  0  0  0
 45 48  1  0  0  0
 46 47  2  0  0  0
 46 52  1  0  0  0
 48 49  1  0  0  0
 49 50  2  0  0  0
 49 51  1  0  0  0
 52 53  1  0  0  0
 53 54  1  0  0  0
 53 56  1  0  0  0
 54 55  2  0  0  0
 54 57  1  0  0  0
 57 58  1  0  0  0
 58 59  1  0  0  0
 58 61  1  0  0  0
 59 60  2  0  0  0
 59 64  1  0  0  0
 61 62  1  0  0  0
 61 63  1  0  0  0
 64 65  1  0  0  0
 65 66  1  0  0  0
 65 68  1  0  0  0
 66 67  2  0  0  0
 66 73  1  0  0  0
 68 69  1  0  0  0
 69 70  1  0  0  0
 70 71  1  0  0  0
 70 72  2  0  0  0
 73 74  1  0  0  0
 74 75  1  0  0  0
 74 77  1  0  0  0
 75 76  2  0  0  0
 75 84  1  0  0  0
 77 78  1  0  0  0
 78 79  4  0  0  0
 78 80  4  0  0  0
 79 81  4  0  0  0
 80 82  4  0  0  0
 81 83  4  0  0  0
 82 83  4  0  0  0
 84 85  1  0  0  0
 85 86  1  0  0  0
 85 88  1  0  0  0
 86 87  2  0  0  0
 86 92  1  0  0  0
 88 89  1  0  0  0
 89 90  1  0  0  0
 90 91  1  0  0  0
 92 93  1  0  0  0
 92 98  1  0  0  0
 93 94  1  0  0  0
 93 96  1  0  0  0
 94 95  1  0  0  0
 94 99  2  0  0  0
 96 97  1  0  0  0
 97 98  1  0  0  0
  1100  1  0  0  0
  1101  1  0  0  0
  1102  1  0  0  0
  2103  1  0  0  0
  5104  1  0  0  0
  5105  1  0  0  0
  8106  1  0  0  0
  9107  1  0  0  0
 11108  1  0  0  0
 12109  1  0  0  0
 15110  1  0  0  0
 15111  1  0  0  0
 18112  1  0  0  0
 19113  1  0  0  0
 21114  1  0  0  0
 22115  1  0  0  0
 25116  1  0  0  0
 25117  1  0  0  0
 26118  1  0  0  0
 26119  1  0  0  0
 28120  1  0  0  0
 28121  1  0  0  0
 28122  1  0  0  0
 29123  1  0  0  0
 30124  1  0  0  0
 33125  1  0  0  0
 33126  1  0  0  0
 36127  1  0  0  0
 36128  1  0  0  0
 38129  1  0  0  0
 41130  1  0  0  0
 41131  1  0  0  0
 42132  1  0  0  0
 42133  1  0  0  0
 43134  1  0  0  0
 43135  1  0  0  0
 44136  1  0  0  0
 45137  1  0  0  0
 48138  1  0  0  0
 48139  1  0  0  0
 51140  1  0  0  0
 51141  1  0  0  0
 52142  1  0  0  0
 53143  1  0  0  0
 56144  1  0  0  0
 56145  1  0  0  0
 56146  1  0  0  0
 57147  1  0  0  0
 58148  1  0  0  0
 61149  1  0  0  0
 62150  1  0  0  0
 63151  1  0  0  0
 63152  1  0  0  0
 63153  1  0  0  0
 64154  1  0  0  0
 65155  1  0  0  0
 68156  1  0  0  0
 68157  1  0  0  0
 69158  1  0  0  0
 69159  1  0  0  0
 71160  1  0  0  0
 73161  1  0  0  0
 74162  1  0  0  0
 77163  1  0  0  0
 77164  1  0  0  0
 79165  1  0  0  0
 80166  1  0  0  0
 81167  1  0  0  0
 82168  1  0  0  0
 83169  1  0  0  0
 84170  1  0  0  0
 85171  1  0  0  0
 88172  1  0  0  0
 88173  1  0  0  0
 89174  1  0  0  0
 89175  1  0  0  0
 91176  1  0  0  0
 91177  1  0  0  0
 91178  1  0  0  0
 93179  1  0  0  0
 95180  1  0  0  0
 96181  1  0  0  0
 96182  1  0  0  0
 97183  1  0  0  0
 97184  1  0  0  0
 98185  1  0  0  0
 98186  1  0  0  0
M  END
$$$$
