### 
### Created by X-TOOL on Wed Jan  1 15:39:37 2020
### 

@<TRIPOS>MOLECULE
6h7b_ligand
  186   190     1     0     0
SMALL
GAST_HUCK


@<TRIPOS>ATOM
      1 N           5.3700  -43.9900   -6.1770 N.4       1 HIS         0.2390
      2 CA          5.3650  -43.5230   -4.7950 C.3       1 HIS         0.0708
      3 C           6.6510  -42.7740   -4.4550 C.2       1 HIS         0.2283
      4 O           6.6550  -41.9010   -3.5890 O.2       1 HIS        -0.3906
      5 CB          5.1610  -44.6960   -3.8390 C.3       1 HIS         0.0347
      6 CG          3.7750  -45.2590   -3.8750 C.2       1 HIS         0.0005
      7 ND1         2.6920  -44.5970   -3.3390 N.2       1 HIS        -0.3251
      8 CD2         3.2930  -46.4140   -4.3920 C.2       1 HIS         0.0293
      9 CE1         1.6020  -45.3220   -3.5190 C.2       1 HIS         0.0907
     10 NE2         1.9390  -46.4290   -4.1550 N.pl3     1 HIS        -0.2752
     11 N           7.7390  -43.1290   -5.1350 N.am      1 HIS        -0.2596
     12 CA          8.9570  -42.3350   -5.0560 C.3       1 HIS         0.1370
     13 C           8.6760  -40.9230   -5.5590 C.2       1 HIS         0.2054
     14 O           8.0020  -40.7360   -6.5750 O.2       1 HIS        -0.3942
     15 CB         10.0650  -42.9970   -5.8790 C.3       1 HIS         0.0145
     16 CG         11.3050  -42.1690   -6.0250 C.2       1 HIS        -0.0027
     17 ND1        11.5170  -41.3270   -7.0960 N.2       1 HIS        -0.3252
     18 CD2        12.4120  -42.0770   -5.2500 C.2       1 HIS         0.0291
     19 CE1        12.6940  -40.7410   -6.9680 C.2       1 HIS         0.0907
     20 NE2        13.2570  -41.1790   -5.8560 N.pl3     1 HIS        -0.2752
     21 N           9.1740  -39.9260   -4.8290 N.am      1 MET        -0.2636
     22 CA          8.8640  -38.5410   -5.1600 C.3       1 MET         0.1317
     23 C           9.3560  -38.1990   -6.5620 C.2       1 MET         0.2040
     24 O          10.3860  -38.6940   -7.0250 O.2       1 MET        -0.3944
     25 CB          9.4740  -37.5900   -4.1310 C.3       1 MET        -0.0034
     26 CG          8.6160  -37.4220   -2.8880 C.3       1 MET        -0.0024
     27 SD          9.2130  -36.1250   -1.7900 S.3       1 MET        -0.1639
     28 CE         10.7440  -36.8540   -1.2360 C.3       1 MET        -0.0181
     29 N           8.5960  -37.3390   -7.2370 N.am      1 ASN        -0.2616
     30 CA          8.7670  -37.0920   -8.6600 C.3       1 ASN         0.1478
     31 C           9.4680  -35.7600   -8.8760 C.2       1 ASN         0.2088
     32 O           8.8730  -34.7080   -8.6000 O.2       1 ASN        -0.3940
     33 CB          7.4020  -37.1040   -9.3510 C.3       1 ASN         0.0773
     34 CG          7.4620  -36.6640  -10.8040 C.2       1 ASN         0.1780
     35 OD1         8.5140  -36.6960  -11.4420 O.2       1 ASN        -0.3970
     36 ND2         6.3140  -36.2550  -11.3370 N.am      1 ASN        -0.3007
     37 N          10.7120  -35.7440   -9.3700 N.am      1 PRO        -0.2497
     38 CA         11.3890  -34.4630   -9.6260 C.3       1 PRO         0.1338
     39 C          10.7680  -33.6610  -10.7570 C.2       1 PRO         0.2042
     40 O          11.1000  -32.4780  -10.9070 O.2       1 PRO        -0.3944
     41 CB         12.8210  -34.8870   -9.9710 C.3       1 PRO        -0.0104
     42 CG         12.6640  -36.2550  -10.5450 C.3       1 PRO        -0.0281
     43 CD         11.5330  -36.8960   -9.7790 C.3       1 PRO         0.0369
     44 N           9.8850  -34.2590  -11.5530 N.am      1 ASN        -0.2616
     45 CA          9.1990  -33.5520  -12.6250 C.3       1 ASN         0.1476
     46 C           7.8360  -33.0270  -12.2010 C.2       1 ASN         0.2062
     47 O           7.0490  -32.6180  -13.0610 O.2       1 ASN        -0.3942
     48 CB          9.0480  -34.4620  -13.8470 C.3       1 ASN         0.0773
     49 CG         10.3820  -34.8960  -14.4190 C.2       1 ASN         0.1780
     50 OD1        11.1540  -34.0760  -14.9150 O.2       1 ASN        -0.3970
     51 ND2        10.6570  -36.1950  -14.3630 N.am      1 ASN        -0.3007
     52 N           7.5420  -33.0280  -10.9040 N.am      1 ALA        -0.2639
     53 CA          6.2350  -32.5940  -10.4290 C.3       1 ALA         0.1282
     54 C           5.9920  -31.1270  -10.7720 C.2       1 ALA         0.2037
     55 O           6.9270  -30.3340  -10.9060 O.2       1 ALA        -0.3944
     56 CB          6.1250  -32.8050   -8.9180 C.3       1 ALA        -0.0244
     57 N           4.7160  -30.7710  -10.9180 N.am      1 THR        -0.2613
     58 CA          4.3520  -29.3940  -11.2290 C.3       1 THR         0.1565
     59 C           4.5130  -28.5170   -9.9930 C.2       1 THR         0.2065
     60 O           4.0770  -28.8850   -8.8970 O.2       1 THR        -0.3943
     61 CB          2.9110  -29.3210  -11.7380 C.3       1 THR         0.0924
     62 OG1         2.7210  -30.2650  -12.7990 O.3       1 THR        -0.3874
     63 CG2         2.6020  -27.9240  -12.2590 C.3       1 THR        -0.0346
     64 N           5.1400  -27.3560  -10.1680 N.am      1 GLU        -0.2635
     65 CA          5.3600  -26.4520   -9.0480 C.3       1 GLU         0.1325
     66 C           4.0340  -25.9210   -8.5150 C.2       1 GLU         0.2041
     67 O           3.0730  -25.7210   -9.2610 O.2       1 GLU        -0.3944
     68 CB          6.2490  -25.2840   -9.4720 C.3       1 GLU        -0.0008
     69 CG          7.6480  -25.6950   -9.8910 C.3       1 GLU         0.0044
     70 CD          8.4630  -24.5330  -10.4240 C.2       1 GLU         0.0350
     71 OE1         8.1110  -23.3710  -10.1300 O.co2     1 GLU        -0.5690
     72 OE2         9.4550  -24.7850  -11.1400 O.co2     1 GLU        -0.5690
     73 N           3.9890  -25.6830   -7.2070 N.am      1 PHE        -0.2619
     74 CA          2.8250  -25.0960   -6.5600 C.3       1 PHE         0.1404
     75 C           3.1060  -23.6410   -6.2110 C.2       1 PHE         0.2060
     76 O           4.1010  -23.3380   -5.5460 O.2       1 PHE        -0.3942
     77 CB          2.4390  -25.8650   -5.2940 C.3       1 PHE         0.0214
     78 CG          1.2520  -25.2790   -4.5780 C.ar      1 PHE        -0.0386
     79 CD1        -0.0380  -25.6010   -4.9720 C.ar      1 PHE        -0.0601
     80 CD2         1.4230  -24.3920   -3.5270 C.ar      1 PHE        -0.0601
     81 CE1        -1.1330  -25.0570   -4.3250 C.ar      1 PHE        -0.0686
     82 CE2         0.3330  -23.8420   -2.8800 C.ar      1 PHE        -0.0686
     83 CZ         -0.9460  -24.1760   -3.2780 C.ar      1 PHE        -0.0687
     84 N           2.2190  -22.7490   -6.6460 N.am      1 MET        -0.2636
     85 CA          2.2660  -21.3520   -6.2400 C.3       1 MET         0.1319
     86 C           1.0610  -21.0430   -5.3670 C.2       1 MET         0.2059
     87 O          -0.0790  -21.2780   -5.7920 O.2       1 MET        -0.3942
     88 CB          2.2990  -20.4240   -7.4530 C.3       1 MET        -0.0034
     89 CG          3.6460  -20.3760   -8.1550 C.3       1 MET        -0.0024
     90 SD          5.0100  -20.0540   -7.0130 S.3       1 MET        -0.1639
     91 CE          4.5230  -18.4720   -6.3210 C.3       1 MET        -0.0181
     92 N           1.2590  -20.5300   -4.1450 N.am      1 PRO        -0.2556
     93 CA          0.1680  -20.1900   -3.2240 C.3       1 PRO         0.0972
     94 C          -0.7300  -19.0750   -3.7540 C.2       1 PRO         0.0603
     95 O          -0.2880  -18.3060   -4.6070 O.co2     1 PRO        -0.5666
     96 CB          0.9060  -19.7380   -1.9580 C.3       1 PRO        -0.0159
     97 CG          2.2630  -19.3250   -2.4350 C.3       1 PRO        -0.0288
     98 CD          2.5820  -20.2550   -3.5610 C.3       1 PRO         0.0362
     99 OXT        -1.8750  -18.9710   -3.3160 O.co2     1 PRO        -0.5666
    100 H1          4.5099  -44.4791   -6.3695 H         1 HIS         0.2016
    101 H2          6.1496  -44.6131   -6.3183 H         1 HIS         0.2016
    102 H3          5.4538  -43.2006   -6.7982 H         1 HIS         0.2016
    103 H4          4.5220  -42.8271   -4.6723 H         1 HIS         0.1116
    104 H5          5.3709  -44.3520   -2.8155 H         1 HIS         0.0453
    105 H6          5.8683  -45.4936   -4.1101 H         1 HIS         0.0453
    106 H7          3.8695  -47.1857   -4.8999 H         1 HIS         0.0729
    107 H8          0.5970  -45.0524   -3.1976 H         1 HIS         0.1199
    108 H9          1.2920  -47.1820   -4.4292 H         1 HIS         0.2361
    109 H10         7.7196  -43.9497   -5.7061 H         1 HIS         0.1886
    110 H11         9.2816  -42.2799   -4.0064 H         1 HIS         0.0817
    111 H12         9.6697  -43.2050   -6.8842 H         1 HIS         0.0420
    112 H13        10.3387  -43.9433   -5.3896 H         1 HIS         0.0420
    113 H14        12.5975  -42.6140   -4.3209 H         1 HIS         0.0729
    114 H15        13.1262  -40.0202   -7.6606 H         1 HIS         0.1199
    115 H16        14.1806  -40.8933   -5.5006 H         1 HIS         0.2361
    116 H17         9.7648  -40.1295   -4.0483 H         1 MET         0.1883
    117 H18         7.7711  -38.4179   -5.1382 H         1 MET         0.0800
    118 H19         9.6053  -36.6041   -4.6009 H         1 MET         0.0320
    119 H20        10.4547  -37.9853   -3.8279 H         1 MET         0.0320
    120 H21         8.6094  -38.3732   -2.3356 H         1 MET         0.0378
    121 H22         7.5913  -37.1723   -3.2006 H         1 MET         0.0378
    122 H23        11.2457  -36.1674   -0.5383 H         1 MET         0.0340
    123 H24        11.3968  -37.0384   -2.1019 H         1 MET         0.0340
    124 H25        10.5336  -37.8057   -0.7261 H         1 MET         0.0340
    125 H26         7.8794  -36.8434   -6.7462 H         1 ASN         0.1885
    126 H27         9.3885  -37.8917   -9.0891 H         1 ASN         0.0826
    127 H28         6.7292  -36.4243   -8.8076 H         1 ASN         0.0551
    128 H29         6.9995  -38.1270   -9.3120 H         1 ASN         0.0551
    129 H30         6.2849  -35.9521  -12.2896 H         1 ASN         0.1814
    130 H31         5.4801  -36.2505  -10.7851 H         1 ASN         0.1814
    131 H32        11.3794  -33.8451   -8.7160 H         1 PRO         0.0802
    132 H33        13.4497  -34.9114   -9.0687 H         1 PRO         0.0313
    133 H34        13.2646  -34.2021  -10.7086 H         1 PRO         0.0313
    134 H35        13.5906  -36.8334  -10.4150 H         1 PRO         0.0287
    135 H36        12.4161  -36.1951  -11.6150 H         1 PRO         0.0287
    136 H37        10.9600  -37.5814  -10.4208 H         1 PRO         0.0524
    137 H38        11.9100  -37.4434   -8.9025 H         1 PRO         0.0524
    138 H39         9.6856  -35.2284  -11.4098 H         1 ASN         0.1885
    139 H40         9.8194  -32.6895  -12.9100 H         1 ASN         0.0826
    140 H41         8.4916  -33.9182  -14.6246 H         1 ASN         0.0551
    141 H42         8.4833  -35.3584  -13.5511 H         1 ASN         0.0551
    142 H43        11.5233  -36.5388  -14.7255 H         1 ASN         0.1814
    143 H44         9.9977  -36.8287  -13.9583 H         1 ASN         0.1814
    144 H45         8.2293  -33.3316  -10.2441 H         1 ALA         0.1883
    145 H46         5.4640  -33.2012  -10.9258 H         1 ALA         0.0797
    146 H47         5.1346  -32.4737   -8.5727 H         1 ALA         0.0277
    147 H48         6.9053  -32.2207   -8.4084 H         1 ALA         0.0277
    148 H49         6.2559  -33.8723   -8.6863 H         1 ALA         0.0277
    149 H50         3.9976  -31.4586  -10.8127 H         1 THR         0.1884
    150 H51         5.0233  -29.0219  -12.0170 H         1 THR         0.0826
    151 H52         2.2257  -29.5592  -10.9112 H         1 THR         0.0639
    152 H53         1.8248  -30.2141  -13.1099 H         1 THR         0.2101
    153 H54         1.5637  -27.8889  -12.6205 H         1 THR         0.0257
    154 H55         3.2863  -27.6811  -13.0852 H         1 THR         0.0257
    155 H56         2.7326  -27.1928  -11.4476 H         1 THR         0.0257
    156 H57         5.4637  -27.1017  -11.0793 H         1 GLU         0.1883
    157 H58         5.8657  -27.0074   -8.2444 H         1 GLU         0.0801
    158 H59         6.3322  -24.5871   -8.6250 H         1 GLU         0.0330
    159 H60         5.7694  -24.7742  -10.3206 H         1 GLU         0.0330
    160 H61         7.5696  -26.4601  -10.6774 H         1 GLU         0.0433
    161 H62         8.1670  -26.1180   -9.0183 H         1 GLU         0.0433
    162 H63         4.7844  -25.9161   -6.6476 H         1 PHE         0.1885
    163 H64         1.9797  -25.1351   -7.2628 H         1 PHE         0.0823
    164 H65         3.2981  -25.8597   -4.6071 H         1 PHE         0.0474
    165 H66         2.2002  -26.9014   -5.5746 H         1 PHE         0.0474
    166 H67        -0.1902  -26.2874   -5.7971 H         1 PHE         0.0557
    167 H68         2.4245  -24.1263   -3.2085 H         1 PHE         0.0557
    168 H69        -2.1361  -25.3217   -4.6392 H         1 PHE         0.0599
    169 H70         0.4821  -23.1486   -2.0603 H         1 PHE         0.0599
    170 H71        -1.8021  -23.7475   -2.7696 H         1 PHE         0.0559
    171 H72         1.4980  -23.0479   -7.2711 H         1 MET         0.1883
    172 H73         3.1810  -21.1874   -5.6521 H         1 MET         0.0800
    173 H74         2.0466  -19.4071   -7.1181 H         1 MET         0.0320
    174 H75         1.5445  -20.7703   -8.1747 H         1 MET         0.0320
    175 H76         3.6220  -19.5767   -8.9103 H         1 MET         0.0378
    176 H77         3.8208  -21.3428   -8.6497 H         1 MET         0.0378
    177 H78         5.2777  -18.1430   -5.5914 H         1 MET         0.0340
    178 H79         3.5492  -18.5751   -5.8200 H         1 MET         0.0340
    179 H80         4.4437  -17.7279   -7.1272 H         1 MET         0.0340
    180 H81        -0.4497  -21.0769   -3.0195 H         1 PRO         0.0728
    181 H82         0.9836  -20.5659   -1.2379 H         1 PRO         0.0306
    182 H83         0.3859  -18.8905   -1.4877 H         1 PRO         0.0306
    183 H84         3.0035  -19.4279   -1.6281 H         1 PRO         0.0286
    184 H85         2.2474  -18.2832   -2.7877 H         1 PRO         0.0286
    185 H86         3.2464  -19.7750   -4.2946 H         1 PRO         0.0524
    186 H87         3.0509  -21.1786   -3.1907 H         1 PRO         0.0524
@<TRIPOS>BOND
     1    1    2 1  
     2    2    3 1  
     3    2    5 1  
     4    3    4 2  
     5    3   11 am 
     6    5    6 1  
     7    6    7 1  
     8    6    8 2  
     9    7    9 2  
    10    8   10 1  
    11    9   10 1  
    12   11   12 1  
    13   12   13 1  
    14   12   15 1  
    15   13   14 2  
    16   13   21 am 
    17   15   16 1  
    18   16   17 1  
    19   16   18 2  
    20   17   19 2  
    21   18   20 1  
    22   19   20 1  
    23   21   22 1  
    24   22   23 1  
    25   22   25 1  
    26   23   24 2  
    27   23   29 am 
    28   25   26 1  
    29   26   27 1  
    30   27   28 1  
    31   29   30 1  
    32   30   31 1  
    33   30   33 1  
    34   31   32 2  
    35   31   37 am 
    36   33   34 1  
    37   34   35 2  
    38   34   36 am 
    39   37   38 1  
    40   37   43 1  
    41   38   39 1  
    42   38   41 1  
    43   39   40 2  
    44   39   44 am 
    45   41   42 1  
    46   42   43 1  
    47   44   45 1  
    48   45   46 1  
    49   45   48 1  
    50   46   47 2  
    51   46   52 am 
    52   48   49 1  
    53   49   50 2  
    54   49   51 am 
    55   52   53 1  
    56   53   54 1  
    57   53   56 1  
    58   54   55 2  
    59   54   57 am 
    60   57   58 1  
    61   58   59 1  
    62   58   61 1  
    63   59   60 2  
    64   59   64 am 
    65   61   62 1  
    66   61   63 1  
    67   64   65 1  
    68   65   66 1  
    69   65   68 1  
    70   66   67 2  
    71   66   73 am 
    72   68   69 1  
    73   69   70 1  
    74   70   71 ar 
    75   70   72 ar 
    76   73   74 1  
    77   74   75 1  
    78   74   77 1  
    79   75   76 2  
    80   75   84 am 
    81   77   78 1  
    82   78   79 ar 
    83   78   80 ar 
    84   79   81 ar 
    85   80   82 ar 
    86   81   83 ar 
    87   82   83 ar 
    88   84   85 1  
    89   85   86 1  
    90   85   88 1  
    91   86   87 2  
    92   86   92 am 
    93   88   89 1  
    94   89   90 1  
    95   90   91 1  
    96   92   93 1  
    97   92   98 1  
    98   93   94 1  
    99   93   96 1  
   100   94   95 ar 
   101   94   99 ar 
   102   96   97 1  
   103   97   98 1  
   104    1  100 1  
   105    1  101 1  
   106    1  102 1  
   107    2  103 1  
   108    5  104 1  
   109    5  105 1  
   110    8  106 1  
   111    9  107 1  
   112   10  108 1  
   113   11  109 1  
   114   12  110 1  
   115   15  111 1  
   116   15  112 1  
   117   18  113 1  
   118   19  114 1  
   119   20  115 1  
   120   21  116 1  
   121   22  117 1  
   122   25  118 1  
   123   25  119 1  
   124   26  120 1  
   125   26  121 1  
   126   28  122 1  
   127   28  123 1  
   128   28  124 1  
   129   29  125 1  
   130   30  126 1  
   131   33  127 1  
   132   33  128 1  
   133   36  129 1  
   134   36  130 1  
   135   38  131 1  
   136   41  132 1  
   137   41  133 1  
   138   42  134 1  
   139   42  135 1  
   140   43  136 1  
   141   43  137 1  
   142   44  138 1  
   143   45  139 1  
   144   48  140 1  
   145   48  141 1  
   146   51  142 1  
   147   51  143 1  
   148   52  144 1  
   149   53  145 1  
   150   56  146 1  
   151   56  147 1  
   152   56  148 1  
   153   57  149 1  
   154   58  150 1  
   155   61  151 1  
   156   62  152 1  
   157   63  153 1  
   158   63  154 1  
   159   63  155 1  
   160   64  156 1  
   161   65  157 1  
   162   68  158 1  
   163   68  159 1  
   164   69  160 1  
   165   69  161 1  
   166   73  162 1  
   167   74  163 1  
   168   77  164 1  
   169   77  165 1  
   170   79  166 1  
   171   80  167 1  
   172   81  168 1  
   173   82  169 1  
   174   83  170 1  
   175   84  171 1  
   176   85  172 1  
   177   88  173 1  
   178   88  174 1  
   179   89  175 1  
   180   89  176 1  
   181   91  177 1  
   182   91  178 1  
   183   91  179 1  
   184   93  180 1  
   185   96  181 1  
   186   96  182 1  
   187   97  183 1  
   188   97  184 1  
   189   98  185 1  
   190   98  186 1  
@<TRIPOS>SUBSTRUCTURE
     1 HIS         1

