### 
### Created by X-TOOL on Mon Sep 10 21:12:51 2018
### 

@<TRIPOS>MOLECULE
1oqp_ligand
  368   372     1     0     0
SMALL
GAST_HUCK


@<TRIPOS>ATOM
      1 N         -12.7250   10.4610   14.7720 N.4       1 LYS         0.2379
      2 CA        -12.0820   11.1270   13.6240 C.3       1 LYS         0.0650
      3 C         -12.1550   10.2260   12.3880 C.2       1 LYS         0.2267
      4 O         -11.3170    9.3410   12.2170 O.2       1 LYS        -0.3907
      5 CB        -10.6280   11.5050   13.9460 C.3       1 LYS         0.0080
      6 CG        -10.5240   12.4250   15.1710 C.3       1 LYS        -0.0410
      7 CD         -9.1220   13.0360   15.3220 C.3       1 LYS        -0.0123
      8 CE         -7.9910   12.0000   15.3880 C.3       1 LYS        -0.0354
      9 NZ         -8.1890   11.0210   16.4720 N.4       1 LYS         0.2185
     10 N         -13.1630   10.4410   11.5340 N.am      1 LYS        -0.2610
     11 CA        -13.4210    9.5910   10.3760 C.3       1 LYS         0.1311
     12 C         -12.1490    9.3340    9.5690 C.2       1 LYS         0.2039
     13 O         -11.8450    8.1870    9.2660 O.2       1 LYS        -0.3944
     14 CB        -14.5300   10.1770    9.4940 C.3       1 LYS        -0.0122
     15 CG        -15.8880   10.1570   10.2110 C.3       1 LYS        -0.0440
     16 CD        -17.0500   10.5190    9.2740 C.3       1 LYS        -0.0124
     17 CE        -17.3370    9.4160    8.2420 C.3       1 LYS        -0.0354
     18 NZ        -18.5630    9.7040    7.4780 N.4       1 LYS         0.2185
     19 N         -11.3840   10.3860    9.2640 N.am      1 ARG        -0.2637
     20 CA        -10.0940   10.2820    8.5890 C.3       1 ARG         0.1311
     21 C          -9.2430    9.1530    9.1880 C.2       1 ARG         0.2039
     22 O          -8.8150    8.2410    8.4810 O.2       1 ARG        -0.3944
     23 CB         -9.3890   11.6440    8.6860 C.3       1 ARG        -0.0092
     24 CG         -8.0000   11.7010    8.0370 C.3       1 ARG        -0.0156
     25 CD         -8.0290   11.4060    6.5340 C.3       1 ARG         0.0627
     26 NE         -6.7690   11.8420    5.9130 N.pl3     1 ARG        -0.2723
     27 CZ         -6.6560   12.5990    4.8100 C.cat     1 ARG         0.2882
     28 NH1        -7.6750   12.7390    3.9570 N.pl3     1 ARG        -0.2849
     29 NH2        -5.5000   13.2250    4.5620 N.pl3     1 ARG        -0.2849
     30 N          -9.0330    9.2030   10.5060 N.am      1 GLU        -0.2636
     31 CA         -8.2460    8.2170   11.2280 C.3       1 GLU         0.1325
     32 C          -8.9000    6.8430   11.0950 C.2       1 GLU         0.2040
     33 O          -8.2390    5.8690   10.7360 O.2       1 GLU        -0.3944
     34 CB         -8.1170    8.6520   12.6940 C.3       1 GLU        -0.0008
     35 CG         -7.1540    7.7700   13.4960 C.3       1 GLU         0.0044
     36 CD         -7.0850    8.2460   14.9440 C.2       1 GLU         0.0350
     37 OE1        -7.9470    7.8000   15.7320 O.co2     1 GLU        -0.5690
     38 OE2        -6.1990    9.0800   15.2300 O.co2     1 GLU        -0.5690
     39 N         -10.2020    6.7600   11.3820 N.am      1 LEU        -0.2637
     40 CA        -10.9320    5.4980   11.3390 C.3       1 LEU         0.1312
     41 C         -10.8370    4.8400    9.9580 C.2       1 LEU         0.2039
     42 O         -10.7470    3.6200    9.8600 O.2       1 LEU        -0.3944
     43 CB        -12.3980    5.7080   11.7470 C.3       1 LEU        -0.0101
     44 CG        -12.5800    6.2250   13.1850 C.3       1 LEU        -0.0425
     45 CD1       -14.0610    6.5370   13.4260 C.3       1 LEU        -0.0625
     46 CD2       -12.1070    5.2060   14.2290 C.3       1 LEU        -0.0625
     47 N         -10.8600    5.6340    8.8860 N.am      1 ILE        -0.2635
     48 CA        -10.7780    5.1510    7.5150 C.3       1 ILE         0.1335
     49 C          -9.3440    4.7180    7.2050 C.2       1 ILE         0.2042
     50 O          -9.1250    3.5980    6.7430 O.2       1 ILE        -0.3944
     51 CB        -11.3040    6.2260    6.5500 C.3       1 ILE        -0.0037
     52 CG1       -12.8020    6.4840    6.8010 C.3       1 ILE        -0.0491
     53 CG2       -11.1070    5.7700    5.0980 C.3       1 ILE        -0.0582
     54 CD1       -13.2540    7.8400    6.2440 C.3       1 ILE        -0.0648
     55 N          -8.3590    5.5780    7.4800 N.am      1 GLU        -0.2636
     56 CA         -6.9460    5.2370    7.3390 C.3       1 GLU         0.1325
     57 C          -6.6240    3.9160    8.0550 C.2       1 GLU         0.2041
     58 O          -5.9260    3.0590    7.5100 O.2       1 GLU        -0.3944
     59 CB         -6.0940    6.3960    7.8680 C.3       1 GLU        -0.0008
     60 CG         -6.1230    7.5920    6.9010 C.3       1 GLU         0.0044
     61 CD         -5.4670    8.8410    7.4900 C.2       1 GLU         0.0350
     62 OE1        -5.5790    9.0280    8.7220 O.co2     1 GLU        -0.5690
     63 OE2        -4.8710    9.6000    6.6960 O.co2     1 GLU        -0.5690
     64 N          -7.1840    3.7310    9.2550 N.am      1 SER        -0.2616
     65 CA         -7.0480    2.5020   10.0260 C.3       1 SER         0.1539
     66 C          -7.4410    1.2560    9.2230 C.2       1 SER         0.2062
     67 O          -6.9210    0.1770    9.4950 O.2       1 SER        -0.3943
     68 CB         -7.8440    2.5760   11.3330 C.3       1 SER         0.0843
     69 OG         -7.3840    3.6540   12.1220 O.3       1 SER        -0.3903
     70 N          -8.3450    1.3680    8.2460 N.am      1 LYS        -0.2637
     71 CA         -8.7460    0.2290    7.4320 C.3       1 LYS         0.1310
     72 C          -7.6240   -0.1480    6.4580 C.2       1 LYS         0.2040
     73 O          -7.2250   -1.3100    6.4150 O.2       1 LYS        -0.3944
     74 CB        -10.0700    0.5110    6.7180 C.3       1 LYS        -0.0122
     75 CG        -11.1820    0.8660    7.7140 C.3       1 LYS        -0.0440
     76 CD        -12.4900    1.1920    6.9840 C.3       1 LYS        -0.0124
     77 CE        -13.6210    1.5150    7.9700 C.3       1 LYS        -0.0354
     78 NZ        -13.3590    2.7450    8.7410 N.4       1 LYS         0.2185
     79 N          -7.0800    0.8230    5.7100 N.am      1 TRP        -0.2627
     80 CA         -5.8860    0.6010    4.8880 C.3       1 TRP         0.1352
     81 C          -4.7770   -0.0060    5.7460 C.2       1 TRP         0.2053
     82 O          -4.1770   -1.0110    5.3630 O.2       1 TRP        -0.3942
     83 CB         -5.4300    1.9040    4.2130 C.3       1 TRP         0.0042
     84 CG         -6.3450    2.4860    3.1770 C.2       1 TRP        -0.0418
     85 CD1        -6.9230    3.7060    3.2380 C.2       1 TRP         0.0167
     86 CD2        -6.6600    1.9740    1.8470 C.ar      1 TRP        -0.0214
     87 NE1        -7.6550    3.9380    2.0920 N.pl3     1 TRP        -0.2890
     88 CE2        -7.4860    2.9250    1.1760 C.ar      1 TRP         0.0603
     89 CE3        -6.2890    0.8240    1.1200 C.ar      1 TRP        -0.0747
     90 CZ2        -7.9360    2.7390   -0.1370 C.ar      1 TRP        -0.0443
     91 CZ3        -6.6900    0.6570   -0.2200 C.ar      1 TRP        -0.0792
     92 CH2        -7.5380    1.5920   -0.8350 C.ar      1 TRP        -0.0768
     93 N          -4.5460    0.5850    6.9230 N.am      1 HIS        -0.2618
     94 CA         -3.6260    0.0440    7.9150 C.3       1 HIS         0.1421
     95 C          -3.9430   -1.4300    8.1810 C.2       1 HIS         0.2060
     96 O          -3.0810   -2.2940    8.0390 O.2       1 HIS        -0.3942
     97 CB         -3.5730    0.9730    9.1480 C.3       1 HIS         0.0427
     98 CG         -3.6410    0.3410   10.5220 C.2       1 HIS         0.0561
     99 ND1        -4.7200   -0.3250   11.0580 N.pl3     1 HIS        -0.2623
    100 CD2        -2.7560    0.5520   11.5460 C.2       1 HIS        -0.0276
    101 CE1        -4.4540   -0.5740   12.3500 C.2       1 HIS         0.0875
    102 NE2        -3.2660   -0.0560   12.6950 N.2       1 HIS        -0.3437
    103 N          -5.1950   -1.7350    8.5170 N.am      1 ARG        -0.2636
    104 CA         -5.6010   -3.0700    8.9120 C.3       1 ARG         0.1311
    105 C          -5.4370   -4.0840    7.7810 C.2       1 ARG         0.2039
    106 O          -5.0150   -5.2020    8.0550 O.2       1 ARG        -0.3944
    107 CB         -7.0290   -3.0460    9.4710 C.3       1 ARG        -0.0092
    108 CG         -7.4740   -4.4530    9.8830 C.3       1 ARG        -0.0156
    109 CD         -8.6360   -4.3950   10.8810 C.3       1 ARG         0.0627
    110 NE         -9.2250   -5.7240   11.0910 N.pl3     1 ARG        -0.2723
    111 CZ         -8.6070   -6.7730   11.6520 C.cat     1 ARG         0.2882
    112 NH1        -7.3980   -6.6470   12.2060 N.pl3     1 ARG        -0.2849
    113 NH2        -9.1870   -7.9750   11.6530 N.pl3     1 ARG        -0.2849
    114 N          -5.7830   -3.7340    6.5340 N.am      1 LEU        -0.2637
    115 CA         -5.7310   -4.7030    5.4370 C.3       1 LEU         0.1312
    116 C          -4.3320   -5.3110    5.3210 C.2       1 LEU         0.2039
    117 O          -4.1750   -6.5280    5.2660 O.2       1 LEU        -0.3944
    118 CB         -6.1170   -4.0880    4.0800 C.3       1 LEU        -0.0101
    119 CG         -7.5860   -3.6830    3.8750 C.3       1 LEU        -0.0425
    120 CD1        -7.7800   -3.2830    2.4050 C.3       1 LEU        -0.0625
    121 CD2        -8.6030   -4.7650    4.2480 C.3       1 LEU        -0.0625
    122 N          -3.3090   -4.4580    5.2460 N.am      1 LEU        -0.2637
    123 CA         -1.9370   -4.9220    5.0990 C.3       1 LEU         0.1312
    124 C          -1.3930   -5.3760    6.4500 C.2       1 LEU         0.2040
    125 O          -0.8450   -6.4710    6.5490 O.2       1 LEU        -0.3944
    126 CB         -1.0950   -3.8250    4.4420 C.3       1 LEU        -0.0101
    127 CG         -1.4160   -3.8120    2.9380 C.3       1 LEU        -0.0425
    128 CD1        -1.4130   -2.3990    2.3540 C.3       1 LEU        -0.0625
    129 CD2        -0.4430   -4.7120    2.1690 C.3       1 LEU        -0.0625
    130 N          -1.5860   -4.5930    7.5160 N.am      1 PHE        -0.2619
    131 CA         -1.1190   -4.9670    8.8520 C.3       1 PHE         0.1404
    132 C          -2.0530   -6.0110    9.4930 C.2       1 PHE         0.2061
    133 O          -2.2850   -5.9690   10.7020 O.2       1 PHE        -0.3942
    134 CB         -1.0180   -3.7440    9.7860 C.3       1 PHE         0.0214
    135 CG         -0.2670   -2.4880    9.3610 C.ar      1 PHE        -0.0386
    136 CD1         0.4920   -2.4000    8.1770 C.ar      1 PHE        -0.0601
    137 CD2        -0.3550   -1.3630   10.2040 C.ar      1 PHE        -0.0601
    138 CE1         1.0740   -1.1730    7.8020 C.ar      1 PHE        -0.0686
    139 CE2         0.2390   -0.1450    9.8360 C.ar      1 PHE        -0.0686
    140 CZ          0.9110   -0.0350    8.6130 C.ar      1 PHE        -0.0687
    141 N          -2.5880   -6.9690    8.7290 N.am      1 HIS        -0.2617
    142 CA         -3.5100   -7.9640    9.2600 C.3       1 HIS         0.1421
    143 C          -2.6990   -9.0970    9.8880 C.2       1 HIS         0.2061
    144 O          -2.7510  -10.2420    9.4370 O.2       1 HIS        -0.3942
    145 CB         -4.4600   -8.4550    8.1620 C.3       1 HIS         0.0427
    146 CG         -5.6700   -9.1590    8.7200 C.2       1 HIS         0.0561
    147 ND1        -5.6970  -10.4310    9.2470 N.pl3     1 HIS        -0.2623
    148 CD2        -6.9260   -8.6280    8.8450 C.2       1 HIS        -0.0276
    149 CE1        -6.9590  -10.6700    9.6480 C.2       1 HIS         0.0875
    150 NE2        -7.7430   -9.6010    9.4270 N.2       1 HIS        -0.3437
    151 N          -1.9050   -8.7520   10.9060 N.am      1 ASP        -0.2620
    152 CA         -0.9180   -9.6260   11.5250 C.3       1 ASP         0.1423
    153 C          -1.6100  -10.7670   12.2700 C.2       1 ASP         0.2056
    154 O          -1.7530  -10.7270   13.4910 O.2       1 ASP        -0.3943
    155 CB         -0.0040   -8.8080   12.4480 C.3       1 ASP         0.0406
    156 CG          0.8590   -7.8290   11.6610 C.2       1 ASP         0.0393
    157 OD1         1.8580   -8.3000   11.0750 O.co2     1 ASP        -0.5688
    158 OD2         0.5030   -6.6310   11.6500 O.co2     1 ASP        -0.5688
    159 N          -2.0450  -11.7780   11.5110 N.am      1 LYS        -0.2636
    160 CA         -2.8830  -12.8890   11.9330 C.3       1 LYS         0.1309
    161 C          -4.2630  -12.3430   12.2990 C.2       1 LYS         0.2033
    162 O          -5.2250  -12.5420   11.5610 O.2       1 LYS        -0.3944
    163 CB         -2.2590  -13.7360   13.0590 C.3       1 LYS        -0.0122
    164 CG         -1.0000  -14.5240   12.6580 C.3       1 LYS        -0.0440
    165 CD          0.2470  -13.6430   12.4820 C.3       1 LYS        -0.0124
    166 CE          1.5280  -14.4780   12.3390 C.3       1 LYS        -0.0354
    167 NZ          1.8730  -15.1890   13.5820 N.4       1 LYS         0.2185
    168 N          -4.3460  -11.6170   13.4130 N.am      1 LYS        -0.2695
    169 CA         -5.5510  -10.9100   13.8140 C.3       1 LYS         0.0944
    170 C          -5.8630   -9.7830   12.8240 C.2       1 LYS         0.0601
    171 O          -4.9150   -9.2890   12.1730 O.co2     1 LYS        -0.5666
    172 CB         -5.3750  -10.3580   15.2360 C.3       1 LYS        -0.0177
    173 CG         -5.1810  -11.4870   16.2580 C.3       1 LYS        -0.0446
    174 CD         -4.8880  -10.9580   17.6700 C.3       1 LYS        -0.0125
    175 CE         -6.0640  -10.1690   18.2580 C.3       1 LYS        -0.0354
    176 NZ         -5.8130   -9.8060   19.6630 N.4       1 LYS         0.2185
    177 OXT        -7.0530   -9.4030   12.7570 O.co2     1 LYS        -0.5666
    178 H1        -12.6726   11.0604   15.5807 H         1 LYS         0.2015
    179 H2        -12.2506    9.5930   14.9658 H         1 LYS         0.2015
    180 H3        -13.6913   10.2744   14.5542 H         1 LYS         0.2015
    181 H4        -12.6351   12.0531   13.4088 H         1 LYS         0.1098
    182 H5        -10.1960   12.0227   13.0769 H         1 LYS         0.0346
    183 H6        -10.0588   10.5850   14.1450 H         1 LYS         0.0346
    184 H7        -10.7544   11.8401   16.0737 H         1 LYS         0.0270
    185 H8        -11.2556   13.2395   15.0652 H         1 LYS         0.0270
    186 H9         -9.1015   13.6293   16.2481 H         1 LYS         0.0317
    187 H10        -8.9374   13.6945   14.4605 H         1 LYS         0.0317
    188 H11        -7.0396   12.5258   15.5562 H         1 LYS         0.0813
    189 H12        -7.9482   11.4620   14.4295 H         1 LYS         0.0813
    190 H13        -7.4243   10.3642   16.4754 H         1 LYS         0.1994
    191 H14        -9.0553   10.5272   16.3247 H         1 LYS         0.1994
    192 H15        -8.2227   11.5020   17.3572 H         1 LYS         0.1994
    193 H16       -13.7677   11.2206   11.6971 H         1 LYS         0.1884
    194 H17       -13.7749    8.6197   10.7519 H         1 LYS         0.0800
    195 H18       -14.6042    9.5831    8.5711 H         1 LYS         0.0312
    196 H19       -14.2743   11.2166    9.2415 H         1 LYS         0.0312
    197 H20       -15.8618   10.8822   11.0377 H         1 LYS         0.0269
    198 H21       -16.0601    9.1479   10.6137 H         1 LYS         0.0269
    199 H22       -16.7965   11.4460    8.7388 H         1 LYS         0.0317
    200 H23       -17.9544   10.6805    9.8790 H         1 LYS         0.0317
    201 H24       -17.4589    8.4570    8.7669 H         1 LYS         0.0813
    202 H25       -16.4885    9.3475    7.5454 H         1 LYS         0.0813
    203 H26       -18.7247    8.9655    6.8113 H         1 LYS         0.1994
    204 H27       -18.4570   10.5797    6.9902 H         1 LYS         0.1994
    205 H28       -19.3463    9.7638    8.1096 H         1 LYS         0.1994
    206 H29       -11.7140   11.2967    9.5123 H         1 ARG         0.1883
    207 H30       -10.2677   10.0512    7.5276 H         1 ARG         0.0800
    208 H31        -9.2790   11.8966    9.7509 H         1 ARG         0.0313
    209 H32       -10.0263   12.3942    8.1951 H         1 ARG         0.0313
    210 H33        -7.3532   10.9587    8.5274 H         1 ARG         0.0301
    211 H34        -7.5833   12.7076    8.1886 H         1 ARG         0.0301
    212 H35        -8.8688   11.9461    6.0726 H         1 ARG         0.0689
    213 H36        -8.1578   10.3249    6.3771 H         1 ARG         0.0689
    214 H37        -5.8945   11.5392    6.3651 H         1 ARG         0.2642
    215 H38        -7.5665   13.3247    3.1167 H         1 ARG         0.2615
    216 H39        -8.5690   12.2612    4.1398 H         1 ARG         0.2615
    217 H40        -4.7090   13.1230    5.2138 H         1 ARG         0.2615
    218 H41        -5.4010   13.8089    3.7193 H         1 ARG         0.2615
    219 H42        -9.4379    9.9574   11.0226 H         1 GLU         0.1883
    220 H43        -7.2394    8.1683   10.7872 H         1 GLU         0.0801
    221 H44        -9.1107    8.6032   13.1632 H         1 GLU         0.0330
    222 H45        -7.7490    9.6882   12.7214 H         1 GLU         0.0330
    223 H46        -6.1513    7.8255   13.0472 H         1 GLU         0.0433
    224 H47        -7.5093    6.7292   13.4723 H         1 GLU         0.0433
    225 H48       -10.6938    7.5930   11.6354 H         1 LEU         0.1883
    226 H49       -10.4707    4.8163   12.0687 H         1 LEU         0.0800
    227 H50       -12.9234    4.7459   11.6564 H         1 LEU         0.0315
    228 H51       -12.8477    6.4378   11.0577 H         1 LEU         0.0315
    229 H52       -11.9922    7.1473   13.3030 H         1 LEU         0.0298
    230 H53       -14.1953    6.9070   14.4532 H         1 LEU         0.0232
    231 H54       -14.6560    5.6227   13.2849 H         1 LEU         0.0232
    232 H55       -14.3946    7.3053   12.7130 H         1 LEU         0.0232
    233 H56       -11.0441    4.9769   14.0624 H         1 LEU         0.0232
    234 H57       -12.6997    4.2840   14.1363 H         1 LEU         0.0232
    235 H58       -12.2378    5.6262   15.2371 H         1 LEU         0.0232
    236 H59       -10.9383    6.6200    9.0330 H         1 ILE         0.1883
    237 H60       -11.4251    4.2668    7.4180 H         1 ILE         0.0803
    238 H61       -10.7450    7.1589    6.7150 H         1 ILE         0.0345
    239 H62       -12.9886    6.4656    7.8849 H         1 ILE         0.0267
    240 H63       -13.3855    5.6883    6.3148 H         1 ILE         0.0267
    241 H64       -10.0385    5.5844    4.9137 H         1 ILE         0.0235
    242 H65       -11.4659    6.5544    4.4154 H         1 ILE         0.0235
    243 H66       -11.6752    4.8443    4.9240 H         1 ILE         0.0235
    244 H67       -14.3262    7.9802    6.4457 H         1 ILE         0.0230
    245 H68       -13.0785    7.8674    5.1585 H         1 ILE         0.0230
    246 H69       -12.6815    8.6447    6.7285 H         1 ILE         0.0230
    247 H70        -8.6000    6.4955    7.7963 H         1 GLU         0.1883
    248 H71        -6.7242    5.1054    6.2697 H         1 GLU         0.0801
    249 H72        -5.0551    6.0539    7.9849 H         1 GLU         0.0330
    250 H73        -6.4874    6.7143    8.8447 H         1 GLU         0.0330
    251 H74        -7.1707    7.8249    6.6601 H         1 GLU         0.0433
    252 H75        -5.5882    7.3140    5.9808 H         1 GLU         0.0433
    253 H76        -7.7253    4.4762    9.6444 H         1 SER         0.1884
    254 H77        -5.9850    2.3995   10.2898 H         1 SER         0.0823
    255 H78        -7.7158    1.6365   11.8906 H         1 SER         0.0606
    256 H79        -8.9094    2.7230   11.1022 H         1 SER         0.0606
    257 H80        -7.4955    4.4663   11.6422 H         1 SER         0.2097
    258 H81        -8.7588    2.2608    8.0682 H         1 LYS         0.1883
    259 H82        -8.9071   -0.6278    8.1028 H         1 LYS         0.0800
    260 H83       -10.3689   -0.3841    6.1528 H         1 LYS         0.0312
    261 H84        -9.9296    1.3529    6.0242 H         1 LYS         0.0312
    262 H85       -10.8712    1.7413    8.3032 H         1 LYS         0.0269
    263 H86       -11.3488    0.0117    8.3865 H         1 LYS         0.0269
    264 H87       -12.7845    0.3250    6.3744 H         1 LYS         0.0317
    265 H88       -12.3270    2.0615    6.3303 H         1 LYS         0.0317
    266 H89       -13.7293    0.6746    8.6714 H         1 LYS         0.0813
    267 H90       -14.5561    1.6443    7.4053 H         1 LYS         0.0813
    268 H91       -14.1260    2.9155    9.3725 H         1 LYS         0.1994
    269 H92       -13.2649    3.5243    8.1087 H         1 LYS         0.1994
    270 H93       -12.5072    2.6357    9.2688 H         1 LYS         0.1994
    271 H94        -7.5029    1.7292    5.7128 H         1 TRP         0.1884
    272 H95        -6.1407   -0.1189    4.0963 H         1 TRP         0.0815
    273 H96        -4.4622    1.7068    3.7288 H         1 TRP         0.0397
    274 H97        -5.2982    2.6589    5.0021 H         1 TRP         0.0397
    275 H98        -6.8253    4.4030    4.0690 H         1 TRP         0.0795
    276 H99        -8.2518    4.7639    1.9412 H         1 TRP         0.2216
    277 H100       -5.6879    0.0591    1.5982 H         1 TRP         0.0540
    278 H101       -8.5826    3.4718   -0.6060 H         1 TRP         0.0541
    279 H102       -6.3405   -0.2017   -0.7818 H         1 TRP         0.0510
    280 H103       -7.8842    1.4262   -1.8488 H         1 TRP         0.0530
    281 H104       -5.0264    1.4368    7.1319 H         1 HIS         0.1885
    282 H105       -2.6184    0.0641    7.4742 H         1 HIS         0.0824
    283 H106       -4.4195    1.6708    9.0675 H         1 HIS         0.0491
    284 H107       -2.6286    1.5343    9.0934 H         1 HIS         0.0491
    285 H108       -5.5805   -0.5864   10.5558 H         1 HIS         0.2386
    286 H109       -1.8171    1.0992   11.4761 H         1 HIS         0.0324
    287 H110       -5.1115   -1.1207   13.0243 H         1 HIS         0.1149
    288 H111       -5.8854   -1.0118    8.4960 H         1 ARG         0.1883
    289 H112       -4.9347   -3.3882    9.7273 H         1 ARG         0.0800
    290 H113       -7.7125   -2.6630    8.6989 H         1 ARG         0.0313
    291 H114       -7.0615   -2.3854   10.3499 H         1 ARG         0.0313
    292 H115       -6.6259   -4.9758   10.3493 H         1 ARG         0.0301
    293 H116       -7.7970   -5.0042    8.9875 H         1 ARG         0.0301
    294 H117       -9.4099   -3.7175   10.4911 H         1 ARG         0.0689
    295 H118       -8.2639   -4.0119   11.8426 H         1 ARG         0.0689
    296 H119      -10.1973   -5.8620   10.7803 H         1 ARG         0.2642
    297 H120       -6.9391   -7.4647   12.6323 H         1 ARG         0.2615
    298 H121       -6.9247   -5.7322   12.2069 H         1 ARG         0.2615
    299 H122      -10.1190   -8.0975   11.2319 H         1 ARG         0.2615
    300 H123       -8.7027   -8.7802   12.0749 H         1 ARG         0.2615
    301 H124       -6.0810   -2.7973    6.3501 H         1 LEU         0.1883
    302 H125       -6.4456   -5.5076    5.6647 H         1 LEU         0.0800
    303 H126       -5.8668   -4.8240    3.3018 H         1 LEU         0.0315
    304 H127       -5.5042   -3.1851    3.9414 H         1 LEU         0.0315
    305 H128       -7.7847   -2.8071    4.5101 H         1 LEU         0.0298
    306 H129       -8.8273   -2.9897    2.2400 H         1 LEU         0.0232
    307 H130       -7.5318   -4.1364    1.7569 H         1 LEU         0.0232
    308 H131       -7.1200   -2.4363    2.1652 H         1 LEU         0.0232
    309 H132       -8.4640   -5.0515    5.3009 H         1 LEU         0.0232
    310 H133       -8.4539   -5.6455    3.6057 H         1 LEU         0.0232
    311 H134       -9.6218   -4.3755    4.1055 H         1 LEU         0.0232
    312 H135       -3.4891   -3.4754    5.2919 H         1 LEU         0.1883
    313 H136       -1.9345   -5.7938    4.4282 H         1 LEU         0.0800
    314 H137       -0.0258   -4.0348    4.5931 H         1 LEU         0.0315
    315 H138       -1.3433   -2.8491    4.8846 H         1 LEU         0.0315
    316 H139       -2.4288   -4.2221    2.8113 H         1 LEU         0.0298
    317 H140       -1.6472   -2.4456    1.2802 H         1 LEU         0.0232
    318 H141       -0.4200   -1.9467    2.4933 H         1 LEU         0.0232
    319 H142       -2.1696   -1.7881    2.8681 H         1 LEU         0.0232
    320 H143       -0.4583   -5.7230    2.6022 H         1 LEU         0.0232
    321 H144        0.5736   -4.2980    2.2401 H         1 LEU         0.0232
    322 H145       -0.7459   -4.7612    1.1127 H         1 LEU         0.0232
    323 H146       -2.0651   -3.7233    7.3970 H         1 PHE         0.1885
    324 H147       -0.1172   -5.4097    8.7501 H         1 PHE         0.0823
    325 H148       -0.5383   -4.0965   10.7110 H         1 PHE         0.0474
    326 H149       -2.0499   -3.4318   10.0041 H         1 PHE         0.0474
    327 H150        0.6281   -3.2769    7.5544 H         1 PHE         0.0557
    328 H151       -0.8864   -1.4382   11.1458 H         1 PHE         0.0557
    329 H152        1.6492   -1.1055    6.8857 H         1 PHE         0.0599
    330 H153        0.1771    0.7103   10.4992 H         1 PHE         0.0599
    331 H154        1.3041    0.9229    8.2922 H         1 PHE         0.0559
    332 H155       -2.3468   -7.0037    7.7591 H         1 HIS         0.1885
    333 H156       -4.1176   -7.4966   10.0489 H         1 HIS         0.0824
    334 H157       -3.9149   -9.1532    7.5098 H         1 HIS         0.0491
    335 H158       -4.7960   -7.5891    7.5727 H         1 HIS         0.0491
    336 H159       -4.8996  -11.0788    9.3205 H         1 HIS         0.2386
    337 H160       -7.2331   -7.6272    8.5448 H         1 HIS         0.0324
    338 H161       -7.2994  -11.6043   10.0920 H         1 HIS         0.1149
    339 H162       -1.9952   -7.8249   11.2698 H         1 ASP         0.1884
    340 H163       -0.2966  -10.0660   10.7311 H         1 ASP         0.0819
    341 H164        0.6517   -9.4960   13.0018 H         1 ASP         0.0478
    342 H165       -0.6267   -8.2437   13.1578 H         1 ASP         0.0478
    343 H166       -1.7643  -11.7693   10.5512 H         1 LYS         0.1883
    344 H167       -3.0073  -13.5569   11.0679 H         1 LYS         0.0800
    345 H168       -3.0161  -14.4553   13.4046 H         1 LYS         0.0312
    346 H169       -1.9904  -13.0610   13.8850 H         1 LYS         0.0312
    347 H170       -1.1998  -15.0379   11.7062 H         1 LYS         0.0269
    348 H171       -0.7920  -15.2688   13.4403 H         1 LYS         0.0269
    349 H172        0.3462  -12.9888   13.3608 H         1 LYS         0.0317
    350 H173        0.1220  -13.0275   11.5789 H         1 LYS         0.0317
    351 H174        2.3589  -13.8084   12.0722 H         1 LYS         0.0813
    352 H175        1.3809  -15.2172   11.5378 H         1 LYS         0.0813
    353 H176        2.7172  -15.7216   13.4412 H         1 LYS         0.1994
    354 H177        1.1209  -15.8115   13.8329 H         1 LYS         0.1994
    355 H178        2.0171  -14.5205   14.3226 H         1 LYS         0.1994
    356 H179       -3.5401  -11.5555   14.0019 H         1 LYS         0.1875
    357 H180       -6.3930  -11.6178   13.8134 H         1 LYS         0.0726
    358 H181       -6.2701   -9.7795   15.5082 H         1 LYS         0.0305
    359 H182       -4.4931   -9.7009   15.2577 H         1 LYS         0.0305
    360 H183       -4.3377  -12.1147   15.9344 H         1 LYS         0.0269
    361 H184       -6.0979  -12.0937   16.2918 H         1 LYS         0.0269
    362 H185       -4.0088  -10.2986   17.6241 H         1 LYS         0.0317
    363 H186       -4.6719  -11.8120   18.3287 H         1 LYS         0.0317
    364 H187       -6.9729  -10.7862   18.2039 H         1 LYS         0.0813
    365 H188       -6.2091   -9.2503   17.6706 H         1 LYS         0.0813
    366 H189       -6.6005   -9.2896   20.0224 H         1 LYS         0.1994
    367 H190       -4.9834   -9.2362   19.7198 H         1 LYS         0.1994
    368 H191       -5.6834  -10.6437   20.2085 H         1 LYS         0.1994
@<TRIPOS>BOND
     1    1    2 1  
     2    2    3 1  
     3    2    5 1  
     4    3    4 2  
     5    3   10 am 
     6    5    6 1  
     7    6    7 1  
     8    7    8 1  
     9    8    9 1  
    10   10   11 1  
    11   11   12 1  
    12   11   14 1  
    13   12   13 2  
    14   12   19 am 
    15   14   15 1  
    16   15   16 1  
    17   16   17 1  
    18   17   18 1  
    19   19   20 1  
    20   20   21 1  
    21   20   23 1  
    22   21   22 2  
    23   21   30 am 
    24   23   24 1  
    25   24   25 1  
    26   25   26 1  
    27   26   27 ar 
    28   27   28 ar 
    29   27   29 ar 
    30   30   31 1  
    31   31   32 1  
    32   31   34 1  
    33   32   33 2  
    34   32   39 am 
    35   34   35 1  
    36   35   36 1  
    37   36   37 ar 
    38   36   38 ar 
    39   39   40 1  
    40   40   41 1  
    41   40   43 1  
    42   41   42 2  
    43   41   47 am 
    44   43   44 1  
    45   44   45 1  
    46   44   46 1  
    47   47   48 1  
    48   48   49 1  
    49   48   51 1  
    50   49   50 2  
    51   49   55 am 
    52   51   52 1  
    53   51   53 1  
    54   52   54 1  
    55   55   56 1  
    56   56   57 1  
    57   56   59 1  
    58   57   58 2  
    59   57   64 am 
    60   59   60 1  
    61   60   61 1  
    62   61   62 ar 
    63   61   63 ar 
    64   64   65 1  
    65   65   66 1  
    66   65   68 1  
    67   66   67 2  
    68   66   70 am 
    69   68   69 1  
    70   70   71 1  
    71   71   72 1  
    72   71   74 1  
    73   72   73 2  
    74   72   79 am 
    75   74   75 1  
    76   75   76 1  
    77   76   77 1  
    78   77   78 1  
    79   79   80 1  
    80   80   81 1  
    81   80   83 1  
    82   81   82 2  
    83   81   93 am 
    84   83   84 1  
    85   84   85 2  
    86   84   86 1  
    87   85   87 1  
    88   86   88 ar 
    89   86   89 ar 
    90   87   88 1  
    91   88   90 ar 
    92   89   91 ar 
    93   90   92 ar 
    94   91   92 ar 
    95   93   94 1  
    96   94   95 1  
    97   94   97 1  
    98   95   96 2  
    99   95  103 am 
   100   97   98 1  
   101   98   99 1  
   102   98  100 2  
   103   99  101 1  
   104  100  102 1  
   105  101  102 2  
   106  103  104 1  
   107  104  105 1  
   108  104  107 1  
   109  105  106 2  
   110  105  114 am 
   111  107  108 1  
   112  108  109 1  
   113  109  110 1  
   114  110  111 ar 
   115  111  112 ar 
   116  111  113 ar 
   117  114  115 1  
   118  115  116 1  
   119  115  118 1  
   120  116  117 2  
   121  116  122 am 
   122  118  119 1  
   123  119  120 1  
   124  119  121 1  
   125  122  123 1  
   126  123  124 1  
   127  123  126 1  
   128  124  125 2  
   129  124  130 am 
   130  126  127 1  
   131  127  128 1  
   132  127  129 1  
   133  130  131 1  
   134  131  132 1  
   135  131  134 1  
   136  132  133 2  
   137  132  141 am 
   138  134  135 1  
   139  135  136 ar 
   140  135  137 ar 
   141  136  138 ar 
   142  137  139 ar 
   143  138  140 ar 
   144  139  140 ar 
   145  141  142 1  
   146  142  143 1  
   147  142  145 1  
   148  143  144 2  
   149  143  151 am 
   150  145  146 1  
   151  146  147 1  
   152  146  148 2  
   153  147  149 1  
   154  148  150 1  
   155  149  150 2  
   156  151  152 1  
   157  152  153 1  
   158  152  155 1  
   159  153  154 2  
   160  153  159 am 
   161  155  156 1  
   162  156  157 ar 
   163  156  158 ar 
   164  159  160 1  
   165  160  161 1  
   166  160  163 1  
   167  161  162 2  
   168  161  168 am 
   169  163  164 1  
   170  164  165 1  
   171  165  166 1  
   172  166  167 1  
   173  168  169 1  
   174  169  170 1  
   175  169  172 1  
   176  170  171 ar 
   177  170  177 ar 
   178  172  173 1  
   179  173  174 1  
   180  174  175 1  
   181  175  176 1  
   182    1  178 1  
   183    1  179 1  
   184    1  180 1  
   185    2  181 1  
   186    5  182 1  
   187    5  183 1  
   188    6  184 1  
   189    6  185 1  
   190    7  186 1  
   191    7  187 1  
   192    8  188 1  
   193    8  189 1  
   194    9  190 1  
   195    9  191 1  
   196    9  192 1  
   197   10  193 1  
   198   11  194 1  
   199   14  195 1  
   200   14  196 1  
   201   15  197 1  
   202   15  198 1  
   203   16  199 1  
   204   16  200 1  
   205   17  201 1  
   206   17  202 1  
   207   18  203 1  
   208   18  204 1  
   209   18  205 1  
   210   19  206 1  
   211   20  207 1  
   212   23  208 1  
   213   23  209 1  
   214   24  210 1  
   215   24  211 1  
   216   25  212 1  
   217   25  213 1  
   218   26  214 1  
   219   28  215 1  
   220   28  216 1  
   221   29  217 1  
   222   29  218 1  
   223   30  219 1  
   224   31  220 1  
   225   34  221 1  
   226   34  222 1  
   227   35  223 1  
   228   35  224 1  
   229   39  225 1  
   230   40  226 1  
   231   43  227 1  
   232   43  228 1  
   233   44  229 1  
   234   45  230 1  
   235   45  231 1  
   236   45  232 1  
   237   46  233 1  
   238   46  234 1  
   239   46  235 1  
   240   47  236 1  
   241   48  237 1  
   242   51  238 1  
   243   52  239 1  
   244   52  240 1  
   245   53  241 1  
   246   53  242 1  
   247   53  243 1  
   248   54  244 1  
   249   54  245 1  
   250   54  246 1  
   251   55  247 1  
   252   56  248 1  
   253   59  249 1  
   254   59  250 1  
   255   60  251 1  
   256   60  252 1  
   257   64  253 1  
   258   65  254 1  
   259   68  255 1  
   260   68  256 1  
   261   69  257 1  
   262   70  258 1  
   263   71  259 1  
   264   74  260 1  
   265   74  261 1  
   266   75  262 1  
   267   75  263 1  
   268   76  264 1  
   269   76  265 1  
   270   77  266 1  
   271   77  267 1  
   272   78  268 1  
   273   78  269 1  
   274   78  270 1  
   275   79  271 1  
   276   80  272 1  
   277   83  273 1  
   278   83  274 1  
   279   85  275 1  
   280   87  276 1  
   281   89  277 1  
   282   90  278 1  
   283   91  279 1  
   284   92  280 1  
   285   93  281 1  
   286   94  282 1  
   287   97  283 1  
   288   97  284 1  
   289   99  285 1  
   290  100  286 1  
   291  101  287 1  
   292  103  288 1  
   293  104  289 1  
   294  107  290 1  
   295  107  291 1  
   296  108  292 1  
   297  108  293 1  
   298  109  294 1  
   299  109  295 1  
   300  110  296 1  
   301  112  297 1  
   302  112  298 1  
   303  113  299 1  
   304  113  300 1  
   305  114  301 1  
   306  115  302 1  
   307  118  303 1  
   308  118  304 1  
   309  119  305 1  
   310  120  306 1  
   311  120  307 1  
   312  120  308 1  
   313  121  309 1  
   314  121  310 1  
   315  121  311 1  
   316  122  312 1  
   317  123  313 1  
   318  126  314 1  
   319  126  315 1  
   320  127  316 1  
   321  128  317 1  
   322  128  318 1  
   323  128  319 1  
   324  129  320 1  
   325  129  321 1  
   326  129  322 1  
   327  130  323 1  
   328  131  324 1  
   329  134  325 1  
   330  134  326 1  
   331  136  327 1  
   332  137  328 1  
   333  138  329 1  
   334  139  330 1  
   335  140  331 1  
   336  141  332 1  
   337  142  333 1  
   338  145  334 1  
   339  145  335 1  
   340  147  336 1  
   341  148  337 1  
   342  149  338 1  
   343  151  339 1  
   344  152  340 1  
   345  155  341 1  
   346  155  342 1  
   347  159  343 1  
   348  160  344 1  
   349  163  345 1  
   350  163  346 1  
   351  164  347 1  
   352  164  348 1  
   353  165  349 1  
   354  165  350 1  
   355  166  351 1  
   356  166  352 1  
   357  167  353 1  
   358  167  354 1  
   359  167  355 1  
   360  168  356 1  
   361  169  357 1  
   362  172  358 1  
   363  172  359 1  
   364  173  360 1  
   365  173  361 1  
   366  174  362 1  
   367  174  363 1  
   368  175  364 1  
   369  175  365 1  
   370  176  366 1  
   371  176  367 1  
   372  176  368 1  
@<TRIPOS>SUBSTRUCTURE
     1 LYS         1

