1oqp_ligand
  -I-interpret- 

367371  0  0  0  0  0  0  0  0999 V2000
  -12.7250   10.4610   14.7720 N   0  3  0  0  0
  -12.0820   11.1270   13.6240 C   0  0  0  0  0
  -12.1550   10.2260   12.3880 C   0  0  0  0  0
  -11.3170    9.3410   12.2170 O   0  0  0  0  0
  -10.6280   11.5050   13.9460 C   0  0  0  0  0
  -10.5240   12.4250   15.1710 C   0  0  0  0  0
   -9.1220   13.0360   15.3220 C   0  0  0  0  0
   -7.9910   12.0000   15.3880 C   0  0  0  0  0
   -8.1890   11.0210   16.4720 N   0  3  0  0  0
  -13.1630   10.4410   11.5340 N   0  0  0  0  0
  -13.4210    9.5910   10.3760 C   0  0  0  0  0
  -12.1490    9.3340    9.5690 C   0  0  0  0  0
  -11.8450    8.1870    9.2660 O   0  0  0  0  0
  -14.5300   10.1770    9.4940 C   0  0  0  0  0
  -15.8880   10.1570   10.2110 C   0  0  0  0  0
  -17.0500   10.5190    9.2740 C   0  0  0  0  0
  -17.3370    9.4160    8.2420 C   0  0  0  0  0
  -18.5630    9.7040    7.4780 N   0  3  0  0  0
  -11.3840   10.3860    9.2640 N   0  0  0  0  0
  -10.0940   10.2820    8.5890 C   0  0  0  0  0
   -9.2430    9.1530    9.1880 C   0  0  0  0  0
   -8.8150    8.2410    8.4810 O   0  0  0  0  0
   -9.3890   11.6440    8.6860 C   0  0  0  0  0
   -8.0000   11.7010    8.0370 C   0  0  0  0  0
   -8.0290   11.4060    6.5340 C   0  0  0  0  0
   -6.7690   11.8420    5.9130 N   0  0  0  0  0
   -6.6560   12.5990    4.8100 C   0  0  0  0  0
   -7.6750   12.7390    3.9570 N   0  0  0  0  0
   -5.5000   13.2250    4.5620 N   0  0  0  0  0
   -9.0330    9.2030   10.5060 N   0  0  0  0  0
   -8.2460    8.2170   11.2280 C   0  0  0  0  0
   -8.9000    6.8430   11.0950 C   0  0  0  0  0
   -8.2390    5.8690   10.7360 O   0  0  0  0  0
   -8.1170    8.6520   12.6940 C   0  0  0  0  0
   -7.1540    7.7700   13.4960 C   0  0  0  0  0
   -7.0850    8.2460   14.9440 C   0  0  0  0  0
   -7.9470    7.8000   15.7320 O   0  0  0  0  0
   -6.1990    9.0800   15.2300 O   0  0  0  0  0
  -10.2020    6.7600   11.3820 N   0  0  0  0  0
  -10.9320    5.4980   11.3390 C   0  0  0  0  0
  -10.8370    4.8400    9.9580 C   0  0  0  0  0
  -10.7470    3.6200    9.8600 O   0  0  0  0  0
  -12.3980    5.7080   11.7470 C   0  0  0  0  0
  -12.5800    6.2250   13.1850 C   0  0  0  0  0
  -14.0610    6.5370   13.4260 C   0  0  0  0  0
  -12.1070    5.2060   14.2290 C   0  0  0  0  0
  -10.8600    5.6340    8.8860 N   0  0  0  0  0
  -10.7780    5.1510    7.5150 C   0  0  0  0  0
   -9.3440    4.7180    7.2050 C   0  0  0  0  0
   -9.1250    3.5980    6.7430 O   0  0  0  0  0
  -11.3040    6.2260    6.5500 C   0  0  0  0  0
  -12.8020    6.4840    6.8010 C   0  0  0  0  0
  -11.1070    5.7700    5.0980 C   0  0  0  0  0
  -13.2540    7.8400    6.2440 C   0  0  0  0  0
   -8.3590    5.5780    7.4800 N   0  0  0  0  0
   -6.9460    5.2370    7.3390 C   0  0  0  0  0
   -6.6240    3.9160    8.0550 C   0  0  0  0  0
   -5.9260    3.0590    7.5100 O   0  0  0  0  0
   -6.0940    6.3960    7.8680 C   0  0  0  0  0
   -6.1230    7.5920    6.9010 C   0  0  0  0  0
   -5.4670    8.8410    7.4900 C   0  0  0  0  0
   -5.5790    9.0280    8.7220 O   0  0  0  0  0
   -4.8710    9.6000    6.6960 O   0  0  0  0  0
   -7.1840    3.7310    9.2550 N   0  0  0  0  0
   -7.0480    2.5020   10.0260 C   0  0  0  0  0
   -7.4410    1.2560    9.2230 C   0  0  0  0  0
   -6.9210    0.1770    9.4950 O   0  0  0  0  0
   -7.8440    2.5760   11.3330 C   0  0  0  0  0
   -7.3840    3.6540   12.1220 O   0  0  0  0  0
   -8.3450    1.3680    8.2460 N   0  0  0  0  0
   -8.7460    0.2290    7.4320 C   0  0  0  0  0
   -7.6240   -0.1480    6.4580 C   0  0  0  0  0
   -7.2250   -1.3100    6.4150 O   0  0  0  0  0
  -10.0700    0.5110    6.7180 C   0  0  0  0  0
  -11.1820    0.8660    7.7140 C   0  0  0  0  0
  -12.4900    1.1920    6.9840 C   0  0  0  0  0
  -13.6210    1.5150    7.9700 C   0  0  0  0  0
  -13.3590    2.7450    8.7410 N   0  3  0  0  0
   -7.0800    0.8230    5.7100 N   0  0  0  0  0
   -5.8860    0.6010    4.8880 C   0  0  0  0  0
   -4.7770   -0.0060    5.7460 C   0  0  0  0  0
   -4.1770   -1.0110    5.3630 O   0  0  0  0  0
   -5.4300    1.9040    4.2130 C   0  0  0  0  0
   -6.3450    2.4860    3.1770 C   0  0  0  0  0
   -6.9230    3.7060    3.2380 C   0  0  0  0  0
   -6.6600    1.9740    1.8470 C   0  0  0  0  0
   -7.6550    3.9380    2.0920 N   0  0  0  0  0
   -7.4860    2.9250    1.1760 C   0  0  0  0  0
   -6.2890    0.8240    1.1200 C   0  0  0  0  0
   -7.9360    2.7390   -0.1370 C   0  0  0  0  0
   -6.6900    0.6570   -0.2200 C   0  0  0  0  0
   -7.5380    1.5920   -0.8350 C   0  0  0  0  0
   -4.5460    0.5850    6.9230 N   0  0  0  0  0
   -3.6260    0.0440    7.9150 C   0  0  0  0  0
   -3.9430   -1.4300    8.1810 C   0  0  0  0  0
   -3.0810   -2.2940    8.0390 O   0  0  0  0  0
   -3.5730    0.9730    9.1480 C   0  0  0  0  0
   -3.6410    0.3410   10.5220 C   0  0  0  0  0
   -4.7200   -0.3250   11.0580 N   0  0  0  0  0
   -2.7560    0.5520   11.5460 C   0  0  0  0  0
   -4.4540   -0.5740   12.3500 C   0  0  0  0  0
   -3.2660   -0.0560   12.6950 N   0  0  0  0  0
   -5.1950   -1.7350    8.5170 N   0  0  0  0  0
   -5.6010   -3.0700    8.9120 C   0  0  0  0  0
   -5.4370   -4.0840    7.7810 C   0  0  0  0  0
   -5.0150   -5.2020    8.0550 O   0  0  0  0  0
   -7.0290   -3.0460    9.4710 C   0  0  0  0  0
   -7.4740   -4.4530    9.8830 C   0  0  0  0  0
   -8.6360   -4.3950   10.8810 C   0  0  0  0  0
   -9.2250   -5.7240   11.0910 N   0  0  0  0  0
   -8.6070   -6.7730   11.6520 C   0  0  0  0  0
   -7.3980   -6.6470   12.2060 N   0  0  0  0  0
   -9.1870   -7.9750   11.6530 N   0  0  0  0  0
   -5.7830   -3.7340    6.5340 N   0  0  0  0  0
   -5.7310   -4.7030    5.4370 C   0  0  0  0  0
   -4.3320   -5.3110    5.3210 C   0  0  0  0  0
   -4.1750   -6.5280    5.2660 O   0  0  0  0  0
   -6.1170   -4.0880    4.0800 C   0  0  0  0  0
   -7.5860   -3.6830    3.8750 C   0  0  0  0  0
   -7.7800   -3.2830    2.4050 C   0  0  0  0  0
   -8.6030   -4.7650    4.2480 C   0  0  0  0  0
   -3.3090   -4.4580    5.2460 N   0  0  0  0  0
   -1.9370   -4.9220    5.0990 C   0  0  0  0  0
   -1.3930   -5.3760    6.4500 C   0  0  0  0  0
   -0.8450   -6.4710    6.5490 O   0  0  0  0  0
   -1.0950   -3.8250    4.4420 C   0  0  0  0  0
   -1.4160   -3.8120    2.9380 C   0  0  0  0  0
   -1.4130   -2.3990    2.3540 C   0  0  0  0  0
   -0.4430   -4.7120    2.1690 C   0  0  0  0  0
   -1.5860   -4.5930    7.5160 N   0  0  0  0  0
   -1.1190   -4.9670    8.8520 C   0  0  0  0  0
   -2.0530   -6.0110    9.4930 C   0  0  0  0  0
   -2.2850   -5.9690   10.7020 O   0  0  0  0  0
   -1.0180   -3.7440    9.7860 C   0  0  0  0  0
   -0.2670   -2.4880    9.3610 C   0  0  0  0  0
    0.4920   -2.4000    8.1770 C   0  0  0  0  0
   -0.3550   -1.3630   10.2040 C   0  0  0  0  0
    1.0740   -1.1730    7.8020 C   0  0  0  0  0
    0.2390   -0.1450    9.8360 C   0  0  0  0  0
    0.9110   -0.0350    8.6130 C   0  0  0  0  0
   -2.5880   -6.9690    8.7290 N   0  0  0  0  0
   -3.5100   -7.9640    9.2600 C   0  0  0  0  0
   -2.6990   -9.0970    9.8880 C   0  0  0  0  0
   -2.7510  -10.2420    9.4370 O   0  0  0  0  0
   -4.4600   -8.4550    8.1620 C   0  0  0  0  0
   -5.6700   -9.1590    8.7200 C   0  0  0  0  0
   -5.6970  -10.4310    9.2470 N   0  0  0  0  0
   -6.9260   -8.6280    8.8450 C   0  0  0  0  0
   -6.9590  -10.6700    9.6480 C   0  0  0  0  0
   -7.7430   -9.6010    9.4270 N   0  0  0  0  0
   -1.9050   -8.7520   10.9060 N   0  0  0  0  0
   -0.9180   -9.6260   11.5250 C   0  0  0  0  0
   -1.6100  -10.7670   12.2700 C   0  0  0  0  0
   -1.7530  -10.7270   13.4910 O   0  0  0  0  0
   -0.0040   -8.8080   12.4480 C   0  0  0  0  0
    0.8590   -7.8290   11.6610 C   0  0  0  0  0
    1.8580   -8.3000   11.0750 O   0  0  0  0  0
    0.5030   -6.6310   11.6500 O   0  0  0  0  0
   -2.0450  -11.7780   11.5110 N   0  0  0  0  0
   -2.8830  -12.8890   11.9330 C   0  0  0  0  0
   -4.2630  -12.3430   12.2990 C   0  0  0  0  0
   -5.2250  -12.5420   11.5610 O   0  0  0  0  0
   -2.2590  -13.7360   13.0590 C   0  0  0  0  0
   -1.0000  -14.5240   12.6580 C   0  0  0  0  0
    0.2470  -13.6430   12.4820 C   0  0  0  0  0
    1.5280  -14.4780   12.3390 C   0  0  0  0  0
    1.8730  -15.1890   13.5820 N   0  3  0  0  0
   -4.3460  -11.6170   13.4130 N   0  0  0  0  0
   -5.5510  -10.9100   13.8140 C   0  0  0  0  0
   -5.8630   -9.7830   12.8240 C   0  0  0  0  0
   -4.9150   -9.2890   12.1730 O   0  0  0  0  0
   -5.3750  -10.3580   15.2360 C   0  0  0  0  0
   -5.1810  -11.4870   16.2580 C   0  0  0  0  0
   -4.8880  -10.9580   17.6700 C   0  0  0  0  0
   -6.0640  -10.1690   18.2580 C   0  0  0  0  0
   -5.8130   -9.8060   19.6630 N   0  3  0  0  0
   -7.0530   -9.4030   12.7570 O   0  0  0  0  0
  -13.6867   10.2222   14.5301 H   0  0  0  0  0
  -12.2101    9.6112   15.0026 H   0  0  0  0  0
  -12.7214   11.0906   15.5745 H   0  0  0  0  0
  -12.6205   12.0510   13.4135 H   0  0  0  0  0
  -10.2183   12.0369   13.0873 H   0  0  0  0  0
  -10.0800   10.5882   14.1636 H   0  0  0  0  0
  -10.7318   11.8299   16.0602 H   0  0  0  0  0
  -11.2368   13.2398   15.0442 H   0  0  0  0  0
   -9.1099   13.5872   16.2623 H   0  0  0  0  0
   -8.9428   13.6537   14.4420 H   0  0  0  0  0
   -7.0581   12.5305   15.5787 H   0  0  0  0  0
   -7.9744   11.4578   14.4425 H   0  0  0  0  0
   -7.4147   10.3570   16.4745 H   0  0  0  0  0
   -8.2229   11.5089   17.3671 H   0  0  0  0  0
   -9.0659   10.5220   16.3219 H   0  0  0  0  0
  -13.7798   11.2362   11.7003 H   0  0  0  0  0
  -13.7668    8.6277   10.7508 H   0  0  0  0  0
  -14.6077    9.5732    8.5899 H   0  0  0  0  0
  -14.2768   11.2116    9.2623 H   0  0  0  0  0
  -15.8576   10.8959   11.0117 H   0  0  0  0  0
  -16.0576    9.1470   10.5841 H   0  0  0  0  0
  -16.7766   11.4245    8.7323 H   0  0  0  0  0
  -17.9445   10.6523    9.8824 H   0  0  0  0  0
  -17.4713    8.4724    8.7708 H   0  0  0  0  0
  -16.4990    9.3645    7.5469 H   0  0  0  0  0
  -18.7256    8.9561    6.8037 H   0  0  0  0  0
  -19.3548    9.7643    8.1181 H   0  0  0  0  0
  -18.4546   10.5903    6.9849 H   0  0  0  0  0
  -11.7206   11.3149    9.5173 H   0  0  0  0  0
  -10.2421   10.0273    7.5396 H   0  0  0  0  0
   -9.2501   11.8522    9.7469 H   0  0  0  0  0
  -10.0147   12.3614    8.1550 H   0  0  0  0  0
   -7.3798   10.9412    8.5126 H   0  0  0  0  0
   -7.6127   12.7112    8.1697 H   0  0  0  0  0
   -8.8595   11.9450    6.0781 H   0  0  0  0  0
   -8.1529   10.3340    6.3807 H   0  0  0  0  0
   -5.9029   11.5422    6.3607 H   0  0  0  0  0
   -8.5603   12.2658    4.1380 H   0  0  0  0  0
   -5.4020   13.8033    3.7275 H   0  0  0  0  0
   -4.7167   13.1240    5.2074 H   0  0  0  0  0
   -9.4460    9.9725   11.0329 H   0  0  0  0  0
   -7.2430    8.1464   10.8072 H   0  0  0  0  0
   -9.1024    8.5713   13.1529 H   0  0  0  0  0
   -7.7249    9.6690   12.7060 H   0  0  0  0  0
   -6.1603    7.8319   13.0524 H   0  0  0  0  0
   -7.5121    6.7407   13.4756 H   0  0  0  0  0
   -8.5091    7.1744   15.2690 H   0  0  0  0  0
  -10.7037    7.6097   11.6405 H   0  0  0  0  0
  -10.4683    4.8204   12.0560 H   0  0  0  0  0
  -12.8922    4.7383   11.6872 H   0  0  0  0  0
  -12.8151    6.4605   11.0778 H   0  0  0  0  0
  -11.9718    7.1230   13.2937 H   0  0  0  0  0
  -14.3903    7.2984   12.7189 H   0  0  0  0  0
  -14.6495    5.6303   13.2858 H   0  0  0  0  0
  -14.1928    6.9035   14.4441 H   0  0  0  0  0
  -12.6818    4.2859   14.1232 H   0  0  0  0  0
  -11.0488    4.9946   14.0751 H   0  0  0  0  0
  -12.2554    5.6158   15.2281 H   0  0  0  0  0
  -10.9398    6.6398    9.0360 H   0  0  0  0  0
  -11.4107    4.2731    7.3843 H   0  0  0  0  0
  -10.7467    7.1467    6.7228 H   0  0  0  0  0
  -12.9716    6.4846    7.8777 H   0  0  0  0  0
  -13.3711    5.7024    6.2976 H   0  0  0  0  0
  -10.0457    5.6073    4.9104 H   0  0  0  0  0
  -11.6530    4.8411    4.9330 H   0  0  0  0  0
  -11.4830    6.5388    4.4229 H   0  0  0  0  0
  -12.6860    8.6364    6.7248 H   0  0  0  0  0
  -13.0795    7.8659    5.1684 H   0  0  0  0  0
  -14.3165    7.9778    6.4444 H   0  0  0  0  0
   -8.6048    6.5139    7.8026 H   0  0  0  0  0
   -6.7114    5.0860    6.2853 H   0  0  0  0  0
   -5.0640    6.0539    7.9684 H   0  0  0  0  0
   -6.4976    6.7149    8.8290 H   0  0  0  0  0
   -7.1662    7.8284    6.6914 H   0  0  0  0  0
   -5.5681    7.3125    6.0054 H   0  0  0  0  0
   -6.0792    8.3062    9.1099 H   0  0  0  0  0
   -7.7362    4.4911    9.6521 H   0  0  0  0  0
   -5.9898    2.4056   10.2691 H   0  0  0  0  0
   -7.7108    1.6461   11.8858 H   0  0  0  0  0
   -8.8984    2.7269   11.1014 H   0  0  0  0  0
   -7.8893    3.6907   12.9375 H   0  0  0  0  0
   -8.7671    2.2787    8.0647 H   0  0  0  0  0
   -8.9157   -0.6308    8.0800 H   0  0  0  0  0
  -10.3669   -0.3860    6.1745 H   0  0  0  0  0
   -9.9262    1.3566    6.0455 H   0  0  0  0  0
  -10.8731    1.7412    8.2856 H   0  0  0  0  0
  -11.3508    0.0112    8.3689 H   0  0  0  0  0
  -12.7829    0.3219    6.3965 H   0  0  0  0  0
  -12.3239    2.0645    6.3522 H   0  0  0  0  0
  -13.7026    0.6864    8.6735 H   0  0  0  0  0
  -14.5362    1.6641    7.3970 H   0  0  0  0  0
  -14.1357    2.9165    9.3796 H   0  0  0  0  0
  -12.4969    2.6332    9.2746 H   0  0  0  0  0
  -13.2639    3.5328    8.1001 H   0  0  0  0  0
   -7.5113    1.7473    5.7129 H   0  0  0  0  0
   -6.1292   -0.1017    4.0910 H   0  0  0  0  0
   -4.5036    1.6624    3.6919 H   0  0  0  0  0
   -5.3679    2.6468    5.0083 H   0  0  0  0  0
   -6.8253    4.4036    4.0698 H   0  0  0  0  0
   -5.6845    0.0549    1.6009 H   0  0  0  0  0
   -8.5862    3.4758   -0.6086 H   0  0  0  0  0
   -6.3386   -0.2064   -0.7849 H   0  0  0  0  0
   -7.8861    1.4253   -1.8544 H   0  0  0  0  0
   -5.0360    1.4539    7.1361 H   0  0  0  0  0
   -2.6012    0.0314    7.5440 H   0  0  0  0  0
   -4.4621    1.5993    9.0749 H   0  0  0  0  0
   -2.5976    1.4572    9.1018 H   0  0  0  0  0
   -1.8162    1.0997   11.4761 H   0  0  0  0  0
   -5.1121   -1.1212   13.0249 H   0  0  0  0  0
   -5.8992   -0.9974    8.4956 H   0  0  0  0  0
   -4.9342   -3.4042    9.7068 H   0  0  0  0  0
   -7.7032   -2.6756    8.6987 H   0  0  0  0  0
   -7.0531   -2.3984   10.3474 H   0  0  0  0  0
   -6.6331   -4.9599   10.3563 H   0  0  0  0  0
   -7.8052   -4.9883    8.9932 H   0  0  0  0  0
   -9.4047   -3.7338   10.4809 H   0  0  0  0  0
   -8.2565   -4.0287   11.8349 H   0  0  0  0  0
  -10.1878   -5.8606   10.7833 H   0  0  0  0  0
   -6.9384   -7.4593   12.6176 H   0  0  0  0  0
   -6.9344   -5.7385   12.2174 H   0  0  0  0  0
  -10.1048   -8.0988   11.2256 H   0  0  0  0  0
   -6.0870   -2.7786    6.3464 H   0  0  0  0  0
   -6.4615   -5.4748    5.6795 H   0  0  0  0  0
   -5.9211   -4.8642    3.3402 H   0  0  0  0  0
   -5.5448   -3.1634    4.0040 H   0  0  0  0  0
   -7.7789   -2.8525    4.5541 H   0  0  0  0  0
   -7.1255   -2.4440    2.1687 H   0  0  0  0  0
   -7.5337   -4.1294    1.7639 H   0  0  0  0  0
   -8.8180   -2.9926    2.2427 H   0  0  0  0  0
   -8.4302   -5.6506    3.6365 H   0  0  0  0  0
   -8.4890   -5.0213    5.3013 H   0  0  0  0  0
   -9.6113   -4.3907    4.0709 H   0  0  0  0  0
   -3.4927   -3.4558    5.2928 H   0  0  0  0  0
   -1.8947   -5.7910    4.4423 H   0  0  0  0  0
   -0.0343   -4.0216    4.5979 H   0  0  0  0  0
   -1.3288   -2.8566    4.8843 H   0  0  0  0  0
   -2.4267   -4.2045    2.8255 H   0  0  0  0  0
   -2.1630   -1.7947    2.8643 H   0  0  0  0  0
   -0.4286   -1.9520    2.4927 H   0  0  0  0  0
   -1.6452   -2.4465    1.2901 H   0  0  0  0  0
    0.5755   -4.3526    2.3157 H   0  0  0  0  0
   -0.5258   -5.7340    2.5388 H   0  0  0  0  0
   -0.6890   -4.6873    1.1074 H   0  0  0  0  0
   -2.0746   -3.7059    7.3946 H   0  0  0  0  0
   -0.1248   -5.3958    8.7259 H   0  0  0  0  0
   -0.4520   -4.1123   10.6416 H   0  0  0  0  0
   -2.0498   -3.4097    9.8945 H   0  0  0  0  0
    0.6289   -3.2817    7.5509 H   0  0  0  0  0
   -0.8893   -1.4386   11.1511 H   0  0  0  0  0
    1.6524   -1.1052    6.8806 H   0  0  0  0  0
    0.1768    0.7150   10.5028 H   0  0  0  0  0
    1.3063    0.9282    8.2904 H   0  0  0  0  0
   -2.3420   -7.0044    7.7398 H   0  0  0  0  0
   -4.1390   -7.5260   10.0350 H   0  0  0  0  0
   -3.9158   -9.1640    7.5381 H   0  0  0  0  0
   -4.8046   -7.5860    7.6015 H   0  0  0  0  0
   -7.2333   -7.6263    8.5445 H   0  0  0  0  0
   -7.2997  -11.6051   10.0924 H   0  0  0  0  0
   -1.9970   -7.8064   11.2771 H   0  0  0  0  0
   -0.2949  -10.0760   10.7521 H   0  0  0  0  0
    0.6536   -9.4964   12.9788 H   0  0  0  0  0
   -0.6299   -8.2390   13.1355 H   0  0  0  0  0
    1.9094   -9.2441   11.2411 H   0  0  0  0  0
   -1.7587  -11.7691   10.5320 H   0  0  0  0  0
   -2.9788  -13.5877   11.1019 H   0  0  0  0  0
   -3.0092  -14.4699   13.3534 H   0  0  0  0  0
   -1.9594  -13.0429   13.8451 H   0  0  0  0  0
   -1.2033  -14.9984   11.6979 H   0  0  0  0  0
   -0.7891  -15.2328   13.4588 H   0  0  0  0  0
    0.3474  -13.0148   13.3671 H   0  0  0  0  0
    0.1218  -13.0538   11.5736 H   0  0  0  0  0
    2.3477  -13.8013   12.0976 H   0  0  0  0  0
    1.3621  -15.2211   11.5590 H   0  0  0  0  0
    2.7273  -15.7275   13.4383 H   0  0  0  0  0
    2.0185  -14.5116   14.3306 H   0  0  0  0  0
    1.1113  -15.8185   13.8348 H   0  0  0  0  0
   -3.5240  -11.5543   14.0137 H   0  0  0  0  0
   -6.3928  -11.6024   13.8094 H   0  0  0  0  0
   -4.1019   -9.7484   12.3954 H   0  0  0  0  0
   -6.2728   -9.8007   15.5035 H   0  0  0  0  0
   -4.4901   -9.7218   15.2523 H   0  0  0  0  0
   -4.3279  -12.0861   15.9395 H   0  0  0  0  0
   -6.1042  -12.0649   16.3002 H   0  0  0  0  0
   -4.0314  -10.2869   17.6064 H   0  0  0  0  0
   -4.7007  -11.8145   18.3176 H   0  0  0  0  0
   -6.9573  -10.7920   18.2141 H   0  0  0  0  0
   -6.1924   -9.2538   17.6800 H   0  0  0  0  0
   -6.6105   -9.2835   20.0256 H   0  0  0  0  0
   -5.6819  -10.6544   20.2139 H   0  0  0  0  0
   -4.9734   -9.2296   19.7192 H   0  0  0  0  0
  1  2  1  0  0  0
  2  3  1  0  0  0
  2  5  1  0  0  0
  3  4  2  0  0  0
  3 10  1  0  0  0
  5  6  1  0  0  0
  6  7  1  0  0  0
  7  8  1  0  0  0
  8  9  1  0  0  0
 10 11  1  0  0  0
 11 12  1  0  0  0
 11 14  1  0  0  0
 12 13  2  0  0  0
 12 19  1  0  0  0
 14 15  1  0  0  0
 15 16  1  0  0  0
 16 17  1  0  0  0
 17 18  1  0  0  0
 19 20  1  0  0  0
 20 21  1  0  0  0
 20 23  1  0  0  0
 21 22  2  0  0  0
 21 30  1  0  0  0
 23 24  1  0  0  0
 24 25  1  0  0  0
 25 26  1  0  0  0
 26 27  1  0  0  0
 27 28  2  0  0  0
 27 29  1  0  0  0
 30 31  1  0  0  0
 31 32  1  0  0  0
 31 34  1  0  0  0
 32 33  2  0  0  0
 32 39  1  0  0  0
 34 35  1  0  0  0
 35 36  1  0  0  0
 36 37  1  0  0  0
 36 38  2  0  0  0
 39 40  1  0  0  0
 40 41  1  0  0  0
 40 43  1  0  0  0
 41 42  2  0  0  0
 41 47  1  0  0  0
 43 44  1  0  0  0
 44 45  1  0  0  0
 44 46  1  0  0  0
 47 48  1  0  0  0
 48 49  1  0  0  0
 48 51  1  0  0  0
 49 50  2  0  0  0
 49 55  1  0  0  0
 51 52  1  0  0  0
 51 53  1  0  0  0
 52 54  1  0  0  0
 55 56  1  0  0  0
 56 57  1  0  0  0
 56 59  1  0  0  0
 57 58  2  0  0  0
 57 64  1  0  0  0
 59 60  1  0  0  0
 60 61  1  0  0  0
 61 62  1  0  0  0
 61 63  2  0  0  0
 64 65  1  0  0  0
 65 66  1  0  0  0
 65 68  1  0  0  0
 66 67  2  0  0  0
 66 70  1  0  0  0
 68 69  1  0  0  0
 70 71  1  0  0  0
 71 72  1  0  0  0
 71 74  1  0  0  0
 72 73  2  0  0  0
 72 79  1  0  0  0
 74 75  1  0  0  0
 75 76  1  0  0  0
 76 77  1  0  0  0
 77 78  1  0  0  0
 79 80  1  0  0  0
 80 81  1  0  0  0
 80 83  1  0  0  0
 81 82  2  0  0  0
 81 93  1  0  0  0
 83 84  1  0  0  0
 84 85  4  0  0  0
 84 86  4  0  0  0
 85 87  4  0  0  0
 86 88  4  0  0  0
 86 89  4  0  0  0
 87 88  4  0  0  0
 88 90  4  0  0  0
 89 91  4  0  0  0
 90 92  4  0  0  0
 91 92  4  0  0  0
 93 94  1  0  0  0
 94 95  1  0  0  0
 94 97  1  0  0  0
 95 96  2  0  0  0
 95103  1  0  0  0
 97 98  1  0  0  0
 98 99  4  0  0  0
 98100  4  0  0  0
 99101  4  0  0  0
100102  4  0  0  0
101102  4  0  0  0
103104  1  0  0  0
104105  1  0  0  0
104107  1  0  0  0
105106  2  0  0  0
105114  1  0  0  0
107108  1  0  0  0
108109  1  0  0  0
109110  1  0  0  0
110111  1  0  0  0
111112  1  0  0  0
111113  2  0  0  0
114115  1  0  0  0
115116  1  0  0  0
115118  1  0  0  0
116117  2  0  0  0
116122  1  0  0  0
118119  1  0  0  0
119120  1  0  0  0
119121  1  0  0  0
122123  1  0  0  0
123124  1  0  0  0
123126  1  0  0  0
124125  2  0  0  0
124130  1  0  0  0
126127  1  0  0  0
127128  1  0  0  0
127129  1  0  0  0
130131  1  0  0  0
131132  1  0  0  0
131134  1  0  0  0
132133  2  0  0  0
132141  1  0  0  0
134135  1  0  0  0
135136  4  0  0  0
135137  4  0  0  0
136138  4  0  0  0
137139  4  0  0  0
138140  4  0  0  0
139140  4  0  0  0
141142  1  0  0  0
142143  1  0  0  0
142145  1  0  0  0
143144  2  0  0  0
143151  1  0  0  0
145146  1  0  0  0
146147  4  0  0  0
146148  4  0  0  0
147149  4  0  0  0
148150  4  0  0  0
149150  4  0  0  0
151152  1  0  0  0
152153  1  0  0  0
152155  1  0  0  0
153154  2  0  0  0
153159  1  0  0  0
155156  1  0  0  0
156157  1  0  0  0
156158  2  0  0  0
159160  1  0  0  0
160161  1  0  0  0
160163  1  0  0  0
161162  2  0  0  0
161168  1  0  0  0
163164  1  0  0  0
164165  1  0  0  0
165166  1  0  0  0
166167  1  0  0  0
168169  1  0  0  0
169170  1  0  0  0
169172  1  0  0  0
170171  1  0  0  0
170177  2  0  0  0
172173  1  0  0  0
173174  1  0  0  0
174175  1  0  0  0
175176  1  0  0  0
  1178  1  0  0  0
  1179  1  0  0  0
  1180  1  0  0  0
  2181  1  0  0  0
  5182  1  0  0  0
  5183  1  0  0  0
  6184  1  0  0  0
  6185  1  0  0  0
  7186  1  0  0  0
  7187  1  0  0  0
  8188  1  0  0  0
  8189  1  0  0  0
  9190  1  0  0  0
  9191  1  0  0  0
  9192  1  0  0  0
 10193  1  0  0  0
 11194  1  0  0  0
 14195  1  0  0  0
 14196  1  0  0  0
 15197  1  0  0  0
 15198  1  0  0  0
 16199  1  0  0  0
 16200  1  0  0  0
 17201  1  0  0  0
 17202  1  0  0  0
 18203  1  0  0  0
 18204  1  0  0  0
 18205  1  0  0  0
 19206  1  0  0  0
 20207  1  0  0  0
 23208  1  0  0  0
 23209  1  0  0  0
 24210  1  0  0  0
 24211  1  0  0  0
 25212  1  0  0  0
 25213  1  0  0  0
 26214  1  0  0  0
 28215  1  0  0  0
 29216  1  0  0  0
 29217  1  0  0  0
 30218  1  0  0  0
 31219  1  0  0  0
 34220  1  0  0  0
 34221  1  0  0  0
 35222  1  0  0  0
 35223  1  0  0  0
 37224  1  0  0  0
 39225  1  0  0  0
 40226  1  0  0  0
 43227  1  0  0  0
 43228  1  0  0  0
 44229  1  0  0  0
 45230  1  0  0  0
 45231  1  0  0  0
 45232  1  0  0  0
 46233  1  0  0  0
 46234  1  0  0  0
 46235  1  0  0  0
 47236  1  0  0  0
 48237  1  0  0  0
 51238  1  0  0  0
 52239  1  0  0  0
 52240  1  0  0  0
 53241  1  0  0  0
 53242  1  0  0  0
 53243  1  0  0  0
 54244  1  0  0  0
 54245  1  0  0  0
 54246  1  0  0  0
 55247  1  0  0  0
 56248  1  0  0  0
 59249  1  0  0  0
 59250  1  0  0  0
 60251  1  0  0  0
 60252  1  0  0  0
 62253  1  0  0  0
 64254  1  0  0  0
 65255  1  0  0  0
 68256  1  0  0  0
 68257  1  0  0  0
 69258  1  0  0  0
 70259  1  0  0  0
 71260  1  0  0  0
 74261  1  0  0  0
 74262  1  0  0  0
 75263  1  0  0  0
 75264  1  0  0  0
 76265  1  0  0  0
 76266  1  0  0  0
 77267  1  0  0  0
 77268  1  0  0  0
 78269  1  0  0  0
 78270  1  0  0  0
 78271  1  0  0  0
 79272  1  0  0  0
 80273  1  0  0  0
 83274  1  0  0  0
 83275  1  0  0  0
 85276  1  0  0  0
 89277  1  0  0  0
 90278  1  0  0  0
 91279  1  0  0  0
 92280  1  0  0  0
 93281  1  0  0  0
 94282  1  0  0  0
 97283  1  0  0  0
 97284  1  0  0  0
100285  1  0  0  0
101286  1  0  0  0
103287  1  0  0  0
104288  1  0  0  0
107289  1  0  0  0
107290  1  0  0  0
108291  1  0  0  0
108292  1  0  0  0
109293  1  0  0  0
109294  1  0  0  0
110295  1  0  0  0
112296  1  0  0  0
112297  1  0  0  0
113298  1  0  0  0
114299  1  0  0  0
115300  1  0  0  0
118301  1  0  0  0
118302  1  0  0  0
119303  1  0  0  0
120304  1  0  0  0
120305  1  0  0  0
120306  1  0  0  0
121307  1  0  0  0
121308  1  0  0  0
121309  1  0  0  0
122310  1  0  0  0
123311  1  0  0  0
126312  1  0  0  0
126313  1  0  0  0
127314  1  0  0  0
128315  1  0  0  0
128316  1  0  0  0
128317  1  0  0  0
129318  1  0  0  0
129319  1  0  0  0
129320  1  0  0  0
130321  1  0  0  0
131322  1  0  0  0
134323  1  0  0  0
134324  1  0  0  0
136325  1  0  0  0
137326  1  0  0  0
138327  1  0  0  0
139328  1  0  0  0
140329  1  0  0  0
141330  1  0  0  0
142331  1  0  0  0
145332  1  0  0  0
145333  1  0  0  0
148334  1  0  0  0
149335  1  0  0  0
151336  1  0  0  0
152337  1  0  0  0
155338  1  0  0  0
155339  1  0  0  0
157340  1  0  0  0
159341  1  0  0  0
160342  1  0  0  0
163343  1  0  0  0
163344  1  0  0  0
164345  1  0  0  0
164346  1  0  0  0
165347  1  0  0  0
165348  1  0  0  0
166349  1  0  0  0
166350  1  0  0  0
167351  1  0  0  0
167352  1  0  0  0
167353  1  0  0  0
168354  1  0  0  0
169355  1  0  0  0
171356  1  0  0  0
172357  1  0  0  0
172358  1  0  0  0
173359  1  0  0  0
173360  1  0  0  0
174361  1  0  0  0
174362  1  0  0  0
175363  1  0  0  0
175364  1  0  0  0
176365  1  0  0  0
176366  1  0  0  0
176367  1  0  0  0
M  END
$$$$
