4c1u_ligand
  -I-interpret- 

 54 56  0  0  0  0  0  0  0  0999 V2000
  -19.3070   18.2950  -20.9070 O   0  0  0  0  0
  -20.4960   18.7450  -20.2750 C   0  0  0  0  0
  -20.4450   18.5540  -18.7780 C   0  0  0  0  0
  -19.4200   19.4100  -18.1920 O   0  0  0  0  0
  -20.1220   17.1430  -18.2780 C   0  0  0  0  0
  -20.9170   16.7540  -17.1700 O   0  0  0  0  0
  -18.6310   17.2080  -17.9690 C   0  0  0  0  0
  -17.8640   17.0870  -19.1590 O   0  0  0  0  0
  -18.5070   18.6340  -17.4550 C   0  0  0  0  0
  -16.8980   20.6850  -13.7040 C   0  0  0  0  0
  -17.1970   19.5650  -14.6800 C   0  0  0  0  0
  -18.4950   19.8170  -15.4220 C   0  0  0  0  0
  -19.5720   20.1580  -14.4150 C   0  0  0  0  0
  -19.0890   21.2490  -13.4840 C   0  0  0  0  0
  -16.1290   19.4530  -15.5940 O   0  0  0  0  0
  -18.8850   18.6370  -16.0970 O   0  0  0  0  0
  -20.7330   20.5920  -15.0860 O   0  0  0  0  0
  -17.9510   20.8110  -12.7800 O   0  0  0  0  0
  -12.2020   24.0740  -10.9970 O   0  0  0  0  0
  -12.8420   22.9940  -11.6330 C   0  0  0  0  0
  -13.5130   22.1330  -10.5860 C   0  0  0  0  0
  -14.2350   20.9800  -11.2510 C   0  0  0  0  0
  -15.1360   21.5000  -12.3510 C   0  0  0  0  0
  -14.3240   22.3960  -13.2590 C   0  0  0  0  0
  -12.5300   21.6320   -9.7080 O   0  0  0  0  0
  -14.9940   20.2790  -10.2920 O   0  0  0  0  0
  -15.6270   20.4010  -13.0870 O   0  0  0  0  0
  -13.8020   23.4860  -12.5340 O   0  0  0  0  0
  -19.3777   18.4327  -21.8544 H   0  0  0  0  0
  -21.3315   18.1639  -20.6654 H   0  0  0  0  0
  -20.6102   19.8094  -20.4800 H   0  0  0  0  0
  -21.4636   18.7946  -18.4735 H   0  0  0  0  0
  -20.3531   16.3720  -19.0130 H   0  0  0  0  0
  -21.8404   16.7333  -17.4317 H   0  0  0  0  0
  -18.2866   16.4267  -17.2915 H   0  0  0  0  0
  -17.9342   16.1900  -19.4938 H   0  0  0  0  0
  -17.4941   19.0233  -17.5579 H   0  0  0  0  0
  -16.8251   21.6495  -14.2064 H   0  0  0  0  0
  -17.3081   18.6342  -14.1238 H   0  0  0  0  0
  -18.3571   20.6311  -16.1335 H   0  0  0  0  0
  -19.8017   19.2667  -13.8312 H   0  0  0  0  0
  -19.8796   21.4908  -12.7736 H   0  0  0  0  0
  -18.8315   22.1321  -14.0688 H   0  0  0  0  0
  -16.3136   18.7444  -16.2149 H   0  0  0  0  0
  -21.4120   20.8066  -14.4422 H   0  0  0  0  0
  -11.7740   24.6245  -11.6569 H   0  0  0  0  0
  -12.1115   22.3979  -12.1800 H   0  0  0  0  0
  -14.2369   22.7300  -10.0314 H   0  0  0  0  0
  -13.5024   20.3022  -11.6893 H   0  0  0  0  0
  -15.9692   22.0631  -11.9306 H   0  0  0  0  0
  -14.9676   22.7735  -14.0536 H   0  0  0  0  0
  -13.4988   21.8213  -13.6796 H   0  0  0  0  0
  -12.9485   21.0841   -9.0400 H   0  0  0  0  0
  -15.4499   19.5492  -10.7176 H   0  0  0  0  0
  2  1  1  0  0  0
  3  2  1  0  0  0
  4  3  1  0  0  0
  5  3  1  0  0  0
  9  4  1  0  0  0
  5  6  1  0  0  0
  7  5  1  0  0  0
  7  8  1  0  0  0
  9  7  1  0  0  0
 16  9  1  0  0  0
 10 11  1  0  0  0
 10 18  1  0  0  0
 27 10  1  0  0  0
 11 12  1  0  0  0
 11 15  1  0  0  0
 12 13  1  0  0  0
 12 16  1  0  0  0
 14 13  1  0  0  0
 13 17  1  0  0  0
 18 14  1  0  0  0
 20 19  1  0  0  0
 21 20  1  0  0  0
 20 28  1  0  0  0
 22 21  1  0  0  0
 21 25  1  0  0  0
 23 22  1  0  0  0
 22 26  1  0  0  0
 23 24  1  0  0  0
 23 27  1  0  0  0
 24 28  1  0  0  0
  1 29  1  0  0  0
  2 30  1  0  0  0
  2 31  1  0  0  0
  3 32  1  0  0  0
  5 33  1  0  0  0
  6 34  1  0  0  0
  7 35  1  0  0  0
  8 36  1  0  0  0
  9 37  1  0  0  0
 10 38  1  0  0  0
 11 39  1  0  0  0
 12 40  1  0  0  0
 13 41  1  0  0  0
 14 42  1  0  0  0
 14 43  1  0  0  0
 15 44  1  0  0  0
 17 45  1  0  0  0
 19 46  1  0  0  0
 20 47  1  0  0  0
 21 48  1  0  0  0
 22 49  1  0  0  0
 23 50  1  0  0  0
 24 51  1  0  0  0
 24 52  1  0  0  0
 25 53  1  0  0  0
 26 54  1  0  0  0
M  END
$$$$
