3in3_ligand
  -I-interpret- 

 43 46  0  0  0  0  0  0  0  0999 V2000
   15.9720   -4.3250   17.6750 C   0  0  0  0  0
   15.4020   -5.4950   17.0420 N   0  0  0  0  0
   14.3440   -6.3440   18.8890 O   0  0  0  0  0
   14.6420   -6.4050   17.7050 C   0  0  0  0  0
   14.9100   -6.9790   15.4300 N   0  0  0  0  0
   14.2190   -7.4830   16.6710 C   0  0  0  0  0
   16.3240   -5.2430   14.8800 N   0  0  0  0  0
   15.5100   -5.8790   15.7540 C   0  0  0  0  0
   15.7070  -11.5170   17.4180 N   0  0  0  0  0
   14.7430   -8.8990   16.9680 C   0  0  0  0  0
    9.9800   -3.0480   13.9520 N   0  0  0  0  0
   15.0120   -9.7760   15.9020 C   0  0  0  0  0
   15.4850  -11.0510   16.1700 C   0  0  0  0  0
   15.4480  -10.6700   18.4340 C   0  0  0  0  0
   14.9720   -9.3730   18.2660 C   0  0  0  0  0
   12.6790   -7.4410   16.5630 C   0  0  0  0  0
   11.8600   -8.5390   16.8830 C   0  0  0  0  0
   10.4710   -8.4450   16.7690 C   0  0  0  0  0
    9.8690   -7.2600   16.3370 C   0  0  0  0  0
   10.6530   -6.1450   16.0100 C   0  0  0  0  0
   12.0480   -6.2610   16.1320 C   0  0  0  0  0
   10.0610   -4.8760   15.5630 C   0  0  0  0  0
    9.0300   -4.2530   16.2820 C   0  0  0  0  0
    8.4830   -3.0490   15.8410 C   0  0  0  0  0
    8.9860   -2.4860   14.6790 C   0  0  0  0  0
   10.4910   -4.2210   14.4100 C   0  0  0  0  0
   17.0578   -4.3579   17.5858 H   0  0  0  0  0
   15.5930   -3.4278   17.1857 H   0  0  0  0  0
   15.6930   -4.3112   18.7286 H   0  0  0  0  0
   14.9056   -7.4205   14.5105 H   0  0  0  0  0
   16.8806   -4.4459   15.1888 H   0  0  0  0  0
   14.8498   -9.4555   14.8729 H   0  0  0  0  0
   15.6887  -11.7130   15.3284 H   0  0  0  0  0
   15.6222  -11.0228   19.4505 H   0  0  0  0  0
   14.7806   -8.7367   19.1301 H   0  0  0  0  0
   12.3128   -9.4705   17.2226 H   0  0  0  0  0
    9.8500   -9.3050   17.0196 H   0  0  0  0  0
    8.7837   -7.2025   16.2539 H   0  0  0  0  0
   12.6672   -5.3995   15.8818 H   0  0  0  0  0
    8.6529   -4.7149   17.1944 H   0  0  0  0  0
    7.6804   -2.5630   16.3958 H   0  0  0  0  0
    8.5602   -1.5440   14.3333 H   0  0  0  0  0
   11.2940   -4.6824   13.8351 H   0  0  0  0  0
  2  1  1  0  0  0
  4  2  1  0  0  0
  8  2  4  0  0  0
  4  3  2  0  0  0
  6  4  1  0  0  0
  6  5  1  0  0  0
  5  8  1  0  0  0
  6 10  1  0  0  0
 16  6  1  0  0  0
  8  7  2  0  0  0
 13  9  4  0  0  0
 14  9  4  0  0  0
 10 12  4  0  0  0
 10 15  4  0  0  0
 11 25  4  0  0  0
 26 11  4  0  0  0
 12 13  4  0  0  0
 15 14  4  0  0  0
 16 17  4  0  0  0
 21 16  4  0  0  0
 18 17  4  0  0  0
 19 18  4  0  0  0
 20 19  4  0  0  0
 20 21  4  0  0  0
 22 20  1  0  0  0
 22 23  4  0  0  0
 22 26  4  0  0  0
 23 24  4  0  0  0
 24 25  4  0  0  0
  1 27  1  0  0  0
  1 28  1  0  0  0
  1 29  1  0  0  0
  5 30  1  0  0  0
  7 31  1  0  0  0
 12 32  1  0  0  0
 13 33  1  0  0  0
 14 34  1  0  0  0
 15 35  1  0  0  0
 17 36  1  0  0  0
 18 37  1  0  0  0
 19 38  1  0  0  0
 21 39  1  0  0  0
 23 40  1  0  0  0
 24 41  1  0  0  0
 25 42  1  0  0  0
 26 43  1  0  0  0
M  END
$$$$
