3jzo_ligand
  -I-interpret- 

204208  0  0  0  0  0  0  0  0999 V2000
   23.8630    9.1910    5.9250 N   0  3  0  0  0
   24.8040    9.1600    7.0850 C   0  0  0  0  0
   23.9900    9.2290    8.3640 C   0  0  0  0  0
   24.5060    9.0050    9.4490 O   0  0  0  0  0
   25.7650   10.3570    7.0260 C   0  0  0  0  0
   26.7880   10.3380    5.8870 C   0  0  0  0  0
   27.5840   11.6460    5.8530 C   0  0  0  0  0
   27.7160    9.1530    6.0860 C   0  0  0  0  0
   22.7140    9.5590    8.2260 N   0  0  0  0  0
   21.8120    9.6340    9.3750 C   0  0  0  0  0
   20.7770    8.5130    9.2240 C   0  0  0  0  0
   20.5090    8.0570    8.1140 O   0  0  0  0  0
   21.0630   11.0040    9.4320 C   0  0  0  0  0
   20.1860   11.1370    8.3020 O   0  0  0  0  0
   22.0720   12.1750    9.4100 C   0  0  0  0  0
   20.2130    8.0560   10.3370 N   0  0  0  0  0
   19.1830    7.0210   10.2600 C   0  0  0  0  0
   18.0380    7.5410    9.3820 C   0  0  0  0  0
   17.5750    6.8400    8.4980 O   0  0  0  0  0
   18.6580    6.6810   11.6570 C   0  0  0  0  0
   17.4300    5.8060   11.6400 C   0  0  0  0  0
   17.5290    4.4670   11.3170 C   0  0  0  0  0
   16.1670    6.3610   11.8500 C   0  0  0  0  0
   16.3860    3.6740   11.1860 C   0  0  0  0  0
   15.0190    5.5870   11.7260 C   0  0  0  0  0
   15.1330    4.2280   11.3850 C   0  0  0  0  0
   17.5880    8.7740    9.6250 N   0  0  0  0  0
   16.4740    9.3470    8.8520 C   0  0  0  0  0
   16.7150    9.3190    7.3360 C   0  0  0  0  0
   15.7980    9.0310    6.5610 O   0  0  0  0  0
   16.1880   10.7950    9.2810 C   0  0  0  0  0
   16.1470   11.0090   10.7850 C   0  0  0  0  0
   17.5160   11.3860   11.3640 C   0  0  0  0  0
   17.8570   12.5950   11.3340 O   0  0  0  0  0
   18.2450   10.4780   11.8280 O   0  0  0  0  0
   17.9380    9.6410    6.9230 N   0  0  0  0  0
   18.3080    9.6410    5.5040 C   0  0  0  0  0
   18.0910    8.2590    4.8840 C   0  0  0  0  0
   17.4780    8.1370    3.8290 O   0  0  0  0  0
   19.7780   10.0430    5.3490 C   0  0  0  0  0
   20.3140    9.8360    3.9680 C   0  0  0  0  0
   20.0150   10.6780    2.9190 N   0  0  0  0  0
   21.0700    8.8360    3.4480 C   0  0  0  0  0
   20.5630   10.2050    1.8110 C   0  0  0  0  0
   21.2060    9.0870    2.1040 N   0  0  0  0  0
   18.6150    7.2260    5.5330 N   0  0  0  0  0
   18.4600    5.8430    5.0570 C   0  0  0  0  0
   17.0070    5.3810    5.1270 C   0  0  0  0  0
   16.4910    4.7950    4.1740 O   0  0  0  0  0
   19.3110    4.9090    5.9030 C   0  0  0  0  0
   20.7940    5.1670    5.7230 C   0  0  0  0  0
   21.5960    5.5360    6.7960 C   0  0  0  0  0
   21.3750    5.0690    4.4570 C   0  0  0  0  0
   22.9580    5.8080    6.6130 C   0  0  0  0  0
   22.7230    5.3370    4.2570 C   0  0  0  0  0
   23.5040    5.7040    5.3310 C   0  0  0  0  0
   24.8290    5.9620    5.1090 O   0  0  0  0  0
   16.3420    5.6740    6.2480 N   0  0  0  0  0
   14.9620    5.2420    6.4320 C   0  0  0  0  0
   13.9940    5.8160    5.3900 C   0  0  0  0  0
   13.1140    5.1190    4.8840 O   0  0  0  0  0
   14.4890    5.5690    7.8530 C   0  0  0  0  0
   13.1300    4.9830    8.1770 C   0  0  0  0  0
   11.9200    5.6100    8.1190 C   0  0  0  0  0
   12.8640    3.6270    8.5650 C   0  0  0  0  0
   10.9110    4.7270    8.4530 N   0  0  0  0  0
   11.4620    3.5020    8.7300 C   0  0  0  0  0
   13.6770    2.5060    8.7850 C   0  0  0  0  0
   10.8500    2.2970    9.1120 C   0  0  0  0  0
   13.0660    1.2950    9.1690 C   0  0  0  0  0
   11.6660    1.2060    9.3270 C   0  0  0  0  0
   14.1610    7.0870    5.0740 N   0  0  0  0  0
   13.2990    7.7520    4.1140 C   0  0  0  0  0
   13.3430    7.0640    2.7490 C   0  0  0  0  0
   12.3730    7.1330    1.9920 O   0  0  0  0  0
   13.7220    9.2210    3.9830 C   0  0  0  0  0
   14.4540    6.4010    2.4500 N   0  0  0  0  0
   14.6260    5.7120    1.1710 C   0  0  0  0  0
   13.6850    4.5420    0.9840 C   0  0  0  0  0
   13.4220    4.1380   -0.1480 O   0  0  0  0  0
   16.0560    5.1900    1.0210 C   0  0  0  0  0
   17.1260    6.2360    1.2390 C   0  0  0  0  0
   17.0360    7.3650    0.2320 C   0  0  0  0  0
   16.0040    8.0350    0.1280 O   0  0  0  0  0
   18.1200    7.5850   -0.5170 N   0  0  0  0  0
   13.1710    3.9930    2.0810 N   0  0  0  0  0
   12.2880    2.8510    1.9770 C   0  0  0  0  0
   10.9110    3.1430    1.3860 C   0  0  0  0  0
   10.2060    2.2200    1.0010 O   0  0  0  0  0
   12.1440    2.1750    3.3340 C   0  0  0  0  0
   13.4780    1.7350    3.9610 C   0  0  0  0  0
   13.1570    1.0390    5.2880 C   0  0  0  0  0
   14.2550    0.7970    3.0350 C   0  0  0  0  0
   10.5360    4.4080    1.3210 N   0  0  0  0  0
    9.2450    4.7780    0.7390 C   0  0  0  0  0
    9.4550    5.8430   -0.3240 C   0  0  0  0  0
   10.3920    6.6370   -0.2380 O   0  0  0  0  0
    8.2880    5.3400    1.7990 C   0  0  0  0  0
    8.9470    6.3940    2.5190 O   0  0  0  0  0
    7.8800    4.2430    2.7660 C   0  0  0  0  0
    8.5810    5.8460   -1.3280 N   0  0  0  0  0
    8.6530    6.8210   -2.4050 C   0  0  0  0  0
    8.0240    8.1290   -1.9450 C   0  0  0  0  0
    7.2550    8.1070   -0.9490 O   0  0  0  0  0
    7.9020    6.3060   -3.6320 C   0  0  0  0  0
    6.5100    6.2580   -3.3630 O   0  0  0  0  0
    8.2770    9.1630   -2.6040 O   0  0  0  0  0
   23.2326    8.3910    5.9787 H   0  0  0  0  0
   23.3211   10.0548    5.9513 H   0  0  0  0  0
   24.3951    9.1484    5.0558 H   0  0  0  0  0
   25.3910    8.2421    7.0547 H   0  0  0  0  0
   26.3377   10.3368    7.9532 H   0  0  0  0  0
   25.1459   11.2401    6.8678 H   0  0  0  0  0
   26.2701   10.2418    4.9327 H   0  0  0  0  0
   28.1183   11.7693    6.7951 H   0  0  0  0  0
   28.2983   11.6139    5.0303 H   0  0  0  0  0
   26.9000   12.4825    5.7096 H   0  0  0  0  0
   28.4308    9.1109    5.2642 H   0  0  0  0  0
   28.2508    9.2663    7.0290 H   0  0  0  0  0
   27.1303    8.2340    6.1072 H   0  0  0  0  0
   22.3518    9.7659    7.2952 H   0  0  0  0  0
   22.3934    9.5319   10.2913 H   0  0  0  0  0
   20.4869   11.0336   10.3568 H   0  0  0  0  0
   19.7321   11.9817    8.3483 H   0  0  0  0  0
   22.7353   12.0976   10.2715 H   0  0  0  0  0
   22.6590   12.1299    8.4927 H   0  0  0  0  0
   21.5306   13.1202    9.4504 H   0  0  0  0  0
   20.4981    8.4266   11.2435 H   0  0  0  0  0
   19.6064    6.1142    9.8280 H   0  0  0  0  0
   18.3863    7.6183   12.1426 H   0  0  0  0  0
   19.4434    6.1341   12.1786 H   0  0  0  0  0
   18.5122    4.0226   11.1621 H   0  0  0  0  0
   16.0795    7.4148   12.1146 H   0  0  0  0  0
   16.4809    2.6194   10.9272 H   0  0  0  0  0
   14.0373    6.0307   11.8920 H   0  0  0  0  0
   14.2392    3.6134   11.2778 H   0  0  0  0  0
   18.0245    9.3298   10.3605 H   0  0  0  0  0
   15.6131    8.7146    9.0687 H   0  0  0  0  0
   15.2022   11.0539    8.8945 H   0  0  0  0  0
   17.0004   11.4095    8.8930 H   0  0  0  0  0
   15.8325   10.0740   11.2486 H   0  0  0  0  0
   15.4590   11.8295   10.9886 H   0  0  0  0  0
   17.1530   13.1152   10.9398 H   0  0  0  0  0
   18.6414    9.8963    7.6161 H   0  0  0  0  0
   17.6733   10.3602    4.9863 H   0  0  0  0  0
   20.3609    9.4152    6.0229 H   0  0  0  0  0
   19.8505   11.1077    5.5711 H   0  0  0  0  0
   21.4906    7.9918    3.9943 H   0  0  0  0  0
   20.4957   10.6604    0.8230 H   0  0  0  0  0
   19.1421    7.3970    6.3894 H   0  0  0  0  0
   18.7826    5.8167    4.0162 H   0  0  0  0  0
   19.1041    3.8852    5.5913 H   0  0  0  0  0
   19.0616    5.0778    6.9506 H   0  0  0  0  0
   21.1602    5.6148    7.7920 H   0  0  0  0  0
   20.7576    4.7760    3.6079 H   0  0  0  0  0
   23.5827    6.0966    7.4583 H   0  0  0  0  0
   23.1584    5.2578    3.2609 H   0  0  0  0  0
   25.0256    5.8415    4.1771 H   0  0  0  0  0
   16.8056    6.2065    6.9842 H   0  0  0  0  0
   14.9535    4.1622    6.2838 H   0  0  0  0  0
   14.4100    6.6531    7.9344 H   0  0  0  0  0
   15.2094    5.1390    8.5489 H   0  0  0  0  0
   11.7708    6.6553    7.8486 H   0  0  0  0  0
   14.7581    2.5695    8.6618 H   0  0  0  0  0
    9.7692    2.2265    9.2342 H   0  0  0  0  0
   13.6835    0.4145    9.3465 H   0  0  0  0  0
   11.2212    0.2565    9.6247 H   0  0  0  0  0
   14.9142    7.6145    5.5153 H   0  0  0  0  0
   12.2724    7.6955    4.4758 H   0  0  0  0  0
   13.6345    9.7108    4.9528 H   0  0  0  0  0
   14.7558    9.2710    3.6412 H   0  0  0  0  0
   13.0751    9.7211    3.2622 H   0  0  0  0  0
   15.2108    6.3712    3.1332 H   0  0  0  0  0
   14.3988    6.4605    0.4119 H   0  0  0  0  0
   16.1611    4.8321   -0.0032 H   0  0  0  0  0
   16.1986    4.4219    1.7812 H   0  0  0  0  0
   18.0979    5.7560    1.1246 H   0  0  0  0  0
   16.9901    6.6579    2.2348 H   0  0  0  0  0
   18.1175    8.3329   -1.2106 H   0  0  0  0  0
   18.9502    7.0051   -0.3953 H   0  0  0  0  0
   13.3996    4.3777    2.9976 H   0  0  0  0  0
   12.7684    2.1841    1.2611 H   0  0  0  0  0
   11.5458    1.2762    3.1847 H   0  0  0  0  0
   11.6939    2.9018    4.0103 H   0  0  0  0  0
   14.1123    2.6061    4.1248 H   0  0  0  0  0
   12.6381    1.7359    5.9461 H   0  0  0  0  0
   12.5212    0.1741    5.0987 H   0  0  0  0  0
   14.0842    0.7137    5.7598 H   0  0  0  0  0
   13.6576   -0.0930    2.8371 H   0  0  0  0  0
   14.4681    1.3092    2.0967 H   0  0  0  0  0
   15.1908    0.5089    3.5139 H   0  0  0  0  0
   11.1536    5.1357    1.6807 H   0  0  0  0  0
    8.8064    3.8775    0.3092 H   0  0  0  0  0
    7.3959    5.7293    1.3084 H   0  0  0  0  0
    8.3508    6.7478    3.1831 H   0  0  0  0  0
    7.3794    3.4449    2.2178 H   0  0  0  0  0
    8.7676    3.8459    3.2585 H   0  0  0  0  0
    7.2011    4.6534    3.5135 H   0  0  0  0  0
    7.8401    5.1451   -1.3425 H   0  0  0  0  0
    9.6984    6.9834   -2.6675 H   0  0  0  0  0
    7.2089    7.2133   -0.6014 H   0  0  0  0  0
    8.2554    5.3039   -3.8747 H   0  0  0  0  0
    8.0824    6.9776   -4.4713 H   0  0  0  0  0
    6.0464    5.9336   -4.1385 H   0  0  0  0  0
  1  2  1  0  0  0
  2  3  1  0  0  0
  2  5  1  0  0  0
  3  4  2  0  0  0
  3  9  1  0  0  0
  5  6  1  0  0  0
  6  7  1  0  0  0
  6  8  1  0  0  0
  9 10  1  0  0  0
 10 11  1  0  0  0
 10 13  1  0  0  0
 11 12  2  0  0  0
 11 16  1  0  0  0
 13 14  1  0  0  0
 13 15  1  0  0  0
 16 17  1  0  0  0
 17 18  1  0  0  0
 17 20  1  0  0  0
 18 19  2  0  0  0
 18 27  1  0  0  0
 20 21  1  0  0  0
 21 22  4  0  0  0
 21 23  4  0  0  0
 22 24  4  0  0  0
 23 25  4  0  0  0
 24 26  4  0  0  0
 25 26  4  0  0  0
 27 28  1  0  0  0
 28 29  1  0  0  0
 28 31  1  0  0  0
 29 30  2  0  0  0
 29 36  1  0  0  0
 31 32  1  0  0  0
 32 33  1  0  0  0
 33 34  1  0  0  0
 33 35  2  0  0  0
 36 37  1  0  0  0
 37 38  1  0  0  0
 37 40  1  0  0  0
 38 39  2  0  0  0
 38 46  1  0  0  0
 40 41  1  0  0  0
 41 42  4  0  0  0
 41 43  4  0  0  0
 42 44  4  0  0  0
 43 45  4  0  0  0
 44 45  4  0  0  0
 46 47  1  0  0  0
 47 48  1  0  0  0
 47 50  1  0  0  0
 48 49  2  0  0  0
 48 58  1  0  0  0
 50 51  1  0  0  0
 51 52  4  0  0  0
 51 53  4  0  0  0
 52 54  4  0  0  0
 53 55  4  0  0  0
 54 56  4  0  0  0
 55 56  4  0  0  0
 56 57  1  0  0  0
 58 59  1  0  0  0
 59 60  1  0  0  0
 59 62  1  0  0  0
 60 61  2  0  0  0
 60 72  1  0  0  0
 62 63  1  0  0  0
 63 64  4  0  0  0
 63 65  4  0  0  0
 64 66  4  0  0  0
 65 67  4  0  0  0
 65 68  4  0  0  0
 66 67  4  0  0  0
 67 69  4  0  0  0
 68 70  4  0  0  0
 69 71  4  0  0  0
 70 71  4  0  0  0
 72 73  1  0  0  0
 73 74  1  0  0  0
 73 76  1  0  0  0
 74 75  2  0  0  0
 74 77  1  0  0  0
 77 78  1  0  0  0
 78 79  1  0  0  0
 78 81  1  0  0  0
 79 80  2  0  0  0
 79 86  1  0  0  0
 81 82  1  0  0  0
 82 83  1  0  0  0
 83 84  2  0  0  0
 83 85  1  0  0  0
 86 87  1  0  0  0
 87 88  1  0  0  0
 87 90  1  0  0  0
 88 89  2  0  0  0
 88 94  1  0  0  0
 90 91  1  0  0  0
 91 92  1  0  0  0
 91 93  1  0  0  0
 94 95  1  0  0  0
 95 96  1  0  0  0
 95 98  1  0  0  0
 96 97  2  0  0  0
 96101  1  0  0  0
 98 99  1  0  0  0
 98100  1  0  0  0
101102  1  0  0  0
102103  1  0  0  0
102105  1  0  0  0
103104  1  0  0  0
103107  2  0  0  0
105106  1  0  0  0
  1108  1  0  0  0
  1109  1  0  0  0
  1110  1  0  0  0
  2111  1  0  0  0
  5112  1  0  0  0
  5113  1  0  0  0
  6114  1  0  0  0
  7115  1  0  0  0
  7116  1  0  0  0
  7117  1  0  0  0
  8118  1  0  0  0
  8119  1  0  0  0
  8120  1  0  0  0
  9121  1  0  0  0
 10122  1  0  0  0
 13123  1  0  0  0
 14124  1  0  0  0
 15125  1  0  0  0
 15126  1  0  0  0
 15127  1  0  0  0
 16128  1  0  0  0
 17129  1  0  0  0
 20130  1  0  0  0
 20131  1  0  0  0
 22132  1  0  0  0
 23133  1  0  0  0
 24134  1  0  0  0
 25135  1  0  0  0
 26136  1  0  0  0
 27137  1  0  0  0
 28138  1  0  0  0
 31139  1  0  0  0
 31140  1  0  0  0
 32141  1  0  0  0
 32142  1  0  0  0
 34143  1  0  0  0
 36144  1  0  0  0
 37145  1  0  0  0
 40146  1  0  0  0
 40147  1  0  0  0
 43148  1  0  0  0
 44149  1  0  0  0
 46150  1  0  0  0
 47151  1  0  0  0
 50152  1  0  0  0
 50153  1  0  0  0
 52154  1  0  0  0
 53155  1  0  0  0
 54156  1  0  0  0
 55157  1  0  0  0
 57158  1  0  0  0
 58159  1  0  0  0
 59160  1  0  0  0
 62161  1  0  0  0
 62162  1  0  0  0
 64163  1  0  0  0
 68164  1  0  0  0
 69165  1  0  0  0
 70166  1  0  0  0
 71167  1  0  0  0
 72168  1  0  0  0
 73169  1  0  0  0
 76170  1  0  0  0
 76171  1  0  0  0
 76172  1  0  0  0
 77173  1  0  0  0
 78174  1  0  0  0
 81175  1  0  0  0
 81176  1  0  0  0
 82177  1  0  0  0
 82178  1  0  0  0
 85179  1  0  0  0
 85180  1  0  0  0
 86181  1  0  0  0
 87182  1  0  0  0
 90183  1  0  0  0
 90184  1  0  0  0
 91185  1  0  0  0
 92186  1  0  0  0
 92187  1  0  0  0
 92188  1  0  0  0
 93189  1  0  0  0
 93190  1  0  0  0
 93191  1  0  0  0
 94192  1  0  0  0
 95193  1  0  0  0
 98194  1  0  0  0
 99195  1  0  0  0
100196  1  0  0  0
100197  1  0  0  0
100198  1  0  0  0
101199  1  0  0  0
102200  1  0  0  0
104201  1  0  0  0
105202  1  0  0  0
105203  1  0  0  0
106204  1  0  0  0
M  END
$$$$
