### 
### Created by X-TOOL on Mon Sep 10 21:12:59 2018
### 

@<TRIPOS>MOLECULE
3jzo_ligand
  204   208     1     0     0
SMALL
GAST_HUCK


@<TRIPOS>ATOM
      1 N          23.8630    9.1910    5.9250 N.4       1 LEU         0.2379
      2 CA         24.8040    9.1600    7.0850 C.3       1 LEU         0.0652
      3 C          23.9900    9.2290    8.3640 C.2       1 LEU         0.2268
      4 O          24.5060    9.0050    9.4490 O.2       1 LEU        -0.3907
      5 CB         25.7650   10.3570    7.0260 C.3       1 LEU         0.0102
      6 CG         26.7880   10.3380    5.8870 C.3       1 LEU        -0.0394
      7 CD1        27.5840   11.6460    5.8530 C.3       1 LEU        -0.0623
      8 CD2        27.7160    9.1530    6.0860 C.3       1 LEU        -0.0623
      9 N          22.7140    9.5590    8.2260 N.am      1 THR        -0.2586
     10 CA         21.8120    9.6340    9.3750 C.3       1 THR         0.1566
     11 C          20.7770    8.5130    9.2240 C.2       1 THR         0.2066
     12 O          20.5090    8.0570    8.1140 O.2       1 THR        -0.3943
     13 CB         21.0630   11.0040    9.4320 C.3       1 THR         0.0924
     14 OG1        20.1860   11.1370    8.3020 O.3       1 THR        -0.3874
     15 CG2        22.0720   12.1750    9.4100 C.3       1 THR        -0.0346
     16 N          20.2130    8.0560   10.3370 N.am      1 PHE        -0.2619
     17 CA         19.1830    7.0210   10.2600 C.3       1 PHE         0.1404
     18 C          18.0380    7.5410    9.3820 C.2       1 PHE         0.2060
     19 O          17.5750    6.8400    8.4980 O.2       1 PHE        -0.3942
     20 CB         18.6580    6.6810   11.6570 C.3       1 PHE         0.0214
     21 CG         17.4300    5.8060   11.6400 C.ar      1 PHE        -0.0386
     22 CD1        17.5290    4.4670   11.3170 C.ar      1 PHE        -0.0601
     23 CD2        16.1670    6.3610   11.8500 C.ar      1 PHE        -0.0601
     24 CE1        16.3860    3.6740   11.1860 C.ar      1 PHE        -0.0686
     25 CE2        15.0190    5.5870   11.7260 C.ar      1 PHE        -0.0686
     26 CZ         15.1330    4.2280   11.3850 C.ar      1 PHE        -0.0687
     27 N          17.5880    8.7740    9.6250 N.am      1 GLU        -0.2635
     28 CA         16.4740    9.3470    8.8520 C.3       1 GLU         0.1325
     29 C          16.7150    9.3190    7.3360 C.2       1 GLU         0.2041
     30 O          15.7980    9.0310    6.5610 O.2       1 GLU        -0.3944
     31 CB         16.1880   10.7950    9.2810 C.3       1 GLU        -0.0008
     32 CG         16.1470   11.0090   10.7850 C.3       1 GLU         0.0044
     33 CD         17.5160   11.3860   11.3640 C.2       1 GLU         0.0350
     34 OE1        17.8570   12.5950   11.3340 O.co2     1 GLU        -0.5690
     35 OE2        18.2450   10.4780   11.8280 O.co2     1 GLU        -0.5690
     36 N          17.9380    9.6410    6.9230 N.am      1 HIS        -0.2625
     37 CA         18.3080    9.6410    5.5040 C.3       1 HIS         0.1369
     38 C          18.0910    8.2590    4.8840 C.2       1 HIS         0.2055
     39 O          17.4780    8.1370    3.8290 O.2       1 HIS        -0.3942
     40 CB         19.7780   10.0430    5.3490 C.3       1 HIS         0.0145
     41 CG         20.3140    9.8360    3.9680 C.2       1 HIS        -0.0027
     42 ND1        20.0150   10.6780    2.9190 N.2       1 HIS        -0.3252
     43 CD2        21.0700    8.8360    3.4480 C.2       1 HIS         0.0291
     44 CE1        20.5630   10.2050    1.8110 C.2       1 HIS         0.0907
     45 NE2        21.2060    9.0870    2.1040 N.pl3     1 HIS        -0.2752
     46 N          18.6150    7.2260    5.5330 N.am      1 TYR        -0.2620
     47 CA         18.4600    5.8430    5.0570 C.3       1 TYR         0.1390
     48 C          17.0070    5.3810    5.1270 C.2       1 TYR         0.2058
     49 O          16.4910    4.7950    4.1740 O.2       1 TYR        -0.3942
     50 CB         19.3110    4.9090    5.9030 C.3       1 TYR         0.0163
     51 CG         20.7940    5.1670    5.7230 C.ar      1 TYR        -0.0493
     52 CD1        21.5960    5.5360    6.7960 C.ar      1 TYR        -0.0685
     53 CD2        21.3750    5.0690    4.4570 C.ar      1 TYR        -0.0685
     54 CE1        22.9580    5.8080    6.6130 C.ar      1 TYR        -0.0398
     55 CE2        22.7230    5.3370    4.2570 C.ar      1 TYR        -0.0398
     56 CZ         23.5040    5.7040    5.3310 C.ar      1 TYR         0.0805
     57 OH         24.8290    5.9620    5.1090 O.3       1 TYR        -0.3376
     58 N          16.3420    5.6740    6.2480 N.am      1 TRP        -0.2625
     59 CA         14.9620    5.2420    6.4320 C.3       1 TRP         0.1352
     60 C          13.9940    5.8160    5.3900 C.2       1 TRP         0.2052
     61 O          13.1140    5.1190    4.8840 O.2       1 TRP        -0.3942
     62 CB         14.4890    5.5690    7.8530 C.3       1 TRP         0.0042
     63 CG         13.1300    4.9830    8.1770 C.2       1 TRP        -0.0418
     64 CD1        11.9200    5.6100    8.1190 C.2       1 TRP         0.0167
     65 CD2        12.8640    3.6270    8.5650 C.ar      1 TRP        -0.0214
     66 NE1        10.9110    4.7270    8.4530 N.pl3     1 TRP        -0.2890
     67 CE2        11.4620    3.5020    8.7300 C.ar      1 TRP         0.0603
     68 CE3        13.6770    2.5060    8.7850 C.ar      1 TRP        -0.0747
     69 CZ2        10.8500    2.2970    9.1120 C.ar      1 TRP        -0.0443
     70 CZ3        13.0660    1.2950    9.1690 C.ar      1 TRP        -0.0792
     71 CH2        11.6660    1.2060    9.3270 C.ar      1 TRP        -0.0768
     72 N          14.1610    7.0870    5.0740 N.am      1 ALA        -0.2639
     73 CA         13.2990    7.7520    4.1140 C.3       1 ALA         0.1282
     74 C          13.3430    7.0640    2.7490 C.2       1 ALA         0.2036
     75 O          12.3730    7.1330    1.9920 O.2       1 ALA        -0.3944
     76 CB         13.7220    9.2210    3.9830 C.3       1 ALA        -0.0244
     77 N          14.4540    6.4010    2.4500 N.am      1 GLN        -0.2636
     78 CA         14.6260    5.7120    1.1710 C.3       1 GLN         0.1330
     79 C          13.6850    4.5420    0.9840 C.2       1 GLN         0.2040
     80 O          13.4220    4.1380   -0.1480 O.2       1 GLN        -0.3944
     81 CB         16.0560    5.1900    1.0210 C.3       1 GLN         0.0045
     82 CG         17.1260    6.2360    1.2390 C.3       1 GLN         0.0412
     83 CD         17.0360    7.3650    0.2320 C.2       1 GLN         0.1737
     84 OE1        16.0040    8.0350    0.1280 O.2       1 GLN        -0.3973
     85 NE2        18.1200    7.5850   -0.5170 N.am      1 GLN        -0.3009
     86 N          13.1710    3.9930    2.0810 N.am      1 LEU        -0.2637
     87 CA         12.2880    2.8510    1.9770 C.3       1 LEU         0.1312
     88 C          10.9110    3.1430    1.3860 C.2       1 LEU         0.2040
     89 O          10.2060    2.2200    1.0010 O.2       1 LEU        -0.3944
     90 CB         12.1440    2.1750    3.3340 C.3       1 LEU        -0.0101
     91 CG         13.4780    1.7350    3.9610 C.3       1 LEU        -0.0425
     92 CD1        13.1570    1.0390    5.2880 C.3       1 LEU        -0.0625
     93 CD2        14.2550    0.7970    3.0350 C.3       1 LEU        -0.0625
     94 N          10.5360    4.4080    1.3210 N.am      1 THR        -0.2613
     95 CA          9.2450    4.7780    0.7390 C.3       1 THR         0.1564
     96 C           9.4550    5.8430   -0.3240 C.2       1 THR         0.2060
     97 O          10.3920    6.6370   -0.2380 O.2       1 THR        -0.3943
     98 CB          8.2880    5.3400    1.7990 C.3       1 THR         0.0924
     99 OG1         8.9470    6.3940    2.5190 O.3       1 THR        -0.3874
    100 CG2         7.8800    4.2430    2.7660 C.3       1 THR        -0.0346
    101 N           8.5810    5.8460   -1.3280 N.am      1 SER        -0.2672
    102 CA          8.6530    6.8210   -2.4050 C.3       1 SER         0.1173
    103 C           8.0240    8.1290   -1.9450 C.2       1 SER         0.0623
    104 O           7.2550    8.1070   -0.9490 O.co2     1 SER        -0.5665
    105 CB          7.9020    6.3060   -3.6320 C.3       1 SER         0.0789
    106 OG          6.5100    6.2580   -3.3630 O.3       1 SER        -0.3910
    107 OXT         8.2770    9.1630   -2.6040 O.co2     1 SER        -0.5665
    108 H1         24.3877    9.1459    5.0655 H         1 LEU         0.2015
    109 H2         23.3290   10.0456    5.9482 H         1 LEU         0.2015
    110 H3         23.2375    8.4024    5.9786 H         1 LEU         0.2015
    111 H4         25.3841    8.2256    7.0637 H         1 LEU         0.1098
    112 H5         26.3188   10.3917    7.9758 H         1 LEU         0.0348
    113 H6         25.1603   11.2698    6.9206 H         1 LEU         0.0348
    114 H7         26.2581   10.2229    4.9300 H         1 LEU         0.0299
    115 H8         28.3117   11.6110    5.0289 H         1 LEU         0.0232
    116 H9         28.1162   11.7763    6.8068 H         1 LEU         0.0232
    117 H10        26.8958   12.4902    5.6988 H         1 LEU         0.0232
    118 H11        27.1260    8.2249    6.1076 H         1 LEU         0.0232
    119 H12        28.2564    9.2661    7.0374 H         1 LEU         0.0232
    120 H13        28.4379    9.1094    5.2572 H         1 LEU         0.0232
    121 H14        22.3589    9.7618    7.3134 H         1 THR         0.1885
    122 H15        22.3866    9.4956   10.3027 H         1 THR         0.0826
    123 H16        20.4728   11.0503   10.3591 H         1 THR         0.0639
    124 H17        19.7369   11.9728    8.3478 H         1 THR         0.2101
    125 H18        21.5268   13.1295    9.4507 H         1 THR         0.0257
    126 H19        22.6651   12.1307    8.4846 H         1 THR         0.0257
    127 H20        22.7420   12.0981   10.2790 H         1 THR         0.0257
    128 H21        20.4925    8.4193   11.2258 H         1 PHE         0.1885
    129 H22        19.6102    6.1144    9.8066 H         1 PHE         0.0823
    130 H23        18.4098    7.6197   12.1740 H         1 PHE         0.0474
    131 H24        19.4517    6.1568   12.2095 H         1 PHE         0.0474
    132 H25        18.5068    4.0251   11.1630 H         1 PHE         0.0557
    133 H26        16.0800    7.4090   12.1132 H         1 PHE         0.0557
    134 H27        16.4804    2.6252   10.9286 H         1 PHE         0.0599
    135 H28        14.0427    6.0283   11.8911 H         1 PHE         0.0599
    136 H29        14.2441    3.6168   11.2784 H         1 PHE         0.0559
    137 H30        18.0159    9.3189   10.3461 H         1 GLU         0.1883
    138 H31        15.5803    8.7415    9.0634 H         1 GLU         0.0801
    139 H32        15.2136   11.0908    8.8650 H         1 GLU         0.0330
    140 H33        16.9758   11.4393    8.8635 H         1 GLU         0.0330
    141 H34        15.8057   10.0795   11.2641 H         1 GLU         0.0433
    142 H35        15.4357   11.8183   11.0066 H         1 GLU         0.0433
    143 H36        18.6276    9.8913    7.6026 H         1 HIS         0.1885
    144 H37        17.6784   10.3711    4.9743 H         1 HIS         0.0817
    145 H38        20.3782    9.4425    6.0484 H         1 HIS         0.0420
    146 H39        19.8756   11.1087    5.6035 H         1 HIS         0.0420
    147 H40        21.4902    7.9925    3.9938 H         1 HIS         0.0729
    148 H41        20.4958   10.6600    0.8239 H         1 HIS         0.1199
    149 H42        21.7240    8.5004    1.4342 H         1 HIS         0.2361
    150 H43        19.1317    7.3937    6.3726 H         1 TYR         0.1885
    151 H44        18.7980    5.7921    4.0115 H         1 TYR         0.0821
    152 H45        19.0940    3.8706    5.6121 H         1 TYR         0.0453
    153 H46        19.0518    5.0549    6.9620 H         1 TYR         0.0453
    154 H47        21.1626    5.6143    7.7865 H         1 TYR         0.0530
    155 H48        20.7610    4.7776    3.6125 H         1 TYR         0.0530
    156 H49        23.5793    6.0950    7.4537 H         1 TYR         0.0525
    157 H50        23.1560    5.2583    3.2664 H         1 TYR         0.0525
    158 H51        25.2454    6.2017    5.9285 H         1 TYR         0.2458
    159 H52        16.7965    6.1961    6.9697 H         1 TRP         0.1884
    160 H53        14.9467    4.1481    6.3178 H         1 TRP         0.0815
    161 H54        14.4333    6.6623    7.9605 H         1 TRP         0.0397
    162 H55        15.2227    5.1672    8.5673 H         1 TRP         0.0397
    163 H56        11.7709    6.6544    7.8488 H         1 TRP         0.0795
    164 H57         9.9066    4.9525    8.4883 H         1 TRP         0.2216
    165 H58        14.7522    2.5692    8.6624 H         1 TRP         0.0540
    166 H59         9.7751    2.2269    9.2335 H         1 TRP         0.0541
    167 H60        13.6801    0.4194    9.3455 H         1 TRP         0.0510
    168 H61        11.2236    0.2617    9.6231 H         1 TRP         0.0530
    169 H62        14.8995    7.6042    5.5067 H         1 ALA         0.1883
    170 H63        12.2651    7.7135    4.4876 H         1 ALA         0.0797
    171 H64        13.0699    9.7269    3.2558 H         1 ALA         0.0277
    172 H65        14.7652    9.2728    3.6381 H         1 ALA         0.0277
    173 H66        13.6341    9.7165    4.9611 H         1 ALA         0.0277
    174 H67        15.1960    6.3718    3.1198 H         1 GLN         0.1883
    175 H68        14.4305    6.4415    0.3712 H         1 GLN         0.0801
    176 H69        16.1707    4.7866    0.0041 H         1 GLN         0.0337
    177 H70        16.2074    4.3843    1.7544 H         1 GLN         0.0337
    178 H71        18.1125    5.7580    1.1481 H         1 GLN         0.0504
    179 H72        17.0126    6.6535    2.2503 H         1 GLN         0.0504
    180 H73        18.1170    8.3173   -1.1980 H         1 GLN         0.1814
    181 H74        18.9345    7.0174   -0.3967 H         1 GLN         0.1814
    182 H75        13.3951    4.3701    2.9796 H         1 LEU         0.1883
    183 H76        12.7765    2.1361    1.2985 H         1 LEU         0.0800
    184 H77        11.5099    1.2847    3.2109 H         1 LEU         0.0315
    185 H78        11.6554    2.8810    4.0216 H         1 LEU         0.0315
    186 H79        14.0955    2.6242    4.1559 H         1 LEU         0.0298
    187 H80        14.0920    0.7102    5.7651 H         1 LEU         0.0232
    188 H81        12.5154    0.1659    5.0983 H         1 LEU         0.0232
    189 H82        12.6333    1.7413    5.9531 H         1 LEU         0.0232
    190 H83        14.4752    1.3146    2.0897 H         1 LEU         0.0232
    191 H84        13.6511   -0.0993    2.8302 H         1 LEU         0.0232
    192 H85        15.1974    0.5014    3.5193 H         1 LEU         0.0232
    193 H86        11.1415    5.1214    1.6737 H         1 THR         0.1884
    194 H87         8.7922    3.8859    0.2817 H         1 THR         0.0826
    195 H88         7.3907    5.7400    1.3042 H         1 THR         0.0639
    196 H89         9.1936    7.0834    1.9137 H         1 THR         0.2101
    197 H90         7.1948    4.6559    3.5209 H         1 THR         0.0257
    198 H91         8.7750    3.8414    3.2638 H         1 THR         0.0257
    199 H92         7.3746    3.4369    2.2140 H         1 THR         0.0257
    200 H93         7.8547    5.1588   -1.3422 H         1 SER         0.1876
    201 H94         9.7067    6.9936   -2.6692 H         1 SER         0.0749
    202 H95         8.2600    5.2962   -3.8811 H         1 SER         0.0599
    203 H96         8.0859    6.9802   -4.4814 H         1 SER         0.0599
    204 H97         6.0512    5.9370   -4.1304 H         1 SER         0.2096
@<TRIPOS>BOND
     1    1    2 1  
     2    2    3 1  
     3    2    5 1  
     4    3    4 2  
     5    3    9 am 
     6    5    6 1  
     7    6    7 1  
     8    6    8 1  
     9    9   10 1  
    10   10   11 1  
    11   10   13 1  
    12   11   12 2  
    13   11   16 am 
    14   13   14 1  
    15   13   15 1  
    16   16   17 1  
    17   17   18 1  
    18   17   20 1  
    19   18   19 2  
    20   18   27 am 
    21   20   21 1  
    22   21   22 ar 
    23   21   23 ar 
    24   22   24 ar 
    25   23   25 ar 
    26   24   26 ar 
    27   25   26 ar 
    28   27   28 1  
    29   28   29 1  
    30   28   31 1  
    31   29   30 2  
    32   29   36 am 
    33   31   32 1  
    34   32   33 1  
    35   33   34 ar 
    36   33   35 ar 
    37   36   37 1  
    38   37   38 1  
    39   37   40 1  
    40   38   39 2  
    41   38   46 am 
    42   40   41 1  
    43   41   42 1  
    44   41   43 2  
    45   42   44 2  
    46   43   45 1  
    47   44   45 1  
    48   46   47 1  
    49   47   48 1  
    50   47   50 1  
    51   48   49 2  
    52   48   58 am 
    53   50   51 1  
    54   51   52 ar 
    55   51   53 ar 
    56   52   54 ar 
    57   53   55 ar 
    58   54   56 ar 
    59   55   56 ar 
    60   56   57 1  
    61   58   59 1  
    62   59   60 1  
    63   59   62 1  
    64   60   61 2  
    65   60   72 am 
    66   62   63 1  
    67   63   64 2  
    68   63   65 1  
    69   64   66 1  
    70   65   67 ar 
    71   65   68 ar 
    72   66   67 1  
    73   67   69 ar 
    74   68   70 ar 
    75   69   71 ar 
    76   70   71 ar 
    77   72   73 1  
    78   73   74 1  
    79   73   76 1  
    80   74   75 2  
    81   74   77 am 
    82   77   78 1  
    83   78   79 1  
    84   78   81 1  
    85   79   80 2  
    86   79   86 am 
    87   81   82 1  
    88   82   83 1  
    89   83   84 2  
    90   83   85 am 
    91   86   87 1  
    92   87   88 1  
    93   87   90 1  
    94   88   89 2  
    95   88   94 am 
    96   90   91 1  
    97   91   92 1  
    98   91   93 1  
    99   94   95 1  
   100   95   96 1  
   101   95   98 1  
   102   96   97 2  
   103   96  101 am 
   104   98   99 1  
   105   98  100 1  
   106  101  102 1  
   107  102  103 1  
   108  102  105 1  
   109  103  104 ar 
   110  103  107 ar 
   111  105  106 1  
   112    1  108 1  
   113    1  109 1  
   114    1  110 1  
   115    2  111 1  
   116    5  112 1  
   117    5  113 1  
   118    6  114 1  
   119    7  115 1  
   120    7  116 1  
   121    7  117 1  
   122    8  118 1  
   123    8  119 1  
   124    8  120 1  
   125    9  121 1  
   126   10  122 1  
   127   13  123 1  
   128   14  124 1  
   129   15  125 1  
   130   15  126 1  
   131   15  127 1  
   132   16  128 1  
   133   17  129 1  
   134   20  130 1  
   135   20  131 1  
   136   22  132 1  
   137   23  133 1  
   138   24  134 1  
   139   25  135 1  
   140   26  136 1  
   141   27  137 1  
   142   28  138 1  
   143   31  139 1  
   144   31  140 1  
   145   32  141 1  
   146   32  142 1  
   147   36  143 1  
   148   37  144 1  
   149   40  145 1  
   150   40  146 1  
   151   43  147 1  
   152   44  148 1  
   153   45  149 1  
   154   46  150 1  
   155   47  151 1  
   156   50  152 1  
   157   50  153 1  
   158   52  154 1  
   159   53  155 1  
   160   54  156 1  
   161   55  157 1  
   162   57  158 1  
   163   58  159 1  
   164   59  160 1  
   165   62  161 1  
   166   62  162 1  
   167   64  163 1  
   168   66  164 1  
   169   68  165 1  
   170   69  166 1  
   171   70  167 1  
   172   71  168 1  
   173   72  169 1  
   174   73  170 1  
   175   76  171 1  
   176   76  172 1  
   177   76  173 1  
   178   77  174 1  
   179   78  175 1  
   180   81  176 1  
   181   81  177 1  
   182   82  178 1  
   183   82  179 1  
   184   85  180 1  
   185   85  181 1  
   186   86  182 1  
   187   87  183 1  
   188   90  184 1  
   189   90  185 1  
   190   91  186 1  
   191   92  187 1  
   192   92  188 1  
   193   92  189 1  
   194   93  190 1  
   195   93  191 1  
   196   93  192 1  
   197   94  193 1  
   198   95  194 1  
   199   98  195 1  
   200   99  196 1  
   201  100  197 1  
   202  100  198 1  
   203  100  199 1  
   204  101  200 1  
   205  102  201 1  
   206  105  202 1  
   207  105  203 1  
   208  106  204 1  
@<TRIPOS>SUBSTRUCTURE
     1 LEU         1

