3zj6_ligand
  -I-interpret- 

 44 45  0  0  0  0  0  0  0  0999 V2000
   19.3040   20.6390   37.7200 C   0  0  0  0  0
   18.2550   19.9370   38.6140 C   0  0  0  0  0
   17.8550   20.5750   39.9520 C   0  0  0  0  0
   18.6310   21.8480   40.3540 C   0  0  0  0  0
   18.6400   22.7640   39.1400 C   0  0  0  0  0
   19.4890   22.1560   37.9950 C   0  0  0  0  0
   18.2080   17.2850   34.0690 C   0  0  0  0  0
   17.3430   17.4280   32.8080 C   0  0  0  0  0
   16.8100   18.8380   32.9350 C   0  0  0  0  0
   18.1090   19.5830   33.2700 C   0  0  0  0  0
   17.8980   21.0840   33.6120 C   0  0  0  0  0
   19.2280   16.3150   33.8550 O   0  0  0  0  0
   16.2800   16.4700   32.7050 O   0  0  0  0  0
   16.0930   19.3330   31.7920 O   0  0  0  0  0
   16.8230   21.2260   34.5760 O   0  0  0  0  0
   18.7760   18.6840   34.3470 C   0  0  0  0  0
   18.5900   19.0920   35.7650 N   0  3  0  0  0
   18.9730   20.4460   36.2310 C   0  0  0  0  0
   20.2458   20.1555   37.9795 H   0  0  0  0  0
   18.7147   18.9870   38.8866 H   0  0  0  0  0
   17.3401   19.9394   38.0215 H   0  0  0  0  0
   18.0668   19.8319   40.7208 H   0  0  0  0  0
   16.8114   20.8724   39.8493 H   0  0  0  0  0
   19.6480   21.6003   40.6582 H   0  0  0  0  0
   18.1554   22.3378   41.2037 H   0  0  0  0  0
   19.0733   23.7221   39.4270 H   0  0  0  0  0
   17.6160   22.8900   38.7883 H   0  0  0  0  0
   19.1752   22.6667   37.0846 H   0  0  0  0  0
   20.5298   22.2825   38.2931 H   0  0  0  0  0
   17.6385   16.9333   34.9293 H   0  0  0  0  0
   17.9195   17.2418   31.9018 H   0  0  0  0  0
   16.0219   18.9530   33.6791 H   0  0  0  0  0
   18.7835   19.7028   32.4221 H   0  0  0  0  0
   17.6387   21.6263   32.7027 H   0  0  0  0  0
   18.8169   21.4879   34.0370 H   0  0  0  0  0
   19.7622   16.2336   34.6485 H   0  0  0  0  0
   15.7887   16.6247   31.8949 H   0  0  0  0  0
   15.7957   20.2291   31.9656 H   0  0  0  0  0
   16.6996   22.1556   34.7814 H   0  0  0  0  0
   19.8599   18.7522   34.2543 H   0  0  0  0  0
   19.2097   18.4693   36.2833 H   0  0  0  0  0
   17.5792   19.0628   35.8986 H   0  0  0  0  0
   19.8953   20.6813   35.6999 H   0  0  0  0  0
   18.0977   21.0696   36.0492 H   0  0  0  0  0
  1  2  1  0  0  0
  1  6  1  0  0  0
 18  1  1  0  0  0
  2  3  1  0  0  0
  3  4  1  0  0  0
  5  4  1  0  0  0
  6  5  1  0  0  0
  7  8  1  0  0  0
  7 12  1  0  0  0
 16  7  1  0  0  0
  9  8  1  0  0  0
  8 13  1  0  0  0
 10  9  1  0  0  0
  9 14  1  0  0  0
 10 11  1  0  0  0
 16 10  1  0  0  0
 11 15  1  0  0  0
 17 16  1  0  0  0
 17 18  1  0  0  0
  1 19  1  0  0  0
  2 20  1  0  0  0
  2 21  1  0  0  0
  3 22  1  0  0  0
  3 23  1  0  0  0
  4 24  1  0  0  0
  4 25  1  0  0  0
  5 26  1  0  0  0
  5 27  1  0  0  0
  6 28  1  0  0  0
  6 29  1  0  0  0
  7 30  1  0  0  0
  8 31  1  0  0  0
  9 32  1  0  0  0
 10 33  1  0  0  0
 11 34  1  0  0  0
 11 35  1  0  0  0
 12 36  1  0  0  0
 13 37  1  0  0  0
 14 38  1  0  0  0
 15 39  1  0  0  0
 16 40  1  0  0  0
 17 41  1  0  0  0
 17 42  1  0  0  0
 18 43  1  0  0  0
 18 44  1  0  0  0
M  END
$$$$
