1o2o_ligand
  -I-interpret- 

 43 45  0  0  0  0  0  0  0  0999 V2000
   44.1880   -3.1020   25.5850 C   0  0  0  0  0
   44.2010   -1.6810   25.5630 C   0  0  0  0  0
   44.3260   -0.9350   24.3750 F   0  0  0  0  0
   44.0590   -0.9570   26.7430 C   0  0  0  0  0
   43.9020   -1.6370   27.9170 C   0  0  0  0  0
   43.8810   -2.9730   27.9820 C   0  0  0  0  0
   44.0200   -3.7470   26.8380 C   0  0  0  0  0
   44.3400   -3.8520   24.3870 C   0  0  0  0  0
   43.9510   -5.1060   24.2820 N   0  0  0  0  0
   44.9060   -3.2740   23.3690 N   0  0  0  0  0
   43.7590   -1.2260   29.1230 N   0  0  0  0  0
   43.7230   -3.4170   29.2050 N   0  0  0  0  0
   43.6540   -2.2770   29.8770 C   0  0  0  0  0
   43.4530   -2.1950   31.2690 C   0  0  0  0  0
   43.2800   -3.3680   32.0060 C   0  0  0  0  0
   43.0790   -3.3070   33.3850 C   0  0  0  0  0
   43.0500   -2.0990   34.0420 C   0  0  0  0  0
   43.2200   -0.9150   33.3430 C   0  0  0  0  0
   43.4180   -0.9570   31.9570 C   0  0  0  0  0
   43.5460    0.2410   31.2890 O   0  0  0  0  0
   43.2380    0.2990   34.0160 O   0  0  0  0  0
   43.3240    0.4700   35.4480 C   0  0  0  0  0
   43.7530    1.9590   35.8950 C   0  0  0  0  0
   44.7920    1.8840   37.0500 C   0  0  0  0  0
   44.3990    2.7440   34.7730 C   0  0  0  0  0
   44.0728    0.1328   26.7305 H   0  0  0  0  0
   44.0004   -4.8350   26.9012 H   0  0  0  0  0
   44.0949   -5.6132   23.4088 H   0  0  0  0  0
   43.5059   -5.5699   25.0739 H   0  0  0  0  0
   45.0446   -3.7913   22.5009 H   0  0  0  0  0
   43.3021   -4.3344   31.5023 H   0  0  0  0  0
   42.9430   -4.2294   33.9497 H   0  0  0  0  0
   42.8922   -2.0730   35.1202 H   0  0  0  0  0
   43.4979    0.9640   31.9188 H   0  0  0  0  0
   44.0893   -0.2146   35.8138 H   0  0  0  0  0
   42.3337    0.2772   35.8605 H   0  0  0  0  0
   42.8349    2.4609   36.2004 H   0  0  0  0  0
   44.3507    1.3648   37.9008 H   0  0  0  0  0
   45.6738    1.3414   36.7091 H   0  0  0  0  0
   45.0771    2.8934   37.3467 H   0  0  0  0  0
   45.2965    2.2243   34.4376 H   0  0  0  0  0
   43.6978    2.8333   33.9432 H   0  0  0  0  0
   44.6661    3.7375   35.1333 H   0  0  0  0  0
  1  2  4  0  0  0
  1  7  4  0  0  0
  1  8  1  0  0  0
  2  3  1  0  0  0
  2  4  4  0  0  0
  4  5  4  0  0  0
  5  6  4  0  0  0
  5 11  4  0  0  0
  6  7  4  0  0  0
  6 12  4  0  0  0
  8  9  1  0  0  0
  8 10  2  0  0  0
 11 13  4  0  0  0
 12 13  4  0  0  0
 13 14  1  0  0  0
 14 15  4  0  0  0
 14 19  4  0  0  0
 15 16  4  0  0  0
 16 17  4  0  0  0
 17 18  4  0  0  0
 18 19  4  0  0  0
 18 21  1  0  0  0
 19 20  1  0  0  0
 21 22  1  0  0  0
 22 23  1  0  0  0
 23 24  1  0  0  0
 23 25  1  0  0  0
  4 26  1  0  0  0
  7 27  1  0  0  0
  9 28  1  0  0  0
  9 29  1  0  0  0
 10 30  1  0  0  0
 15 31  1  0  0  0
 16 32  1  0  0  0
 17 33  1  0  0  0
 20 34  1  0  0  0
 22 35  1  0  0  0
 22 36  1  0  0  0
 23 37  1  0  0  0
 24 38  1  0  0  0
 24 39  1  0  0  0
 24 40  1  0  0  0
 25 41  1  0  0  0
 25 42  1  0  0  0
 25 43  1  0  0  0
M  END
$$$$
