5sz9_ligand
  -I-interpret- 

 46 48  0  0  0  0  0  0  0  0999 V2000
  -24.2210  -33.4870  -13.4740 C   0  0  0  0  0
  -23.7790  -33.9300  -12.2000 C   0  0  0  0  0
  -24.6100  -34.8410  -11.3720 C   0  0  0  0  0
  -24.6410  -36.9040  -13.9730 C   0  0  0  0  0
  -26.6590  -37.7120  -11.4460 C   0  0  0  0  0
  -22.5290  -33.4700  -11.7100 C   0  0  0  0  0
  -20.8220  -34.6620  -10.3390 C   0  0  0  0  0
  -19.8770  -36.6720   -7.3930 C   0  0  0  0  0
  -20.6540  -35.7290   -6.8390 C   0  0  0  0  0
  -21.3070  -31.2940  -14.4550 C   0  0  0  0  0
  -22.1950  -32.2240  -13.6720 C   0  0  0  0  0
  -23.4110  -32.6320  -14.2160 C   0  0  0  0  0
  -25.2650  -34.3110  -10.4880 O   0  0  0  0  0
  -24.6520  -36.2060  -11.5450 N   0  0  0  0  0
  -23.8710  -36.8750  -12.6240 C   0  0  0  0  0
  -25.9570  -37.6520  -13.8990 C   0  0  0  0  0
  -26.8530  -37.1130  -12.7820 C   0  0  0  0  0
  -25.5070  -37.0150  -10.6780 C   0  0  0  0  0
  -22.0630  -33.8770  -10.4540 N   0  0  0  0  0
  -20.5960  -35.3060   -8.9900 C   0  0  0  0  0
  -19.8380  -36.3940   -8.7730 C   0  0  0  0  0
  -21.0840  -34.9040   -7.8080 O   0  0  0  0  0
  -21.7990  -32.6400  -12.4720 N   0  0  0  0  0
  -25.1841  -33.8127  -13.8670 H   0  0  0  0  0
  -24.0115  -37.4177  -14.6996 H   0  0  0  0  0
  -24.8642  -35.8726  -14.2461 H   0  0  0  0  0
  -26.4054  -38.7647  -11.5713 H   0  0  0  0  0
  -27.5795  -37.5915  -10.8748 H   0  0  0  0  0
  -19.9956  -33.9696  -10.4995 H   0  0  0  0  0
  -20.8929  -35.4710  -11.0660 H   0  0  0  0  0
  -19.3754  -37.4909   -6.8773 H   0  0  0  0  0
  -20.8960  -35.6461   -5.7794 H   0  0  0  0  0
  -21.0348  -31.7636  -15.4002 H   0  0  0  0  0
  -21.8400  -30.3635  -14.6504 H   0  0  0  0  0
  -20.4056  -31.0839  -13.8793 H   0  0  0  0  0
  -23.7218  -32.2886  -15.2027 H   0  0  0  0  0
  -22.9479  -36.3146  -12.7721 H   0  0  0  0  0
  -23.6828  -37.9042  -12.3185 H   0  0  0  0  0
  -25.7444  -38.7009  -13.6924 H   0  0  0  0  0
  -26.4778  -37.5250  -14.8481 H   0  0  0  0  0
  -26.6102  -36.0553  -12.6801 H   0  0  0  0  0
  -27.8772  -37.3447  -13.0742 H   0  0  0  0  0
  -24.8871  -37.7922  -10.2311 H   0  0  0  0  0
  -25.9543  -36.3508   -9.9385 H   0  0  0  0  0
  -22.5857  -33.6286   -9.6141 H   0  0  0  0  0
  -19.2918  -36.9591   -9.5283 H   0  0  0  0  0
  2  1  4  0  0  0
  1 12  4  0  0  0
  2  3  1  0  0  0
  6  2  4  0  0  0
  3 13  2  0  0  0
  3 14  1  0  0  0
 15  4  1  0  0  0
  4 16  1  0  0  0
  5 17  1  0  0  0
 18  5  1  0  0  0
 19  6  1  0  0  0
  6 23  4  0  0  0
  7 19  1  0  0  0
 20  7  1  0  0  0
  8  9  4  0  0  0
 21  8  4  0  0  0
  9 22  4  0  0  0
 11 10  1  0  0  0
 11 12  4  0  0  0
 23 11  4  0  0  0
 14 15  1  0  0  0
 14 18  1  0  0  0
 17 16  1  0  0  0
 20 21  4  0  0  0
 20 22  4  0  0  0
  1 24  1  0  0  0
  4 25  1  0  0  0
  4 26  1  0  0  0
  5 27  1  0  0  0
  5 28  1  0  0  0
  7 29  1  0  0  0
  7 30  1  0  0  0
  8 31  1  0  0  0
  9 32  1  0  0  0
 10 33  1  0  0  0
 10 34  1  0  0  0
 10 35  1  0  0  0
 12 36  1  0  0  0
 15 37  1  0  0  0
 15 38  1  0  0  0
 16 39  1  0  0  0
 16 40  1  0  0  0
 17 41  1  0  0  0
 17 42  1  0  0  0
 18 43  1  0  0  0
 18 44  1  0  0  0
 19 45  1  0  0  0
 21 46  1  0  0  0
M  END
$$$$
