1awi_ligand
  -I-interpret- 

144153  0  0  0  0  0  0  0  0999 V2000
   30.3990   78.5970   38.4640 N   0  3  0  0  0
   31.3660   77.5690   38.0550 C   0  0  0  0  0
   31.0050   76.1880   38.6270 C   0  0  0  0  0
   31.6040   75.7300   39.6050 O   0  0  0  0  0
   32.6820   78.1050   38.6220 C   0  0  0  0  0
   32.2420   78.8430   39.8560 C   0  0  0  0  0
   31.0130   79.5740   39.3810 C   0  0  0  0  0
   30.0490   75.4870   37.9850 N   0  0  0  0  0
   29.6000   74.1620   38.4270 C   0  0  0  0  0
   30.6790   73.0940   38.3910 C   0  0  0  0  0
   31.7560   73.3020   37.8330 O   0  0  0  0  0
   28.4570   73.8510   37.4610 C   0  0  0  0  0
   28.8910   74.5370   36.2080 C   0  0  0  0  0
   29.4010   75.8620   36.7140 C   0  0  0  0  0
   30.4340   71.9640   39.0700 N   0  0  0  0  0
   31.3880   70.8540   39.1140 C   0  0  0  0  0
   31.2980   70.1170   37.7900 C   0  0  0  0  0
   30.2820   70.1940   37.1000 O   0  0  0  0  0
   30.8470   69.9720   40.2440 C   0  0  0  0  0
   29.9280   70.8850   41.0250 C   0  0  0  0  0
   29.2850   71.6920   39.9450 C   0  0  0  0  0
   32.3530   69.3860   37.4200 N   0  0  0  0  0
   32.3250   68.6510   36.1580 C   0  0  0  0  0
   31.1920   67.6230   36.1410 C   0  0  0  0  0
   30.9370   66.9400   37.1370 O   0  0  0  0  0
   33.7000   67.9960   36.1230 C   0  0  0  0  0
   34.0230   67.8050   37.5700 C   0  0  0  0  0
   33.5990   69.1210   38.1520 C   0  0  0  0  0
   30.4340   67.5840   35.0400 N   0  0  0  0  0
   29.3120   66.6700   34.8470 C   0  0  0  0  0
   29.7410   65.2430   34.5380 C   0  0  0  0  0
   30.9170   64.9740   34.2780 O   0  0  0  0  0
   28.5840   67.2890   33.6590 C   0  0  0  0  0
   28.9210   68.7200   33.7710 C   0  0  0  0  0
   30.3860   68.6480   34.0320 C   0  0  0  0  0
   28.7930   64.2960   34.6160 N   0  0  0  0  0
   29.1310   62.9030   34.3240 C   0  0  0  0  0
   29.5600   62.8190   32.8650 C   0  0  0  0  0
   29.2770   63.7180   32.0770 O   0  0  0  0  0
   27.8080   62.1790   34.5560 C   0  0  0  0  0
   27.1430   63.0140   35.6190 C   0  0  0  0  0
   27.4140   64.4080   35.1300 C   0  0  0  0  0
   30.2770   61.7590   32.4870 N   0  0  0  0  0
   30.6830   61.6810   31.0850 C   0  0  0  0  0
   29.4440   61.3440   30.2580 C   0  0  0  0  0
   28.3410   61.2600   30.8030 O   0  0  0  0  0
   31.6980   60.5440   31.1020 C   0  0  0  0  0
   31.1550   59.6350   32.1700 C   0  0  0  0  0
   30.7580   60.5940   33.2550 C   0  0  0  0  0
   29.5710   61.2980   28.9250 N   0  0  0  0  0
   28.3560   60.9580   28.1830 C   0  0  0  0  0
   28.1330   59.4650   28.3500 C   0  0  0  0  0
   29.0510   58.7390   28.7410 O   0  0  0  0  0
   28.7270   61.3070   26.7420 C   0  0  0  0  0
   29.7110   62.4090   26.9140 C   0  0  0  0  0
   30.5790   61.8670   28.0230 C   0  0  0  0  0
   26.8880   59.0040   28.1620 N   0  0  0  0  0
   26.5670   57.5800   28.2960 C   0  0  0  0  0
   27.5360   56.6870   27.4950 C   0  0  0  0  0
   28.1300   57.1390   26.5130 O   0  0  0  0  0
   25.1290   57.5350   27.7980 C   0  0  0  0  0
   24.5690   58.8200   28.3620 C   0  0  0  0  0
   25.6580   59.8020   27.9840 C   0  0  0  0  0
   27.6390   55.3960   27.8650 N   0  0  0  0  0
   28.4810   54.3500   27.2930 C   0  0  0  0  0
   29.7710   54.7780   26.5890 C   0  0  0  0  0
   30.1370   54.1470   25.5770 O   0  0  0  0  0
   27.4990   53.6080   26.3960 C   0  0  0  0  0
   26.1920   53.6750   27.2180 C   0  0  0  0  0
   26.4050   54.7490   28.3120 C   0  0  0  0  0
   30.4670   55.6620   27.1370 O   0  0  0  0  0
   29.6244   78.1410   38.9461 H   0  0  0  0  0
   30.0775   79.0904   37.6312 H   0  0  0  0  0
   31.4005   77.4087   36.9774 H   0  0  0  0  0
   33.2178   78.7412   37.9175 H   0  0  0  0  0
   33.4027   77.3157   38.8359 H   0  0  0  0  0
   33.0089   79.5099   40.2499 H   0  0  0  0  0
   32.0452   78.1823   40.7003 H   0  0  0  0  0
   31.2397   80.5267   38.9024 H   0  0  0  0  0
   30.3514   79.8726   40.1941 H   0  0  0  0  0
   29.3053   74.1660   39.4764 H   0  0  0  0  0
   27.4887   74.1975   37.8221 H   0  0  0  0  0
   28.2934   72.7819   37.3258 H   0  0  0  0  0
   28.0863   74.6414   35.4803 H   0  0  0  0  0
   29.6438   73.9752   35.6550 H   0  0  0  0  0
   28.6131   76.6049   36.8380 H   0  0  0  0  0
   30.0789   76.3544   36.0168 H   0  0  0  0  0
   32.4248   71.1494   39.2746 H   0  0  0  0  0
   31.6454   69.5655   40.8648 H   0  0  0  0  0
   30.3259   69.0931   39.8643 H   0  0  0  0  0
   30.4535   71.4947   41.7599 H   0  0  0  0  0
   29.2095   70.3443   41.6410 H   0  0  0  0  0
   28.7856   72.5909   40.3064 H   0  0  0  0  0
   28.4630   71.1803   39.4444 H   0  0  0  0  0
   32.1350   69.2789   35.2876 H   0  0  0  0  0
   34.4417   68.6019   35.6026 H   0  0  0  0  0
   33.7066   67.0607   35.5633 H   0  0  0  0  0
   35.0704   67.5657   37.7537 H   0  0  0  0  0
   33.5192   66.9488   38.0185 H   0  0  0  0  0
   34.3454   69.9069   38.0361 H   0  0  0  0  0
   33.4689   69.0947   39.2339 H   0  0  0  0  0
   28.7054   66.5701   35.7471 H   0  0  0  0  0
   27.5098   67.1055   33.6801 H   0  0  0  0  0
   28.8886   66.8571   32.7057 H   0  0  0  0  0
   28.3608   69.2456   34.5443 H   0  0  0  0  0
   28.6585   69.3050   32.8895 H   0  0  0  0  0
   30.8238   69.5902   34.3616 H   0  0  0  0  0
   30.9844   68.4440   33.1441 H   0  0  0  0  0
   29.9391   62.4847   34.9241 H   0  0  0  0  0
   27.9434   61.1408   34.8592 H   0  0  0  0  0
   27.2087   62.0958   33.6494 H   0  0  0  0  0
   27.5262   62.8244   36.6216 H   0  0  0  0  0
   26.0819   62.7961   35.7404 H   0  0  0  0  0
   27.3051   65.1647   35.9070 H   0  0  0  0  0
   26.7011   64.7457   34.3778 H   0  0  0  0  0
   31.1045   62.5909   30.6577 H   0  0  0  0  0
   32.7136   60.8826   31.3067 H   0  0  0  0  0
   31.8018   60.0511   30.1354 H   0  0  0  0  0
   31.8806   58.8936   32.5045 H   0  0  0  0  0
   30.3240   59.0214   31.8219 H   0  0  0  0  0
   31.5764   60.8363   33.9329 H   0  0  0  0  0
   30.0066   60.1875   33.9319 H   0  0  0  0  0
   27.4483   61.4700   28.5025 H   0  0  0  0  0
   27.8658   61.5968   26.1400 H   0  0  0  0  0
   29.1317   60.4585   26.1903 H   0  0  0  0  0
   29.2532   63.3701   27.1483 H   0  0  0  0  0
   30.2629   62.6470   26.0047 H   0  0  0  0  0
   31.2117   62.6204   28.4923 H   0  0  0  0  0
   31.3220   61.1448   27.6848 H   0  0  0  0  0
   26.6718   57.1886   29.3079 H   0  0  0  0  0
   24.5856   56.6464   28.1192 H   0  0  0  0  0
   25.0469   57.4644   26.7134 H   0  0  0  0  0
   24.3646   58.7793   29.4319 H   0  0  0  0  0
   23.5855   59.0809   27.9711 H   0  0  0  0  0
   25.6455   60.7067   28.5919 H   0  0  0  0  0
   25.5466   60.1931   26.9727 H   0  0  0  0  0
   28.9331   53.7425   28.0770 H   0  0  0  0  0
   27.8112   52.5891   26.1669 H   0  0  0  0  0
   27.4058   54.0486   25.4034 H   0  0  0  0  0
   25.9656   52.7069   27.6648 H   0  0  0  0  0
   25.3466   53.9340   26.5806 H   0  0  0  0  0
   26.4743   54.3339   29.3175 H   0  0  0  0  0
   25.5665   55.4385   28.4099 H   0  0  0  0  0
   29.9953   56.0149   27.8950 H   0  0  0  0  0
  2  1  1  0  0  0
  2  5  1  0  0  0
  3  2  1  0  0  0
  3  4  2  0  0  0
  5  6  1  0  0  0
  6  7  1  0  0  0
  1  7  1  0  0  0
  9  8  1  0  0  0
  9 12  1  0  0  0
 10  9  1  0  0  0
 10 11  2  0  0  0
 12 13  1  0  0  0
 13 14  1  0  0  0
  8 14  1  0  0  0
 16 15  1  0  0  0
 16 19  1  0  0  0
 17 16  1  0  0  0
 17 18  2  0  0  0
 19 20  1  0  0  0
 20 21  1  0  0  0
 15 21  1  0  0  0
 23 22  1  0  0  0
 23 26  1  0  0  0
 24 23  1  0  0  0
 24 25  2  0  0  0
 26 27  1  0  0  0
 27 28  1  0  0  0
 22 28  1  0  0  0
 30 29  1  0  0  0
 30 33  1  0  0  0
 31 30  1  0  0  0
 31 32  2  0  0  0
 33 34  1  0  0  0
 34 35  1  0  0  0
 29 35  1  0  0  0
 37 36  1  0  0  0
 37 40  1  0  0  0
 38 37  1  0  0  0
 38 39  2  0  0  0
 40 41  1  0  0  0
 41 42  1  0  0  0
 36 42  1  0  0  0
 44 43  1  0  0  0
 44 47  1  0  0  0
 45 44  1  0  0  0
 45 46  2  0  0  0
 47 48  1  0  0  0
 48 49  1  0  0  0
 43 49  1  0  0  0
 51 50  1  0  0  0
 51 54  1  0  0  0
 52 51  1  0  0  0
 52 53  2  0  0  0
 54 55  1  0  0  0
 55 56  1  0  0  0
 50 56  1  0  0  0
 58 57  1  0  0  0
 58 61  1  0  0  0
 59 58  1  0  0  0
 59 60  2  0  0  0
 61 62  1  0  0  0
 62 63  1  0  0  0
 57 63  1  0  0  0
 64 65  1  0  0  0
 65 68  1  0  0  0
 65 66  1  0  0  0
 66 67  2  0  0  0
 66 71  1  0  0  0
 69 68  1  0  0  0
 70 69  1  0  0  0
 64 70  1  0  0  0
  8  3  1  0  0  0
 15 10  1  0  0  0
 22 17  1  0  0  0
 29 24  1  0  0  0
 36 31  1  0  0  0
 43 38  1  0  0  0
 50 45  1  0  0  0
 57 52  1  0  0  0
 59 64  1  0  0  0
  1 72  1  0  0  0
  1 73  1  0  0  0
  2 74  1  0  0  0
  5 75  1  0  0  0
  5 76  1  0  0  0
  6 77  1  0  0  0
  6 78  1  0  0  0
  7 79  1  0  0  0
  7 80  1  0  0  0
  9 81  1  0  0  0
 12 82  1  0  0  0
 12 83  1  0  0  0
 13 84  1  0  0  0
 13 85  1  0  0  0
 14 86  1  0  0  0
 14 87  1  0  0  0
 16 88  1  0  0  0
 19 89  1  0  0  0
 19 90  1  0  0  0
 20 91  1  0  0  0
 20 92  1  0  0  0
 21 93  1  0  0  0
 21 94  1  0  0  0
 23 95  1  0  0  0
 26 96  1  0  0  0
 26 97  1  0  0  0
 27 98  1  0  0  0
 27 99  1  0  0  0
 28100  1  0  0  0
 28101  1  0  0  0
 30102  1  0  0  0
 33103  1  0  0  0
 33104  1  0  0  0
 34105  1  0  0  0
 34106  1  0  0  0
 35107  1  0  0  0
 35108  1  0  0  0
 37109  1  0  0  0
 40110  1  0  0  0
 40111  1  0  0  0
 41112  1  0  0  0
 41113  1  0  0  0
 42114  1  0  0  0
 42115  1  0  0  0
 44116  1  0  0  0
 47117  1  0  0  0
 47118  1  0  0  0
 48119  1  0  0  0
 48120  1  0  0  0
 49121  1  0  0  0
 49122  1  0  0  0
 51123  1  0  0  0
 54124  1  0  0  0
 54125  1  0  0  0
 55126  1  0  0  0
 55127  1  0  0  0
 56128  1  0  0  0
 56129  1  0  0  0
 58130  1  0  0  0
 61131  1  0  0  0
 61132  1  0  0  0
 62133  1  0  0  0
 62134  1  0  0  0
 63135  1  0  0  0
 63136  1  0  0  0
 65137  1  0  0  0
 68138  1  0  0  0
 68139  1  0  0  0
 69140  1  0  0  0
 69141  1  0  0  0
 70142  1  0  0  0
 70143  1  0  0  0
 71144  1  0  0  0
M  END
$$$$
