### 
### Created by X-TOOL on Mon Sep 10 21:13:17 2018
### 

@<TRIPOS>MOLECULE
4q3s_ligand
   50    50     1     0     0
SMALL
GAST_HUCK


@<TRIPOS>ATOM
      1 O20       -42.4870   16.3720   37.1680 O.co2     1 X7A        -0.5422
      2 C18       -42.6350   17.6200   37.0240 C.2       1 X7A         0.0962
      3 O21       -41.8240   18.2840   36.2920 O.co2     1 X7A        -0.5422
      4 C1        -43.8150   18.3370   37.7460 C.3       1 X7A         0.0372
      5 N2        -44.4920   17.4070   38.5570 N.4       1 X7A         0.2231
      6 C3        -43.2690   19.4510   38.6220 C.3       1 X7A        -0.0038
      7 C4        -42.0310   19.0310   39.4450 C.3       1 X7A        -0.0754
      8 C5        -41.6600   20.0850   40.5420 C.3       1 X7A        -0.1826
      9 C6        -40.5930   19.5150   41.5510 C.3       1 X7A        -0.3457
     10 B7        -40.5710   20.4000   42.9690 B         1 X7A         3.0000
     11 O8        -40.6470   22.0240   42.6540 O.3       1 X7A        -0.8710
     12 O9        -39.1340   20.0740   43.7890 O.3       1 X7A        -0.8710
     13 O19       -41.8200   20.0070   43.9900 O.3       1 X7A        -0.8710
     14 C10       -44.7790   18.9100   36.6740 C.3       1 X7A         0.0384
     15 C11       -46.1170   19.5130   37.2650 C.3       1 X7A        -0.0269
     16 N12       -47.0680   19.4630   36.4580 N.4       1 X7A         0.2353
     17 C13       -48.2630   19.9380   37.0750 C.3       1 X7A        -0.0319
     18 C14       -49.4740   19.9930   36.1320 C.3       1 X7A        -0.0123
     19 C15       -49.2300   20.6020   34.8770 C.3       1 X7A        -0.0434
     20 C16       -47.9290   20.3740   34.2830 C.3       1 X7A        -0.0123
     21 C17       -46.7560   20.1130   35.2280 C.3       1 X7A        -0.0319
     22 H1        -45.2570   17.8653   39.0270 H         1 X7A         0.1999
     23 H2        -43.8544   17.0308   39.2411 H         1 X7A         0.1999
     24 H3        -44.8496   16.6589   37.9838 H         1 X7A         0.1999
     25 H4        -44.0599   19.7671   39.3181 H         1 X7A         0.0315
     26 H5        -42.9887   20.2967   37.9769 H         1 X7A         0.0315
     27 H6        -41.1759   18.9146   38.7630 H         1 X7A         0.0242
     28 H7        -42.2422   18.0694   39.9357 H         1 X7A         0.0242
     29 H8        -42.5689   20.3571   41.0986 H         1 X7A        -0.0084
     30 H9        -41.2476   20.9800   40.0532 H         1 X7A        -0.0084
     31 H10       -40.8111   18.4565   41.7560 H         1 X7A        -0.2101
     32 H12       -39.5886   19.6040   41.1115 H         1 X7A        -0.2101
     33 H14       -41.4795   22.2273   42.2440 H         1 X7A        -0.1290
     34 H15       -38.3967   20.3330   43.2488 H         1 X7A        -0.1290
     35 H18       -41.7345   20.5001   44.7975 H         1 X7A        -0.1290
     36 H19       -45.0429   18.0999   35.9783 H         1 X7A         0.0368
     37 H20       -44.2533   19.7064   36.1269 H         1 X7A         0.0368
     38 H21       -45.9397   20.5646   37.5344 H         1 X7A         0.0815
     39 H22       -46.3906   18.9447   38.1662 H         1 X7A         0.0815
     40 H23       -47.2206   18.4914   36.2371 H         1 X7A         0.2033
     41 H24       -48.0755   20.9525   37.4566 H         1 X7A         0.0814
     42 H25       -48.5081   19.2701   37.9140 H         1 X7A         0.0814
     43 H26       -50.2727   20.5576   36.6353 H         1 X7A         0.0317
     44 H27       -49.8120   18.9621   35.9506 H         1 X7A         0.0317
     45 H28       -49.3520   21.6877   35.0045 H         1 X7A         0.0269
     46 H29       -49.9876   20.2281   34.1726 H         1 X7A         0.0269
     47 H30       -47.6792   21.2635   33.6861 H         1 X7A         0.0317
     48 H31       -48.0182   19.5007   33.6201 H         1 X7A         0.0317
     49 H32       -46.0278   19.4859   34.6929 H         1 X7A         0.0814
     50 H33       -46.2973   21.0834   35.4687 H         1 X7A         0.0814
@<TRIPOS>BOND
     1    1    2 ar 
     2    2    3 ar 
     3    2    4 1  
     4    4    5 1  
     5    4    6 1  
     6    4   14 1  
     7    6    7 1  
     8    7    8 1  
     9    8    9 1  
    10    9   10 1  
    11   10   11 1  
    12   10   13 1  
    13   14   15 1  
    14   15   16 1  
    15   16   17 1  
    16   16   21 1  
    17   17   18 1  
    18   18   19 1  
    19   19   20 1  
    20   20   21 1  
    21    5   22 1  
    22    5   23 1  
    23    5   24 1  
    24    6   25 1  
    25    6   26 1  
    26    7   27 1  
    27    7   28 1  
    28    8   29 1  
    29    8   30 1  
    30    9   31 1  
    31    9   32 1  
    32   11   33 1  
    33   12   34 1  
    34   13   35 1  
    35   14   36 1  
    36   14   37 1  
    37   15   38 1  
    38   15   39 1  
    39   16   40 1  
    40   17   41 1  
    41   17   42 1  
    42   18   43 1  
    43   18   44 1  
    44   19   45 1  
    45   19   46 1  
    46   20   47 1  
    47   20   48 1  
    48   21   49 1  
    49   21   50 1  
    50   10   12 du 
@<TRIPOS>SUBSTRUCTURE
     1 X7A         1

