4q3s_ligand
  -I-interpret- 

 51 51  0  0  0  0  0  0  0  0999 V2000
  -42.4870   16.3720   37.1680 O   0  0  0  0  0
  -42.6350   17.6200   37.0240 C   0  0  0  0  0
  -41.8240   18.2840   36.2920 O   0  0  0  0  0
  -43.8150   18.3370   37.7460 C   0  0  0  0  0
  -44.4920   17.4070   38.5570 N   0  3  0  0  0
  -43.2690   19.4510   38.6220 C   0  0  0  0  0
  -42.0310   19.0310   39.4450 C   0  0  0  0  0
  -41.6600   20.0850   40.5420 C   0  0  0  0  0
  -40.5930   19.5150   41.5510 C   0  0  0  0  0
  -40.5710   20.4000   42.9690 B   0  0  0  0  0
  -40.6470   22.0240   42.6540 O   0  0  0  0  0
  -39.1340   20.0740   43.7890 O   0  0  0  0  0
  -41.8200   20.0070   43.9900 O   0  0  0  0  0
  -44.7790   18.9100   36.6740 C   0  0  0  0  0
  -46.1170   19.5130   37.2650 C   0  0  0  0  0
  -47.0680   19.4630   36.4580 N   0  3  0  0  0
  -48.2630   19.9380   37.0750 C   0  0  0  0  0
  -49.4740   19.9930   36.1320 C   0  0  0  0  0
  -49.2300   20.6020   34.8770 C   0  0  0  0  0
  -47.9290   20.3740   34.2830 C   0  0  0  0  0
  -46.7560   20.1130   35.2280 C   0  0  0  0  0
  -42.0790   19.2095   36.2922 H   0  0  0  0  0
  -43.8493   17.0372   39.2574 H   0  0  0  0  0
  -45.2740   17.8686   39.0215 H   0  0  0  0  0
  -44.8416   16.6436   37.9778 H   0  0  0  0  0
  -44.0529   19.7305   39.3259 H   0  0  0  0  0
  -42.9668   20.2674   37.9661 H   0  0  0  0  0
  -41.1859   18.9420   38.7624 H   0  0  0  0  0
  -42.2609   18.0899   39.9447 H   0  0  0  0  0
  -42.5626   20.3367   41.0989 H   0  0  0  0  0
  -41.2375   20.9614   40.0506 H   0  0  0  0  0
  -39.6083   19.5750   41.0875 H   0  0  0  0  0
  -40.8538   18.4835   41.7880 H   0  0  0  0  0
  -40.6330   22.5103   43.4816 H   0  0  0  0  0
  -39.1115   20.5780   44.6058 H   0  0  0  0  0
  -41.7616   20.5411   44.7856 H   0  0  0  0  0
  -45.0588   18.0856   36.0182 H   0  0  0  0  0
  -44.2547   19.7216   36.1695 H   0  0  0  0  0
  -45.9348   20.5613   37.5016 H   0  0  0  0  0
  -46.3906   18.9238   38.1403 H   0  0  0  0  0
  -47.2358   18.4895   36.2039 H   0  0  0  0  0
  -48.0697   20.9562   37.4126 H   0  0  0  0  0
  -48.5100   19.2437   37.8782 H   0  0  0  0  0
  -50.2335   20.5950   36.6309 H   0  0  0  0  0
  -49.7618   18.9613   35.9298 H   0  0  0  0  0
  -49.2972   21.6765   35.0474 H   0  0  0  0  0
  -49.9542   20.1679   34.1876 H   0  0  0  0  0
  -47.6816   21.2960   33.7568 H   0  0  0  0  0
  -48.0335   19.4665   33.6883 H   0  0  0  0  0
  -46.0796   19.4450   34.6948 H   0  0  0  0  0
  -46.3575   21.0919   35.4946 H   0  0  0  0  0
  1  2  2  0  0  0
  2  3  1  0  0  0
  2  4  1  0  0  0
  4  5  1  0  0  0
  4  6  1  0  0  0
  4 14  1  0  0  0
  6  7  1  0  0  0
  7  8  1  0  0  0
  8  9  1  0  0  0
  9 10  1  0  0  0
 10 11  1  0  0  0
 10 13  1  0  0  0
 14 15  1  0  0  0
 15 16  1  0  0  0
 16 17  1  0  0  0
 16 21  1  0  0  0
 17 18  1  0  0  0
 18 19  1  0  0  0
 19 20  1  0  0  0
 20 21  1  0  0  0
 10 12  1  0  0  0
  3 22  1  0  0  0
  5 23  1  0  0  0
  5 24  1  0  0  0
  5 25  1  0  0  0
  6 26  1  0  0  0
  6 27  1  0  0  0
  7 28  1  0  0  0
  7 29  1  0  0  0
  8 30  1  0  0  0
  8 31  1  0  0  0
  9 32  1  0  0  0
  9 33  1  0  0  0
 11 34  1  0  0  0
 12 35  1  0  0  0
 13 36  1  0  0  0
 14 37  1  0  0  0
 14 38  1  0  0  0
 15 39  1  0  0  0
 15 40  1  0  0  0
 16 41  1  0  0  0
 17 42  1  0  0  0
 17 43  1  0  0  0
 18 44  1  0  0  0
 18 45  1  0  0  0
 19 46  1  0  0  0
 19 47  1  0  0  0
 20 48  1  0  0  0
 20 49  1  0  0  0
 21 50  1  0  0  0
 21 51  1  0  0  0
M  END
$$$$
