4a9t_ligand
  -I-interpret- 

 48 51  0  0  0  0  0  0  0  0999 V2000
   11.4690  -46.5400    2.8530 C   0  0  0  0  0
   10.3200  -46.1600    2.3060 N   0  0  0  0  0
    6.1750  -50.4400   12.2230 O   0  0  0  0  0
   11.3450  -47.1850    4.2410 C   0  0  0  0  0
   10.0920  -47.3170    4.8370 C   0  0  0  0  0
    8.9250  -48.1660    6.8740 N   0  0  0  0  0
    9.9710  -47.9020    6.0950 C   0  0  0  0  0
   10.6930  -48.8550    7.9230 N   0  0  0  0  0
    9.3650  -48.7250    8.0050 C   0  0  0  0  0
   11.1010  -48.3510    6.7600 C   0  0  0  0  0
   12.3560  -48.2210    6.1680 C   0  0  0  0  0
   12.4790  -47.6350    4.9120 C   0  0  0  0  0
    8.5610  -49.1470    9.0690 C   0  0  0  0  0
    9.1350  -49.6490   10.2350 C   0  0  0  0  0
    8.3240  -50.0600   11.2890 C   0  0  0  0  0
    6.9370  -49.9870   11.1840 C   0  0  0  0  0
    6.3620  -49.5380    9.9990 C   0  0  0  0  0
    7.1730  -49.1040    8.9530 C   0  0  0  0  0
    4.2610  -52.8700   14.8740 C   0  0  0  0  0
    4.6650  -52.2130   13.5550 C   0  0  0  0  0
    4.3820  -50.7270   13.5850 C   0  0  0  0  0
    5.0060  -50.0910   14.8250 C   0  0  0  0  0
    4.5800  -50.8440   16.0890 C   0  0  0  0  0
    5.0390  -52.2520   15.9760 N   0  3  0  0  0
    4.7740  -50.0280   12.2760 C   0  0  0  0  0
   12.5630  -46.3810    2.3140 O   0  0  0  0  0
   10.3151  -45.7098    1.3908 H   0  0  0  0  0
    9.4424  -46.3184    2.8011 H   0  0  0  0  0
    9.2031  -46.9609    4.3163 H   0  0  0  0  0
   13.2432  -48.5792    6.6901 H   0  0  0  0  0
   13.4622  -47.5283    4.4538 H   0  0  0  0  0
   10.2192  -49.7199   10.3219 H   0  0  0  0  0
    8.7778  -50.4419   12.2035 H   0  0  0  0  0
    5.2776  -49.5259    9.8894 H   0  0  0  0  0
    6.7184  -48.7278    8.0365 H   0  0  0  0  0
    4.4673  -53.9395   14.8316 H   0  0  0  0  0
    3.1950  -52.7232   15.0478 H   0  0  0  0  0
    4.0887  -52.6639   12.7471 H   0  0  0  0  0
    5.7334  -52.3639   13.4003 H   0  0  0  0  0
    3.3037  -50.5874   13.6618 H   0  0  0  0  0
    4.6691  -49.0570   14.8993 H   0  0  0  0  0
    6.0915  -50.1351   14.7364 H   0  0  0  0  0
    3.4954  -50.8134   16.1925 H   0  0  0  0  0
    5.0246  -50.3771   16.9679 H   0  0  0  0  0
    6.0393  -52.2926   15.7806 H   0  0  0  0  0
    4.8888  -52.7536   16.8514 H   0  0  0  0  0
    4.1762  -50.3009   11.4064 H   0  0  0  0  0
    4.6052  -48.9513   12.2555 H   0  0  0  0  0
  1  2  1  0  0  0
  4  1  1  0  0  0
  1 26  2  0  0  0
  3 16  1  0  0  0
 25  3  1  0  0  0
  5  4  4  0  0  0
 12  4  4  0  0  0
  7  5  4  0  0  0
  6  7  4  0  0  0
  9  6  4  0  0  0
 10  7  4  0  0  0
  9  8  4  0  0  0
  8 10  4  0  0  0
 13  9  1  0  0  0
 10 11  4  0  0  0
 11 12  4  0  0  0
 14 13  4  0  0  0
 18 13  4  0  0  0
 15 14  4  0  0  0
 16 15  4  0  0  0
 16 17  4  0  0  0
 17 18  4  0  0  0
 20 19  1  0  0  0
 19 24  1  0  0  0
 21 20  1  0  0  0
 21 22  1  0  0  0
 21 25  1  0  0  0
 22 23  1  0  0  0
 23 24  1  0  0  0
  2 27  1  0  0  0
  2 28  1  0  0  0
  5 29  1  0  0  0
 11 30  1  0  0  0
 12 31  1  0  0  0
 14 32  1  0  0  0
 15 33  1  0  0  0
 17 34  1  0  0  0
 18 35  1  0  0  0
 19 36  1  0  0  0
 19 37  1  0  0  0
 20 38  1  0  0  0
 20 39  1  0  0  0
 21 40  1  0  0  0
 22 41  1  0  0  0
 22 42  1  0  0  0
 23 43  1  0  0  0
 23 44  1  0  0  0
 24 45  1  0  0  0
 24 46  1  0  0  0
 25 47  1  0  0  0
 25 48  1  0  0  0
M  END
$$$$
