3q2j_ligand
  -I-interpret- 

 31 32  0  0  0  0  0  0  0  0999 V2000
   29.2340   10.7470   69.9760 C   0  0  0  0  0
   28.8390   11.4140   71.0850 N   0  0  0  0  0
   27.6260   11.1500   71.6580 C   0  0  0  0  0
   26.7850   10.1940   71.1220 C   0  0  0  0  0
   26.3390    8.3940   69.3230 C   0  0  0  0  0
   24.8400    7.9800   69.9300 Cl  0  0  0  0  0
   26.7830    7.6990   68.1600 C   0  0  0  0  0
   28.0050    8.0030   67.6070 C   0  0  0  0  0
   28.8420    9.0130   68.1990 C   0  0  0  0  0
   28.4050    9.7360   69.3860 C   0  0  0  0  0
   27.1770    9.4410   69.9370 C   0  0  0  0  0
   30.3800    9.3200   67.4130 S   0  0  0  0  0
   31.4990    8.9680   68.3160 O   0  0  0  0  0
   30.4760   10.7980   67.0700 O   0  0  0  0  0
   30.4370    8.4430   66.0270 N   0  0  0  0  0
   31.0630    7.1270   66.2590 C   0  0  0  0  0
   30.7990    6.4130   67.5980 C   0  0  0  0  0
   31.5860    5.2200   67.9390 N   0  3  0  0  0
   30.1976   10.9817   69.5237 H   0  0  0  0  0
   27.3191   11.7000   72.5476 H   0  0  0  0  0
   25.8194   10.0010   71.5895 H   0  0  0  0  0
   26.1559    6.9291   67.7105 H   0  0  0  0  0
   28.3417    7.4755   66.7145 H   0  0  0  0  0
   30.0863    8.7649   65.1249 H   0  0  0  0  0
   32.1365    7.3155   66.2435 H   0  0  0  0  0
   30.6388    6.4717   65.4983 H   0  0  0  0  0
   29.7703    6.0594   67.5286 H   0  0  0  0  0
   31.0570    7.1464   68.3620 H   0  0  0  0  0
   31.2919    4.8693   68.8505 H   0  0  0  0  0
   31.4348    4.5008   67.2317 H   0  0  0  0  0
   32.5757    5.4647   67.9706 H   0  0  0  0  0
  2  1  4  0  0  0
  1 10  4  0  0  0
  3  2  4  0  0  0
  4  3  4  0  0  0
 11  4  4  0  0  0
  5  6  1  0  0  0
  5  7  4  0  0  0
  5 11  4  0  0  0
  7  8  4  0  0  0
  8  9  4  0  0  0
  9 10  4  0  0  0
  9 12  1  0  0  0
 10 11  4  0  0  0
 12 13  2  0  0  0
 12 14  2  0  0  0
 12 15  1  0  0  0
 15 16  1  0  0  0
 16 17  1  0  0  0
 17 18  1  0  0  0
  1 19  1  0  0  0
  3 20  1  0  0  0
  4 21  1  0  0  0
  7 22  1  0  0  0
  8 23  1  0  0  0
 15 24  1  0  0  0
 16 25  1  0  0  0
 16 26  1  0  0  0
 17 27  1  0  0  0
 17 28  1  0  0  0
 18 29  1  0  0  0
 18 30  1  0  0  0
 18 31  1  0  0  0
M  END
$$$$
