1g49_ligand
  -I-interpret- 

 53 54  0  0  0  0  0  0  0  0999 V2000
    4.3950   55.0840   51.5310 O   0  0  0  0  0
    3.1250   54.1810   51.3220 S   0  0  0  0  0
    2.1900   54.2180   52.5890 O   0  0  0  0  0
    2.1730   54.7180   49.9180 C   0  0  0  0  0
    3.6540   52.5500   51.1160 N   0  0  0  0  0
    2.9630   51.4970   51.8730 C   0  0  0  0  0
    3.9190   50.5830   52.6640 C   0  0  0  0  0
    2.1910   50.5610   50.9400 C   0  0  0  0  0
    2.2670   49.1970   51.6050 C   0  0  0  0  0
    1.1340   49.2230   52.6100 C   0  0  0  0  0
    0.6970   50.4080   53.0830 O   0  0  0  0  0
    0.5450   48.0910   52.9570 N   0  0  0  0  0
   -0.6960   48.3180   53.5010 O   0  0  0  0  0
    3.6090   49.2190   52.1920 N   0  0  0  0  0
    4.1840   47.8170   53.0310 S   0  0  0  0  0
    3.7300   46.5320   52.2670 O   0  0  0  0  0
    5.7440   47.8370   52.9970 O   0  0  0  0  0
    3.6230   47.7150   54.6720 C   0  0  0  0  0
    3.9820   48.7310   55.5530 C   0  0  0  0  0
    3.6100   48.6780   56.8910 C   0  0  0  0  0
    2.8600   47.6070   57.3610 C   0  0  0  0  0
    2.5140   46.5770   56.5020 C   0  0  0  0  0
    2.8890   46.6280   55.1580 C   0  0  0  0  0
    2.5210   47.5680   58.5570 O   0  0  0  0  0
    3.3230   48.2770   59.5050 C   0  0  0  0  0
    2.9470   47.9500   60.9270 C   0  0  0  0  0
    3.2370   46.4960   61.3150 C   0  0  0  0  0
    3.1450   45.5400   60.1490 C   0  0  0  0  0
    1.8461   55.7461   50.0740 H   0  0  0  0  0
    2.7892   54.6635   49.0205 H   0  0  0  0  0
    1.3026   54.0722   49.8024 H   0  0  0  0  0
    4.4243   52.3240   50.4867 H   0  0  0  0  0
    2.3094   52.0412   52.5548 H   0  0  0  0  0
    3.7793   50.6825   53.7404 H   0  0  0  0  0
    4.9638   50.8441   52.4955 H   0  0  0  0  0
    2.6175   50.5468   49.9370 H   0  0  0  0  0
    1.1602   50.8871   50.8015 H   0  0  0  0  0
    2.1529   48.2980   50.9993 H   0  0  0  0  0
    0.9594   47.1668   52.8361 H   0  0  0  0  0
   -1.0967   47.4796   53.7420 H   0  0  0  0  0
    4.5622   49.5789   55.1889 H   0  0  0  0  0
    3.9065   49.4763   57.5714 H   0  0  0  0  0
    1.9474   45.7243   56.8762 H   0  0  0  0  0
    2.6087   45.8177   54.4850 H   0  0  0  0  0
    3.1667   49.3445   59.3500 H   0  0  0  0  0
    4.3627   47.9865   59.3540 H   0  0  0  0  0
    1.8733   48.1087   61.0275 H   0  0  0  0  0
    3.5424   48.5889   61.5792 H   0  0  0  0  0
    2.4900   46.1946   62.0493 H   0  0  0  0  0
    4.2566   46.4531   61.6980 H   0  0  0  0  0
    2.1393   45.5756   59.7301 H   0  0  0  0  0
    3.8681   45.8287   59.3862 H   0  0  0  0  0
    3.3614   44.5284   60.4923 H   0  0  0  0  0
  1  2  2  0  0  0
  2  5  1  0  0  0
  2  4  1  0  0  0
  2  3  2  0  0  0
  5  6  1  0  0  0
  6  8  1  0  0  0
  6  7  1  0  0  0
  7 14  1  0  0  0
 14 15  1  0  0  0
 14  9  1  0  0  0
  9 10  1  0  0  0
  9  8  1  0  0  0
 10 12  1  0  0  0
 10 11  2  0  0  0
 12 13  1  0  0  0
 15 18  1  0  0  0
 15 17  2  0  0  0
 15 16  2  0  0  0
 18 23  4  0  0  0
 18 19  4  0  0  0
 19 20  4  0  0  0
 20 21  4  0  0  0
 21 24  1  0  0  0
 21 22  4  0  0  0
 22 23  4  0  0  0
 24 25  1  0  0  0
 25 26  1  0  0  0
 26 27  1  0  0  0
 27 28  1  0  0  0
  4 29  1  0  0  0
  4 30  1  0  0  0
  4 31  1  0  0  0
  5 32  1  0  0  0
  6 33  1  0  0  0
  7 34  1  0  0  0
  7 35  1  0  0  0
  8 36  1  0  0  0
  8 37  1  0  0  0
  9 38  1  0  0  0
 12 39  1  0  0  0
 13 40  1  0  0  0
 19 41  1  0  0  0
 20 42  1  0  0  0
 22 43  1  0  0  0
 23 44  1  0  0  0
 25 45  1  0  0  0
 25 46  1  0  0  0
 26 47  1  0  0  0
 26 48  1  0  0  0
 27 49  1  0  0  0
 27 50  1  0  0  0
 28 51  1  0  0  0
 28 52  1  0  0  0
 28 53  1  0  0  0
M  END
$$$$
