5ox5_ligand
  -I-interpret- 

 29 29  0  0  0  0  0  0  0  0999 V2000
   92.0410  -69.8560    0.1470 C   0  0  0  0  0
   93.4670  -69.5890    0.1020 C   0  0  0  0  0
   94.3180  -70.5140   -0.5190 O   0  0  0  0  0
   94.0090  -68.3720    0.6800 N   0  0  0  0  0
   93.1090  -67.3440    1.3560 C   0  0  0  0  0
   91.6280  -67.6920    1.3740 N   0  0  0  0  0
   91.1360  -68.9150    0.7830 C   0  0  0  0  0
   90.1760  -71.5910   -0.0660 N   0  0  0  0  0
   89.6230  -72.7960   -0.6500 C   0  0  0  0  0
   88.2170  -72.9900   -0.0920 C   0  0  0  0  0
   87.8070  -72.2100    0.8060 O   0  0  0  0  0
   87.4790  -73.9130   -0.5260 O   0  0  0  0  0
   91.4880  -71.1290   -0.4660 C   0  0  0  0  0
   95.4430  -68.1330    0.6120 C   0  0  0  0  0
   90.6790  -66.7790    2.0010 C   0  0  0  0  0
   93.5250  -66.3490    1.8390 O   0  0  0  0  0
   89.9720  -69.1480    0.8200 O   0  0  0  0  0
   92.1080  -71.7220   -1.2820 O   0  0  0  0  0
   95.2233  -70.1988   -0.4677 H   0  0  0  0  0
   89.6407  -71.0682    0.6271 H   0  0  0  0  0
   90.2474  -73.6545   -0.4025 H   0  0  0  0  0
   89.5874  -72.7055   -1.7357 H   0  0  0  0  0
   87.9494  -74.4061   -1.2022 H   0  0  0  0  0
   95.6305  -67.2092    0.0647 H   0  0  0  0  0
   95.8439  -68.0463    1.6219 H   0  0  0  0  0
   95.9248  -68.9651    0.0986 H   0  0  0  0  0
   89.9485  -66.4518    1.2611 H   0  0  0  0  0
   90.1680  -67.2915    2.8160 H   0  0  0  0  0
   91.2138  -65.9138    2.3928 H   0  0  0  0  0
  1  2  2  0  0  0
  1  7  1  0  0  0
 13  1  1  0  0  0
  2  3  1  0  0  0
  2  4  1  0  0  0
  4  5  1  0  0  0
  4 14  1  0  0  0
  6  5  1  0  0  0
  5 16  2  0  0  0
  7  6  1  0  0  0
  6 15  1  0  0  0
  7 17  2  0  0  0
  8  9  1  0  0  0
  8 13  1  0  0  0
  9 10  1  0  0  0
 10 11  2  0  0  0
 10 12  1  0  0  0
 13 18  2  0  0  0
  3 19  1  0  0  0
  8 20  1  0  0  0
  9 21  1  0  0  0
  9 22  1  0  0  0
 12 23  1  0  0  0
 14 24  1  0  0  0
 14 25  1  0  0  0
 14 26  1  0  0  0
 15 27  1  0  0  0
 15 28  1  0  0  0
 15 29  1  0  0  0
M  END
$$$$
