5gsa_ligand
  -I-interpret- 

 41 44  0  0  0  0  0  0  0  0999 V2000
  -31.0870   75.1570    5.6230 C   0  0  0  0  0
  -31.7340   75.4680    6.7670 C   0  0  0  0  0
  -32.1330   74.3200    7.6040 C   0  0  0  0  0
  -32.2930   72.3840    8.2020 C   0  0  0  0  0
  -28.4660   71.0560    5.4090 C   0  0  0  0  0
  -28.1230   70.2130    6.3760 C   0  0  0  0  0
  -26.6880   70.4560    6.5290 C   0  0  0  0  0
  -26.4570   71.3990    5.6240 C   0  0  0  0  0
  -33.4130   77.2630    7.3550 C   0  0  0  0  0
  -33.7460   78.6050    7.5820 C   0  0  0  0  0
  -32.7350   79.5910    7.4920 C   0  0  0  0  0
  -31.3960   79.2390    7.2060 C   0  0  0  0  0
  -31.0550   77.8940    7.0170 C   0  0  0  0  0
  -34.2130   81.5750    6.2820 C   0  0  0  0  0
  -31.8050   73.1140    7.2320 N   0  0  0  0  0
  -31.1150   72.8270    6.1240 C   0  0  0  0  0
  -30.7750   73.7730    5.3410 N   0  0  0  0  0
  -32.0680   76.9020    7.0930 C   0  0  0  0  0
  -30.7720   71.6000    5.8350 N   0  0  0  0  0
  -29.8100   71.2530    4.8010 C   0  0  0  0  0
  -32.7840   74.3880    8.7050 N   0  0  0  0  0
  -32.8870   73.0320    9.1200 N   0  0  0  0  0
  -27.5110   71.8180    4.9020 O   0  0  0  0  0
  -33.1480   81.3080    7.7230 S   0  0  0  0  0
  -33.9980   81.4710    8.9020 O   0  0  0  0  0
  -31.9090   82.0750    7.5880 O   0  0  0  0  0
  -30.8031   75.9402    4.9201 H   0  0  0  0  0
  -32.1970   71.2984    8.2214 H   0  0  0  0  0
  -28.7549   69.5123    6.9217 H   0  0  0  0  0
  -25.9853   69.9817    7.2141 H   0  0  0  0  0
  -25.4604   71.8139    5.4733 H   0  0  0  0  0
  -34.1882   76.4971    7.3799 H   0  0  0  0  0
  -34.7708   78.8859    7.8248 H   0  0  0  0  0
  -30.6313   80.0123    7.1328 H   0  0  0  0  0
  -30.0221   77.6114    6.8136 H   0  0  0  0  0
  -35.0191   80.8414    6.2867 H   0  0  0  0  0
  -34.6340   82.5796    6.3241 H   0  0  0  0  0
  -33.6244   81.4642    5.3713 H   0  0  0  0  0
  -31.2034   70.8424    6.3646 H   0  0  0  0  0
  -30.1232   70.3305    4.3121 H   0  0  0  0  0
  -29.7601   72.0597    4.0696 H   0  0  0  0  0
  1  2  4  0  0  0
 17  1  4  0  0  0
  3  2  4  0  0  0
  2 18  1  0  0  0
 15  3  4  0  0  0
  3 21  4  0  0  0
 15  4  4  0  0  0
  4 22  4  0  0  0
  5  6  4  0  0  0
 20  5  1  0  0  0
  5 23  4  0  0  0
  6  7  4  0  0  0
  8  7  4  0  0  0
 23  8  4  0  0  0
  9 10  4  0  0  0
 18  9  4  0  0  0
 10 11  4  0  0  0
 12 11  4  0  0  0
 11 24  1  0  0  0
 13 12  4  0  0  0
 18 13  4  0  0  0
 24 14  1  0  0  0
 16 15  4  0  0  0
 16 17  4  0  0  0
 19 16  1  0  0  0
 19 20  1  0  0  0
 21 22  4  0  0  0
 24 25  2  0  0  0
 24 26  2  0  0  0
  1 27  1  0  0  0
  4 28  1  0  0  0
  6 29  1  0  0  0
  7 30  1  0  0  0
  8 31  1  0  0  0
  9 32  1  0  0  0
 10 33  1  0  0  0
 12 34  1  0  0  0
 13 35  1  0  0  0
 14 36  1  0  0  0
 14 37  1  0  0  0
 14 38  1  0  0  0
 19 39  1  0  0  0
 20 40  1  0  0  0
 20 41  1  0  0  0
M  END
$$$$
