5tqe_ligand
  -I-interpret- 

 73 78  0  0  0  0  0  0  0  0999 V2000
    8.7020   34.8520   28.9560 C   0  0  0  0  0
    9.0660   34.0440   26.3070 C   0  0  0  0  0
    8.4210   35.2510   26.5760 C   0  0  0  0  0
    8.2480   35.6570   27.8830 C   0  0  0  0  0
    9.8300   32.8440   29.8030 C   0  0  0  0  0
    9.5090   33.2410   27.3130 C   0  0  0  0  0
    4.5720   39.1250   22.6600 C   0  0  0  0  0
    5.7340   39.7310   22.1690 C   0  0  0  0  0
    5.7840   40.0020   20.7890 C   0  0  0  0  0
    9.0670   34.4790   31.3010 C   0  0  0  0  0
    8.5420   35.2470   30.3070 C   0  0  0  0  0
    3.5210   38.7770   21.8150 C   0  0  0  0  0
    8.1430   39.2720   19.4840 C   0  0  0  0  0
    3.8200   36.6710   27.4910 C   0  0  0  0  0
    5.1130   37.0470   27.1870 C   0  0  0  0  0
    5.6450   36.7880   25.9320 C   0  0  0  0  0
    4.8430   36.1780   24.9700 C   0  0  0  0  0
    3.5280   35.8120   25.2590 C   0  0  0  0  0
    3.0420   36.0410   26.5410 C   0  0  0  0  0
    7.0880   37.1580   25.6210 C   0  0  0  0  0
    7.9470   35.9980   25.4920 N   0  0  0  0  0
    7.2030   38.0380   24.3890 C   0  0  0  0  0
    9.6990   33.3120   31.0950 N   0  0  0  0  0
    9.3480   33.6120   28.6730 C   0  0  0  0  0
   10.4340   31.6470   29.6410 N   0  0  0  0  0
    7.6620   37.5350   23.3790 O   0  0  0  0  0
    4.7310   39.6700   19.9510 C   0  0  0  0  0
    3.6110   39.0530   20.4600 C   0  0  0  0  0
    2.3090   38.1540   22.1850 N   0  0  0  0  0
    6.8650   40.0570   23.1190 C   0  0  0  0  0
    6.7960   39.3290   24.3960 N   0  0  0  0  0
    6.2520   40.0550   25.5410 C   0  0  0  0  0
    7.1820   40.7060   19.9700 S   0  0  0  0  0
    6.7100   41.3420   18.7700 O   0  0  0  0  0
    7.9640   41.4820   20.8960 O   0  0  0  0  0
    9.2700   38.7960   20.3060 C   0  0  0  0  0
    9.5260   39.4310   19.0030 C   0  0  0  0  0
    2.6320   35.2260   24.1930 C   0  0  0  0  0
    1.8530   37.8770   23.4260 C   0  0  0  0  0
    1.0040   36.8340   23.3320 O   0  0  0  0  0
    2.1370   38.4570   24.4540 O   0  0  0  0  0
    1.1950   35.7540   24.2810 C   0  0  0  0  0
    9.2182   33.7380   25.2720 H   0  0  0  0  0
    7.7567   36.6073   28.0920 H   0  0  0  0  0
    9.9958   32.2966   27.0695 H   0  0  0  0  0
    4.4876   38.9208   23.7274 H   0  0  0  0  0
    8.9683   34.8330   32.3272 H   0  0  0  0  0
    8.0010   36.1617   30.5496 H   0  0  0  0  0
    7.2333   38.8165   19.0928 H   0  0  0  0  0
    3.4132   36.8718   28.4821 H   0  0  0  0  0
    5.7206   37.5511   27.9385 H   0  0  0  0  0
    5.2487   35.9838   23.9771 H   0  0  0  0  0
    2.0333   35.7188   26.7994 H   0  0  0  0  0
    7.4337   37.7314   26.4811 H   0  0  0  0  0
    8.2229   35.7084   24.5537 H   0  0  0  0  0
   10.7699   31.1310   30.4542 H   0  0  0  0  0
   10.5543   31.2589   28.7054 H   0  0  0  0  0
    4.7901   39.8980   18.8868 H   0  0  0  0  0
    2.7917   38.7804   19.7948 H   0  0  0  0  0
    1.6990   37.8774   21.4157 H   0  0  0  0  0
    6.8014   41.1209   23.3474 H   0  0  0  0  0
    7.7947   39.7672   22.6293 H   0  0  0  0  0
    5.3472   39.5567   25.8890 H   0  0  0  0  0
    6.9902   40.0722   26.3428 H   0  0  0  0  0
    6.0141   41.0760   25.2425 H   0  0  0  0  0
    9.5634   37.8979   20.8495 H   0  0  0  0  0
    9.6204   38.8719   21.3353 H   0  0  0  0  0
   10.1611   40.2125   18.5858 H   0  0  0  0  0
   10.1040   39.2374   18.0994 H   0  0  0  0  0
    2.6032   34.1455   24.3336 H   0  0  0  0  0
    3.0358   35.5084   23.2208 H   0  0  0  0  0
    1.0108   36.1257   25.2890 H   0  0  0  0  0
    0.5013   34.9459   24.0488 H   0  0  0  0  0
  4  1  4  0  0  0
  1 11  4  0  0  0
  1 24  4  0  0  0
  3  2  4  0  0  0
  2  6  4  0  0  0
  3  4  4  0  0  0
 21  3  1  0  0  0
  5 23  4  0  0  0
 24  5  4  0  0  0
  5 25  1  0  0  0
  6 24  4  0  0  0
  8  7  4  0  0  0
  7 12  4  0  0  0
  8  9  4  0  0  0
 30  8  1  0  0  0
  9 27  4  0  0  0
  9 33  1  0  0  0
 11 10  4  0  0  0
 10 23  4  0  0  0
 12 28  4  0  0  0
 12 29  1  0  0  0
 33 13  1  0  0  0
 13 36  1  0  0  0
 13 37  1  0  0  0
 15 14  4  0  0  0
 14 19  4  0  0  0
 16 15  4  0  0  0
 16 17  4  0  0  0
 20 16  1  0  0  0
 17 18  4  0  0  0
 18 19  4  0  0  0
 18 38  1  0  0  0
 20 21  1  0  0  0
 22 20  1  0  0  0
 22 26  2  0  0  0
 31 22  1  0  0  0
 27 28  4  0  0  0
 29 39  1  0  0  0
 30 31  1  0  0  0
 31 32  1  0  0  0
 33 34  2  0  0  0
 33 35  2  0  0  0
 36 37  1  0  0  0
 38 42  1  0  0  0
 39 40  1  0  0  0
 39 41  2  0  0  0
 40 42  1  0  0  0
  2 43  1  0  0  0
  4 44  1  0  0  0
  6 45  1  0  0  0
  7 46  1  0  0  0
 10 47  1  0  0  0
 11 48  1  0  0  0
 13 49  1  0  0  0
 14 50  1  0  0  0
 15 51  1  0  0  0
 17 52  1  0  0  0
 19 53  1  0  0  0
 20 54  1  0  0  0
 21 55  1  0  0  0
 25 56  1  0  0  0
 25 57  1  0  0  0
 27 58  1  0  0  0
 28 59  1  0  0  0
 29 60  1  0  0  0
 30 61  1  0  0  0
 30 62  1  0  0  0
 32 63  1  0  0  0
 32 64  1  0  0  0
 32 65  1  0  0  0
 36 66  1  0  0  0
 36 67  1  0  0  0
 37 68  1  0  0  0
 37 69  1  0  0  0
 38 70  1  0  0  0
 38 71  1  0  0  0
 42 72  1  0  0  0
 42 73  1  0  0  0
M  END
$$$$
