2i0v_ligand
  -I-interpret- 

 39 42  0  0  0  0  0  0  0  0999 V2000
    8.6990   25.9350    7.8890 C   0  0  0  0  0
    7.8980   26.6870    6.9720 C   0  0  0  0  0
    7.6680   26.1070    5.6790 C   0  0  0  0  0
    7.2920   28.0220    7.3900 C   0  0  0  0  0
    7.5420   28.4900    8.7370 C   0  0  0  0  0
    8.4250   27.6200    9.6670 C   0  0  0  0  0
    5.0730   28.7240    6.3350 C   0  0  0  0  0
    4.3540   29.4760    5.3790 C   0  0  0  0  0
    5.0360   30.2980    4.4500 C   0  0  0  0  0
    6.4450   30.3720    4.4710 C   0  0  0  0  0
    7.1740   29.6300    5.4250 C   0  0  0  0  0
    6.4950   28.8070    6.3750 C   0  0  0  0  0
    6.0920   30.5850    8.8630 C   0  0  0  0  0
    4.7470   32.6220    9.7320 C   0  0  0  0  0
    8.2090   24.8470    5.3410 C   0  0  0  0  0
    9.0000   24.1200    6.2570 C   0  0  0  0  0
    9.2490   24.6620    7.5360 C   0  0  0  0  0
    8.9220   26.4320    9.1730 N   0  0  0  0  0
    7.8720   24.1940    3.8030 Cl  0  0  0  0  0
    8.7180   27.9500   10.8330 O   0  0  0  0  0
    6.9910   29.6970    9.4580 C   0  0  0  0  0
    7.1850   30.2100   10.7360 O   0  0  0  0  0
    6.4370   31.3470   10.9590 N   0  0  0  0  0
    5.7720   31.5570    9.8210 C   0  0  0  0  0
    7.0670   26.6471    4.9474 H   0  0  0  0  0
    6.4628   28.6598    7.6963 H   0  0  0  0  0
    7.3391   29.0274    7.8106 H   0  0  0  0  0
    4.5422   28.0831    7.0389 H   0  0  0  0  0
    3.2655   29.4228    5.3567 H   0  0  0  0  0
    4.4718   30.8748    3.7172 H   0  0  0  0  0
    6.9695   31.0011    3.7518 H   0  0  0  0  0
    8.2625   29.6853    5.4370 H   0  0  0  0  0
    5.7103   30.5320    7.8434 H   0  0  0  0  0
    4.9698   33.2689    8.8835 H   0  0  0  0  0
    3.7649   32.1689    9.5971 H   0  0  0  0  0
    4.7545   33.2094   10.6502 H   0  0  0  0  0
    9.4139   23.1506    5.9793 H   0  0  0  0  0
    9.8587   24.1124    8.2531 H   0  0  0  0  0
    9.5003   25.8706    9.7982 H   0  0  0  0  0
  2  1  4  0  0  0
  1 17  4  0  0  0
  1 18  1  0  0  0
  2  3  4  0  0  0
  4  2  1  0  0  0
  3 15  4  0  0  0
  4  5  1  0  0  0
 12  4  1  0  0  0
  5  6  1  0  0  0
  5 21  1  0  0  0
  6 18  1  0  0  0
  6 20  2  0  0  0
  7  8  4  0  0  0
  7 12  4  0  0  0
  8  9  4  0  0  0
  9 10  4  0  0  0
 10 11  4  0  0  0
 11 12  4  0  0  0
 21 13  4  0  0  0
 13 24  4  0  0  0
 24 14  1  0  0  0
 15 16  4  0  0  0
 15 19  1  0  0  0
 16 17  4  0  0  0
 21 22  4  0  0  0
 22 23  4  0  0  0
 23 24  4  0  0  0
  3 25  1  0  0  0
  4 26  1  0  0  0
  5 27  1  0  0  0
  7 28  1  0  0  0
  8 29  1  0  0  0
  9 30  1  0  0  0
 10 31  1  0  0  0
 11 32  1  0  0  0
 13 33  1  0  0  0
 14 34  1  0  0  0
 14 35  1  0  0  0
 14 36  1  0  0  0
 16 37  1  0  0  0
 17 38  1  0  0  0
 18 39  1  0  0  0
M  END
$$$$
