4mlt_ligand
  -I-interpret- 

 17 17  0  0  0  0  0  0  0  0999 V2000
   17.1480    3.6130   13.0310 C   0  0  0  0  0
   16.3100    3.3080   14.2400 C   0  0  0  0  0
   15.5720    4.3140   14.7430 O   0  0  0  0  0
   14.8390    4.0510   15.8140 C   0  0  0  0  0
   14.7780    2.8630   16.4170 C   0  0  0  0  0
   15.5260    1.7810   15.9380 C   0  0  0  0  0
   15.4870    0.2390   16.6670 S   0  0  0  0  0
   16.3380    2.0410   14.7750 C   0  0  0  0  0
   17.0480    1.0980   14.2750 O   0  0  0  0  0
   18.1984    3.4404   13.2656 H   0  0  0  0  0
   16.8467    2.9642   12.2086 H   0  0  0  0  0
   17.0048    4.6549   12.7447 H   0  0  0  0  0
   15.7669    2.7606   15.0104 H   0  0  0  0  0
   14.2436    4.8626   16.2322 H   0  0  0  0  0
   14.1397    2.7333   17.2910 H   0  0  0  0  0
   15.4224    0.9127   16.5888 H   0  0  0  0  0
   14.6671    0.2659   17.7139 H   0  0  0  0  0
  1  2  1  0  0  0
  2  3  1  0  0  0
  2  8  1  0  0  0
  3  4  1  0  0  0
  4  5  2  0  0  0
  5  6  1  0  0  0
  6  7  1  0  0  0
  6  8  1  0  0  0
  8  9  2  0  0  0
  1 10  1  0  0  0
  1 11  1  0  0  0
  1 12  1  0  0  0
  2 13  1  0  0  0
  4 14  1  0  0  0
  5 15  1  0  0  0
  6 16  1  0  0  0
  7 17  1  0  0  0
M  END
$$$$
