3rkz_ligand
  -I-interpret- 

 76 79  0  0  0  0  0  0  0  0999 V2000
    7.1670    9.3410   23.3280 C   0  0  0  0  0
    6.0010   10.2120   23.7110 C   0  0  0  0  0
    4.6750    9.8430   23.7850 C   0  0  0  0  0
    3.9470   10.9650   24.1740 N   0  0  0  0  0
    4.8190   12.0230   24.3350 C   0  0  0  0  0
    6.0960   11.5740   24.0570 C   0  0  0  0  0
    7.2570   12.4600   24.1670 C   0  0  0  0  0
    8.4020   12.0160   24.0970 O   0  0  0  0  0
    6.9980   13.8760   24.6770 C   0  0  0  0  0
    5.6950   14.0270   25.4910 C   0  0  0  0  0
    4.4800   13.4220   24.7580 C   0  0  0  0  0
    5.8840   13.3240   26.8530 C   0  0  0  0  0
    5.4300   15.5100   25.7620 C   0  0  0  0  0
    2.5480   11.0730   24.3930 C   0  0  0  0  0
    1.7470   11.9880   23.7220 C   0  0  0  0  0
    0.3690   11.9840   23.9660 C   0  0  0  0  0
   -0.2070   11.0790   24.8800 C   0  0  0  0  0
    0.6090   10.1610   25.5490 C   0  0  0  0  0
    2.0010   10.1970   25.3140 C   0  0  0  0  0
    0.1290    9.2450   26.4590 N   0  0  0  0  0
    0.8490    8.0400   26.8200 C   0  0  0  0  0
    1.2460    7.2030   25.5710 C   0  0  0  0  0
    2.4330    6.2600   25.8630 C   0  0  0  0  0
    3.4640    6.3550   24.8100 N   0  0  0  0  0
    4.2500    7.6010   24.7530 C   0  0  0  0  0
    4.0510    8.4960   23.5220 C   0  0  0  0  0
    3.7000    5.3480   23.9200 C   0  0  0  0  0
    4.5570    5.4560   23.0320 O   0  0  0  0  0
    2.9050    4.0570   23.9900 C   0  0  0  0  0
    3.5350    3.1280   25.0090 C   0  0  0  0  0
    3.0430    3.4210   22.6370 N   0  3  0  0  0
    0.0720    6.4530   24.9470 C   0  0  0  0  0
    0.0530    7.3000   27.9020 C   0  0  0  0  0
   -1.6860   11.1130   25.1590 C   0  0  0  0  0
   -2.1860   10.6570   26.2000 O   0  0  0  0  0
   -2.4510   11.7200   24.2350 N   0  0  0  0  0
    7.2397    8.5062   24.0251 H   0  0  0  0  0
    7.0180    8.9603   22.3176 H   0  0  0  0  0
    8.0848    9.9278   23.3649 H   0  0  0  0  0
    6.9078   14.5211   23.8030 H   0  0  0  0  0
    7.8233   14.1349   25.3402 H   0  0  0  0  0
    3.6164   13.4081   25.4229 H   0  0  0  0  0
    4.2388   14.0247   23.8824 H   0  0  0  0  0
    6.1005   12.2684   26.6886 H   0  0  0  0  0
    6.7132   13.7874   27.3876 H   0  0  0  0  0
    4.9712   13.4218   27.4407 H   0  0  0  0  0
    6.2624   15.9291   26.3273 H   0  0  0  0  0
    5.3299   16.0390   24.8142 H   0  0  0  0  0
    4.5097   15.6142   26.3367 H   0  0  0  0  0
    2.1838   12.6964   23.0181 H   0  0  0  0  0
   -0.2700   12.6932   23.4399 H   0  0  0  0  0
    2.6555    9.5235   25.8673 H   0  0  0  0  0
   -0.7740    9.4228   26.8987 H   0  0  0  0  0
    1.8163    8.2809   27.2610 H   0  0  0  0  0
    1.5734    7.9255   24.8234 H   0  0  0  0  0
    2.0628    5.2353   25.8953 H   0  0  0  0  0
    2.8803    6.5488   26.8141 H   0  0  0  0  0
    5.2951    7.2923   24.7302 H   0  0  0  0  0
    3.9273    8.1953   25.6078 H   0  0  0  0  0
    4.5238    8.0362   22.6542 H   0  0  0  0  0
    2.9858    8.6176   23.3255 H   0  0  0  0  0
    1.8674    4.2439   24.2668 H   0  0  0  0  0
    4.5605    2.9075   24.7126 H   0  0  0  0  0
    3.5335    3.6090   25.9871 H   0  0  0  0  0
    2.9623    2.2018   25.0573 H   0  0  0  0  0
    2.5258    2.5420   22.6215 H   0  0  0  0  0
    2.6680    4.0501   21.9271 H   0  0  0  0  0
    4.0286    3.2404   22.4465 H   0  0  0  0  0
   -0.3508    5.7671   25.6811 H   0  0  0  0  0
   -0.6895    7.1677   24.6349 H   0  0  0  0  0
    0.4209    5.8905   24.0810 H   0  0  0  0  0
   -0.0560    7.9435   28.7750 H   0  0  0  0  0
   -0.9323    7.0420   27.5138 H   0  0  0  0  0
    0.5836    6.3904   28.1834 H   0  0  0  0  0
   -3.4559   11.8106   24.3845 H   0  0  0  0  0
   -2.0265   12.0899   23.3845 H   0  0  0  0  0
  1  2  1  0  0  0
  2  3  4  0  0  0
  2  6  4  0  0  0
  3  4  4  0  0  0
  3 26  1  0  0  0
  4  5  4  0  0  0
  4 14  1  0  0  0
  5  6  4  0  0  0
  5 11  1  0  0  0
  6  7  1  0  0  0
  7  8  2  0  0  0
  7  9  1  0  0  0
  9 10  1  0  0  0
 10 11  1  0  0  0
 10 12  1  0  0  0
 10 13  1  0  0  0
 14 15  4  0  0  0
 14 19  4  0  0  0
 15 16  4  0  0  0
 16 17  4  0  0  0
 17 18  4  0  0  0
 17 34  1  0  0  0
 18 19  4  0  0  0
 18 20  1  0  0  0
 20 21  1  0  0  0
 21 22  1  0  0  0
 21 33  1  0  0  0
 22 23  1  0  0  0
 22 32  1  0  0  0
 23 24  1  0  0  0
 24 25  1  0  0  0
 24 27  1  0  0  0
 25 26  1  0  0  0
 27 28  2  0  0  0
 27 29  1  0  0  0
 29 30  1  0  0  0
 29 31  1  0  0  0
 34 35  2  0  0  0
 34 36  1  0  0  0
  1 37  1  0  0  0
  1 38  1  0  0  0
  1 39  1  0  0  0
  9 40  1  0  0  0
  9 41  1  0  0  0
 11 42  1  0  0  0
 11 43  1  0  0  0
 12 44  1  0  0  0
 12 45  1  0  0  0
 12 46  1  0  0  0
 13 47  1  0  0  0
 13 48  1  0  0  0
 13 49  1  0  0  0
 15 50  1  0  0  0
 16 51  1  0  0  0
 19 52  1  0  0  0
 20 53  1  0  0  0
 21 54  1  0  0  0
 22 55  1  0  0  0
 23 56  1  0  0  0
 23 57  1  0  0  0
 25 58  1  0  0  0
 25 59  1  0  0  0
 26 60  1  0  0  0
 26 61  1  0  0  0
 29 62  1  0  0  0
 30 63  1  0  0  0
 30 64  1  0  0  0
 30 65  1  0  0  0
 31 66  1  0  0  0
 31 67  1  0  0  0
 31 68  1  0  0  0
 32 69  1  0  0  0
 32 70  1  0  0  0
 32 71  1  0  0  0
 33 72  1  0  0  0
 33 73  1  0  0  0
 33 74  1  0  0  0
 36 75  1  0  0  0
 36 76  1  0  0  0
M  END
$$$$
