2mkr_ligand
  -I-interpret- 

216219  0  0  0  0  0  0  0  0999 V2000
  -17.0870  -14.4850   -1.6940 N   0  3  0  0  0
  -15.9800  -14.4790   -2.6430 C   0  0  0  0  0
  -15.6500  -13.0570   -3.0850 C   0  0  0  0  0
  -16.0600  -12.6200   -4.1600 O   0  0  0  0  0
  -16.3220  -15.3380   -3.8620 C   0  0  0  0  0
  -15.8940  -16.7820   -3.6900 C   0  0  0  0  0
  -14.7710  -17.0140   -3.1960 O   0  0  0  0  0
  -16.6830  -17.6820   -4.0480 O   0  0  0  0  0
  -14.9060  -12.3410   -2.2490 N   0  0  0  0  0
  -14.5200  -10.9670   -2.5540 C   0  0  0  0  0
  -13.0280  -10.7420   -2.3100 C   0  0  0  0  0
  -12.5580   -9.6040   -2.3070 O   0  0  0  0  0
  -15.3380   -9.9890   -1.7090 C   0  0  0  0  0
  -16.8540  -10.1620   -1.8040 C   0  0  0  0  0
  -17.5430   -9.4890   -0.6270 C   0  0  0  0  0
  -17.3720   -9.6010   -3.1200 C   0  0  0  0  0
  -12.2860  -11.8280   -2.1070 N   0  0  0  0  0
  -10.8510  -11.7370   -1.8640 C   0  0  0  0  0
  -10.1050  -11.3620   -3.1410 C   0  0  0  0  0
   -9.3470  -10.3920   -3.1670 O   0  0  0  0  0
  -10.3190  -13.0640   -1.3210 C   0  0  0  0  0
  -10.7330  -13.3070    0.1170 C   0  0  0  0  0
  -11.9090  -13.6590    0.3450 O   0  0  0  0  0
   -9.8800  -13.1460    1.0160 O   0  0  0  0  0
  -10.3250  -12.1370   -4.1980 N   0  0  0  0  0
   -9.6740  -11.8860   -5.4790 C   0  0  0  0  0
  -10.0300  -10.5010   -6.0090 C   0  0  0  0  0
   -9.1770   -9.7910   -6.5420 O   0  0  0  0  0
  -10.0760  -12.9540   -6.4970 C   0  0  0  0  0
  -11.5800  -13.1270   -6.6360 C   0  0  0  0  0
  -12.1340  -12.4360   -7.8670 C   0  0  0  0  0
  -11.6910  -11.3070   -8.1650 O   0  0  0  0  0
  -13.0110  -13.0250   -8.5340 O   0  0  0  0  0
  -11.2950  -10.1230   -5.8590 N   0  0  0  0  0
  -11.7650   -8.8230   -6.3220 C   0  0  0  0  0
  -11.0180   -7.6920   -5.6220 C   0  0  0  0  0
  -10.8360   -6.6120   -6.1850 O   0  0  0  0  0
  -13.2690   -8.6840   -6.0780 C   0  0  0  0  0
  -13.8970   -7.9900   -7.1430 O   0  0  0  0  0
  -10.5870   -7.9470   -4.3910 N   0  0  0  0  0
   -9.8590   -6.9500   -3.6130 C   0  0  0  0  0
   -8.5920   -6.5070   -4.3380 C   0  0  0  0  0
   -8.1310   -5.3780   -4.1700 O   0  0  0  0  0
   -9.5040   -7.5090   -2.2330 C   0  0  0  0  0
   -9.7310   -6.5330   -1.1200 C   0  0  0  0  0
   -8.8820   -6.2540   -0.0880 C   0  0  0  0  0
  -10.8840   -5.7060   -0.9260 C   0  0  0  0  0
   -9.4360   -5.3040    0.7350 N   0  0  0  0  0
  -10.6650   -4.9520    0.2420 C   0  0  0  0  0
  -12.0810   -5.5290   -1.6270 C   0  0  0  0  0
  -11.5980   -4.0370    0.7240 C   0  0  0  0  0
  -13.0060   -4.6210   -1.1480 C   0  0  0  0  0
  -12.7600   -3.8840    0.0170 C   0  0  0  0  0
   -8.0320   -7.4040   -5.1450 N   0  0  0  0  0
   -6.8180   -7.1030   -5.8940 C   0  0  0  0  0
   -7.1310   -6.2560   -7.1230 C   0  0  0  0  0
   -6.3090   -5.4510   -7.5610 O   0  0  0  0  0
   -6.1210   -8.3980   -6.3170 C   0  0  0  0  0
   -4.6950   -8.1640   -6.7740 C   0  0  0  0  0
   -3.9730   -7.3990   -6.1000 O   0  0  0  0  0
   -4.2990   -8.7460   -7.8060 O   0  0  0  0  0
   -8.3250   -6.4430   -7.6770 N   0  0  0  0  0
   -8.7460   -5.6950   -8.8560 C   0  0  0  0  0
   -9.0260   -4.2370   -8.5060 C   0  0  0  0  0
   -8.6450   -3.3280   -9.2430 O   0  0  0  0  0
   -9.9930   -6.3330   -9.4710 C   0  0  0  0  0
   -9.6850   -7.3560  -10.5420 C   0  0  0  0  0
   -9.4900   -6.9700  -11.8620 C   0  0  0  0  0
   -9.5890   -8.7060  -10.2320 C   0  0  0  0  0
   -9.2080   -7.9010  -12.8430 C   0  0  0  0  0
   -9.3070   -9.6440  -11.2070 C   0  0  0  0  0
   -9.1180   -9.2360  -12.5110 C   0  0  0  0  0
   -8.8370  -10.1660  -13.4850 O   0  0  0  0  0
   -9.6950   -4.0220   -7.3780 N   0  0  0  0  0
  -10.0260   -2.6740   -6.9300 C   0  0  0  0  0
   -8.7670   -1.8310   -6.7390 C   0  0  0  0  0
   -8.8040   -0.6070   -6.8640 O   0  0  0  0  0
  -10.8250   -2.7010   -5.6110 C   0  0  0  0  0
  -11.2200   -1.2830   -5.1930 C   0  0  0  0  0
  -10.0180   -3.3790   -4.5130 C   0  0  0  0  0
  -12.0310   -1.2320   -3.9170 C   0  0  0  0  0
   -7.6550   -2.4930   -6.4360 N   0  0  0  0  0
   -6.3880   -1.8010   -6.2280 C   0  0  0  0  0
   -5.4960   -1.9150   -7.4600 C   0  0  0  0  0
   -4.7100   -1.0140   -7.7540 O   0  0  0  0  0
   -5.6660   -2.3730   -5.0060 C   0  0  0  0  0
   -6.3830   -2.1140   -3.7120 C   0  0  0  0  0
   -6.6890   -0.8200   -3.3220 C   0  0  0  0  0
   -6.7510   -3.1640   -2.8860 C   0  0  0  0  0
   -7.3500   -0.5780   -2.1320 C   0  0  0  0  0
   -7.4110   -2.9280   -1.6960 C   0  0  0  0  0
   -7.7110   -1.6340   -1.3180 C   0  0  0  0  0
   -5.6240   -3.0260   -8.1770 N   0  0  0  0  0
   -4.8290   -3.2560   -9.3780 C   0  0  0  0  0
   -5.1330   -2.2050  -10.4410 C   0  0  0  0  0
   -4.2460   -1.4670  -10.8700 O   0  0  0  0  0
   -5.1000   -4.6540   -9.9350 C   0  0  0  0  0
   -4.2100   -5.7310   -9.3360 C   0  0  0  0  0
   -2.9600   -5.9770  -10.1580 C   0  0  0  0  0
   -2.3840   -4.9950  -10.6720 O   0  0  0  0  0
   -2.5560   -7.1520  -10.2880 O   0  0  0  0  0
   -6.3920   -2.1430  -10.8620 N   0  0  0  0  0
   -6.8130   -1.1820  -11.8740 C   0  0  0  0  0
   -7.4920    0.0230  -11.2320 C   0  0  0  0  0
   -7.5530    0.1340  -10.0070 O   0  0  0  0  0
   -7.7630   -1.8450  -12.8730 C   0  0  0  0  0
   -8.9720   -2.2240  -12.2390 O   0  0  0  0  0
   -7.1800   -3.0790  -13.5250 C   0  0  0  0  0
   -8.0020    0.9240  -12.0660 N   0  0  0  0  0
   -8.6770    2.1210  -11.5790 C   0  0  0  0  0
   -9.7290    2.5960  -12.5770 C   0  0  0  0  0
  -10.9210    2.6240  -12.2710 O   0  0  0  0  0
   -7.6620    3.2350  -11.3210 C   0  0  0  0  0
   -6.7330    3.3240  -12.3870 O   0  0  0  0  0
   -6.8760    3.0440  -10.0420 C   0  0  0  0  0
   -9.3732    2.9641  -13.7283 O   0  0  0  0  0
  -16.8451  -13.9091   -0.8876 H   0  0  0  0  0
  -17.9213  -14.1085   -2.1442 H   0  0  0  0  0
  -17.2663  -15.4416   -1.3886 H   0  0  0  0  0
  -15.1051  -14.8977   -2.1456 H   0  0  0  0  0
  -15.7916  -14.9293   -4.7220 H   0  0  0  0  0
  -17.4038  -15.3204   -3.9941 H   0  0  0  0  0
  -17.4835  -17.2838   -4.3977 H   0  0  0  0  0
  -14.5971  -12.7618   -1.3727 H   0  0  0  0  0
  -14.7228  -10.7894   -3.6101 H   0  0  0  0  0
  -15.1121   -8.9890   -2.0792 H   0  0  0  0  0
  -15.0659  -10.1687   -0.6689 H   0  0  0  0  0
  -17.0823  -11.2273   -1.7707 H   0  0  0  0  0
  -17.1928   -9.9379    0.3025 H   0  0  0  0  0
  -17.3071   -8.4248   -0.6295 H   0  0  0  0  0
  -18.6212   -9.6236   -0.7134 H   0  0  0  0  0
  -17.1313   -8.5397   -3.1809 H   0  0  0  0  0
  -16.9017  -10.1297   -3.9491 H   0  0  0  0  0
  -18.4528   -9.7332   -3.1695 H   0  0  0  0  0
  -12.7315  -12.7455   -2.1217 H   0  0  0  0  0
  -10.6828  -10.9553   -1.1232 H   0  0  0  0  0
   -9.2301  -13.0313   -1.3577 H   0  0  0  0  0
  -10.7311  -13.8677   -1.9312 H   0  0  0  0  0
   -9.0476  -12.8762    0.6211 H   0  0  0  0  0
  -10.9648  -12.9267   -4.1114 H   0  0  0  0  0
   -8.5959  -11.9291   -5.3246 H   0  0  0  0  0
   -9.6683  -13.9042   -6.1520 H   0  0  0  0  0
   -9.6919  -12.6410   -7.4679 H   0  0  0  0  0
  -12.0517  -12.6817   -5.7600 H   0  0  0  0  0
  -11.7885  -14.1930   -6.7268 H   0  0  0  0  0
  -13.2026  -13.8743   -8.1295 H   0  0  0  0  0
  -11.9537  -10.7583   -5.4086 H   0  0  0  0  0
  -11.5695   -8.7550   -7.3922 H   0  0  0  0  0
  -13.4224   -8.1218   -5.1569 H   0  0  0  0  0
  -13.7043   -9.6807   -6.0065 H   0  0  0  0  0
  -14.8375   -7.9168   -6.9652 H   0  0  0  0  0
  -10.7696   -8.8624   -3.9798 H   0  0  0  0  0
  -10.5052   -6.0808   -3.4905 H   0  0  0  0  0
   -8.4425   -7.7565   -2.2417 H   0  0  0  0  0
  -10.1475   -8.3699   -2.0516 H   0  0  0  0  0
   -7.9068   -6.7175    0.0611 H   0  0  0  0  0
  -12.2809   -6.0973   -2.5354 H   0  0  0  0  0
  -11.4096   -3.4634    1.6315 H   0  0  0  0  0
  -13.9428   -4.4760   -1.6860 H   0  0  0  0  0
  -13.5090   -3.1741    0.3679 H   0  0  0  0  0
   -8.4620   -8.3238   -5.2420 H   0  0  0  0  0
   -6.1524   -6.5347   -5.2443 H   0  0  0  0  0
   -6.6774   -8.8231   -7.1524 H   0  0  0  0  0
   -6.0937   -9.0636   -5.4543 H   0  0  0  0  0
   -4.4744   -7.0625   -5.3537 H   0  0  0  0  0
   -8.9621   -7.1262   -7.2675 H   0  0  0  0  0
   -7.9343   -5.7246   -9.5829 H   0  0  0  0  0
  -10.5715   -5.5357   -9.9376 H   0  0  0  0  0
  -10.5249   -6.8478   -8.6709 H   0  0  0  0  0
   -9.5606   -5.9154  -12.1282 H   0  0  0  0  0
   -9.7385   -9.0314   -9.2025 H   0  0  0  0  0
   -9.0574   -7.5816  -13.8742 H   0  0  0  0  0
   -9.2344  -10.7001  -10.9470 H   0  0  0  0  0
   -8.8098  -11.0413  -13.0917 H   0  0  0  0  0
   -9.9841   -4.8194   -6.8115 H   0  0  0  0  0
  -10.6424   -2.2236   -7.7080 H   0  0  0  0  0
  -11.7366   -3.2764   -5.7718 H   0  0  0  0  0
  -11.8371   -0.8673   -5.9895 H   0  0  0  0  0
  -10.2999   -0.7254   -5.0181 H   0  0  0  0  0
   -9.7900   -4.4025   -4.8107 H   0  0  0  0  0
   -9.0898   -2.8300   -4.3544 H   0  0  0  0  0
  -10.5983   -3.3883   -3.5904 H   0  0  0  0  0
  -12.9510   -1.8013   -4.0497 H   0  0  0  0  0
  -11.4502   -1.6627   -3.1014 H   0  0  0  0  0
  -12.2741   -0.1954   -3.6837 H   0  0  0  0  0
   -7.6884   -3.5085   -6.3469 H   0  0  0  0  0
   -6.6027   -0.7465   -6.0546 H   0  0  0  0  0
   -4.6918   -1.8880   -4.9439 H   0  0  0  0  0
   -5.6055   -3.4534   -5.1368 H   0  0  0  0  0
   -6.4054    0.0166   -3.9606 H   0  0  0  0  0
   -6.5170   -4.1876   -3.1787 H   0  0  0  0  0
   -7.5859    0.4444   -1.8367 H   0  0  0  0  0
   -7.6950   -3.7628   -1.0553 H   0  0  0  0  0
   -8.2317   -1.4463   -0.3790 H   0  0  0  0  0
   -6.2944   -3.7353   -7.8805 H   0  0  0  0  0
   -3.7762   -3.1788   -9.1065 H   0  0  0  0  0
   -4.9002   -4.6234  -11.0061 H   0  0  0  0  0
   -6.1312   -4.9089   -9.6905 H   0  0  0  0  0
   -4.7802   -6.6595   -9.3061 H   0  0  0  0  0
   -3.9002   -5.3979   -8.3454 H   0  0  0  0  0
   -3.1434   -7.7454   -9.8143 H   0  0  0  0  0
   -7.0806   -2.7836  -10.4673 H   0  0  0  0  0
   -5.9244   -0.8364  -12.4022 H   0  0  0  0  0
   -7.9395   -1.0958  -13.6447 H   0  0  0  0  0
   -9.5532   -2.6373  -12.8817 H   0  0  0  0  0
   -6.2720   -2.8089  -14.0642 H   0  0  0  0  0
   -6.9429   -3.8161  -12.7578 H   0  0  0  0  0
   -7.9065   -3.4981  -14.2212 H   0  0  0  0  0
   -7.9190    0.7741  -13.0715 H   0  0  0  0  0
   -9.1766    1.8710  -10.6431 H   0  0  0  0  0
   -8.2512    4.1478  -11.2334 H   0  0  0  0  0
   -6.1060    4.0279  -12.2056 H   0  0  0  0  0
   -7.5621    3.0215   -9.1953 H   0  0  0  0  0
   -6.3270    2.1037  -10.0914 H   0  0  0  0  0
   -6.1748    3.8697   -9.9212 H   0  0  0  0  0
   -8.4200    2.8833  -13.8085 H   0  0  0  0  0
  1  2  1  0  0  0
  2  3  1  0  0  0
  2  5  1  0  0  0
  3  4  2  0  0  0
  3  9  1  0  0  0
  5  6  1  0  0  0
  6  7  2  0  0  0
  6  8  1  0  0  0
  9 10  1  0  0  0
 10 11  1  0  0  0
 10 13  1  0  0  0
 11 12  2  0  0  0
 11 17  1  0  0  0
 13 14  1  0  0  0
 14 15  1  0  0  0
 14 16  1  0  0  0
 17 18  1  0  0  0
 18 19  1  0  0  0
 18 21  1  0  0  0
 19 20  2  0  0  0
 19 25  1  0  0  0
 21 22  1  0  0  0
 22 23  2  0  0  0
 22 24  1  0  0  0
 25 26  1  0  0  0
 26 27  1  0  0  0
 26 29  1  0  0  0
 27 28  2  0  0  0
 27 34  1  0  0  0
 29 30  1  0  0  0
 30 31  1  0  0  0
 31 32  2  0  0  0
 31 33  1  0  0  0
 34 35  1  0  0  0
 35 36  1  0  0  0
 35 38  1  0  0  0
 36 37  2  0  0  0
 36 40  1  0  0  0
 38 39  1  0  0  0
 40 41  1  0  0  0
 41 42  1  0  0  0
 41 44  1  0  0  0
 42 43  2  0  0  0
 42 54  1  0  0  0
 44 45  1  0  0  0
 45 46  4  0  0  0
 45 47  4  0  0  0
 46 48  4  0  0  0
 47 49  4  0  0  0
 47 50  4  0  0  0
 48 49  4  0  0  0
 49 51  4  0  0  0
 50 52  4  0  0  0
 51 53  4  0  0  0
 52 53  4  0  0  0
 54 55  1  0  0  0
 55 56  1  0  0  0
 55 58  1  0  0  0
 56 57  2  0  0  0
 56 62  1  0  0  0
 58 59  1  0  0  0
 59 60  1  0  0  0
 59 61  2  0  0  0
 62 63  1  0  0  0
 63 64  1  0  0  0
 63 66  1  0  0  0
 64 65  2  0  0  0
 64 74  1  0  0  0
 66 67  1  0  0  0
 67 68  4  0  0  0
 67 69  4  0  0  0
 68 70  4  0  0  0
 69 71  4  0  0  0
 70 72  4  0  0  0
 71 72  4  0  0  0
 72 73  1  0  0  0
 74 75  1  0  0  0
 75 76  1  0  0  0
 75 78  1  0  0  0
 76 77  2  0  0  0
 76 82  1  0  0  0
 78 79  1  0  0  0
 78 80  1  0  0  0
 79 81  1  0  0  0
 82 83  1  0  0  0
 83 84  1  0  0  0
 83 86  1  0  0  0
 84 85  2  0  0  0
 84 93  1  0  0  0
 86 87  1  0  0  0
 87 88  4  0  0  0
 87 89  4  0  0  0
 88 90  4  0  0  0
 89 91  4  0  0  0
 90 92  4  0  0  0
 91 92  4  0  0  0
 93 94  1  0  0  0
 94 95  1  0  0  0
 94 97  1  0  0  0
 95 96  2  0  0  0
 95102  1  0  0  0
 97 98  1  0  0  0
 98 99  1  0  0  0
 99100  2  0  0  0
 99101  1  0  0  0
102103  1  0  0  0
103104  1  0  0  0
103106  1  0  0  0
104105  2  0  0  0
104109  1  0  0  0
106107  1  0  0  0
106108  1  0  0  0
109110  1  0  0  0
110111  1  0  0  0
110113  1  0  0  0
111112  2  0  0  0
113114  1  0  0  0
113115  1  0  0  0
111116  1  0  0  0
  1117  1  0  0  0
  1118  1  0  0  0
  1119  1  0  0  0
  2120  1  0  0  0
  5121  1  0  0  0
  5122  1  0  0  0
  8123  1  0  0  0
  9124  1  0  0  0
 10125  1  0  0  0
 13126  1  0  0  0
 13127  1  0  0  0
 14128  1  0  0  0
 15129  1  0  0  0
 15130  1  0  0  0
 15131  1  0  0  0
 16132  1  0  0  0
 16133  1  0  0  0
 16134  1  0  0  0
 17135  1  0  0  0
 18136  1  0  0  0
 21137  1  0  0  0
 21138  1  0  0  0
 24139  1  0  0  0
 25140  1  0  0  0
 26141  1  0  0  0
 29142  1  0  0  0
 29143  1  0  0  0
 30144  1  0  0  0
 30145  1  0  0  0
 33146  1  0  0  0
 34147  1  0  0  0
 35148  1  0  0  0
 38149  1  0  0  0
 38150  1  0  0  0
 39151  1  0  0  0
 40152  1  0  0  0
 41153  1  0  0  0
 44154  1  0  0  0
 44155  1  0  0  0
 46156  1  0  0  0
 50157  1  0  0  0
 51158  1  0  0  0
 52159  1  0  0  0
 53160  1  0  0  0
 54161  1  0  0  0
 55162  1  0  0  0
 58163  1  0  0  0
 58164  1  0  0  0
 60165  1  0  0  0
 62166  1  0  0  0
 63167  1  0  0  0
 66168  1  0  0  0
 66169  1  0  0  0
 68170  1  0  0  0
 69171  1  0  0  0
 70172  1  0  0  0
 71173  1  0  0  0
 73174  1  0  0  0
 74175  1  0  0  0
 75176  1  0  0  0
 78177  1  0  0  0
 79178  1  0  0  0
 79179  1  0  0  0
 80180  1  0  0  0
 80181  1  0  0  0
 80182  1  0  0  0
 81183  1  0  0  0
 81184  1  0  0  0
 81185  1  0  0  0
 82186  1  0  0  0
 83187  1  0  0  0
 86188  1  0  0  0
 86189  1  0  0  0
 88190  1  0  0  0
 89191  1  0  0  0
 90192  1  0  0  0
 91193  1  0  0  0
 92194  1  0  0  0
 93195  1  0  0  0
 94196  1  0  0  0
 97197  1  0  0  0
 97198  1  0  0  0
 98199  1  0  0  0
 98200  1  0  0  0
101201  1  0  0  0
102202  1  0  0  0
103203  1  0  0  0
106204  1  0  0  0
107205  1  0  0  0
108206  1  0  0  0
108207  1  0  0  0
108208  1  0  0  0
109209  1  0  0  0
110210  1  0  0  0
113211  1  0  0  0
114212  1  0  0  0
115213  1  0  0  0
115214  1  0  0  0
115215  1  0  0  0
116216  1  0  0  0
M  END
$$$$
