### 
### Created by X-TOOL on Mon Sep 10 21:13:20 2018
### 

@<TRIPOS>MOLECULE
2mkr_ligand
  211   214     1     0     0
SMALL
GAST_HUCK


@<TRIPOS>ATOM
      1 N         -17.0870  -14.4850   -1.6940 N.4       1 ASP         0.2391
      2 CA        -15.9800  -14.4790   -2.6430 C.3       1 ASP         0.0764
      3 C         -15.6500  -13.0570   -3.0850 C.2       1 ASP         0.2284
      4 O         -16.0600  -12.6200   -4.1600 O.2       1 ASP        -0.3906
      5 CB        -16.3220  -15.3380   -3.8620 C.3       1 ASP         0.0607
      6 CG        -15.8940  -16.7820   -3.6900 C.2       1 ASP         0.0425
      7 OD1       -14.7710  -17.0140   -3.1960 O.co2     1 ASP        -0.5686
      8 OD2       -16.6830  -17.6820   -4.0480 O.co2     1 ASP        -0.5686
      9 N         -14.9060  -12.3410   -2.2490 N.am      1 LEU        -0.2609
     10 CA        -14.5200  -10.9670   -2.5540 C.3       1 LEU         0.1313
     11 C         -13.0280  -10.7420   -2.3100 C.2       1 LEU         0.2040
     12 O         -12.5580   -9.6040   -2.3070 O.2       1 LEU        -0.3944
     13 CB        -15.3380   -9.9890   -1.7090 C.3       1 LEU        -0.0101
     14 CG        -16.8540  -10.1620   -1.8040 C.3       1 LEU        -0.0425
     15 CD1       -17.5430   -9.4890   -0.6270 C.3       1 LEU        -0.0625
     16 CD2       -17.3720   -9.6010   -3.1200 C.3       1 LEU        -0.0625
     17 N         -12.2860  -11.8280   -2.1070 N.am      1 ASP        -0.2622
     18 CA        -10.8510  -11.7370   -1.8640 C.3       1 ASP         0.1423
     19 C         -10.1050  -11.3620   -3.1410 C.2       1 ASP         0.2056
     20 O          -9.3470  -10.3920   -3.1670 O.2       1 ASP        -0.3943
     21 CB        -10.3190  -13.0640   -1.3210 C.3       1 ASP         0.0406
     22 CG        -10.7330  -13.3070    0.1170 C.2       1 ASP         0.0393
     23 OD1       -11.9090  -13.6590    0.3450 O.co2     1 ASP        -0.5688
     24 OD2        -9.8800  -13.1460    1.0160 O.co2     1 ASP        -0.5688
     25 N         -10.3250  -12.1370   -4.1980 N.am      1 GLU        -0.2635
     26 CA         -9.6740  -11.8860   -5.4790 C.3       1 GLU         0.1325
     27 C         -10.0300  -10.5010   -6.0090 C.2       1 GLU         0.2041
     28 O          -9.1770   -9.7910   -6.5420 O.2       1 GLU        -0.3944
     29 CB        -10.0760  -12.9540   -6.4970 C.3       1 GLU        -0.0008
     30 CG        -11.5800  -13.1270   -6.6360 C.3       1 GLU         0.0044
     31 CD        -12.1340  -12.4360   -7.8670 C.2       1 GLU         0.0350
     32 OE1       -11.6910  -11.3070   -8.1650 O.co2     1 GLU        -0.5690
     33 OE2       -13.0110  -13.0250   -8.5340 O.co2     1 GLU        -0.5690
     34 N         -11.2950  -10.1230   -5.8590 N.am      1 SER        -0.2616
     35 CA        -11.7650   -8.8230   -6.3220 C.3       1 SER         0.1539
     36 C         -11.0180   -7.6920   -5.6220 C.2       1 SER         0.2063
     37 O         -10.8360   -6.6120   -6.1850 O.2       1 SER        -0.3943
     38 CB        -13.2690   -8.6840   -6.0780 C.3       1 SER         0.0843
     39 OG        -13.8970   -7.9900   -7.1430 O.3       1 SER        -0.3903
     40 N         -10.5870   -7.9470   -4.3910 N.am      1 TRP        -0.2626
     41 CA         -9.8590   -6.9500   -3.6130 C.3       1 TRP         0.1352
     42 C          -8.5920   -6.5070   -4.3380 C.2       1 TRP         0.2052
     43 O          -8.1310   -5.3780   -4.1700 O.2       1 TRP        -0.3942
     44 CB         -9.5040   -7.5090   -2.2330 C.3       1 TRP         0.0042
     45 CG         -9.7310   -6.5330   -1.1200 C.2       1 TRP        -0.0418
     46 CD1        -8.8820   -6.2540   -0.0880 C.2       1 TRP         0.0167
     47 CD2       -10.8840   -5.7060   -0.9260 C.ar      1 TRP        -0.0214
     48 NE1        -9.4360   -5.3040    0.7350 N.pl3     1 TRP        -0.2890
     49 CE2       -10.6650   -4.9520    0.2420 C.ar      1 TRP         0.0603
     50 CE3       -12.0810   -5.5290   -1.6270 C.ar      1 TRP        -0.0747
     51 CZ2       -11.5980   -4.0370    0.7240 C.ar      1 TRP        -0.0443
     52 CZ3       -13.0060   -4.6210   -1.1480 C.ar      1 TRP        -0.0792
     53 CH2       -12.7600   -3.8840    0.0170 C.ar      1 TRP        -0.0768
     54 N          -8.0320   -7.4040   -5.1450 N.am      1 ASP        -0.2621
     55 CA         -6.8180   -7.1030   -5.8940 C.3       1 ASP         0.1423
     56 C          -7.1310   -6.2560   -7.1230 C.2       1 ASP         0.2057
     57 O          -6.3090   -5.4510   -7.5610 O.2       1 ASP        -0.3943
     58 CB         -6.1210   -8.3980   -6.3170 C.3       1 ASP         0.0406
     59 CG         -4.6950   -8.1640   -6.7740 C.2       1 ASP         0.0393
     60 OD1        -3.9730   -7.3990   -6.1000 O.co2     1 ASP        -0.5688
     61 OD2        -4.2990   -8.7460   -7.8060 O.co2     1 ASP        -0.5688
     62 N          -8.3250   -6.4430   -7.6770 N.am      1 TYR        -0.2620
     63 CA         -8.7460   -5.6950   -8.8560 C.3       1 TYR         0.1390
     64 C          -9.0260   -4.2370   -8.5060 C.2       1 TYR         0.2057
     65 O          -8.6450   -3.3280   -9.2430 O.2       1 TYR        -0.3942
     66 CB         -9.9930   -6.3330   -9.4710 C.3       1 TYR         0.0163
     67 CG         -9.6850   -7.3560  -10.5420 C.ar      1 TYR        -0.0493
     68 CD1        -9.4900   -6.9700  -11.8620 C.ar      1 TYR        -0.0685
     69 CD2        -9.5890   -8.7060  -10.2320 C.ar      1 TYR        -0.0685
     70 CE1        -9.2080   -7.9010  -12.8430 C.ar      1 TYR        -0.0398
     71 CE2        -9.3070   -9.6440  -11.2070 C.ar      1 TYR        -0.0398
     72 CZ         -9.1180   -9.2360  -12.5110 C.ar      1 TYR         0.0805
     73 OH         -8.8370  -10.1660  -13.4850 O.3       1 TYR        -0.3376
     74 N          -9.6950   -4.0220   -7.3780 N.am      1 ILE        -0.2633
     75 CA        -10.0260   -2.6740   -6.9300 C.3       1 ILE         0.1335
     76 C          -8.7670   -1.8310   -6.7390 C.2       1 ILE         0.2043
     77 O          -8.8040   -0.6070   -6.8640 O.2       1 ILE        -0.3944
     78 CB        -10.8250   -2.7010   -5.6110 C.3       1 ILE        -0.0037
     79 CG1       -11.2200   -1.2830   -5.1930 C.3       1 ILE        -0.0491
     80 CG2       -10.0180   -3.3790   -4.5130 C.3       1 ILE        -0.0582
     81 CD1       -12.0310   -1.2320   -3.9170 C.3       1 ILE        -0.0648
     82 N          -7.6550   -2.4930   -6.4360 N.am      1 PHE        -0.2619
     83 CA         -6.3880   -1.8010   -6.2280 C.3       1 PHE         0.1404
     84 C          -5.4960   -1.9150   -7.4600 C.2       1 PHE         0.2060
     85 O          -4.7100   -1.0140   -7.7540 O.2       1 PHE        -0.3942
     86 CB         -5.6660   -2.3730   -5.0060 C.3       1 PHE         0.0214
     87 CG         -6.3830   -2.1140   -3.7120 C.ar      1 PHE        -0.0386
     88 CD1        -6.6890   -0.8200   -3.3220 C.ar      1 PHE        -0.0601
     89 CD2        -6.7510   -3.1640   -2.8860 C.ar      1 PHE        -0.0601
     90 CE1        -7.3500   -0.5780   -2.1320 C.ar      1 PHE        -0.0686
     91 CE2        -7.4110   -2.9280   -1.6960 C.ar      1 PHE        -0.0686
     92 CZ         -7.7110   -1.6340   -1.3180 C.ar      1 PHE        -0.0687
     93 N          -5.6240   -3.0260   -8.1770 N.am      1 GLU        -0.2635
     94 CA         -4.8290   -3.2560   -9.3780 C.3       1 GLU         0.1325
     95 C          -5.1330   -2.2050  -10.4410 C.2       1 GLU         0.2041
     96 O          -4.2460   -1.4670  -10.8700 O.2       1 GLU        -0.3944
     97 CB         -5.1000   -4.6540   -9.9350 C.3       1 GLU        -0.0008
     98 CG         -4.2100   -5.7310   -9.3360 C.3       1 GLU         0.0044
     99 CD         -2.9600   -5.9770  -10.1580 C.2       1 GLU         0.0350
    100 OE1        -2.3840   -4.9950  -10.6720 O.co2     1 GLU        -0.5690
    101 OE2        -2.5560   -7.1520  -10.2880 O.co2     1 GLU        -0.5690
    102 N          -6.3920   -2.1430  -10.8620 N.am      1 THR        -0.2613
    103 CA         -6.8130   -1.1820  -11.8740 C.3       1 THR         0.1564
    104 C          -7.4920    0.0230  -11.2320 C.2       1 THR         0.2061
    105 O          -7.5530    0.1340  -10.0070 O.2       1 THR        -0.3943
    106 CB         -7.7630   -1.8450  -12.8730 C.3       1 THR         0.0924
    107 OG1        -8.9720   -2.2240  -12.2390 O.3       1 THR        -0.3874
    108 CG2        -7.1800   -3.0790  -13.5250 C.3       1 THR        -0.0346
    109 N          -8.0020    0.9240  -12.0660 N.am      1 THR        -0.2645
    110 CA         -8.6770    2.1210  -11.5790 C.3       1 THR         0.1480
    111 C          -9.7290    2.5960  -12.5770 C.2       1 THR         0.2175
    112 O         -10.9210    2.6240  -12.2710 O.co2     1 THR        -0.4119
    113 CB         -7.6620    3.2350  -11.3210 C.3       1 THR         0.0893
    114 OG1        -6.7330    3.3240  -12.3870 O.3       1 THR        -0.3880
    115 CG2        -6.8760    3.0440  -10.0420 C.3       1 THR        -0.0351
    116 H         -17.2867  -15.4333   -1.4167 H         1 ASP         0.2016
    117 H         -17.9033  -14.0827   -2.1274 H         1 ASP         0.2016
    118 H         -16.8363  -13.9432   -0.8818 H         1 ASP         0.2016
    119 H         -15.0949  -14.9059   -2.1487 H         1 ASP         0.1117
    120 H         -15.8115  -14.9208   -4.7426 H         1 ASP         0.0512
    121 H         -17.4101  -15.3087   -4.0208 H         1 ASP         0.0512
    122 H         -14.6031  -12.7536   -1.3899 H         1 LEU         0.1885
    123 H         -14.7312  -10.7756   -3.6164 H         1 LEU         0.0800
    124 H         -15.0904   -8.9677   -2.0341 H         1 LEU         0.0315
    125 H         -15.0452  -10.1200   -0.6568 H         1 LEU         0.0315
    126 H         -17.0834  -11.2373   -1.7712 H         1 LEU         0.0298
    127 H         -18.6313   -9.6242   -0.7130 H         1 LEU         0.0232
    128 H         -17.3057   -8.4149   -0.6284 H         1 LEU         0.0232
    129 H         -17.1905   -9.9412    0.3117 H         1 LEU         0.0232
    130 H         -16.8621  -10.0999   -3.9573 H         1 LEU         0.0232
    131 H         -17.1731   -8.5199   -3.1614 H         1 LEU         0.0232
    132 H         -18.4553   -9.7776   -3.1928 H         1 LEU         0.0232
    133 H         -12.7227  -12.7275   -2.1214 H         1 ASP         0.1884
    134 H         -10.6741  -10.9533   -1.1127 H         1 ASP         0.0819
    135 H          -9.2204  -13.0531   -1.3753 H         1 ASP         0.0478
    136 H         -10.7088  -13.8825   -1.9440 H         1 ASP         0.0478
    137 H         -10.9522  -12.9112   -4.1131 H         1 GLU         0.1883
    138 H          -8.5851  -11.9339   -5.3311 H         1 GLU         0.0801
    139 H          -9.6431  -13.9150   -6.1822 H         1 GLU         0.0330
    140 H          -9.6664  -12.6711   -7.4779 H         1 GLU         0.0330
    141 H         -12.0673  -12.7042   -5.7451 H         1 GLU         0.0433
    142 H         -11.8066  -14.2013   -6.7028 H         1 GLU         0.0433
    143 H         -11.9408  -10.7459   -5.4174 H         1 SER         0.1884
    144 H         -11.5761   -8.7497   -7.4032 H         1 SER         0.0823
    145 H         -13.4314   -8.1289   -5.1423 H         1 SER         0.0606
    146 H         -13.7131   -9.6866   -5.9913 H         1 SER         0.0606
    147 H         -14.8277   -7.9176   -6.9671 H         1 SER         0.2097
    148 H         -10.7660   -8.8445   -3.9879 H         1 TRP         0.1884
    149 H         -10.5084   -6.0723   -3.4794 H         1 TRP         0.0815
    150 H          -8.4417   -7.7946   -2.2351 H         1 TRP         0.0397
    151 H         -10.1228   -8.3994   -2.0476 H         1 TRP         0.0397
    152 H          -7.9077   -6.7171    0.0610 H         1 TRP         0.0795
    153 H          -8.9988   -4.9190    1.5844 H         1 TRP         0.2216
    154 H         -12.2798   -6.0942   -2.5304 H         1 TRP         0.0540
    155 H         -11.4106   -3.4666    1.6265 H         1 TRP         0.0541
    156 H         -13.9377   -4.4768   -1.6830 H         1 TRP         0.0510
    157 H         -13.5049   -3.1780    0.3660 H         1 TRP         0.0530
    158 H          -8.4536   -8.3058   -5.2401 H         1 ASP         0.1884
    159 H          -6.1386   -6.5347   -5.2418 H         1 ASP         0.0819
    160 H          -6.6874   -8.8500   -7.1445 H         1 ASP         0.0478
    161 H          -6.1087   -9.0885   -5.4608 H         1 ASP         0.0478
    162 H          -8.9496   -7.1128   -7.2755 H         1 TYR         0.1885
    163 H          -7.9333   -5.7264   -9.5966 H         1 TYR         0.0821
    164 H         -10.6069   -5.5367   -9.9172 H         1 TYR         0.0453
    165 H         -10.5610   -6.8286   -8.6699 H         1 TYR         0.0453
    166 H          -9.5602   -5.9212  -12.1267 H         1 TYR         0.0530
    167 H          -9.7377   -9.0296   -9.2082 H         1 TYR         0.0530
    168 H          -9.0583   -7.5834  -13.8686 H         1 TYR         0.0525
    169 H          -9.2348  -10.6942  -10.9485 H         1 TYR         0.0525
    170 H          -8.7359   -9.7265  -14.3212 H         1 TYR         0.2458
    171 H          -9.9785   -4.8038   -6.8226 H         1 ILE         0.1883
    172 H         -10.6482   -2.2007   -7.7039 H         1 ILE         0.0803
    173 H         -11.7443   -3.2825   -5.7744 H         1 ILE         0.0345
    174 H         -11.8158   -0.8351   -6.0019 H         1 ILE         0.0267
    175 H         -10.3019   -0.6954   -5.0453 H         1 ILE         0.0267
    176 H          -9.7447   -4.3953   -4.8332 H         1 ILE         0.0235
    177 H         -10.6214   -3.4337   -3.5949 H         1 ILE         0.0235
    178 H          -9.1046   -2.7982   -4.3174 H         1 ILE         0.0235
    179 H         -12.2770   -0.1863   -3.6805 H         1 ILE         0.0230
    180 H         -11.4459   -1.6664   -3.0930 H         1 ILE         0.0230
    181 H         -12.9598   -1.8061   -4.0497 H         1 ILE         0.0230
    182 H          -7.6878   -3.4886   -6.3486 H         1 PHE         0.1885
    183 H          -6.5982   -0.7367   -6.0461 H         1 PHE         0.0823
    184 H          -4.6663   -1.9179   -4.9474 H         1 PHE         0.0474
    185 H          -5.5667   -3.4606   -5.1375 H         1 PHE         0.0474
    186 H          -6.4069    0.0120   -3.9571 H         1 PHE         0.0557
    187 H          -6.5183   -4.1819   -3.1771 H         1 PHE         0.0557
    188 H          -7.5846    0.4387   -1.8383 H         1 PHE         0.0599
    189 H          -7.6935   -3.7582   -1.0588 H         1 PHE         0.0599
    190 H          -8.2289   -1.4474   -0.3842 H         1 PHE         0.0559
    191 H          -6.2812   -3.7214   -7.8863 H         1 GLU         0.1883
    192 H          -3.7646   -3.1846   -9.1100 H         1 GLU         0.0801
    193 H          -4.9362   -4.6328  -11.0225 H         1 GLU         0.0330
    194 H          -6.1484   -4.9140   -9.7270 H         1 GLU         0.0330
    195 H          -4.7825   -6.6683   -9.2761 H         1 GLU         0.0433
    196 H          -3.9109   -5.4188   -8.3246 H         1 GLU         0.0433
    197 H          -7.0671   -2.7710  -10.4750 H         1 THR         0.1884
    198 H          -5.9211   -0.8332  -12.4152 H         1 THR         0.0826
    199 H          -7.9885   -1.1107  -13.6603 H         1 THR         0.0639
    200 H          -8.7825   -2.8390  -11.5402 H         1 THR         0.2101
    201 H          -7.9123   -3.5030  -14.2279 H         1 THR         0.0257
    202 H          -6.9403   -3.8237  -12.7518 H         1 THR         0.0257
    203 H          -6.2636   -2.8078  -14.0696 H         1 THR         0.0257
    204 H          -7.9206    0.7771  -13.0518 H         1 THR         0.1877
    205 H          -9.1792    1.8765  -10.6314 H         1 THR         0.0777
    206 O1         -9.3732    2.9641  -13.7283 O.co2     1 THR        -0.4119
    207 H          -8.2148    4.1833  -11.2500 H         1 THR         0.0633
    208 H          -7.1965    3.5117  -13.1947 H         1 THR         0.2100
    209 H          -6.1679    3.8768   -9.9190 H         1 THR         0.0256
    210 H          -6.3214    2.0953  -10.0906 H         1 THR         0.0256
    211 H          -7.5673    3.0212   -9.1867 H         1 THR         0.0256
@<TRIPOS>BOND
     1    1    2 1  
     2    2    3 1  
     3    2    5 1  
     4    3    4 2  
     5    3    9 am 
     6    5    6 1  
     7    6    7 ar 
     8    6    8 ar 
     9    9   10 1  
    10   10   11 1  
    11   10   13 1  
    12   11   12 2  
    13   11   17 am 
    14   13   14 1  
    15   14   15 1  
    16   14   16 1  
    17   17   18 1  
    18   18   19 1  
    19   18   21 1  
    20   19   20 2  
    21   19   25 am 
    22   21   22 1  
    23   22   23 ar 
    24   22   24 ar 
    25   25   26 1  
    26   26   27 1  
    27   26   29 1  
    28   27   28 2  
    29   27   34 am 
    30   29   30 1  
    31   30   31 1  
    32   31   32 ar 
    33   31   33 ar 
    34   34   35 1  
    35   35   36 1  
    36   35   38 1  
    37   36   37 2  
    38   36   40 am 
    39   38   39 1  
    40   40   41 1  
    41   41   42 1  
    42   41   44 1  
    43   42   43 2  
    44   42   54 am 
    45   44   45 1  
    46   45   46 2  
    47   45   47 1  
    48   46   48 1  
    49   47   49 ar 
    50   47   50 ar 
    51   48   49 1  
    52   49   51 ar 
    53   50   52 ar 
    54   51   53 ar 
    55   52   53 ar 
    56   54   55 1  
    57   55   56 1  
    58   55   58 1  
    59   56   57 2  
    60   56   62 am 
    61   58   59 1  
    62   59   60 ar 
    63   59   61 ar 
    64   62   63 1  
    65   63   64 1  
    66   63   66 1  
    67   64   65 2  
    68   64   74 am 
    69   66   67 1  
    70   67   68 ar 
    71   67   69 ar 
    72   68   70 ar 
    73   69   71 ar 
    74   70   72 ar 
    75   71   72 ar 
    76   72   73 1  
    77   74   75 1  
    78   75   76 1  
    79   75   78 1  
    80   76   77 2  
    81   76   82 am 
    82   78   79 1  
    83   78   80 1  
    84   79   81 1  
    85   82   83 1  
    86   83   84 1  
    87   83   86 1  
    88   84   85 2  
    89   84   93 am 
    90   86   87 1  
    91   87   88 ar 
    92   87   89 ar 
    93   88   90 ar 
    94   89   91 ar 
    95   90   92 ar 
    96   91   92 ar 
    97   93   94 1  
    98   94   95 1  
    99   94   97 1  
   100   95   96 2  
   101   95  102 am 
   102   97   98 1  
   103   98   99 1  
   104   99  100 ar 
   105   99  101 ar 
   106  102  103 1  
   107  103  104 1  
   108  103  106 1  
   109  104  105 2  
   110  104  109 am 
   111  106  107 1  
   112  106  108 1  
   113  109  110 1  
   114  110  111 1  
   115  110  113 1  
   116  111  112 ar 
   117  113  114 1  
   118  113  115 1  
   119    1  116 1  
   120    1  117 1  
   121    1  118 1  
   122    2  119 1  
   123    5  120 1  
   124    5  121 1  
   125    9  122 1  
   126   10  123 1  
   127   13  124 1  
   128   13  125 1  
   129   14  126 1  
   130   15  127 1  
   131   15  128 1  
   132   15  129 1  
   133   16  130 1  
   134   16  131 1  
   135   16  132 1  
   136   17  133 1  
   137   18  134 1  
   138   21  135 1  
   139   21  136 1  
   140   25  137 1  
   141   26  138 1  
   142   29  139 1  
   143   29  140 1  
   144   30  141 1  
   145   30  142 1  
   146   34  143 1  
   147   35  144 1  
   148   38  145 1  
   149   38  146 1  
   150   39  147 1  
   151   40  148 1  
   152   41  149 1  
   153   44  150 1  
   154   44  151 1  
   155   46  152 1  
   156   48  153 1  
   157   50  154 1  
   158   51  155 1  
   159   52  156 1  
   160   53  157 1  
   161   54  158 1  
   162   55  159 1  
   163   58  160 1  
   164   58  161 1  
   165   62  162 1  
   166   63  163 1  
   167   66  164 1  
   168   66  165 1  
   169   68  166 1  
   170   69  167 1  
   171   70  168 1  
   172   71  169 1  
   173   73  170 1  
   174   74  171 1  
   175   75  172 1  
   176   78  173 1  
   177   79  174 1  
   178   79  175 1  
   179   80  176 1  
   180   80  177 1  
   181   80  178 1  
   182   81  179 1  
   183   81  180 1  
   184   81  181 1  
   185   82  182 1  
   186   83  183 1  
   187   86  184 1  
   188   86  185 1  
   189   88  186 1  
   190   89  187 1  
   191   90  188 1  
   192   91  189 1  
   193   92  190 1  
   194   93  191 1  
   195   94  192 1  
   196   97  193 1  
   197   97  194 1  
   198   98  195 1  
   199   98  196 1  
   200  102  197 1  
   201  103  198 1  
   202  106  199 1  
   203  107  200 1  
   204  108  201 1  
   205  108  202 1  
   206  108  203 1  
   207  109  204 1  
   208  110  205 1  
   209  111  206 ar 
   210  113  207 1  
   211  114  208 1  
   212  115  209 1  
   213  115  210 1  
   214  115  211 1  
@<TRIPOS>SUBSTRUCTURE
     1 ASP         1

