5t1a_ligand
  -I-interpret- 

 43 45  0  0  0  0  0  0  0  0999 V2000
    3.5280   25.4410  191.3320 C   0  0  0  0  0
    4.6720   26.1300  190.6440 C   0  0  0  0  0
    5.8260   25.8810  190.9560 O   0  0  0  0  0
    4.4030   27.1550  189.5760 C   0  0  0  0  0
    3.3370   27.6970  189.3190 C   0  0  0  0  0
    3.6370   28.6540  188.2110 C   0  0  0  0  0
    2.7540   29.4030  187.6590 O   0  0  0  0  0
    4.9450   28.5900  187.9220 N   0  0  0  0  0
    5.6050   27.5930  188.7940 C   0  0  0  0  0
    6.1640   26.5780  187.7880 C   0  0  0  0  0
    7.5500   26.0710  188.1760 C   0  0  0  0  0
    8.1430   25.2770  187.0210 C   0  0  0  0  0
    7.2510   24.0850  186.7020 C   0  0  0  0  0
    5.8360   24.5390  186.3680 C   0  0  0  0  0
    5.2450   25.3970  187.4830 C   0  0  0  0  0
    5.5660   29.3150  186.9900 C   0  0  0  0  0
    6.6480   30.1230  187.3330 C   0  0  0  0  0
    7.3300   30.9070  186.4180 C   0  0  0  0  0
    6.9350   30.9090  185.0940 C   0  0  0  0  0
    5.8600   30.1220  184.7110 C   0  0  0  0  0
    5.1920   29.3420  185.6520 C   0  0  0  0  0
    4.1520   28.5880  185.2520 F   0  0  0  0  0
    7.8210   31.9240  183.9120 Cl  0  0  0  0  0
    1.9910   27.4930  189.9050 O   0  0  0  0  0
    3.6098   24.3647  191.1807 H   0  0  0  0  0
    3.5605   25.6627  192.3987 H   0  0  0  0  0
    2.5865   25.7975  190.9141 H   0  0  0  0  0
    6.4241   27.8525  189.4647 H   0  0  0  0  0
    6.2390   27.1546  186.8660 H   0  0  0  0  0
    7.4691   25.4295  189.0535 H   0  0  0  0  0
    8.1962   26.9190  188.4028 H   0  0  0  0  0
    9.1343   24.9204  187.3006 H   0  0  0  0  0
    8.2150   25.9183  186.1425 H   0  0  0  0  0
    7.2130   23.4323  187.5741 H   0  0  0  0  0
    7.6630   23.5595  185.8405 H   0  0  0  0  0
    5.2103   23.6551  186.2445 H   0  0  0  0  0
    5.8712   25.1350  185.4560 H   0  0  0  0  0
    4.2739   25.7754  187.1637 H   0  0  0  0  0
    5.1380   24.7886  188.3810 H   0  0  0  0  0
    6.9737   30.1387  188.3731 H   0  0  0  0  0
    8.1729   31.5185  186.7400 H   0  0  0  0  0
    5.5365   30.1136  183.6702 H   0  0  0  0  0
    1.3645   28.0814  189.4774 H   0  0  0  0  0
  1  2  1  0  0  0
  2  3  2  0  0  0
  2  4  1  0  0  0
  4  5  2  0  0  0
  4  9  1  0  0  0
  5  6  1  0  0  0
  5 24  1  0  0  0
  6  7  2  0  0  0
  6  8  1  0  0  0
  8  9  1  0  0  0
  8 16  1  0  0  0
  9 10  1  0  0  0
 10 11  1  0  0  0
 10 15  1  0  0  0
 11 12  1  0  0  0
 12 13  1  0  0  0
 13 14  1  0  0  0
 14 15  1  0  0  0
 16 17  4  0  0  0
 16 21  4  0  0  0
 17 18  4  0  0  0
 18 19  4  0  0  0
 19 20  4  0  0  0
 19 23  1  0  0  0
 20 21  4  0  0  0
 21 22  1  0  0  0
  1 25  1  0  0  0
  1 26  1  0  0  0
  1 27  1  0  0  0
  9 28  1  0  0  0
 10 29  1  0  0  0
 11 30  1  0  0  0
 11 31  1  0  0  0
 12 32  1  0  0  0
 12 33  1  0  0  0
 13 34  1  0  0  0
 13 35  1  0  0  0
 14 36  1  0  0  0
 14 37  1  0  0  0
 15 38  1  0  0  0
 15 39  1  0  0  0
 17 40  1  0  0  0
 18 41  1  0  0  0
 20 42  1  0  0  0
 24 43  1  0  0  0
M  END
$$$$
