6ey8_ligand
  -I-interpret- 

 48 51  0  0  0  0  0  0  0  0999 V2000
   -0.8020   33.8450   23.5170 C   0  0  0  0  0
   -1.9690   33.5610   24.2640 C   0  0  0  0  0
   -1.9010   32.8990   25.4630 C   0  0  0  0  0
   -3.1810   33.8770   23.7680 O   0  0  0  0  0
    0.5400   32.8810   25.2620 C   0  0  0  0  0
   -0.6500   32.5790   25.9860 C   0  0  0  0  0
    1.6400   32.4000   26.0820 C   0  0  0  0  0
    3.1220   32.5580   25.7970 C   0  0  0  0  0
    3.7090   31.6340   24.7590 C   0  0  0  0  0
    4.2500   32.1790   23.5920 C   0  0  0  0  0
    4.8820   31.3490   22.6590 C   0  0  0  0  0
    3.8370   30.2640   25.0130 C   0  0  0  0  0
   -0.5170   36.4920   20.7720 C   0  0  0  0  0
   -0.1690   36.7330   23.2420 C   0  0  0  0  0
    2.3000   36.3110   22.9500 C   0  0  0  0  0
    3.5690   36.2390   23.4950 C   0  0  0  0  0
    0.4680   33.4750   23.9990 C   0  0  0  0  0
   -0.8740   34.5540   22.2180 C   0  0  0  0  0
   -0.4780   35.8570   22.0900 N   0  0  0  0  0
   -1.2220   33.9180   21.2390 O   0  0  0  0  0
   -0.2710   31.9880   27.1530 N   0  0  0  0  0
    1.1190   31.9600   27.1850 N   0  0  0  0  0
    4.9900   29.9750   22.9120 C   0  0  0  0  0
    4.4810   29.4380   24.0930 C   0  0  0  0  0
    1.2300   36.6780   23.7690 C   0  0  0  0  0
    3.7610   36.5410   24.8470 C   0  0  0  0  0
    2.6920   36.8830   25.6740 C   0  0  0  0  0
    1.4190   36.9690   25.1200 C   0  0  0  0  0
    5.3630   36.4520   25.5010 Cl  0  0  0  0  0
   -2.8110   32.6276   25.9982 H   0  0  0  0  0
   -3.8597   33.6189   24.3959 H   0  0  0  0  0
    3.6354   32.3286   26.7307 H   0  0  0  0  0
    3.2490   33.5685   25.4085 H   0  0  0  0  0
    4.1799   33.2511   23.4080 H   0  0  0  0  0
    5.2885   31.7697   21.7393 H   0  0  0  0  0
    3.4321   29.8415   25.9326 H   0  0  0  0  0
   -1.2815   37.2689   20.7669 H   0  0  0  0  0
    0.4548   36.9353   20.5548 H   0  0  0  0  0
   -0.7532   35.7430   20.0161 H   0  0  0  0  0
   -0.8108   36.3969   24.0564 H   0  0  0  0  0
   -0.3189   37.7544   22.8922 H   0  0  0  0  0
    2.1373   36.0845   21.8963 H   0  0  0  0  0
    4.4159   35.9481   22.8735 H   0  0  0  0  0
    1.3664   33.6463   23.4061 H   0  0  0  0  0
    5.4734   29.3245   22.1832 H   0  0  0  0  0
    4.5864   28.3725   24.2973 H   0  0  0  0  0
    2.8507   37.0792   26.7344 H   0  0  0  0  0
    0.5718   37.2629   25.7397 H   0  0  0  0  0
  1  2  4  0  0  0
  1 17  4  0  0  0
 18  1  1  0  0  0
  2  3  4  0  0  0
  2  4  1  0  0  0
  3  6  4  0  0  0
  5  6  4  0  0  0
  5  7  4  0  0  0
 17  5  4  0  0  0
  6 21  4  0  0  0
  7  8  1  0  0  0
  7 22  4  0  0  0
  8  9  1  0  0  0
  9 10  4  0  0  0
  9 12  4  0  0  0
 10 11  4  0  0  0
 11 23  4  0  0  0
 12 24  4  0  0  0
 19 13  1  0  0  0
 19 14  1  0  0  0
 14 25  1  0  0  0
 15 16  4  0  0  0
 25 15  4  0  0  0
 16 26  4  0  0  0
 18 19  1  0  0  0
 18 20  2  0  0  0
 21 22  4  0  0  0
 23 24  4  0  0  0
 25 28  4  0  0  0
 26 27  4  0  0  0
 26 29  1  0  0  0
 27 28  4  0  0  0
  3 30  1  0  0  0
  4 31  1  0  0  0
  8 32  1  0  0  0
  8 33  1  0  0  0
 10 34  1  0  0  0
 11 35  1  0  0  0
 12 36  1  0  0  0
 13 37  1  0  0  0
 13 38  1  0  0  0
 13 39  1  0  0  0
 14 40  1  0  0  0
 14 41  1  0  0  0
 15 42  1  0  0  0
 16 43  1  0  0  0
 17 44  1  0  0  0
 23 45  1  0  0  0
 24 46  1  0  0  0
 27 47  1  0  0  0
 28 48  1  0  0  0
M  END
$$$$
