6ggb_ligand
  -I-interpret- 

 44 47  0  0  0  0  0  0  0  0999 V2000
   91.3870   94.2720  -42.3980 N   0  0  0  0  0
   91.2850   95.5810  -41.9540 C   0  0  0  0  0
   90.9660   96.4120  -43.0370 C   0  0  0  0  0
   90.8650   97.7830  -42.8320 C   0  0  0  0  0
   91.0750   98.3260  -41.5680 C   0  0  0  0  0
   91.3680   97.4740  -40.5040 C   0  0  0  0  0
   91.4760   96.1030  -40.6800 C   0  0  0  0  0
   91.0170   99.8190  -41.3590 C   0  0  0  0  0
   91.1230   94.2500  -43.7600 C   0  0  0  0  0
   90.8480   95.5520  -44.1980 C   0  0  0  0  0
   90.5540   95.7650  -45.5410 C   0  0  0  0  0
   90.5520   94.6920  -46.4170 C   0  0  0  0  0
   90.8470   93.3960  -45.9790 C   0  0  0  0  0
   91.1310   93.1700  -44.6330 C   0  0  0  0  0
   91.7790   93.1220  -41.5860 C   0  0  0  0  0
   90.8940   92.2830  -46.9400 C   0  0  0  0  0
   90.8020   92.3440  -48.3180 C   0  0  0  0  0
   90.9150   91.0560  -48.9340 C   0  0  0  0  0
   91.0810   90.0700  -48.0350 C   0  0  0  0  0
   91.1090   90.6600  -46.4360 S   0  0  0  0  0
   93.2700   92.9100  -41.5790 C   0  0  0  0  0
   89.6720  100.2930  -41.0240 N   0  3  0  0  0
   89.6780  101.7050  -40.6310 C   0  0  0  0  0
   90.6194   98.4380  -43.6679 H   0  0  0  0  0
   91.5157   97.8959  -39.5099 H   0  0  0  0  0
   91.7055   95.4494  -39.8385 H   0  0  0  0  0
   91.3178  100.2986  -42.2905 H   0  0  0  0  0
   91.6751  100.0654  -40.5258 H   0  0  0  0  0
   90.3270   96.7684  -45.9011 H   0  0  0  0  0
   90.3161   94.8603  -47.4678 H   0  0  0  0  0
   91.3548   92.1658  -44.2730 H   0  0  0  0  0
   91.3127   92.2330  -42.0107 H   0  0  0  0  0
   91.4585   93.3066  -40.5607 H   0  0  0  0  0
   90.6592   93.2703  -48.8744 H   0  0  0  0  0
   90.8713   90.8933  -50.0109 H   0  0  0  0  0
   91.1854   89.0173  -48.2978 H   0  0  0  0  0
   93.6161   92.7385  -42.5983 H   0  0  0  0  0
   93.7596   93.7946  -41.1717 H   0  0  0  0  0
   93.5097   92.0440  -40.9620 H   0  0  0  0  0
   89.3229   99.7423  -40.2396 H   0  0  0  0  0
   89.0804  100.1911  -41.8486 H   0  0  0  0  0
   90.3161  101.8348  -39.7569 H   0  0  0  0  0
   90.0602  102.3084  -41.4544 H   0  0  0  0  0
   88.6620  102.0182  -40.3905 H   0  0  0  0  0
  1  2  4  0  0  0
  1  9  4  0  0  0
  1 15  1  0  0  0
  2  3  4  0  0  0
  2  7  4  0  0  0
  3  4  4  0  0  0
  3 10  4  0  0  0
  4  5  4  0  0  0
  5  6  4  0  0  0
  5  8  1  0  0  0
  6  7  4  0  0  0
  8 22  1  0  0  0
  9 10  4  0  0  0
  9 14  4  0  0  0
 10 11  4  0  0  0
 11 12  4  0  0  0
 12 13  4  0  0  0
 13 14  4  0  0  0
 13 16  1  0  0  0
 15 21  1  0  0  0
 16 17  4  0  0  0
 16 20  4  0  0  0
 17 18  4  0  0  0
 18 19  4  0  0  0
 19 20  4  0  0  0
 22 23  1  0  0  0
  4 24  1  0  0  0
  6 25  1  0  0  0
  7 26  1  0  0  0
  8 27  1  0  0  0
  8 28  1  0  0  0
 11 29  1  0  0  0
 12 30  1  0  0  0
 14 31  1  0  0  0
 15 32  1  0  0  0
 15 33  1  0  0  0
 17 34  1  0  0  0
 18 35  1  0  0  0
 19 36  1  0  0  0
 21 37  1  0  0  0
 21 38  1  0  0  0
 21 39  1  0  0  0
 22 40  1  0  0  0
 22 41  1  0  0  0
 23 42  1  0  0  0
 23 43  1  0  0  0
 23 44  1  0  0  0
M  END
$$$$
