1uv5_ligand
  -I-interpret- 

 32 35  0  0  0  0  0  0  0  0999 V2000
   94.4050   70.4080    9.0940 C   0  0  0  0  0
   93.6770   69.2510    9.6020 C   0  0  0  0  0
   95.8080   69.9820    8.9830 C   0  0  0  0  0
   95.9110   68.6700    9.4220 N   0  0  0  0  0
   96.7740   70.8130    8.5200 C   0  0  0  0  0
   96.3780   72.1900    8.0950 C   0  0  0  0  0
   95.0750   72.5910    8.1940 C   0  0  0  0  0
   94.0260   71.6650    8.7170 C   0  0  0  0  0
   94.6330   68.1680    9.7880 C   0  0  0  0  0
   94.4910   66.9140   10.1660 C   0  0  0  0  0
   95.6430   65.9960   10.3510 C   0  0  0  0  0
   95.1640   64.7120   10.7300 N   0  0  0  0  0
   93.7740   64.7930   10.7470 C   0  0  0  0  0
   93.3300   66.0630   10.4740 C   0  0  0  0  0
   92.8460   63.6800   11.0240 C   0  0  0  0  0
   91.5070   63.9220   10.9670 C   0  0  0  0  0
   91.0280   65.2800   10.6910 C   0  0  0  0  0
   91.8820   66.2900   10.4400 C   0  0  0  0  0
   96.8360   66.2770   10.2010 O   0  0  0  0  0
   92.4400   69.1550    9.8700 N   0  0  0  0  0
   91.4560   70.0230    9.7820 O   0  0  0  0  0
   90.2400   62.5480   11.2000 Br  0  0  0  0  0
   96.7812   68.1405    9.4746 H   0  0  0  0  0
   97.8119   70.4855    8.4593 H   0  0  0  0  0
   97.1299   72.8761    7.7052 H   0  0  0  0  0
   94.7978   73.5996    7.8873 H   0  0  0  0  0
   92.9866   71.9836    8.7956 H   0  0  0  0  0
   95.7289   63.8910   10.9472 H   0  0  0  0  0
   93.2233   62.6871   11.2686 H   0  0  0  0  0
   89.9558   65.4763   10.6890 H   0  0  0  0  0
   91.4945   67.2825   10.2101 H   0  0  0  0  0
   90.6392   69.6094   10.0707 H   0  0  0  0  0
  1  2  1  0  0  0
  1  3  4  0  0  0
  1  8  4  0  0  0
  2  9  1  0  0  0
  2 20  2  0  0  0
  3  4  1  0  0  0
  3  5  4  0  0  0
  4  9  1  0  0  0
  5  6  4  0  0  0
  6  7  4  0  0  0
  7  8  4  0  0  0
  9 10  2  0  0  0
 10 11  1  0  0  0
 10 14  1  0  0  0
 11 12  1  0  0  0
 11 19  2  0  0  0
 12 13  1  0  0  0
 13 14  4  0  0  0
 13 15  4  0  0  0
 14 18  4  0  0  0
 15 16  4  0  0  0
 16 17  4  0  0  0
 16 22  1  0  0  0
 17 18  4  0  0  0
 20 21  1  0  0  0
  4 23  1  0  0  0
  5 24  1  0  0  0
  6 25  1  0  0  0
  7 26  1  0  0  0
  8 27  1  0  0  0
 12 28  1  0  0  0
 15 29  1  0  0  0
 17 30  1  0  0  0
 18 31  1  0  0  0
 21 32  1  0  0  0
M  END
$$$$
