2rm0_ligand
  -I-interpret- 

140146  0  0  0  0  0  0  0  0999 V2000
   -4.5750   14.6400   -0.4010 N   0  3  0  0  0
   -3.1740   14.4620    0.0460 C   0  0  0  0  0
   -2.9230   12.9930    0.3550 C   0  0  0  0  0
   -3.7760   12.3390    0.9500 O   0  0  0  0  0
   -2.9460   15.3060    1.2930 C   0  0  0  0  0
   -4.2960   15.8560    1.6010 C   0  0  0  0  0
   -5.0770   15.8280    0.3060 C   0  0  0  0  0
   -1.7750   12.4370   -0.0570 N   0  0  0  0  0
   -1.4970   11.0180    0.1490 C   0  0  0  0  0
   -1.0670   10.6940    1.5780 C   0  0  0  0  0
   -0.4500   11.5140    2.2610 O   0  0  0  0  0
   -0.3510   10.7520   -0.8270 C   0  0  0  0  0
    0.3680   12.0550   -0.9330 C   0  0  0  0  0
   -0.6650   13.1340   -0.7270 C   0  0  0  0  0
   -1.4050    9.4880    2.0420 N   0  0  0  0  0
   -0.9250    8.9370    3.3030 C   0  0  0  0  0
    0.4990    8.4090    3.1770 C   0  0  0  0  0
    0.8960    7.9430    2.1050 O   0  0  0  0  0
   -1.8980    7.7750    3.5870 C   0  0  0  0  0
   -2.9350    7.8370    2.5100 C   0  0  0  0  0
   -2.3010    8.5570    1.3680 C   0  0  0  0  0
    1.2730    8.4690    4.2490 N   0  0  0  0  0
    2.5300    7.7430    4.2630 C   0  0  0  0  0
    2.2260    6.2780    4.5310 C   0  0  0  0  0
    1.2510    5.9640    5.2200 O   0  0  0  0  0
    3.4920    8.2930    5.3250 C   0  0  0  0  0
    4.2730    9.5520    4.9280 C   0  0  0  0  0
    5.0830    9.3070    3.6610 C   0  0  0  0  0
    3.3460   10.7480    4.7610 C   0  0  0  0  0
    3.0320    5.3800    3.9900 N   0  0  0  0  0
    2.8420    3.9640    4.2620 C   0  0  0  0  0
    3.4100    3.6230    5.6450 C   0  0  0  0  0
    4.3740    4.2480    6.0880 O   0  0  0  0  0
    3.5250    3.0630    3.1810 C   0  0  0  0  0
    2.9500    3.2850    1.7860 C   0  0  0  0  0
    3.3510    1.5890    3.5190 C   0  0  0  0  0
    3.2330    4.6510    1.1890 C   0  0  0  0  0
    2.8290    2.6420    6.3550 N   0  0  0  0  0
    3.5010    2.0090    7.4890 C   0  0  0  0  0
    4.5380    0.9960    6.9970 C   0  0  0  0  0
    4.3550    0.3750    5.9550 O   0  0  0  0  0
    2.3470    1.3090    8.2170 C   0  0  0  0  0
    1.3540    1.0080    7.1500 C   0  0  0  0  0
    1.4700    2.1170    6.1430 C   0  0  0  0  0
    5.6310    0.7900    7.7240 N   0  0  0  0  0
    6.6260   -0.1960    7.3260 C   0  0  0  0  0
    6.1860   -1.6160    7.6650 C   0  0  0  0  0
    5.4750   -1.8340    8.6460 O   0  0  0  0  0
    7.8700    0.1940    8.1390 C   0  0  0  0  0
    7.5030    1.4220    8.9160 C   0  0  0  0  0
    6.0020    1.4800    8.9580 C   0  0  0  0  0
    6.6050   -2.6020    6.8620 N   0  0  0  0  0
    6.4040   -4.0120    7.1740 C   0  0  0  0  0
    7.4140   -4.4940    8.2100 C   0  0  0  0  0
    8.5290   -3.9710    8.2740 O   0  0  0  0  0
    6.6270   -4.7260    5.8280 C   0  0  0  0  0
    6.7950   -3.6380    4.8120 C   0  0  0  0  0
    7.2670   -2.4330    5.5690 C   0  0  0  0  0
    7.0320   -5.4700    9.0500 N   0  0  0  0  0
    7.9380   -6.0710   10.0260 C   0  0  0  0  0
    8.8840   -7.0790    9.3730 C   0  0  0  0  0
    8.5910   -8.2900    9.4230 O   0  0  0  0  0
    6.9930   -6.7770   11.0200 C   0  0  0  0  0
    5.5980   -6.4250   10.5880 C   0  0  0  0  0
    5.6890   -6.0530    9.1410 C   0  0  0  0  0
    9.9080   -6.6540    8.7950 O   0  0  0  0  0
   -5.1386   13.8171   -0.1878 H   0  0  0  0  0
   -4.6279   14.7616   -1.4123 H   0  0  0  0  0
   -2.4865   14.7788   -0.7383 H   0  0  0  0  0
   -2.2048   16.0893    1.1344 H   0  0  0  0  0
   -2.5363   14.7244    2.1188 H   0  0  0  0  0
   -4.2240   16.8711    1.9914 H   0  0  0  0  0
   -4.7928   15.2634    2.3692 H   0  0  0  0  0
   -6.1521   15.7771    0.4782 H   0  0  0  0  0
   -4.9368   16.7392   -0.2755 H   0  0  0  0  0
   -2.3814   10.4024   -0.0153 H   0  0  0  0  0
   -0.7139   10.4083   -1.7957 H   0  0  0  0  0
    0.3038    9.9540   -0.4769 H   0  0  0  0  0
    0.8489   12.1566   -1.9059 H   0  0  0  0  0
    1.1591   12.1253   -0.1865 H   0  0  0  0  0
   -0.2823   13.9666   -0.1368 H   0  0  0  0  0
   -0.9725   13.5975   -1.6644 H   0  0  0  0  0
   -0.8981    9.6856    4.0948 H   0  0  0  0  0
   -2.3478    7.8678    4.5755 H   0  0  0  0  0
   -1.3807    6.8156    3.5837 H   0  0  0  0  0
   -3.8304    8.3545    2.8541 H   0  0  0  0  0
   -3.2583    6.8384    2.2159 H   0  0  0  0  0
   -1.7844    7.8912    0.6767 H   0  0  0  0  0
   -3.0244    9.0527    0.7206 H   0  0  0  0  0
    0.9887    9.0207    5.0584 H   0  0  0  0  0
    3.0234    7.8614    3.2983 H   0  0  0  0  0
    4.2331    7.5137    5.5030 H   0  0  0  0  0
    2.8791    8.5682    6.1833 H   0  0  0  0  0
    4.9671    9.7840    5.7357 H   0  0  0  0  0
    5.7885    8.4942    3.8338 H   0  0  0  0  0
    4.4096    9.0384    2.8470 H   0  0  0  0  0
    5.6284   10.2136    3.3989 H   0  0  0  0  0
    2.6143   10.5330    3.9822 H   0  0  0  0  0
    2.8309   10.9410    5.7020 H   0  0  0  0  0
    3.9314   11.6233    4.4796 H   0  0  0  0  0
    3.7908    5.6820    3.3789 H   0  0  0  0  0
    1.7709    3.7638    4.2348 H   0  0  0  0  0
    4.5784    3.3431    3.1828 H   0  0  0  0  0
    1.8671    3.1966    1.8731 H   0  0  0  0  0
    3.4187    2.5508    1.1308 H   0  0  0  0  0
    3.8063    1.3835    4.4878 H   0  0  0  0  0
    2.2884    1.3493    3.5573 H   0  0  0  0  0
    3.8342    0.9824    2.7531 H   0  0  0  0  0
    2.8067    5.4220    1.8308 H   0  0  0  0  0
    4.3105    4.7960    1.1113 H   0  0  0  0  0
    2.7844    4.7128    0.1975 H   0  0  0  0  0
    4.0462    2.7078    8.1234 H   0  0  0  0  0
    1.9228    1.9345    9.0024 H   0  0  0  0  0
    2.6782    0.4064    8.7305 H   0  0  0  0  0
    0.3446    0.9519    7.5576 H   0  0  0  0  0
    1.5520    0.0391    6.6915 H   0  0  0  0  0
    1.3139    1.7689    5.1220 H   0  0  0  0  0
    0.7041    2.8810    6.2765 H   0  0  0  0  0
    6.7964   -0.1956    6.2494 H   0  0  0  0  0
    8.7198    0.3862    7.4840 H   0  0  0  0  0
    8.1697   -0.6146    8.8057 H   0  0  0  0  0
    7.9113    2.3151    8.4430 H   0  0  0  0  0
    7.9166    1.3799    9.9236 H   0  0  0  0  0
    5.5791    1.0201    9.8512 H   0  0  0  0  0
    5.6128    2.4965    9.0155 H   0  0  0  0  0
    5.4197   -4.2071    7.5998 H   0  0  0  0  0
    5.7871   -5.3747    5.5792 H   0  0  0  0  0
    7.5025   -5.3743    5.8632 H   0  0  0  0  0
    5.8583   -3.4354    4.2927 H   0  0  0  0  0
    7.5108   -3.9250    4.0417 H   0  0  0  0  0
    8.3525   -2.3718    5.6464 H   0  0  0  0  0
    7.0180   -1.4921    5.0782 H   0  0  0  0  0
    8.5825   -5.3302   10.4992 H   0  0  0  0  0
    7.1828   -6.4523   12.0431 H   0  0  0  0  0
    7.1477   -7.8559   11.0128 H   0  0  0  0  0
    5.1996   -5.6015   11.1807 H   0  0  0  0  0
    4.9179   -7.2639   10.7356 H   0  0  0  0  0
    5.5439   -6.9005    8.4711 H   0  0  0  0  0
    4.9025   -5.3678    8.8248 H   0  0  0  0  0
    9.9450   -5.6980    8.8737 H   0  0  0  0  0
  1  2  1  0  0  0
  1  7  1  0  0  0
  2  3  1  0  0  0
  2  5  1  0  0  0
  3  4  2  0  0  0
  3  8  1  0  0  0
  5  6  1  0  0  0
  6  7  1  0  0  0
  8  9  1  0  0  0
  8 14  1  0  0  0
  9 10  1  0  0  0
  9 12  1  0  0  0
 10 11  2  0  0  0
 10 15  1  0  0  0
 12 13  1  0  0  0
 13 14  1  0  0  0
 15 16  1  0  0  0
 15 21  1  0  0  0
 16 17  1  0  0  0
 16 19  1  0  0  0
 17 18  2  0  0  0
 17 22  1  0  0  0
 19 20  1  0  0  0
 20 21  1  0  0  0
 22 23  1  0  0  0
 23 24  1  0  0  0
 23 26  1  0  0  0
 24 25  2  0  0  0
 24 30  1  0  0  0
 26 27  1  0  0  0
 27 28  1  0  0  0
 27 29  1  0  0  0
 30 31  1  0  0  0
 31 32  1  0  0  0
 31 34  1  0  0  0
 32 33  2  0  0  0
 32 38  1  0  0  0
 34 35  1  0  0  0
 34 36  1  0  0  0
 35 37  1  0  0  0
 38 39  1  0  0  0
 38 44  1  0  0  0
 39 40  1  0  0  0
 39 42  1  0  0  0
 40 41  2  0  0  0
 40 45  1  0  0  0
 42 43  1  0  0  0
 43 44  1  0  0  0
 45 46  1  0  0  0
 45 51  1  0  0  0
 46 47  1  0  0  0
 46 49  1  0  0  0
 47 48  2  0  0  0
 47 52  1  0  0  0
 49 50  1  0  0  0
 50 51  1  0  0  0
 52 53  1  0  0  0
 52 58  1  0  0  0
 53 54  1  0  0  0
 53 56  1  0  0  0
 54 55  2  0  0  0
 54 59  1  0  0  0
 56 57  1  0  0  0
 57 58  1  0  0  0
 59 60  1  0  0  0
 59 65  1  0  0  0
 60 61  1  0  0  0
 60 63  1  0  0  0
 61 62  2  0  0  0
 61 66  1  0  0  0
 63 64  1  0  0  0
 64 65  1  0  0  0
  1 67  1  0  0  0
  1 68  1  0  0  0
  2 69  1  0  0  0
  5 70  1  0  0  0
  5 71  1  0  0  0
  6 72  1  0  0  0
  6 73  1  0  0  0
  7 74  1  0  0  0
  7 75  1  0  0  0
  9 76  1  0  0  0
 12 77  1  0  0  0
 12 78  1  0  0  0
 13 79  1  0  0  0
 13 80  1  0  0  0
 14 81  1  0  0  0
 14 82  1  0  0  0
 16 83  1  0  0  0
 19 84  1  0  0  0
 19 85  1  0  0  0
 20 86  1  0  0  0
 20 87  1  0  0  0
 21 88  1  0  0  0
 21 89  1  0  0  0
 22 90  1  0  0  0
 23 91  1  0  0  0
 26 92  1  0  0  0
 26 93  1  0  0  0
 27 94  1  0  0  0
 28 95  1  0  0  0
 28 96  1  0  0  0
 28 97  1  0  0  0
 29 98  1  0  0  0
 29 99  1  0  0  0
 29100  1  0  0  0
 30101  1  0  0  0
 31102  1  0  0  0
 34103  1  0  0  0
 35104  1  0  0  0
 35105  1  0  0  0
 36106  1  0  0  0
 36107  1  0  0  0
 36108  1  0  0  0
 37109  1  0  0  0
 37110  1  0  0  0
 37111  1  0  0  0
 39112  1  0  0  0
 42113  1  0  0  0
 42114  1  0  0  0
 43115  1  0  0  0
 43116  1  0  0  0
 44117  1  0  0  0
 44118  1  0  0  0
 46119  1  0  0  0
 49120  1  0  0  0
 49121  1  0  0  0
 50122  1  0  0  0
 50123  1  0  0  0
 51124  1  0  0  0
 51125  1  0  0  0
 53126  1  0  0  0
 56127  1  0  0  0
 56128  1  0  0  0
 57129  1  0  0  0
 57130  1  0  0  0
 58131  1  0  0  0
 58132  1  0  0  0
 60133  1  0  0  0
 63134  1  0  0  0
 63135  1  0  0  0
 64136  1  0  0  0
 64137  1  0  0  0
 65138  1  0  0  0
 65139  1  0  0  0
 66140  1  0  0  0
M  END
$$$$
