3nuu_ligand
  -I-interpret- 

 20 21  0  0  0  0  0  0  0  0999 V2000
  -39.2290   16.0260   13.3800 C   0  0  0  0  0
  -42.1220   15.1380   11.1450 C   0  0  0  0  0
  -42.1300   13.6920   11.5750 C   0  0  0  0  0
  -41.2070   15.9100   12.0280 C   0  0  0  0  0
  -40.0850   15.3180   12.5660 C   0  0  0  0  0
  -40.6120   17.9500   13.1360 C   0  0  0  0  0
  -39.4930   17.3470   13.6690 C   0  0  0  0  0
  -41.4670   17.2360   12.3160 C   0  0  0  0  0
  -39.7650   13.9060   12.2770 C   0  0  0  0  0
  -40.7910   13.1710   11.7300 N   0  0  0  0  0
  -38.6410   13.4850   12.5230 O   0  0  0  0  0
  -38.3446   15.5423   13.7947 H   0  0  0  0  0
  -43.1301   15.5458   11.2193 H   0  0  0  0  0
  -41.7786   15.2093   10.1130 H   0  0  0  0  0
  -42.6378   13.1088   10.8068 H   0  0  0  0  0
  -42.6379   13.6234   12.5370 H   0  0  0  0  0
  -40.8243   18.9950   13.3619 H   0  0  0  0  0
  -38.8210   17.9118   14.3152 H   0  0  0  0  0
  -42.3483   17.7208   11.8959 H   0  0  0  0  0
  -40.5986   12.2182   11.4208 H   0  0  0  0  0
  5  1  4  0  0  0
  1  7  4  0  0  0
  2  3  1  0  0  0
  4  2  1  0  0  0
  3 10  1  0  0  0
  4  5  4  0  0  0
  4  8  4  0  0  0
  5  9  1  0  0  0
  7  6  4  0  0  0
  6  8  4  0  0  0
  9 10  1  0  0  0
  9 11  2  0  0  0
  1 12  1  0  0  0
  2 13  1  0  0  0
  2 14  1  0  0  0
  3 15  1  0  0  0
  3 16  1  0  0  0
  6 17  1  0  0  0
  7 18  1  0  0  0
  8 19  1  0  0  0
 10 20  1  0  0  0
M  END
$$$$
