5aad_ligand
  -I-interpret- 

 46 50  0  0  0  0  0  0  0  0999 V2000
   -6.3730   28.7330   75.9670 Cl  0  0  0  0  0
   -5.4450   30.0080   76.5590 C   0  0  0  0  0
   -5.2520   30.1460   77.9160 C   0  0  0  0  0
   -5.9330   29.3290   79.0010 C   0  0  0  0  0
   -7.1450   28.6440   78.7600 C   0  0  0  0  0
   -7.5670   28.0750   79.9310 N   0  0  0  0  0
   -8.8100   27.2490   79.9690 C   0  0  0  0  0
   -8.5280   25.7920   80.3280 C   0  0  0  0  0
   -7.4220   25.5620   81.1770 C   0  0  0  0  0
   -7.1270   24.2680   81.5760 C   0  0  0  0  0
   -7.9330   23.1830   81.1310 C   0  0  0  0  0
   -9.0470   23.4310   80.2880 C   0  0  0  0  0
   -9.3470   24.7500   79.8800 C   0  0  0  0  0
   -6.6840   28.4460   80.9750 N   0  0  0  0  0
   -5.6690   29.2610   80.3850 C   0  0  0  0  0
   -4.4710   31.2700   78.3880 C   0  0  0  0  0
   -4.1170   31.6920   79.7280 N   0  0  0  0  0
   -3.3590   32.7710   79.5510 C   0  0  0  0  0
   -2.7330   33.5780   80.6250 C   0  0  0  0  0
   -1.8730   34.6510   80.2680 C   0  0  0  0  0
   -1.4780   35.1660   81.3870 N   0  0  0  0  0
   -0.5820   36.2850   81.4510 C   0  0  0  0  0
   -2.0590   34.4490   82.5280 N   0  0  0  0  0
   -2.8330   33.4740   82.0210 C   0  0  0  0  0
   -3.6290   32.5040   82.7800 C   0  0  0  0  0
   -3.1800   33.0800   78.1350 N   0  0  0  0  0
   -3.8760   32.1450   77.4090 C   0  0  0  0  0
   -4.0350   31.9750   76.0910 N   0  0  0  0  0
   -4.8160   30.9290   75.6110 C   0  0  0  0  0
   -7.6586   28.5794   77.8008 H   0  0  0  0  0
   -9.2608   27.2713   78.9769 H   0  0  0  0  0
   -9.4680   27.6638   80.7326 H   0  0  0  0  0
   -6.8061   26.3953   81.5152 H   0  0  0  0  0
   -6.2765   24.0811   82.2316 H   0  0  0  0  0
   -7.6952   22.1642   81.4369 H   0  0  0  0  0
   -9.6723   22.6027   79.9547 H   0  0  0  0  0
  -10.1985   24.9515   79.2300 H   0  0  0  0  0
   -4.8426   29.7418   80.9084 H   0  0  0  0  0
   -1.6027   34.9728   79.2623 H   0  0  0  0  0
    0.3581   36.0244   80.9647 H   0  0  0  0  0
   -1.0313   37.1381   80.9426 H   0  0  0  0  0
   -0.3946   36.5395   82.4942 H   0  0  0  0  0
   -4.6815   32.6168   82.5199 H   0  0  0  0  0
   -3.2991   31.4944   82.5353 H   0  0  0  0  0
   -3.4960   32.6824   83.8470 H   0  0  0  0  0
   -4.9584   30.7963   74.5385 H   0  0  0  0  0
  1  2  1  0  0  0
  2  3  4  0  0  0
  2 29  4  0  0  0
  3  4  1  0  0  0
  3 16  4  0  0  0
  4  5  4  0  0  0
  4 15  4  0  0  0
  5  6  4  0  0  0
  6  7  1  0  0  0
  6 14  4  0  0  0
  7  8  1  0  0  0
  8  9  4  0  0  0
  8 13  4  0  0  0
  9 10  4  0  0  0
 10 11  4  0  0  0
 11 12  4  0  0  0
 12 13  4  0  0  0
 14 15  4  0  0  0
 16 17  4  0  0  0
 16 27  4  0  0  0
 17 18  4  0  0  0
 18 19  1  0  0  0
 18 26  4  0  0  0
 19 20  4  0  0  0
 19 24  4  0  0  0
 20 21  4  0  0  0
 21 22  1  0  0  0
 21 23  4  0  0  0
 23 24  4  0  0  0
 24 25  1  0  0  0
 26 27  4  0  0  0
 27 28  4  0  0  0
 28 29  4  0  0  0
  5 30  1  0  0  0
  7 31  1  0  0  0
  7 32  1  0  0  0
  9 33  1  0  0  0
 10 34  1  0  0  0
 11 35  1  0  0  0
 12 36  1  0  0  0
 13 37  1  0  0  0
 15 38  1  0  0  0
 20 39  1  0  0  0
 22 40  1  0  0  0
 22 41  1  0  0  0
 22 42  1  0  0  0
 25 43  1  0  0  0
 25 44  1  0  0  0
 25 45  1  0  0  0
 29 46  1  0  0  0
M  END
$$$$
