4pzv_ligand
  -I-interpret- 

 74 78  0  0  0  0  0  0  0  0999 V2000
   -2.0630   31.4950  -12.9920 C   0  0  0  0  0
   -1.9750   30.3420  -13.8190 O   0  0  0  0  0
   -3.4460   31.4120  -12.3230 C   0  0  0  0  0
   -3.9050   32.7060  -12.1450 O   0  0  0  0  0
   -4.3070   30.6720  -13.3730 C   0  0  0  0  0
   -5.0010   31.5970  -14.1330 O   0  0  0  0  0
   -3.2540   30.0540  -14.3330 C   0  0  0  0  0
   -3.4090   28.6030  -14.4060 N   0  0  0  0  0
   -3.5610   27.8140  -15.5610 C   0  0  0  0  0
   -3.6690   26.5240  -15.3000 N   0  0  0  0  0
   -3.6100   26.4450  -13.9150 C   0  0  0  0  0
   -3.6700   25.3740  -13.0430 C   0  0  0  0  0
   -3.8370   24.1090  -13.5070 N   0  0  0  0  0
   -3.5530   25.6040  -11.6920 N   0  0  0  0  0
   -3.4090   26.8800  -11.2830 C   0  0  0  0  0
   -3.3330   28.0090  -11.9970 N   0  0  0  0  0
   -3.4370   27.7380  -13.3320 C   0  0  0  0  0
   -0.9660   31.4990  -11.9610 C   0  0  0  0  0
    0.6050   31.6870  -12.6900 S   0  0  0  0  0
    1.6320   32.0470  -11.6660 C   0  0  0  0  0
    2.3120   29.9840  -10.8350 N   0  0  0  0  0
    1.7080   31.2780  -10.4670 C   0  0  0  0  0
    3.4500   29.4730  -10.2390 C   0  0  0  0  0
    3.8050   28.1220  -10.8290 C   0  0  0  0  0
    5.0640   27.6000  -10.3430 N   0  0  0  0  0
    6.2440   28.2680  -10.5080 C   0  0  0  0  0
    6.3380   29.3620  -11.0840 O   0  0  0  0  0
   10.7130   25.3920   -8.6890 N   0  0  0  0  0
   10.4240   24.3970   -7.7890 C   0  0  0  0  0
   11.4340   23.5750   -7.3540 N   0  0  0  0  0
    9.1810   24.1200   -7.2550 N   0  0  0  0  0
    8.1020   24.9050   -7.6520 C   0  0  0  0  0
    6.9260   24.6130   -7.1180 O   0  0  0  0  0
    7.2330   26.7160   -8.9580 N   0  0  0  0  0
    7.4370   27.5710   -9.9440 C   0  0  0  0  0
    8.7580   28.0450  -10.4270 C   0  0  0  0  0
    8.9820   29.4470   -9.8960 C   0  0  0  0  0
    8.7970   27.9740  -11.9510 C   0  0  0  0  0
    9.8520   27.1660   -9.9370 N   0  0  0  0  0
    9.6390   26.1570   -9.0610 C   0  0  0  0  0
    8.3090   25.9500   -8.5660 C   0  0  0  0  0
    4.0830   30.0370   -9.3480 O   0  0  0  0  0
    0.7660   32.4480  -14.1060 O   0  0  0  0  0
    0.9110   30.1930  -13.2560 O   0  0  0  0  0
   -1.9475   32.4146  -13.5657 H   0  0  0  0  0
   -3.4564   30.9109  -11.3551 H   0  0  0  0  0
   -3.3604   33.1504  -11.4912 H   0  0  0  0  0
   -4.9981   29.9659  -12.9127 H   0  0  0  0  0
   -5.6723   32.0166  -13.5899 H   0  0  0  0  0
   -3.3868   30.4718  -15.3309 H   0  0  0  0  0
   -3.5870   28.2261  -16.5698 H   0  0  0  0  0
   -3.9198   23.9403  -14.5095 H   0  0  0  0  0
   -3.8797   23.3274  -12.8530 H   0  0  0  0  0
   -3.3444   27.0129  -10.2031 H   0  0  0  0  0
   -0.9875   30.5452  -11.4338 H   0  0  0  0  0
   -1.1332   32.3380  -11.2856 H   0  0  0  0  0
    1.3646   33.0521  -11.3398 H   0  0  0  0  0
    2.5905   31.8921  -12.1615 H   0  0  0  0  0
    1.8654   29.4356  -11.5700 H   0  0  0  0  0
    0.7188   31.1365  -10.0316 H   0  0  0  0  0
    2.3088   31.7884   -9.7142 H   0  0  0  0  0
    3.8938   28.2462  -11.9083 H   0  0  0  0  0
    3.0230   27.4199  -10.5400 H   0  0  0  0  0
    5.0706   26.7015   -9.8602 H   0  0  0  0  0
   12.3844   23.7080   -7.6996 H   0  0  0  0  0
   11.2340   22.8313   -6.6852 H   0  0  0  0  0
    9.0566   23.3596   -6.5867 H   0  0  0  0  0
    8.1918   30.1030  -10.2612 H   0  0  0  0  0
    8.9658   29.4283   -8.8063 H   0  0  0  0  0
    9.9489   29.8143  -10.2401 H   0  0  0  0  0
    8.6411   26.9433  -12.2695 H   0  0  0  0  0
    8.0103   28.6059  -12.3631 H   0  0  0  0  0
    9.7673   28.3222  -12.3050 H   0  0  0  0  0
   10.8005   27.3299  -10.2744 H   0  0  0  0  0
  1  2  1  0  0  0
  1  3  1  0  0  0
 18  1  1  0  0  0
  2  7  1  0  0  0
  3  4  1  0  0  0
  3  5  1  0  0  0
  5  6  1  0  0  0
  5  7  1  0  0  0
  7  8  1  0  0  0
  8  9  4  0  0  0
  8 17  4  0  0  0
  9 10  4  0  0  0
 11 10  4  0  0  0
 11 12  4  0  0  0
 17 11  4  0  0  0
 12 13  1  0  0  0
 12 14  4  0  0  0
 15 14  4  0  0  0
 16 15  4  0  0  0
 17 16  4  0  0  0
 19 18  1  0  0  0
 20 19  1  0  0  0
 19 43  2  0  0  0
 19 44  2  0  0  0
 22 20  1  0  0  0
 21 22  1  0  0  0
 23 21  1  0  0  0
 24 23  1  0  0  0
 23 42  2  0  0  0
 25 24  1  0  0  0
 26 25  1  0  0  0
 26 27  2  0  0  0
 35 26  1  0  0  0
 29 28  2  0  0  0
 28 40  1  0  0  0
 29 30  1  0  0  0
 31 29  1  0  0  0
 32 31  1  0  0  0
 32 33  2  0  0  0
 41 32  1  0  0  0
 34 35  2  0  0  0
 34 41  1  0  0  0
 35 36  1  0  0  0
 36 37  1  0  0  0
 36 38  1  0  0  0
 36 39  1  0  0  0
 39 40  1  0  0  0
 40 41  2  0  0  0
  1 45  1  0  0  0
  3 46  1  0  0  0
  4 47  1  0  0  0
  5 48  1  0  0  0
  6 49  1  0  0  0
  7 50  1  0  0  0
  9 51  1  0  0  0
 13 52  1  0  0  0
 13 53  1  0  0  0
 15 54  1  0  0  0
 18 55  1  0  0  0
 18 56  1  0  0  0
 20 57  1  0  0  0
 20 58  1  0  0  0
 21 59  1  0  0  0
 22 60  1  0  0  0
 22 61  1  0  0  0
 24 62  1  0  0  0
 24 63  1  0  0  0
 25 64  1  0  0  0
 30 65  1  0  0  0
 30 66  1  0  0  0
 31 67  1  0  0  0
 37 68  1  0  0  0
 37 69  1  0  0  0
 37 70  1  0  0  0
 38 71  1  0  0  0
 38 72  1  0  0  0
 38 73  1  0  0  0
 39 74  1  0  0  0
M  END
$$$$
