2o8h_ligand
  -I-interpret- 

 64 68  0  0  0  0  0  0  0  0999 V2000
    7.9370   24.8170   36.6220 C   0  0  0  0  0
   10.0700   25.2340   37.6230 C   0  0  0  0  0
   11.7740   18.4970   42.2000 C   0  0  0  0  0
   13.4500   16.8530   43.7390 C   0  0  0  0  0
   12.3590   17.3890   41.6300 C   0  0  0  0  0
   13.2160   16.5530   42.3880 C   0  0  0  0  0
   11.3610   23.7230   43.5990 C   0  0  0  0  0
   14.8840   14.7580   42.3200 C   0  0  0  0  0
   10.5660   20.9420   43.5530 N   0  0  0  0  0
   11.2250   17.8680   39.4860 C   0  0  0  0  0
   10.6320   23.1240   44.7710 C   0  0  0  0  0
   13.7850   15.4800   41.7600 O   0  0  0  0  0
   12.2080   23.6100   41.3490 C   0  0  0  0  0
   12.4920   21.4350   39.6100 O   0  0  0  0  0
   12.4840   22.8520   39.6820 S   0  0  0  0  0
   13.7330   23.3480   39.3350 O   0  0  0  0  0
   11.1980   23.3940   38.6640 N   0  0  0  0  0
   11.0460   24.8610   38.7410 C   0  0  0  0  0
    8.7950   24.5290   37.7880 N   0  3  0  0  0
    8.9060   23.0660   37.9220 C   0  0  0  0  0
    9.9460   22.6980   38.9680 C   0  0  0  0  0
   12.7040   24.9180   41.4800 C   0  0  0  0  0
   12.5330   25.6060   42.6850 C   0  0  0  0  0
   11.5320   23.0100   42.4030 C   0  0  0  0  0
   10.9920   21.5980   42.2850 C   0  0  0  0  0
   11.8650   25.0050   43.7310 C   0  0  0  0  0
    9.7830   21.9110   44.3290 C   0  0  0  0  0
   11.4040   19.9570   44.1840 C   0  0  0  0  0
   11.9990   18.8290   43.5440 C   0  0  0  0  0
   11.6700   20.1390   45.4930 N   0  0  0  0  0
   12.3340   19.1900   46.1840 C   0  0  0  0  0
   13.0480   18.2310   45.5780 N   0  0  0  0  0
   12.8380   17.9650   44.2980 C   0  0  0  0  0
   12.1550   17.1180   40.3110 O   0  0  0  0  0
    8.3879   24.3897   35.7263 H   0  0  0  0  0
    6.9522   24.3773   36.7797 H   0  0  0  0  0
    7.8395   25.8960   36.5019 H   0  0  0  0  0
   10.5072   24.9502   36.6657 H   0  0  0  0  0
    9.8855   26.3076   37.6613 H   0  0  0  0  0
   11.1233   19.1286   41.5952 H   0  0  0  0  0
   14.1035   16.2210   44.3404 H   0  0  0  0  0
   15.7294   15.4327   42.4548 H   0  0  0  0  0
   14.5910   14.3434   43.2845 H   0  0  0  0  0
   15.1668   13.9492   41.6462 H   0  0  0  0  0
   10.2211   17.7811   39.9015 H   0  0  0  0  0
   11.5222   18.9165   39.4670 H   0  0  0  0  0
   11.2360   17.4675   38.4723 H   0  0  0  0  0
    9.9708   23.8790   45.1962 H   0  0  0  0  0
   11.3640   22.7907   45.5066 H   0  0  0  0  0
   10.6715   25.1717   39.7164 H   0  0  0  0  0
   12.0035   25.3673   38.6188 H   0  0  0  0  0
    8.4022   24.8716   38.6648 H   0  0  0  0  0
    9.2085   22.6468   36.9624 H   0  0  0  0  0
    7.9399   22.6667   38.2308 H   0  0  0  0  0
    9.5928   22.9932   39.9561 H   0  0  0  0  0
   10.1129   21.6209   38.9562 H   0  0  0  0  0
   13.2197   25.3941   40.6461 H   0  0  0  0  0
   12.9271   26.6160   42.7975 H   0  0  0  0  0
   10.0979   21.6673   41.6654 H   0  0  0  0  0
   11.8096   20.9937   41.8920 H   0  0  0  0  0
   11.7329   25.5440   44.6692 H   0  0  0  0  0
    9.4136   21.4105   45.2241 H   0  0  0  0  0
    8.9720   22.2754   43.6984 H   0  0  0  0  0
   12.2884   19.2033   47.2730 H   0  0  0  0  0
 19  1  1  0  0  0
 18  2  1  0  0  0
  2 19  1  0  0  0
  3  5  4  0  0  0
 29  3  4  0  0  0
  6  4  4  0  0  0
  4 33  4  0  0  0
  5  6  4  0  0  0
  5 34  1  0  0  0
  6 12  1  0  0  0
 11  7  1  0  0  0
 24  7  4  0  0  0
  7 26  4  0  0  0
 12  8  1  0  0  0
  9 25  1  0  0  0
  9 27  1  0  0  0
 28  9  1  0  0  0
 34 10  1  0  0  0
 27 11  1  0  0  0
 13 15  1  0  0  0
 13 22  4  0  0  0
 24 13  4  0  0  0
 15 14  2  0  0  0
 15 16  2  0  0  0
 15 17  1  0  0  0
 17 18  1  0  0  0
 17 21  1  0  0  0
 20 19  1  0  0  0
 21 20  1  0  0  0
 22 23  4  0  0  0
 26 23  4  0  0  0
 25 24  1  0  0  0
 28 29  4  0  0  0
 28 30  4  0  0  0
 29 33  4  0  0  0
 30 31  4  0  0  0
 31 32  4  0  0  0
 32 33  4  0  0  0
  1 35  1  0  0  0
  1 36  1  0  0  0
  1 37  1  0  0  0
  2 38  1  0  0  0
  2 39  1  0  0  0
  3 40  1  0  0  0
  4 41  1  0  0  0
  8 42  1  0  0  0
  8 43  1  0  0  0
  8 44  1  0  0  0
 10 45  1  0  0  0
 10 46  1  0  0  0
 10 47  1  0  0  0
 11 48  1  0  0  0
 11 49  1  0  0  0
 18 50  1  0  0  0
 18 51  1  0  0  0
 19 52  1  0  0  0
 20 53  1  0  0  0
 20 54  1  0  0  0
 21 55  1  0  0  0
 21 56  1  0  0  0
 22 57  1  0  0  0
 23 58  1  0  0  0
 25 59  1  0  0  0
 25 60  1  0  0  0
 26 61  1  0  0  0
 27 62  1  0  0  0
 27 63  1  0  0  0
 31 64  1  0  0  0
M  END
$$$$
