5nrf_ligand
  -I-interpret- 

 56 59  0  0  0  0  0  0  0  0999 V2000
   90.0420   38.3900   22.1410 Cl  0  0  0  0  0
   90.9490   36.8780   22.3970 C   0  0  0  0  0
   90.5200   35.9740   23.3570 C   0  0  0  0  0
   91.2290   34.7950   23.5510 C   0  0  0  0  0
   92.3670   34.5130   22.8000 C   0  0  0  0  0
   92.7870   35.4200   21.8320 C   0  0  0  0  0
   92.0810   36.6030   21.6360 C   0  0  0  0  0
   93.1180   33.2180   23.0350 C   0  0  0  0  0
   94.5520   33.4820   23.5040 C   0  0  0  0  0
   95.2210   32.2600   24.0140 N   0  3  0  0  0
   94.5430   31.7030   25.2070 C   0  0  0  0  0
   94.2590   32.7450   26.2630 C   0  0  0  0  0
   95.2490   33.0600   27.1820 C   0  0  0  0  0
   94.9870   34.0160   28.1620 C   0  0  0  0  0
   93.6790   34.4270   28.3810 C   0  0  0  0  0
   92.6500   33.8590   27.6370 C   0  0  0  0  0
   92.9430   32.9140   26.6690 C   0  0  0  0  0
   95.1970   31.1940   22.9940 C   0  0  0  0  0
   95.9160   31.6000   21.7110 C   0  0  0  0  0
   95.7880   30.4550   20.7100 C   0  0  0  0  0
   96.4170   29.2460   21.2810 N   0  0  0  0  0
   95.7450   28.7960   22.5160 C   0  0  0  0  0
   95.8400   29.9210   23.5440 C   0  0  0  0  0
   96.5110   28.1860   20.3030 C   0  0  0  0  0
   95.9940   26.9570   20.5030 N   0  0  0  0  0
   96.3430   26.2590   19.3410 N   0  0  0  0  0
   97.0410   27.1440   18.6010 C   0  0  0  0  0
   97.1740   28.3710   19.1440 N   0  0  0  0  0
   97.5640   26.8010   17.3880 N   0  0  0  0  0
   89.6336   36.1867   23.9547 H   0  0  0  0  0
   90.8897   34.0810   24.3014 H   0  0  0  0  0
   93.6682   35.2041   21.2278 H   0  0  0  0  0
   92.4160   37.3169   20.8835 H   0  0  0  0  0
   93.1566   32.6647   22.0967 H   0  0  0  0  0
   92.5991   32.6520   23.8086 H   0  0  0  0  0
   94.5102   34.2055   24.3182 H   0  0  0  0  0
   95.1227   33.8442   22.6489 H   0  0  0  0  0
   96.1722   32.5426   24.2500 H   0  0  0  0  0
   95.2037   30.9557   25.6464 H   0  0  0  0  0
   93.5882   31.2884   24.8836 H   0  0  0  0  0
   96.2197   32.5661   27.1384 H   0  0  0  0  0
   95.8017   34.4371   28.7511 H   0  0  0  0  0
   93.4603   35.1884   29.1297 H   0  0  0  0  0
   91.6168   34.1570   27.8156 H   0  0  0  0  0
   92.1490   32.3095   26.2306 H   0  0  0  0  0
   94.1496   31.0144   22.7516 H   0  0  0  0  0
   96.9671   31.8011   21.9180 H   0  0  0  0  0
   95.4700   32.5067   21.3023 H   0  0  0  0  0
   96.2855   30.7235   19.7781 H   0  0  0  0  0
   94.7351   30.2606   20.5058 H   0  0  0  0  0
   96.2255   27.8956   22.8987 H   0  0  0  0  0
   94.7005   28.5611   22.3113 H   0  0  0  0  0
   95.3166   29.6202   24.4516 H   0  0  0  0  0
   96.8897   30.1171   23.7625 H   0  0  0  0  0
   97.4304   25.8579   17.0233 H   0  0  0  0  0
   98.0885   27.4878   16.8461 H   0  0  0  0  0
  1  2  1  0  0  0
  2  3  4  0  0  0
  2  7  4  0  0  0
  3  4  4  0  0  0
  4  5  4  0  0  0
  5  6  4  0  0  0
  5  8  1  0  0  0
  6  7  4  0  0  0
  8  9  1  0  0  0
  9 10  1  0  0  0
 10 11  1  0  0  0
 10 18  1  0  0  0
 11 12  1  0  0  0
 12 13  4  0  0  0
 12 17  4  0  0  0
 13 14  4  0  0  0
 14 15  4  0  0  0
 15 16  4  0  0  0
 16 17  4  0  0  0
 18 19  1  0  0  0
 18 23  1  0  0  0
 19 20  1  0  0  0
 20 21  1  0  0  0
 21 22  1  0  0  0
 21 24  1  0  0  0
 22 23  1  0  0  0
 24 25  4  0  0  0
 24 28  4  0  0  0
 25 26  4  0  0  0
 26 27  4  0  0  0
 27 28  4  0  0  0
 27 29  1  0  0  0
  3 30  1  0  0  0
  4 31  1  0  0  0
  6 32  1  0  0  0
  7 33  1  0  0  0
  8 34  1  0  0  0
  8 35  1  0  0  0
  9 36  1  0  0  0
  9 37  1  0  0  0
 10 38  1  0  0  0
 11 39  1  0  0  0
 11 40  1  0  0  0
 13 41  1  0  0  0
 14 42  1  0  0  0
 15 43  1  0  0  0
 16 44  1  0  0  0
 17 45  1  0  0  0
 18 46  1  0  0  0
 19 47  1  0  0  0
 19 48  1  0  0  0
 20 49  1  0  0  0
 20 50  1  0  0  0
 22 51  1  0  0  0
 22 52  1  0  0  0
 23 53  1  0  0  0
 23 54  1  0  0  0
 29 55  1  0  0  0
 29 56  1  0  0  0
M  END
$$$$
