4hy1_ligand
  -I-interpret- 

 50 54  0  0  0  0  0  0  0  0999 V2000
    6.3450    0.7690  -16.4740 O   0  0  0  0  0
    5.9950    0.1290  -15.4050 C   0  0  0  0  0
    6.8420    0.2250  -14.2080 C   0  0  0  0  0
    7.9980    0.8980  -13.8910 C   0  0  0  0  0
    4.8920   -0.6610  -15.2490 N   0  0  0  0  0
    4.8810   -1.1760  -13.8540 C   0  0  0  0  0
    6.0970   -0.6130  -13.2650 C   0  0  0  0  0
    6.5800   -0.7570  -11.9760 C   0  0  0  0  0
    7.7890   -0.1010  -11.6700 C   0  0  0  0  0
    8.4670    0.7250  -12.5780 C   0  0  0  0  0
    9.9350    1.4790  -12.1750 S   0  0  0  0  0
    9.9650    1.9110  -10.5260 C   0  0  0  0  0
   11.1870    2.1850  -10.0260 N   0  0  0  0  0
   11.3350    2.6630   -8.7910 C   0  0  0  0  0
    8.8180    2.0220   -9.8440 N   0  0  0  0  0
    8.7810    2.4430   -8.5690 C   0  0  0  0  0
    7.5780    2.3260   -7.9160 N   0  0  0  0  0
    7.4690    2.2020   -6.4470 C   0  0  0  0  0
    6.3140    1.2200   -6.2490 C   0  0  0  0  0
    6.7730   -0.1890   -6.1170 N   0  3  0  0  0
    5.5230    1.3420   -7.5520 C   0  0  0  0  0
    6.3900    1.9410   -8.6530 C   0  0  0  0  0
   10.1020    2.7920   -7.9820 C   0  0  0  0  0
   10.7170    3.3170   -6.7770 C   0  0  0  0  0
    9.8360    3.9240   -5.3390 Cl  0  0  0  0  0
   12.1690    3.4810   -6.8740 C   0  0  0  0  0
   12.4370    3.0660   -8.1140 N   0  0  0  0  0
   13.1050    3.9350   -5.7600 C   0  0  0  0  0
   14.0900    4.9790   -6.2470 C   0  0  0  0  0
    8.5184    1.5268  -14.6134 H   0  0  0  0  0
    4.1954   -0.8631  -15.9661 H   0  0  0  0  0
    4.8659   -2.2651  -13.8136 H   0  0  0  0  0
    3.9825   -0.8836  -13.3105 H   0  0  0  0  0
    6.0495   -1.3507  -11.2316 H   0  0  0  0  0
    8.2185   -0.2427  -10.6783 H   0  0  0  0  0
    7.2865    3.1609   -5.9619 H   0  0  0  0  0
    8.3946    1.8518   -5.9901 H   0  0  0  0  0
    5.7575    1.4490   -5.3402 H   0  0  0  0  0
    5.9649   -0.7979   -5.9876 H   0  0  0  0  0
    7.2745   -0.4625   -6.9620 H   0  0  0  0  0
    7.3931   -0.2692   -5.3112 H   0  0  0  0  0
    4.6654    1.9936   -7.3844 H   0  0  0  0  0
    5.1967    0.3489   -7.8609 H   0  0  0  0  0
    6.5916    1.2498   -9.4713 H   0  0  0  0  0
    5.9154    2.7712   -9.1761 H   0  0  0  0  0
   13.6670    3.0694   -5.4092 H   0  0  0  0  0
   12.5040    4.3745   -4.9639 H   0  0  0  0  0
   14.6924    4.5602   -7.0531 H   0  0  0  0  0
   13.5443    5.8485   -6.6135 H   0  0  0  0  0
   14.7391    5.2764   -5.4234 H   0  0  0  0  0
  1  2  2  0  0  0
  2  3  1  0  0  0
  2  5  1  0  0  0
  3  4  4  0  0  0
  3  7  4  0  0  0
  4 10  4  0  0  0
  5  6  1  0  0  0
  6  7  1  0  0  0
  7  8  4  0  0  0
  8  9  4  0  0  0
  9 10  4  0  0  0
 10 11  1  0  0  0
 11 12  1  0  0  0
 12 13  4  0  0  0
 12 15  4  0  0  0
 13 14  4  0  0  0
 14 23  4  0  0  0
 14 27  4  0  0  0
 15 16  4  0  0  0
 16 17  1  0  0  0
 16 23  4  0  0  0
 17 18  1  0  0  0
 17 22  1  0  0  0
 18 19  1  0  0  0
 19 20  1  0  0  0
 19 21  1  0  0  0
 21 22  1  0  0  0
 23 24  4  0  0  0
 24 25  1  0  0  0
 24 26  4  0  0  0
 26 27  4  0  0  0
 26 28  1  0  0  0
 28 29  1  0  0  0
  4 30  1  0  0  0
  5 31  1  0  0  0
  6 32  1  0  0  0
  6 33  1  0  0  0
  8 34  1  0  0  0
  9 35  1  0  0  0
 18 36  1  0  0  0
 18 37  1  0  0  0
 19 38  1  0  0  0
 20 39  1  0  0  0
 20 40  1  0  0  0
 20 41  1  0  0  0
 21 42  1  0  0  0
 21 43  1  0  0  0
 22 44  1  0  0  0
 22 45  1  0  0  0
 28 46  1  0  0  0
 28 47  1  0  0  0
 29 48  1  0  0  0
 29 49  1  0  0  0
 29 50  1  0  0  0
M  END
$$$$
