4k0u_ligand
  -I-interpret- 

253255  0  0  0  0  0  0  0  0999 V2000
  -14.4580  -14.5980    6.6080 N   0  3  0  0  0
  -13.2620  -14.7510    7.4940 C   0  0  0  0  0
  -11.9330  -15.1350    6.7840 C   0  0  0  0  0
  -11.3510  -16.1880    7.0950 O   0  0  0  0  0
  -13.5710  -15.7630    8.6010 C   0  0  0  0  0
  -14.7390  -15.3660    9.4890 C   0  0  0  0  0
  -14.5060  -15.8210   10.9250 C   0  0  0  0  0
  -15.7400  -15.8400   11.6980 N   0  0  0  0  0
  -16.6880  -16.7710   11.5880 C   0  0  0  0  0
  -16.5710  -17.7900   10.7330 N   0  0  0  0  0
  -17.7730  -16.6810   12.3390 N   0  0  0  0  0
  -11.4550  -14.2620    5.8720 N   0  0  0  0  0
  -10.1100  -14.3760    5.2520 C   0  0  0  0  0
   -9.0050  -14.3690    6.3220 C   0  0  0  0  0
   -8.0490  -15.1760    6.2700 O   0  0  0  0  0
   -9.7590  -13.2040    4.2670 C   0  0  0  0  0
  -10.9360  -12.6060    3.6920 O   0  0  0  0  0
   -8.8030  -13.6940    3.1530 C   0  0  0  0  0
   -9.1200  -13.4440    7.2810 N   0  0  0  0  0
   -8.0490  -13.2670    8.3010 C   0  0  0  0  0
   -7.8610  -14.5350    9.1150 C   0  0  0  0  0
   -6.7400  -15.0150    9.2990 O   0  0  0  0  0
   -8.3200  -12.0750    9.2240 C   0  0  0  0  0
   -7.4470  -12.0570   10.4550 C   0  0  0  0  0
   -6.0770  -11.7830   10.3510 C   0  0  0  0  0
   -7.9920  -12.3190   11.7250 C   0  0  0  0  0
   -5.2710  -11.7610   11.4780 C   0  0  0  0  0
   -7.1830  -12.2870   12.8530 C   0  0  0  0  0
   -5.8290  -12.0040   12.7300 C   0  0  0  0  0
   -8.9730  -15.0800    9.5890 N   0  0  0  0  0
   -8.9270  -16.2750   10.4000 C   0  0  0  0  0
   -8.2970  -17.3970    9.5970 C   0  0  0  0  0
   -7.3790  -18.0620   10.0840 O   0  0  0  0  0
  -10.3440  -16.6350   10.8720 C   0  0  0  0  0
  -10.3920  -17.5300   12.1000 C   0  0  0  0  0
  -11.7150  -17.3920   12.8490 C   0  0  0  0  0
  -11.9910  -18.5700   13.6760 N   0  0  0  0  0
  -13.1710  -18.8470   14.2480 C   0  0  0  0  0
  -14.2270  -18.0240   14.1070 N   0  0  0  0  0
  -13.2960  -19.9710   14.9660 N   0  0  0  0  0
   -8.7840  -17.5740    8.3580 N   0  0  0  0  0
   -8.1940  -18.5100    7.3960 C   0  0  0  0  0
   -6.7070  -18.3410    7.2410 C   0  0  0  0  0
   -5.9420  -19.3060    7.3030 O   0  0  0  0  0
   -8.8160  -18.3290    5.9970 C   0  0  0  0  0
  -10.1140  -19.0950    5.7810 C   0  0  0  0  0
  -10.0430  -20.5580    6.2740 C   0  0  0  0  0
   -8.9610  -21.1990    6.2710 O   0  0  0  0  0
  -11.2010  -21.0930    6.7060 N   0  0  0  0  0
   -6.3010  -17.0970    7.0150 N   0  0  0  0  0
   -4.9030  -16.7810    6.7850 C   0  0  0  0  0
   -4.0470  -16.9890    8.0370 C   0  0  0  0  0
   -2.9810  -17.5810    7.9410 O   0  0  0  0  0
   -4.7700  -15.3430    6.2700 C   0  0  0  0  0
   -3.3280  -14.8730    6.3670 C   0  0  0  0  0
   -5.2890  -15.2990    4.8400 C   0  0  0  0  0
   -4.5150  -16.5060    9.1990 N   0  0  0  0  0
   -3.7640  -16.6700   10.4870 C   0  0  0  0  0
   -3.6280  -18.1590   10.8250 C   0  0  0  0  0
   -2.5550  -18.6580   11.1650 O   0  0  0  0  0
   -4.4240  -15.8640   11.6300 C   0  0  0  0  0
   -3.4910  -15.4030   12.7710 C   0  0  0  0  0
   -1.9660  -15.2260   12.4160 C   0  0  0  0  0
   -1.2000  -16.2120   12.3010 O   0  0  0  0  0
   -1.5190  -13.9730   12.3160 N   0  0  0  0  0
   -4.7060  -18.8880   10.6180 N   0  0  0  0  0
   -4.6770  -20.3500   10.7330 C   0  0  0  0  0
   -3.5900  -20.9690    9.8470 C   0  0  0  0  0
   -2.7290  -21.7370   10.3280 O   0  0  0  0  0
   -6.0560  -20.9060   10.3730 C   0  0  0  0  0
   -6.1430  -22.2610   10.7080 O   0  0  0  0  0
   -3.5940  -20.6090    8.5610 N   0  0  0  0  0
   -2.6350  -21.1950    7.6190 C   0  0  0  0  0
   -1.2190  -20.9030    8.0510 C   0  0  0  0  0
   -0.4020  -21.8170    8.0380 O   0  0  0  0  0
   -2.8500  -20.6960    6.1950 C   0  0  0  0  0
   -4.1910  -20.8860    5.7900 O   0  0  0  0  0
   -0.9340  -19.6460    8.4250 N   0  0  0  0  0
    0.3950  -19.2650    8.9380 C   0  0  0  0  0
    0.7730  -20.1940   10.1160 C   0  0  0  0  0
    1.9010  -20.6820   10.1880 O   0  0  0  0  0
    0.4720  -17.8110    9.5090 C   0  0  0  0  0
   -0.1760  -16.7380    8.6250 C   0  0  0  0  0
    1.9160  -17.4260    9.7830 C   0  0  0  0  0
    0.3790  -16.6500    7.2430 C   0  0  0  0  0
   -0.1690  -20.3910   11.0490 N   0  0  0  0  0
    0.0190  -21.3000   12.2060 C   0  0  0  0  0
    0.4030  -22.6890   11.7480 C   0  0  0  0  0
    1.3860  -23.2420   12.2330 O   0  0  0  0  0
   -1.2520  -21.4230   13.0620 C   0  0  0  0  0
   -1.7790  -20.1550   13.3950 O   0  0  0  0  0
   -0.3590  -23.2410   10.8000 N   0  0  0  0  0
   -0.0290  -24.5480   10.2420 C   0  0  0  0  0
    1.4120  -24.5610    9.8170 C   0  0  0  0  0
    2.1870  -25.4160   10.2470 O   0  0  0  0  0
   -0.9410  -24.8960    9.0710 C   0  0  0  0  0
   -2.3470  -25.1690    9.5220 C   0  0  0  0  0
   -2.5660  -25.2000   10.7550 O   0  0  0  0  0
   -3.2330  -25.3300    8.6670 O   0  0  0  0  0
    1.7790  -23.5760    9.0040 N   0  0  0  0  0
    3.1030  -23.5520    8.4290 C   0  0  0  0  0
    4.1660  -23.6610    9.5160 C   0  0  0  0  0
    5.1240  -24.3980    9.3720 O   0  0  0  0  0
    3.3170  -22.2890    7.5860 C   0  0  0  0  0
    4.5720  -22.3310    6.7720 C   0  0  0  0  0
    4.5870  -22.9490    5.5320 C   0  0  0  0  0
    5.7630  -21.7750    7.2600 C   0  0  0  0  0
    5.7470  -23.0000    4.7760 C   0  0  0  0  0
    6.9360  -21.8270    6.5160 C   0  0  0  0  0
    6.9180  -22.4400    5.2690 C   0  0  0  0  0
    4.0080  -22.9270   10.6050 N   0  0  0  0  0
    5.0650  -22.8810   11.6150 C   0  0  0  0  0
    4.8840  -23.9620   12.7040 C   0  0  0  0  0
    4.6300  -23.6830   13.8770 O   0  0  0  0  0
    5.2300  -21.4380   12.1360 C   0  0  0  0  0
    5.8950  -20.5220   11.0950 C   0  0  0  0  0
    7.1340  -20.8750   10.5510 C   0  0  0  0  0
    5.2810  -19.3300   10.6330 C   0  0  0  0  0
    7.7460  -20.1000    9.5880 C   0  0  0  0  0
    5.9060  -18.5350    9.6810 C   0  0  0  0  0
    7.1390  -18.9370    9.1580 C   0  0  0  0  0
    7.8200  -18.2140    8.2010 O   0  0  0  0  0
    5.0210  -25.2130   12.2590 N   0  0  0  0  0
    5.0290  -26.3910   13.1240 C   0  0  0  0  0
    6.2830  -27.1940   12.8260 C   0  0  0  0  0
    7.0850  -27.4530   13.7190 O   0  0  0  0  0
    3.8030  -27.2690   12.8640 C   0  0  0  0  0
    2.5120  -26.6410   13.3710 C   0  0  0  0  0
    2.5740  -25.8390   14.3290 O   0  0  0  0  0
    1.4320  -26.9510   12.8160 O   0  0  0  0  0
    6.5120  -27.5950   11.6880 O   0  0  0  0  0
  -14.2500  -13.9236    5.8715 H   0  0  0  0  0
  -14.6876  -15.4997    6.1901 H   0  0  0  0  0
  -15.2488  -14.2668    7.1605 H   0  0  0  0  0
  -13.0809  -13.7546    7.8971 H   0  0  0  0  0
  -12.6879  -15.8283    9.2365 H   0  0  0  0  0
  -13.8365  -16.7027    8.1166 H   0  0  0  0  0
  -15.6446  -15.8414    9.1121 H   0  0  0  0  0
  -14.8376  -14.2806    9.4758 H   0  0  0  0  0
  -13.8184  -15.1196   11.3976 H   0  0  0  0  0
  -14.1033  -16.8336   10.9007 H   0  0  0  0  0
  -15.8896  -15.0882   12.3709 H   0  0  0  0  0
  -17.3130  -18.4866   10.6652 H   0  0  0  0  0
  -15.7396  -17.8718   10.1477 H   0  0  0  0  0
  -17.8775  -15.9055   12.9933 H   0  0  0  0  0
  -12.0498  -13.4816    5.5935 H   0  0  0  0  0
  -10.1513  -15.3153    4.7005 H   0  0  0  0  0
   -9.2559  -12.4341    4.8520 H   0  0  0  0  0
  -10.6763  -11.8972    3.0989 H   0  0  0  0  0
   -7.8821  -14.0645    3.6033 H   0  0  0  0  0
   -9.2824  -14.4957    2.5912 H   0  0  0  0  0
   -8.5735  -12.8657    2.4826 H   0  0  0  0  0
   -9.9506  -12.8529    7.3143 H   0  0  0  0  0
   -7.1269  -13.0572    7.7590 H   0  0  0  0  0
   -9.3553  -12.1472    9.5573 H   0  0  0  0  0
   -8.1081  -11.1676    8.6585 H   0  0  0  0  0
   -5.6400  -11.5848    9.3723 H   0  0  0  0  0
   -9.0531  -12.5479   11.8240 H   0  0  0  0  0
   -4.2049  -11.5543   11.3846 H   0  0  0  0  0
   -7.6110  -12.4842   13.8359 H   0  0  0  0  0
   -5.1993  -11.9719   13.6192 H   0  0  0  0  0
   -9.8734  -14.6497    9.3782 H   0  0  0  0  0
   -8.3166  -16.1084   11.2876 H   0  0  0  0  0
  -10.8210  -17.1830   10.0594 H   0  0  0  0  0
  -10.8379  -15.7008   11.1390 H   0  0  0  0  0
   -9.5854  -17.2351   12.7712 H   0  0  0  0  0
  -10.2884  -18.5651   11.7744 H   0  0  0  0  0
  -12.5163  -17.2890   12.1173 H   0  0  0  0  0
  -11.6531  -16.5203   13.5004 H   0  0  0  0  0
  -11.2273  -19.2289   13.8277 H   0  0  0  0  0
  -15.1176  -18.2574   14.5460 H   0  0  0  0  0
  -14.1365  -17.1671   13.5612 H   0  0  0  0  0
  -12.5003  -20.6005   15.0705 H   0  0  0  0  0
   -9.6007  -17.0332    8.0736 H   0  0  0  0  0
   -8.4022  -19.5006    7.8003 H   0  0  0  0  0
   -8.0950  -18.7119    5.2747 H   0  0  0  0  0
   -9.0475  -17.2698    5.8848 H   0  0  0  0  0
  -10.3123  -19.1156    4.7094 H   0  0  0  0  0
  -10.8950  -18.5909    6.3503 H   0  0  0  0  0
  -11.2227  -22.0537    7.0480 H   0  0  0  0  0
  -12.0563  -20.5375    6.6912 H   0  0  0  0  0
   -6.9891  -16.3442    7.0027 H   0  0  0  0  0
   -4.5285  -17.4710    6.0288 H   0  0  0  0  0
   -5.3613  -14.6625    6.8826 H   0  0  0  0  0
   -3.0050  -14.9080    7.4075 H   0  0  0  0  0
   -2.6936  -15.5246    5.7661 H   0  0  0  0  0
   -3.2548  -13.8504    5.9967 H   0  0  0  0  0
   -4.7001  -15.9751    4.2201 H   0  0  0  0  0
   -6.3343  -15.6075    4.8246 H   0  0  0  0  0
   -5.2030  -14.2830    4.4547 H   0  0  0  0  0
   -5.4078  -16.0128    9.2061 H   0  0  0  0  0
   -2.7604  -16.2622   10.3663 H   0  0  0  0  0
   -5.1558  -16.5300   12.0872 H   0  0  0  0  0
   -4.8159  -14.9553   11.1731 H   0  0  0  0  0
   -3.5328  -16.1875   13.5265 H   0  0  0  0  0
   -3.8456  -14.4155   13.0664 H   0  0  0  0  0
   -0.5296  -13.7969   12.1414 H   0  0  0  0  0
   -2.1666  -13.1911   12.4142 H   0  0  0  0  0
   -5.5809  -18.4249   10.3721 H   0  0  0  0  0
   -4.4324  -20.6147   11.7617 H   0  0  0  0  0
   -6.2117  -20.7968    9.2997 H   0  0  0  0  0
   -6.8150  -20.3553   10.9287 H   0  0  0  0  0
   -7.0136  -22.5918   10.4752 H   0  0  0  0  0
   -4.2701  -19.9203    8.2310 H   0  0  0  0  0
   -2.8027  -22.2720    7.6256 H   0  0  0  0  0
   -2.1990  -21.2577    5.5251 H   0  0  0  0  0
   -2.6208  -19.6310    6.1588 H   0  0  0  0  0
   -4.3015  -20.5648    4.8921 H   0  0  0  0  0
   -1.6590  -18.9322    8.3522 H   0  0  0  0  0
    1.0639  -19.3430    8.0809 H   0  0  0  0  0
   -0.1081  -17.8392   10.4314 H   0  0  0  0  0
    0.0114  -15.7769    9.1039 H   0  0  0  0  0
   -1.2293  -17.0009    8.5277 H   0  0  0  0  0
    2.3432  -18.1168   10.5099 H   0  0  0  0  0
    2.4860  -17.4745    8.8552 H   0  0  0  0  0
    1.9511  -16.4114   10.1798 H   0  0  0  0  0
    1.4425  -16.4168    7.2941 H   0  0  0  0  0
    0.2389  -17.6042    6.7351 H   0  0  0  0  0
   -0.1404  -15.8649    6.6936 H   0  0  0  0  0
   -1.0549  -19.8935   10.9594 H   0  0  0  0  0
    0.8162  -20.8604   12.8055 H   0  0  0  0  0
   -0.9967  -21.9433   13.9852 H   0  0  0  0  0
   -2.0020  -21.9681   12.4889 H   0  0  0  0  0
   -2.5694  -20.2681   13.9279 H   0  0  0  0  0
   -1.1821  -22.7424   10.4619 H   0  0  0  0  0
   -0.1838  -25.3054   11.0104 H   0  0  0  0  0
   -0.5544  -25.7949    8.5907 H   0  0  0  0  0
   -0.9591  -24.0478    8.3867 H   0  0  0  0  0
   -1.7441  -25.0526   11.2287 H   0  0  0  0  0
    1.1191  -22.8299    8.7842 H   0  0  0  0  0
    3.1971  -24.4150    7.7699 H   0  0  0  0  0
    3.3944  -21.4439    8.2700 H   0  0  0  0  0
    2.4776  -22.2058    6.8957 H   0  0  0  0  0
    3.6735  -23.4013    5.1459 H   0  0  0  0  0
    5.7692  -21.2944    8.2383 H   0  0  0  0  0
    5.7403  -23.4785    3.7967 H   0  0  0  0  0
    7.8570  -21.3930    6.9052 H   0  0  0  0  0
    7.8300  -22.4815    4.6734 H   0  0  0  0  0
    3.1494  -22.3933   10.7404 H   0  0  0  0  0
    6.0180  -23.1464   11.1573 H   0  0  0  0  0
    5.8657  -21.4658   13.0210 H   0  0  0  0  0
    4.2396  -21.0401   12.3569 H   0  0  0  0  0
    7.6275  -21.7836   10.8960 H   0  0  0  0  0
    4.3092  -19.0349   11.0289 H   0  0  0  0  0
    8.7048  -20.4045    9.1683 H   0  0  0  0  0
    5.4407  -17.6082    9.3453 H   0  0  0  0  0
    7.3145  -17.4301    7.9740 H   0  0  0  0  0
    5.1265  -25.3554   11.2545 H   0  0  0  0  0
    5.0082  -26.0688   14.1651 H   0  0  0  0  0
    3.9475  -28.2107   13.3936 H   0  0  0  0  0
    3.7095  -27.4023   11.7862 H   0  0  0  0  0
    1.6051  -27.5760   12.1082 H   0  0  0  0  0
    5.8027  -27.3178   11.1035 H   0  0  0  0  0
  1  2  1  0  0  0
  2  3  1  0  0  0
  2  5  1  0  0  0
  3  4  2  0  0  0
  3 12  1  0  0  0
  5  6  1  0  0  0
  6  7  1  0  0  0
  7  8  1  0  0  0
  8  9  1  0  0  0
  9 10  1  0  0  0
  9 11  2  0  0  0
 12 13  1  0  0  0
 13 14  1  0  0  0
 13 16  1  0  0  0
 14 15  2  0  0  0
 14 19  1  0  0  0
 16 17  1  0  0  0
 16 18  1  0  0  0
 19 20  1  0  0  0
 20 21  1  0  0  0
 20 23  1  0  0  0
 21 22  2  0  0  0
 21 30  1  0  0  0
 23 24  1  0  0  0
 24 25  4  0  0  0
 24 26  4  0  0  0
 25 27  4  0  0  0
 26 28  4  0  0  0
 27 29  4  0  0  0
 28 29  4  0  0  0
 30 31  1  0  0  0
 31 32  1  0  0  0
 31 34  1  0  0  0
 32 33  2  0  0  0
 32 41  1  0  0  0
 34 35  1  0  0  0
 35 36  1  0  0  0
 36 37  1  0  0  0
 37 38  1  0  0  0
 38 39  1  0  0  0
 38 40  2  0  0  0
 41 42  1  0  0  0
 42 43  1  0  0  0
 42 45  1  0  0  0
 43 44  2  0  0  0
 43 50  1  0  0  0
 45 46  1  0  0  0
 46 47  1  0  0  0
 47 48  2  0  0  0
 47 49  1  0  0  0
 50 51  1  0  0  0
 51 52  1  0  0  0
 51 54  1  0  0  0
 52 53  2  0  0  0
 52 57  1  0  0  0
 54 55  1  0  0  0
 54 56  1  0  0  0
 57 58  1  0  0  0
 58 59  1  0  0  0
 58 61  1  0  0  0
 59 60  2  0  0  0
 59 66  1  0  0  0
 61 62  1  0  0  0
 62 63  1  0  0  0
 63 64  2  0  0  0
 63 65  1  0  0  0
 66 67  1  0  0  0
 67 68  1  0  0  0
 67 70  1  0  0  0
 68 69  2  0  0  0
 68 72  1  0  0  0
 70 71  1  0  0  0
 72 73  1  0  0  0
 73 74  1  0  0  0
 73 76  1  0  0  0
 74 75  2  0  0  0
 74 78  1  0  0  0
 76 77  1  0  0  0
 78 79  1  0  0  0
 79 80  1  0  0  0
 79 82  1  0  0  0
 80 81  2  0  0  0
 80 86  1  0  0  0
 82 83  1  0  0  0
 82 84  1  0  0  0
 83 85  1  0  0  0
 86 87  1  0  0  0
 87 88  1  0  0  0
 87 90  1  0  0  0
 88 89  2  0  0  0
 88 92  1  0  0  0
 90 91  1  0  0  0
 92 93  1  0  0  0
 93 94  1  0  0  0
 93 96  1  0  0  0
 94 95  2  0  0  0
 94100  1  0  0  0
 96 97  1  0  0  0
 97 98  1  0  0  0
 97 99  2  0  0  0
100101  1  0  0  0
101102  1  0  0  0
101104  1  0  0  0
102103  2  0  0  0
102111  1  0  0  0
104105  1  0  0  0
105106  4  0  0  0
105107  4  0  0  0
106108  4  0  0  0
107109  4  0  0  0
108110  4  0  0  0
109110  4  0  0  0
111112  1  0  0  0
112113  1  0  0  0
112115  1  0  0  0
113114  2  0  0  0
113123  1  0  0  0
115116  1  0  0  0
116117  4  0  0  0
116118  4  0  0  0
117119  4  0  0  0
118120  4  0  0  0
119121  4  0  0  0
120121  4  0  0  0
121122  1  0  0  0
123124  1  0  0  0
124125  1  0  0  0
124127  1  0  0  0
125126  2  0  0  0
125131  1  0  0  0
127128  1  0  0  0
128129  2  0  0  0
128130  1  0  0  0
  1132  1  0  0  0
  1133  1  0  0  0
  1134  1  0  0  0
  2135  1  0  0  0
  5136  1  0  0  0
  5137  1  0  0  0
  6138  1  0  0  0
  6139  1  0  0  0
  7140  1  0  0  0
  7141  1  0  0  0
  8142  1  0  0  0
 10143  1  0  0  0
 10144  1  0  0  0
 11145  1  0  0  0
 12146  1  0  0  0
 13147  1  0  0  0
 16148  1  0  0  0
 17149  1  0  0  0
 18150  1  0  0  0
 18151  1  0  0  0
 18152  1  0  0  0
 19153  1  0  0  0
 20154  1  0  0  0
 23155  1  0  0  0
 23156  1  0  0  0
 25157  1  0  0  0
 26158  1  0  0  0
 27159  1  0  0  0
 28160  1  0  0  0
 29161  1  0  0  0
 30162  1  0  0  0
 31163  1  0  0  0
 34164  1  0  0  0
 34165  1  0  0  0
 35166  1  0  0  0
 35167  1  0  0  0
 36168  1  0  0  0
 36169  1  0  0  0
 37170  1  0  0  0
 39171  1  0  0  0
 39172  1  0  0  0
 40173  1  0  0  0
 41174  1  0  0  0
 42175  1  0  0  0
 45176  1  0  0  0
 45177  1  0  0  0
 46178  1  0  0  0
 46179  1  0  0  0
 49180  1  0  0  0
 49181  1  0  0  0
 50182  1  0  0  0
 51183  1  0  0  0
 54184  1  0  0  0
 55185  1  0  0  0
 55186  1  0  0  0
 55187  1  0  0  0
 56188  1  0  0  0
 56189  1  0  0  0
 56190  1  0  0  0
 57191  1  0  0  0
 58192  1  0  0  0
 61193  1  0  0  0
 61194  1  0  0  0
 62195  1  0  0  0
 62196  1  0  0  0
 65197  1  0  0  0
 65198  1  0  0  0
 66199  1  0  0  0
 67200  1  0  0  0
 70201  1  0  0  0
 70202  1  0  0  0
 71203  1  0  0  0
 72204  1  0  0  0
 73205  1  0  0  0
 76206  1  0  0  0
 76207  1  0  0  0
 77208  1  0  0  0
 78209  1  0  0  0
 79210  1  0  0  0
 82211  1  0  0  0
 83212  1  0  0  0
 83213  1  0  0  0
 84214  1  0  0  0
 84215  1  0  0  0
 84216  1  0  0  0
 85217  1  0  0  0
 85218  1  0  0  0
 85219  1  0  0  0
 86220  1  0  0  0
 87221  1  0  0  0
 90222  1  0  0  0
 90223  1  0  0  0
 91224  1  0  0  0
 92225  1  0  0  0
 93226  1  0  0  0
 96227  1  0  0  0
 96228  1  0  0  0
 98229  1  0  0  0
100230  1  0  0  0
101231  1  0  0  0
104232  1  0  0  0
104233  1  0  0  0
106234  1  0  0  0
107235  1  0  0  0
108236  1  0  0  0
109237  1  0  0  0
110238  1  0  0  0
111239  1  0  0  0
112240  1  0  0  0
115241  1  0  0  0
115242  1  0  0  0
117243  1  0  0  0
118244  1  0  0  0
119245  1  0  0  0
120246  1  0  0  0
122247  1  0  0  0
123248  1  0  0  0
124249  1  0  0  0
127250  1  0  0  0
127251  1  0  0  0
130252  1  0  0  0
131253  1  0  0  0
M  END
$$$$
