### 
### Created by X-TOOL on Mon Sep 10 21:13:15 2018
### 

@<TRIPOS>MOLECULE
4k0u_ligand
  252   254     1     0     0
SMALL
GAST_HUCK


@<TRIPOS>ATOM
      1 N         -14.4580  -14.5980    6.6080 N.4       1 ARG         0.2379
      2 CA        -13.2620  -14.7510    7.4940 C.3       1 ARG         0.0651
      3 C         -11.9330  -15.1350    6.7840 C.2       1 ARG         0.2268
      4 O         -11.3510  -16.1880    7.0950 O.2       1 ARG        -0.3907
      5 CB        -13.5710  -15.7630    8.6010 C.3       1 ARG         0.0110
      6 CG        -14.7390  -15.3660    9.4890 C.3       1 ARG        -0.0125
      7 CD        -14.5060  -15.8210   10.9250 C.3       1 ARG         0.0629
      8 NE        -15.7400  -15.8400   11.6980 N.pl3     1 ARG        -0.2723
      9 CZ        -16.6880  -16.7710   11.5880 C.cat     1 ARG         0.2882
     10 NH1       -16.5710  -17.7900   10.7330 N.pl3     1 ARG        -0.2849
     11 NH2       -17.7730  -16.6810   12.3390 N.pl3     1 ARG        -0.2849
     12 N         -11.4550  -14.2620    5.8720 N.am      1 THR        -0.2586
     13 CA        -10.1100  -14.3760    5.2520 C.3       1 THR         0.1566
     14 C          -9.0050  -14.3690    6.3220 C.2       1 THR         0.2066
     15 O          -8.0490  -15.1760    6.2700 O.2       1 THR        -0.3943
     16 CB         -9.7590  -13.2040    4.2670 C.3       1 THR         0.0924
     17 OG1       -10.9360  -12.6060    3.6920 O.3       1 THR        -0.3874
     18 CG2        -8.8030  -13.6940    3.1530 C.3       1 THR        -0.0346
     19 N          -9.1200  -13.4440    7.2810 N.am      1 PHE        -0.2619
     20 CA         -8.0490  -13.2670    8.3010 C.3       1 PHE         0.1404
     21 C          -7.8610  -14.5350    9.1150 C.2       1 PHE         0.2060
     22 O          -6.7400  -15.0150    9.2990 O.2       1 PHE        -0.3942
     23 CB         -8.3200  -12.0750    9.2240 C.3       1 PHE         0.0214
     24 CG         -7.4470  -12.0570   10.4550 C.ar      1 PHE        -0.0386
     25 CD1        -6.0770  -11.7830   10.3510 C.ar      1 PHE        -0.0601
     26 CD2        -7.9920  -12.3190   11.7250 C.ar      1 PHE        -0.0601
     27 CE1        -5.2710  -11.7610   11.4780 C.ar      1 PHE        -0.0686
     28 CE2        -7.1830  -12.2870   12.8530 C.ar      1 PHE        -0.0686
     29 CZ         -5.8290  -12.0040   12.7300 C.ar      1 PHE        -0.0687
     30 N          -8.9730  -15.0800    9.5890 N.am      1 ARG        -0.2636
     31 CA         -8.9270  -16.2750   10.4000 C.3       1 ARG         0.1311
     32 C          -8.2970  -17.3970    9.5970 C.2       1 ARG         0.2039
     33 O          -7.3790  -18.0620   10.0840 O.2       1 ARG        -0.3944
     34 CB        -10.3440  -16.6350   10.8720 C.3       1 ARG        -0.0092
     35 CG        -10.3920  -17.5300   12.1000 C.3       1 ARG        -0.0156
     36 CD        -11.7150  -17.3920   12.8490 C.3       1 ARG         0.0627
     37 NE        -11.9910  -18.5700   13.6760 N.pl3     1 ARG        -0.2723
     38 CZ        -13.1710  -18.8470   14.2480 C.cat     1 ARG         0.2882
     39 NH1       -14.2270  -18.0240   14.1070 N.pl3     1 ARG        -0.2849
     40 NH2       -13.2960  -19.9710   14.9660 N.pl3     1 ARG        -0.2849
     41 N          -8.7840  -17.5740    8.3580 N.am      1 GLN        -0.2636
     42 CA         -8.1940  -18.5100    7.3960 C.3       1 GLN         0.1330
     43 C          -6.7070  -18.3410    7.2410 C.2       1 GLN         0.2041
     44 O          -5.9420  -19.3060    7.3030 O.2       1 GLN        -0.3944
     45 CB         -8.8160  -18.3290    5.9970 C.3       1 GLN         0.0045
     46 CG        -10.1140  -19.0950    5.7810 C.3       1 GLN         0.0412
     47 CD        -10.0430  -20.5580    6.2740 C.2       1 GLN         0.1737
     48 OE1        -8.9610  -21.1990    6.2710 O.2       1 GLN        -0.3973
     49 NE2       -11.2010  -21.0930    6.7060 N.am      1 GLN        -0.3009
     50 N          -6.3010  -17.0970    7.0150 N.am      1 VAL        -0.2635
     51 CA         -4.9030  -16.7810    6.7850 C.3       1 VAL         0.1332
     52 C          -4.0470  -16.9890    8.0370 C.2       1 VAL         0.2042
     53 O          -2.9810  -17.5810    7.9410 O.2       1 VAL        -0.3944
     54 CB         -4.7700  -15.3430    6.2700 C.3       1 VAL        -0.0063
     55 CG1        -3.3280  -14.8730    6.3670 C.3       1 VAL        -0.0584
     56 CG2        -5.2890  -15.2990    4.8400 C.3       1 VAL        -0.0584
     57 N          -4.5150  -16.5060    9.1990 N.am      1 GLN        -0.2636
     58 CA         -3.7640  -16.6700   10.4870 C.3       1 GLN         0.1330
     59 C          -3.6280  -18.1590   10.8250 C.2       1 GLN         0.2041
     60 O          -2.5550  -18.6580   11.1650 O.2       1 GLN        -0.3944
     61 CB         -4.4240  -15.8640   11.6300 C.3       1 GLN         0.0045
     62 CG         -3.4910  -15.4030   12.7710 C.3       1 GLN         0.0412
     63 CD         -1.9660  -15.2260   12.4160 C.2       1 GLN         0.1737
     64 OE1        -1.2000  -16.2120   12.3010 O.2       1 GLN        -0.3973
     65 NE2        -1.5190  -13.9730   12.3160 N.am      1 GLN        -0.3009
     66 N          -4.7060  -18.8880   10.6180 N.am      1 SER        -0.2616
     67 CA         -4.6770  -20.3500   10.7330 C.3       1 SER         0.1539
     68 C          -3.5900  -20.9690    9.8470 C.2       1 SER         0.2062
     69 O          -2.7290  -21.7370   10.3280 O.2       1 SER        -0.3943
     70 CB         -6.0560  -20.9060   10.3730 C.3       1 SER         0.0843
     71 OG         -6.1430  -22.2610   10.7080 O.3       1 SER        -0.3903
     72 N          -3.5940  -20.6090    8.5610 N.am      1 SER        -0.2615
     73 CA         -2.6350  -21.1950    7.6190 C.3       1 SER         0.1539
     74 C          -1.2190  -20.9030    8.0510 C.2       1 SER         0.2062
     75 O          -0.4020  -21.8170    8.0380 O.2       1 SER        -0.3943
     76 CB         -2.8500  -20.6960    6.1950 C.3       1 SER         0.0843
     77 OG         -4.1910  -20.8860    5.7900 O.3       1 SER        -0.3903
     78 N          -0.9340  -19.6460    8.4250 N.am      1 ILE        -0.2634
     79 CA          0.3950  -19.2650    8.9380 C.3       1 ILE         0.1335
     80 C           0.7730  -20.1940   10.1160 C.2       1 ILE         0.2042
     81 O           1.9010  -20.6820   10.1880 O.2       1 ILE        -0.3944
     82 CB          0.4720  -17.8110    9.5090 C.3       1 ILE        -0.0037
     83 CG1        -0.1760  -16.7380    8.6250 C.3       1 ILE        -0.0491
     84 CG2         1.9160  -17.4260    9.7830 C.3       1 ILE        -0.0582
     85 CD1         0.3790  -16.6500    7.2430 C.3       1 ILE        -0.0648
     86 N          -0.1690  -20.3910   11.0490 N.am      1 SER        -0.2616
     87 CA          0.0190  -21.3000   12.2060 C.3       1 SER         0.1539
     88 C           0.4030  -22.6890   11.7480 C.2       1 SER         0.2063
     89 O           1.3860  -23.2420   12.2330 O.2       1 SER        -0.3943
     90 CB         -1.2520  -21.4230   13.0620 C.3       1 SER         0.0843
     91 OG         -1.7790  -20.1550   13.3950 O.3       1 SER        -0.3903
     92 N          -0.3590  -23.2410   10.8000 N.am      1 ASP        -0.2621
     93 CA         -0.0290  -24.5480   10.2420 C.3       1 ASP         0.1423
     94 C           1.4120  -24.5610    9.8170 C.2       1 ASP         0.2057
     95 O           2.1870  -25.4160   10.2470 O.2       1 ASP        -0.3943
     96 CB         -0.9410  -24.8960    9.0710 C.3       1 ASP         0.0406
     97 CG         -2.3470  -25.1690    9.5220 C.2       1 ASP         0.0393
     98 OD1        -2.5660  -25.2000   10.7550 O.co2     1 ASP        -0.5688
     99 OD2        -3.2330  -25.3300    8.6670 O.co2     1 ASP        -0.5688
    100 N           1.7790  -23.5760    9.0040 N.am      1 PHE        -0.2618
    101 CA          3.1030  -23.5520    8.4290 C.3       1 PHE         0.1404
    102 C           4.1660  -23.6610    9.5160 C.2       1 PHE         0.2061
    103 O           5.1240  -24.3980    9.3720 O.2       1 PHE        -0.3942
    104 CB          3.3170  -22.2890    7.5860 C.3       1 PHE         0.0214
    105 CG          4.5720  -22.3310    6.7720 C.ar      1 PHE        -0.0386
    106 CD1         4.5870  -22.9490    5.5320 C.ar      1 PHE        -0.0601
    107 CD2         5.7630  -21.7750    7.2600 C.ar      1 PHE        -0.0601
    108 CE1         5.7470  -23.0000    4.7760 C.ar      1 PHE        -0.0686
    109 CE2         6.9360  -21.8270    6.5160 C.ar      1 PHE        -0.0686
    110 CZ          6.9180  -22.4400    5.2690 C.ar      1 PHE        -0.0687
    111 N           4.0080  -22.9270   10.6050 N.am      1 TYR        -0.2620
    112 CA          5.0650  -22.8810   11.6150 C.3       1 TYR         0.1390
    113 C           4.8840  -23.9620   12.7040 C.2       1 TYR         0.2053
    114 O           4.6300  -23.6830   13.8770 O.2       1 TYR        -0.3942
    115 CB          5.2300  -21.4380   12.1360 C.3       1 TYR         0.0163
    116 CG          5.8950  -20.5220   11.0950 C.ar      1 TYR        -0.0493
    117 CD1         7.1340  -20.8750   10.5510 C.ar      1 TYR        -0.0685
    118 CD2         5.2810  -19.3300   10.6330 C.ar      1 TYR        -0.0685
    119 CE1         7.7460  -20.1000    9.5880 C.ar      1 TYR        -0.0398
    120 CE2         5.9060  -18.5350    9.6810 C.ar      1 TYR        -0.0398
    121 CZ          7.1390  -18.9370    9.1580 C.ar      1 TYR         0.0805
    122 OH          7.8200  -18.2140    8.2010 O.3       1 TYR        -0.3376
    123 N           5.0210  -25.2130   12.2590 N.am      1 ASP        -0.2678
    124 CA          5.0290  -26.3910   13.1240 C.3       1 ASP         0.1058
    125 C           6.2830  -27.1940   12.8260 C.2       1 ASP         0.0618
    126 O           7.0850  -27.4530   13.7190 O.co2     1 ASP        -0.5665
    127 CB          3.8030  -27.2690   12.8640 C.3       1 ASP         0.0351
    128 CG          2.5120  -26.6410   13.3710 C.2       1 ASP         0.0387
    129 OD1         2.5740  -25.8390   14.3290 O.co2     1 ASP        -0.5688
    130 OD2         1.4320  -26.9510   12.8160 O.co2     1 ASP        -0.5688
    131 OXT         6.5120  -27.5950   11.6880 O.co2     1 ASP        -0.5665
    132 H1        -15.2600  -14.3499    7.1660 H         1 ARG         0.2015
    133 H2        -14.6365  -15.4680    6.1313 H         1 ARG         0.2015
    134 H3        -14.2833  -13.8730    5.9299 H         1 ARG         0.2015
    135 H4        -13.0937  -13.7728    7.9681 H         1 ARG         0.1098
    136 H5        -12.6766  -15.8699    9.2323 H         1 ARG         0.0347
    137 H6        -13.8059  -16.7295    8.1312 H         1 ARG         0.0347
    138 H7        -15.6581  -15.8343    9.1069 H         1 ARG         0.0302
    139 H8        -14.8502  -14.2718    9.4710 H         1 ARG         0.0302
    140 H9        -13.7965  -15.1312   11.4055 H         1 ARG         0.0689
    141 H10       -14.0797  -16.8349   10.9116 H         1 ARG         0.0689
    142 H11       -15.8911  -15.0808   12.3775 H         1 ARG         0.2642
    143 H12       -17.3182  -18.4959   10.6677 H         1 ARG         0.2615
    144 H13       -15.7335  -17.8701   10.1388 H         1 ARG         0.2615
    145 H14       -17.8766  -15.9003   13.0028 H         1 ARG         0.2615
    146 H15       -18.5144  -17.3916   12.2600 H         1 ARG         0.2615
    147 H16       -12.0381  -13.4969    5.5989 H         1 THR         0.1885
    148 H17       -10.0755  -15.3258    4.6983 H         1 THR         0.0826
    149 H18        -9.2374  -12.4271    4.8452 H         1 THR         0.0639
    150 H19       -10.6790  -11.9046    3.1050 H         1 THR         0.2101
    151 H20        -8.5707  -12.8589    2.4757 H         1 THR         0.0257
    152 H21        -9.2857  -14.5031    2.5852 H         1 THR         0.0257
    153 H22        -7.8731  -14.0681    3.6061 H         1 THR         0.0257
    154 H23        -9.9343  -12.8645    7.3137 H         1 PHE         0.1885
    155 H24        -7.1097  -13.0668    7.7647 H         1 PHE         0.0823
    156 H25        -9.3718  -12.1140    9.5435 H         1 PHE         0.0474
    157 H26        -8.1428  -11.1487    8.6578 H         1 PHE         0.0474
    158 H27        -5.6425  -11.5859    9.3777 H         1 PHE         0.0557
    159 H28        -9.0472  -12.5467   11.8234 H         1 PHE         0.0557
    160 H29        -4.2107  -11.5555   11.3851 H         1 PHE         0.0599
    161 H30        -7.6087  -12.4831   13.8305 H         1 PHE         0.0599
    162 H31        -5.2028  -11.9721   13.6143 H         1 PHE         0.0559
    163 H32        -9.8558  -14.6581    9.3823 H         1 ARG         0.1883
    164 H33        -8.3026  -16.0839   11.2852 H         1 ARG         0.0800
    165 H34       -10.8588  -17.1529   10.0493 H         1 ARG         0.0313
    166 H35       -10.8754  -15.7010   11.1069 H         1 ARG         0.0313
    167 H36        -9.5695  -17.2524   12.7756 H         1 ARG         0.0301
    168 H37       -10.2693  -18.5763   11.7834 H         1 ARG         0.0301
    169 H38       -12.5281  -17.2702   12.1183 H         1 ARG         0.0689
    170 H39       -11.6679  -16.5041   13.4966 H         1 ARG         0.0689
    171 H40       -11.2198  -19.2354   13.8292 H         1 ARG         0.2642
    172 H41       -15.1246  -18.2565   14.5554 H         1 ARG         0.2615
    173 H42       -14.1373  -17.1618   13.5507 H         1 ARG         0.2615
    174 H43       -12.4908  -20.6037   15.0766 H         1 ARG         0.2615
    175 H44       -14.1973  -20.2025   15.4075 H         1 ARG         0.2615
    176 H45        -9.5847  -17.0438    8.0791 H         1 GLN         0.1883
    177 H46        -8.3969  -19.5313    7.7507 H         1 GLN         0.0801
    178 H47        -8.0859  -18.6718    5.2491 H         1 GLN         0.0337
    179 H48        -9.0195  -17.2585    5.8470 H         1 GLN         0.0337
    180 H49       -10.3436  -19.0988    4.7052 H         1 GLN         0.0504
    181 H50       -10.9191  -18.5805    6.3260 H         1 GLN         0.0504
    182 H51       -11.2229  -22.0360    7.0382 H         1 GLN         0.1814
    183 H52       -12.0389  -20.5473    6.6946 H         1 GLN         0.1814
    184 H53        -6.9757  -16.3590    7.0029 H         1 VAL         0.1883
    185 H54        -4.5272  -17.4606    6.0060 H         1 VAL         0.0802
    186 H55        -5.3910  -14.6810    6.8914 H         1 VAL         0.0343
    187 H56        -3.2528  -13.8411    5.9936 H         1 VAL         0.0234
    188 H57        -2.6867  -15.5298    5.7610 H         1 VAL         0.0234
    189 H58        -3.0008  -14.9078    7.4166 H         1 VAL         0.0234
    190 H59        -6.3325  -15.6464    4.8178 H         1 VAL         0.0234
    191 H60        -4.6716  -15.9519    4.2056 H         1 VAL         0.0234
    192 H61        -5.2382  -14.2669    4.4630 H         1 VAL         0.0234
    193 H62        -5.3903  -16.0225    9.2060 H         1 GLN         0.1883
    194 H63        -2.7512  -16.2662   10.3418 H         1 GLN         0.0801
    195 H64        -5.2096  -16.4935   12.0735 H         1 GLN         0.0337
    196 H65        -4.8799  -14.9663   11.1869 H         1 GLN         0.0337
    197 H66        -3.5602  -16.1470   13.5783 H         1 GLN         0.0504
    198 H67        -3.8628  -14.4332   13.1332 H         1 GLN         0.0504
    199 H68        -0.5596  -13.8007   12.0929 H         1 GLN         0.1814
    200 H69        -2.1434  -13.2061   12.4642 H         1 GLN         0.1814
    201 H70        -5.5638  -18.4340   10.3769 H         1 SER         0.1884
    202 H71        -4.4551  -20.6120   11.7780 H         1 SER         0.0823
    203 H72        -6.2218  -20.7896    9.2918 H         1 SER         0.0606
    204 H73        -6.8264  -20.3471   10.9244 H         1 SER         0.0606
    205 H74        -7.0046  -22.5883   10.4776 H         1 SER         0.2097
    206 H75        -4.2569  -19.9338    8.2375 H         1 SER         0.1884
    207 H76        -2.7807  -22.2853    7.6237 H         1 SER         0.0823
    208 H77        -2.1867  -21.2508    5.5151 H         1 SER         0.0606
    209 H78        -2.6086  -19.6238    6.1490 H         1 SER         0.0606
    210 H79        -4.7676  -20.4057    6.3725 H         1 SER         0.2097
    211 H80        -1.6448  -18.9462    8.3536 H         1 ILE         0.1883
    212 H81         1.1255  -19.3708    8.1224 H         1 ILE         0.0803
    213 H82        -0.0685  -17.8132   10.4671 H         1 ILE         0.0345
    214 H83        -0.0366  -15.7621    9.1129 H         1 ILE         0.0267
    215 H84        -1.2507  -16.9598    8.5491 H         1 ILE         0.0267
    216 H85         2.3858  -18.1924   10.4169 H         1 ILE         0.0235
    217 H86         1.9450  -16.4551   10.2992 H         1 ILE         0.0235
    218 H87         2.4626  -17.3518    8.8313 H         1 ILE         0.0235
    219 H88        -0.1444  -15.8579    6.6875 H         1 ILE         0.0230
    220 H89         0.2382  -17.6124    6.7293 H         1 ILE         0.0230
    221 H90         1.4523  -16.4147    7.2932 H         1 ILE         0.0230
    222 H91        -1.0375  -19.9032   10.9611 H         1 SER         0.1884
    223 H92         0.8276  -20.8936   12.8314 H         1 SER         0.0823
    224 H93        -1.0075  -21.9626   13.9888 H         1 SER         0.0606
    225 H94        -2.0092  -21.9874   12.4980 H         1 SER         0.0606
    226 H95        -1.9972  -19.6849   12.5988 H         1 SER         0.2097
    227 H96        -1.1660  -22.7522   10.4685 H         1 ASP         0.1884
    228 H97        -0.1703  -25.3073   11.0253 H         1 ASP         0.0819
    229 H98        -0.5482  -25.7917    8.5676 H         1 ASP         0.0478
    230 H99        -0.9510  -24.0529    8.3645 H         1 ASP         0.0478
    231 H100        1.1320  -22.8446    8.7885 H         1 PHE         0.1885
    232 H101        3.2017  -24.4242    7.7660 H         1 PHE         0.0823
    233 H102        3.3667  -21.4220    8.2611 H         1 PHE         0.0474
    234 H103        2.4615  -22.1743    6.9042 H         1 PHE         0.0474
    235 H104        3.6786  -23.3989    5.1480 H         1 PHE         0.0557
    236 H105        5.7692  -21.2970    8.2329 H         1 PHE         0.0557
    237 H106        5.7403  -23.4759    3.8021 H         1 PHE         0.0599
    238 H107        7.8520  -21.3954    6.9031 H         1 PHE         0.0599
    239 H108        7.8250  -22.4813    4.6767 H         1 PHE         0.0559
    240 H109        3.1662  -22.4037   10.7377 H         1 TYR         0.1885
    241 H110        6.0054  -23.1305   11.1018 H         1 TYR         0.0821
    242 H111        5.8532  -21.4567   13.0422 H         1 TYR         0.0453
    243 H112        4.2371  -21.0336   12.3821 H         1 TYR         0.0453
    244 H113        7.6248  -21.7786   10.8941 H         1 TYR         0.0530
    245 H114        4.3146  -19.0366   11.0267 H         1 TYR         0.0530
    246 H115        8.6995  -20.4028    9.1706 H         1 TYR         0.0525
    247 H116        5.4432  -17.6133    9.3472 H         1 TYR         0.0525
    248 H117        8.6306  -18.6603    7.9859 H         1 TYR         0.2458
    249 H118        5.1244  -25.3526   11.2742 H         1 ASP         0.1877
    250 H119        5.0313  -26.0721   14.1767 H         1 ASP         0.0745
    251 H120        3.9475  -28.2343   13.3712 H         1 ASP         0.0471
    252 H121        3.7119  -27.4342   11.7803 H         1 ASP         0.0471
@<TRIPOS>BOND
     1    1    2 1  
     2    2    3 1  
     3    2    5 1  
     4    3    4 2  
     5    3   12 am 
     6    5    6 1  
     7    6    7 1  
     8    7    8 1  
     9    8    9 ar 
    10    9   10 ar 
    11    9   11 ar 
    12   12   13 1  
    13   13   14 1  
    14   13   16 1  
    15   14   15 2  
    16   14   19 am 
    17   16   17 1  
    18   16   18 1  
    19   19   20 1  
    20   20   21 1  
    21   20   23 1  
    22   21   22 2  
    23   21   30 am 
    24   23   24 1  
    25   24   25 ar 
    26   24   26 ar 
    27   25   27 ar 
    28   26   28 ar 
    29   27   29 ar 
    30   28   29 ar 
    31   30   31 1  
    32   31   32 1  
    33   31   34 1  
    34   32   33 2  
    35   32   41 am 
    36   34   35 1  
    37   35   36 1  
    38   36   37 1  
    39   37   38 ar 
    40   38   39 ar 
    41   38   40 ar 
    42   41   42 1  
    43   42   43 1  
    44   42   45 1  
    45   43   44 2  
    46   43   50 am 
    47   45   46 1  
    48   46   47 1  
    49   47   48 2  
    50   47   49 am 
    51   50   51 1  
    52   51   52 1  
    53   51   54 1  
    54   52   53 2  
    55   52   57 am 
    56   54   55 1  
    57   54   56 1  
    58   57   58 1  
    59   58   59 1  
    60   58   61 1  
    61   59   60 2  
    62   59   66 am 
    63   61   62 1  
    64   62   63 1  
    65   63   64 2  
    66   63   65 am 
    67   66   67 1  
    68   67   68 1  
    69   67   70 1  
    70   68   69 2  
    71   68   72 am 
    72   70   71 1  
    73   72   73 1  
    74   73   74 1  
    75   73   76 1  
    76   74   75 2  
    77   74   78 am 
    78   76   77 1  
    79   78   79 1  
    80   79   80 1  
    81   79   82 1  
    82   80   81 2  
    83   80   86 am 
    84   82   83 1  
    85   82   84 1  
    86   83   85 1  
    87   86   87 1  
    88   87   88 1  
    89   87   90 1  
    90   88   89 2  
    91   88   92 am 
    92   90   91 1  
    93   92   93 1  
    94   93   94 1  
    95   93   96 1  
    96   94   95 2  
    97   94  100 am 
    98   96   97 1  
    99   97   98 ar 
   100   97   99 ar 
   101  100  101 1  
   102  101  102 1  
   103  101  104 1  
   104  102  103 2  
   105  102  111 am 
   106  104  105 1  
   107  105  106 ar 
   108  105  107 ar 
   109  106  108 ar 
   110  107  109 ar 
   111  108  110 ar 
   112  109  110 ar 
   113  111  112 1  
   114  112  113 1  
   115  112  115 1  
   116  113  114 2  
   117  113  123 am 
   118  115  116 1  
   119  116  117 ar 
   120  116  118 ar 
   121  117  119 ar 
   122  118  120 ar 
   123  119  121 ar 
   124  120  121 ar 
   125  121  122 1  
   126  123  124 1  
   127  124  125 1  
   128  124  127 1  
   129  125  126 ar 
   130  125  131 ar 
   131  127  128 1  
   132  128  129 ar 
   133  128  130 ar 
   134    1  132 1  
   135    1  133 1  
   136    1  134 1  
   137    2  135 1  
   138    5  136 1  
   139    5  137 1  
   140    6  138 1  
   141    6  139 1  
   142    7  140 1  
   143    7  141 1  
   144    8  142 1  
   145   10  143 1  
   146   10  144 1  
   147   11  145 1  
   148   11  146 1  
   149   12  147 1  
   150   13  148 1  
   151   16  149 1  
   152   17  150 1  
   153   18  151 1  
   154   18  152 1  
   155   18  153 1  
   156   19  154 1  
   157   20  155 1  
   158   23  156 1  
   159   23  157 1  
   160   25  158 1  
   161   26  159 1  
   162   27  160 1  
   163   28  161 1  
   164   29  162 1  
   165   30  163 1  
   166   31  164 1  
   167   34  165 1  
   168   34  166 1  
   169   35  167 1  
   170   35  168 1  
   171   36  169 1  
   172   36  170 1  
   173   37  171 1  
   174   39  172 1  
   175   39  173 1  
   176   40  174 1  
   177   40  175 1  
   178   41  176 1  
   179   42  177 1  
   180   45  178 1  
   181   45  179 1  
   182   46  180 1  
   183   46  181 1  
   184   49  182 1  
   185   49  183 1  
   186   50  184 1  
   187   51  185 1  
   188   54  186 1  
   189   55  187 1  
   190   55  188 1  
   191   55  189 1  
   192   56  190 1  
   193   56  191 1  
   194   56  192 1  
   195   57  193 1  
   196   58  194 1  
   197   61  195 1  
   198   61  196 1  
   199   62  197 1  
   200   62  198 1  
   201   65  199 1  
   202   65  200 1  
   203   66  201 1  
   204   67  202 1  
   205   70  203 1  
   206   70  204 1  
   207   71  205 1  
   208   72  206 1  
   209   73  207 1  
   210   76  208 1  
   211   76  209 1  
   212   77  210 1  
   213   78  211 1  
   214   79  212 1  
   215   82  213 1  
   216   83  214 1  
   217   83  215 1  
   218   84  216 1  
   219   84  217 1  
   220   84  218 1  
   221   85  219 1  
   222   85  220 1  
   223   85  221 1  
   224   86  222 1  
   225   87  223 1  
   226   90  224 1  
   227   90  225 1  
   228   91  226 1  
   229   92  227 1  
   230   93  228 1  
   231   96  229 1  
   232   96  230 1  
   233  100  231 1  
   234  101  232 1  
   235  104  233 1  
   236  104  234 1  
   237  106  235 1  
   238  107  236 1  
   239  108  237 1  
   240  109  238 1  
   241  110  239 1  
   242  111  240 1  
   243  112  241 1  
   244  115  242 1  
   245  115  243 1  
   246  117  244 1  
   247  118  245 1  
   248  119  246 1  
   249  120  247 1  
   250  122  248 1  
   251  123  249 1  
   252  124  250 1  
   253  127  251 1  
   254  127  252 1  
@<TRIPOS>SUBSTRUCTURE
     1 ARG         1

