1qka_ligand
  -I-interpret- 

 71 70  0  0  0  0  0  0  0  0999 V2000
    6.8330   16.6540   15.2600 N   0  3  0  0  0
    6.4060   17.9620   14.6680 C   0  0  0  0  0
    5.1830   18.4930   15.4130 C   0  0  0  0  0
    4.4460   17.6900   16.0100 O   0  0  0  0  0
    6.0750   17.8590   13.1660 C   0  0  0  0  0
    5.2490   16.6220   12.7870 C   0  0  0  0  0
    5.2030   16.5520   11.2420 C   0  0  0  0  0
    6.4910   15.8840   10.7430 C   0  0  0  0  0
    6.4390   14.4200   11.0120 N   0  3  0  0  0
    5.0260   19.8010   15.4630 N   0  0  0  0  0
    3.9390   20.4660   16.1150 C   0  0  0  0  0
    2.5920   20.2950   15.3940 C   0  0  0  0  0
    2.5030   20.5640   14.1820 O   0  0  0  0  0
    4.1160   22.0070   16.1970 C   0  0  0  0  0
    5.3820   22.4170   16.9860 C   0  0  0  0  0
    5.2560   22.2330   18.5070 C   0  0  0  0  0
    6.5810   22.4550   19.0930 N   0  0  0  0  0
    7.1360   21.9310   20.1800 C   0  0  0  0  0
    6.4640   21.0970   20.9560 N   0  0  0  0  0
    8.4120   22.2230   20.4850 N   0  0  0  0  0
    1.5850   20.0240   16.2150 N   0  0  0  0  0
    0.2130   19.9480   15.7330 C   0  0  0  0  0
   -0.7760   20.5460   16.7500 C   0  0  0  0  0
   -1.9930   20.3050   16.6110 O   0  0  0  0  0
   -0.2890   18.5670   15.3350 C   0  0  0  0  0
   -1.3710   18.7780   14.2310 C   0  0  0  0  0
   -1.9800   17.4510   13.8700 C   0  0  0  0  0
   -3.0850   17.4940   12.8500 C   0  0  0  0  0
   -3.9270   18.7030   12.7750 N   0  3  0  0  0
   -0.4090   21.3940   17.5910 O   0  0  0  0  0
    7.6496   16.3054   14.7580 H   0  0  0  0  0
    7.0685   16.7880   16.2434 H   0  0  0  0  0
    6.0706   15.9811   15.1803 H   0  0  0  0  0
    7.2486   18.6454   14.7734 H   0  0  0  0  0
    7.0226   17.7889   12.6320 H   0  0  0  0  0
    5.4799   18.7347   12.9071 H   0  0  0  0  0
    4.2414   16.6953   13.1963 H   0  0  0  0  0
    5.7024   15.7196   13.1970 H   0  0  0  0  0
    5.1217   17.5568   10.8275 H   0  0  0  0  0
    4.3369   15.9724   10.9226 H   0  0  0  0  0
    7.3454   16.3155   11.2645 H   0  0  0  0  0
    6.5897   16.0494    9.6701 H   0  0  0  0  0
    7.2981   13.9834   10.6777 H   0  0  0  0  0
    6.3446   14.2630   12.0154 H   0  0  0  0  0
    5.6389   14.0145   10.5265 H   0  0  0  0  0
    5.7292   20.3804   15.0044 H   0  0  0  0  0
    3.9422   19.9963   17.0986 H   0  0  0  0  0
    3.2493   22.4179   16.7149 H   0  0  0  0  0
    4.2149   22.3886   15.1808 H   0  0  0  0  0
    5.5494   23.4780   16.8009 H   0  0  0  0  0
    6.1959   21.7753   16.6485 H   0  0  0  0  0
    4.9012   21.2290   18.7399 H   0  0  0  0  0
    4.5361   22.9414   18.9168 H   0  0  0  0  0
    7.1696   23.1161   18.5862 H   0  0  0  0  0
    5.5030   20.8463   20.7236 H   0  0  0  0  0
    8.8492   21.8032   21.3054 H   0  0  0  0  0
    8.9432   22.8644   19.8961 H   0  0  0  0  0
    1.7761   19.8656   17.2043 H   0  0  0  0  0
    0.2507   20.5345   14.8150 H   0  0  0  0  0
   -0.7107   18.0465   16.1949 H   0  0  0  0  0
    0.5292   17.9513   14.9615 H   0  0  0  0  0
   -0.9092   19.2194   13.3478 H   0  0  0  0  0
   -2.1474   19.4457   14.6045 H   0  0  0  0  0
   -2.4207   17.0553   14.7850 H   0  0  0  0  0
   -1.1800   16.8539   13.4324 H   0  0  0  0  0
   -3.7649   16.6903   13.1324 H   0  0  0  0  0
   -2.5835   17.4356   11.8840 H   0  0  0  0  0
   -4.6263   18.5839   12.0421 H   0  0  0  0  0
   -4.3928   18.8476   13.6708 H   0  0  0  0  0
   -3.3420   19.5105   12.5604 H   0  0  0  0  0
    0.5484   21.4636   17.5767 H   0  0  0  0  0
  2  1  1  0  0  0
  2  5  1  0  0  0
  3  2  1  0  0  0
  3  4  2  0  0  0
  5  6  1  0  0  0
  6  7  1  0  0  0
  7  8  1  0  0  0
  8  9  1  0  0  0
 11 10  1  0  0  0
 11 14  1  0  0  0
 12 11  1  0  0  0
 12 13  2  0  0  0
 14 15  1  0  0  0
 15 16  1  0  0  0
 16 17  1  0  0  0
 17 18  1  0  0  0
 18 20  1  0  0  0
 18 19  2  0  0  0
 10  3  1  0  0  0
 21 22  1  0  0  0
 22 25  1  0  0  0
 22 23  1  0  0  0
 23 24  2  0  0  0
 23 30  1  0  0  0
 25 26  1  0  0  0
 26 27  1  0  0  0
 27 28  1  0  0  0
 28 29  1  0  0  0
 12 21  1  0  0  0
  1 31  1  0  0  0
  1 32  1  0  0  0
  1 33  1  0  0  0
  2 34  1  0  0  0
  5 35  1  0  0  0
  5 36  1  0  0  0
  6 37  1  0  0  0
  6 38  1  0  0  0
  7 39  1  0  0  0
  7 40  1  0  0  0
  8 41  1  0  0  0
  8 42  1  0  0  0
  9 43  1  0  0  0
  9 44  1  0  0  0
  9 45  1  0  0  0
 10 46  1  0  0  0
 11 47  1  0  0  0
 14 48  1  0  0  0
 14 49  1  0  0  0
 15 50  1  0  0  0
 15 51  1  0  0  0
 16 52  1  0  0  0
 16 53  1  0  0  0
 17 54  1  0  0  0
 19 55  1  0  0  0
 20 56  1  0  0  0
 20 57  1  0  0  0
 21 58  1  0  0  0
 22 59  1  0  0  0
 25 60  1  0  0  0
 25 61  1  0  0  0
 26 62  1  0  0  0
 26 63  1  0  0  0
 27 64  1  0  0  0
 27 65  1  0  0  0
 28 66  1  0  0  0
 28 67  1  0  0  0
 29 68  1  0  0  0
 29 69  1  0  0  0
 29 70  1  0  0  0
 30 71  1  0  0  0
M  END
$$$$
