2f3e_ligand
  -I-interpret- 

100100  0  0  0  0  0  0  0  0999 V2000
   31.5950    8.5370   15.4440 S   0  0  0  0  0
   32.3940    6.8820   15.5310 C   0  0  0  0  0
   31.3630    5.8880   14.8940 C   0  0  0  0  0
   30.3040    5.6570   15.8710 N   0  0  0  0  0
   29.0060    5.7060   15.4860 C   0  0  0  0  0
   27.9870    5.4130   16.5780 C   0  0  0  0  0
   28.0540    6.4990   17.5540 N   0  0  0  0  0
   27.6110    6.3170   18.8190 C   0  0  0  0  0
   27.7570    7.5040   19.7220 C   0  0  0  0  0
   29.2420    7.5520   20.0720 C   0  0  0  0  0
   29.5800    9.0960   20.8870 S   0  0  0  0  0
   31.3730    9.0660   20.5590 C   0  0  0  0  0
   31.6750    9.5930   19.1690 C   0  0  0  0  0
   32.0440    8.8050   18.1490 C   0  0  0  0  0
   32.3960    9.4170   16.8200 C   0  0  0  0  0
   26.8870    7.3750   20.8910 N   0  0  0  0  0
   25.5410    7.4390   20.6940 C   0  0  0  0  0
   25.0230    7.6400   19.5950 O   0  0  0  0  0
   24.8270    7.2460   21.8540 O   0  0  0  0  0
   23.3540    7.2510   21.6710 C   0  0  0  0  0
   22.6820    7.0010   23.0440 C   0  0  0  0  0
   22.8420    8.6170   21.1280 C   0  0  0  0  0
   22.9120    6.1060   20.7160 C   0  0  0  0  0
   27.1240    5.2840   19.2480 O   0  0  0  0  0
   26.5360    5.2110   16.0490 C   0  0  0  0  0
   28.6530    5.9570   14.3430 O   0  0  0  0  0
   32.0430    4.5570   14.4090 C   0  0  0  0  0
   32.6830    3.9000   15.4840 O   0  0  0  0  0
   31.0440    3.5260   13.8540 C   0  0  0  0  0
   31.8410    2.6610   12.8760 C   0  0  0  0  0
   31.2100    1.2720   12.6790 C   0  0  0  0  0
   31.7910    3.3110   11.5070 C   0  0  0  0  0
   30.8060    3.9620   11.1850 O   0  0  0  0  0
   32.8570    3.1370   10.7170 N   0  0  0  0  0
   32.8350    3.7200    9.3760 C   0  0  0  0  0
   34.2290    3.7060    8.7150 C   0  0  0  0  0
   34.6480    2.2580    8.4600 C   0  0  0  0  0
   34.2030    4.4480    7.3620 C   0  0  0  0  0
   31.8230    2.9820    8.5390 C   0  0  0  0  0
   31.6320    1.7890    8.7560 O   0  0  0  0  0
   31.1670    3.6850    7.5900 N   0  0  0  0  0
   30.1730    2.9780    6.7790 C   0  0  0  0  0
   29.1020    3.9650    6.2750 C   0  0  0  0  0
   28.0550    4.1920    7.3720 C   0  0  0  0  0
   26.9960    5.1660    6.8320 C   0  0  0  0  0
   32.6334    6.6066   16.5581 H   0  0  0  0  0
   33.3449    6.8681   14.9984 H   0  0  0  0  0
   30.9341    6.3244   13.9919 H   0  0  0  0  0
   30.5409    5.4588   16.8431 H   0  0  0  0  0
   28.2430    4.4590   17.0389 H   0  0  0  0  0
   28.4385    7.4027   17.2785 H   0  0  0  0  0
   27.4480    8.4383   19.2533 H   0  0  0  0  0
   29.8409    7.4712   19.1649 H   0  0  0  0  0
   29.4964    6.7207   20.7295 H   0  0  0  0  0
   31.7261    8.0372   20.6293 H   0  0  0  0  0
   31.8750    9.6982   21.2914 H   0  0  0  0  0
   31.5877   10.6648   18.9907 H   0  0  0  0  0
   32.0889    7.7241   18.2820 H   0  0  0  0  0
   32.0509   10.4509   16.8148 H   0  0  0  0  0
   33.4760    9.3536   16.6870 H   0  0  0  0  0
   27.2763    7.2413   21.8243 H   0  0  0  0  0
   23.0039    6.0355   23.4342 H   0  0  0  0  0
   22.9721    7.7898   23.7381 H   0  0  0  0  0
   21.5988    7.0024   22.9225 H   0  0  0  0  0
   23.1021    9.4071   21.8325 H   0  0  0  0  0
   23.3074    8.8207   20.1636 H   0  0  0  0  0
   21.7593    8.5765   21.0090 H   0  0  0  0  0
   23.3877    6.2408   19.7446 H   0  0  0  0  0
   23.2109    5.1466   21.1383 H   0  0  0  0  0
   21.8287    6.1308   20.5980 H   0  0  0  0  0
   25.8772    4.9680   16.8827 H   0  0  0  0  0
   26.1944    6.1284   15.5697 H   0  0  0  0  0
   26.5246    4.3957   15.3257 H   0  0  0  0  0
   32.7352    4.8737   13.6289 H   0  0  0  0  0
   33.3266    4.4912   15.8814 H   0  0  0  0  0
   30.2037    4.0134   13.3595 H   0  0  0  0  0
   30.6089    2.9249   14.6524 H   0  0  0  0  0
   32.8470    2.5658   13.2846 H   0  0  0  0  0
   31.1715    0.7527   13.6366 H   0  0  0  0  0
   30.2001    1.3857   12.2850 H   0  0  0  0  0
   31.8129    0.6968   11.9763 H   0  0  0  0  0
   33.6669    2.6095   11.0429 H   0  0  0  0  0
   32.5468    4.7683    9.4543 H   0  0  0  0  0
   34.9317    4.2032    9.3837 H   0  0  0  0  0
   34.6855    1.7198    9.4071 H   0  0  0  0  0
   33.9235    1.7825    7.7988 H   0  0  0  0  0
   35.6327    2.2429    7.9929 H   0  0  0  0  0
   33.4927    3.9596    6.6948 H   0  0  0  0  0
   33.9004    5.4828    7.5223 H   0  0  0  0  0
   35.1976    4.4238    6.9166 H   0  0  0  0  0
   31.3577    4.6762    7.4430 H   0  0  0  0  0
   29.6945    2.2110    7.3880 H   0  0  0  0  0
   30.6693    2.5208    5.9230 H   0  0  0  0  0
   28.6165    3.5522    5.3907 H   0  0  0  0  0
   29.5743    4.9145    6.0230 H   0  0  0  0  0
   28.5284    4.6088    8.2610 H   0  0  0  0  0
   27.5884    3.2457    7.6459 H   0  0  0  0  0
   27.4732    6.1098    6.5681 H   0  0  0  0  0
   26.5255    4.7356    5.9480 H   0  0  0  0  0
   26.2408    5.3410    7.5983 H   0  0  0  0  0
  1  2  1  0  0  0
  1 15  1  0  0  0
  2  3  1  0  0  0
  3  4  1  0  0  0
  3 27  1  0  0  0
  4  5  1  0  0  0
  5  6  1  0  0  0
  5 26  2  0  0  0
  6  7  1  0  0  0
  6 25  1  0  0  0
  7  8  1  0  0  0
  8  9  1  0  0  0
  8 24  2  0  0  0
  9 10  1  0  0  0
  9 16  1  0  0  0
 10 11  1  0  0  0
 11 12  1  0  0  0
 12 13  1  0  0  0
 13 14  2  0  0  0
 14 15  1  0  0  0
 16 17  1  0  0  0
 17 18  2  0  0  0
 17 19  1  0  0  0
 19 20  1  0  0  0
 20 21  1  0  0  0
 20 22  1  0  0  0
 20 23  1  0  0  0
 27 28  1  0  0  0
 27 29  1  0  0  0
 29 30  1  0  0  0
 30 31  1  0  0  0
 30 32  1  0  0  0
 32 33  2  0  0  0
 32 34  1  0  0  0
 34 35  1  0  0  0
 35 36  1  0  0  0
 35 39  1  0  0  0
 36 37  1  0  0  0
 36 38  1  0  0  0
 39 40  2  0  0  0
 39 41  1  0  0  0
 41 42  1  0  0  0
 42 43  1  0  0  0
 43 44  1  0  0  0
 44 45  1  0  0  0
  2 46  1  0  0  0
  2 47  1  0  0  0
  3 48  1  0  0  0
  4 49  1  0  0  0
  6 50  1  0  0  0
  7 51  1  0  0  0
  9 52  1  0  0  0
 10 53  1  0  0  0
 10 54  1  0  0  0
 12 55  1  0  0  0
 12 56  1  0  0  0
 13 57  1  0  0  0
 14 58  1  0  0  0
 15 59  1  0  0  0
 15 60  1  0  0  0
 16 61  1  0  0  0
 21 62  1  0  0  0
 21 63  1  0  0  0
 21 64  1  0  0  0
 22 65  1  0  0  0
 22 66  1  0  0  0
 22 67  1  0  0  0
 23 68  1  0  0  0
 23 69  1  0  0  0
 23 70  1  0  0  0
 25 71  1  0  0  0
 25 72  1  0  0  0
 25 73  1  0  0  0
 27 74  1  0  0  0
 28 75  1  0  0  0
 29 76  1  0  0  0
 29 77  1  0  0  0
 30 78  1  0  0  0
 31 79  1  0  0  0
 31 80  1  0  0  0
 31 81  1  0  0  0
 34 82  1  0  0  0
 35 83  1  0  0  0
 36 84  1  0  0  0
 37 85  1  0  0  0
 37 86  1  0  0  0
 37 87  1  0  0  0
 38 88  1  0  0  0
 38 89  1  0  0  0
 38 90  1  0  0  0
 41 91  1  0  0  0
 42 92  1  0  0  0
 42 93  1  0  0  0
 43 94  1  0  0  0
 43 95  1  0  0  0
 44 96  1  0  0  0
 44 97  1  0  0  0
 45 98  1  0  0  0
 45 99  1  0  0  0
 45100  1  0  0  0
M  END
$$$$
