3o9h_ligand
  -I-interpret- 

 82 86  0  0  0  0  0  0  0  0999 V2000
   15.6200   36.7170   18.3630 C   0  0  0  0  0
   14.9180   35.4570   18.5330 O   0  0  0  0  0
   15.5210   34.5500   17.6900 C   0  0  0  0  0
   16.5050   36.5260   17.2440 O   0  0  0  0  0
   16.4570   35.1900   16.9080 C   0  0  0  0  0
   17.1950   34.5020   15.9530 C   0  0  0  0  0
   17.0290   33.1160   15.7760 C   0  0  0  0  0
   16.0420   32.4880   16.5600 C   0  0  0  0  0
   15.2840   33.1980   17.5180 C   0  0  0  0  0
   17.9600   32.2970   14.7070 S   0  0  0  0  0
   17.2300   31.1650   14.1990 O   0  0  0  0  0
   18.4890   33.1680   13.6830 O   0  0  0  0  0
   19.2300   31.6890   15.5320 N   0  0  0  0  0
   19.9510   32.6910   16.3510 C   0  0  0  0  0
   21.4670   32.4750   16.3430 C   0  0  0  0  0
   22.0610   32.6170   14.9310 C   0  0  0  0  0
   22.1360   33.4370   17.3380 C   0  0  0  0  0
   18.9190   30.4610   16.2880 C   0  0  0  0  0
   19.8470   29.3730   15.7400 C   0  0  0  0  0
   21.9910   34.9000   17.0010 C   0  0  0  0  0
   19.9230   28.2710   16.6430 O   0  0  0  0  0
   19.4860   28.9020   14.3340 C   0  0  0  0  0
   23.4600   32.0600   14.8370 C   0  0  0  0  0
   20.5830   28.1050   13.8450 N   0  0  0  0  0
   21.4770   28.4460   12.9310 C   0  0  0  0  0
   21.6270   29.4930   12.3300 O   0  0  0  0  0
   22.3930   27.3740   12.6440 O   0  0  0  0  0
   23.2650   27.5210   11.5280 C   0  0  0  0  0
   24.5850   26.9280   12.0000 C   0  0  0  0  0
   24.3950   25.5220   11.8700 O   0  0  0  0  0
   23.5090   25.2500   10.7890 C   0  0  0  0  0
   22.5120   24.3050   11.1980 O   0  0  0  0  0
   21.2600   24.9760   11.3350 C   0  0  0  0  0
   21.3560   26.1900   10.4100 C   0  0  0  0  0
   22.8330   26.5640   10.4400 C   0  0  0  0  0
   18.2020   28.0610   14.2430 C   0  0  0  0  0
   18.1340   26.3530   12.3800 C   0  0  0  0  0
   17.9310   25.9860   11.0530 C   0  0  0  0  0
   17.5280   26.9380   10.1290 C   0  0  0  0  0
   17.3330   28.2480   10.5260 C   0  0  0  0  0
   17.5410   28.6170   11.8580 C   0  0  0  0  0
   17.9530   27.6730   12.7940 C   0  0  0  0  0
   16.1721   36.9875   19.2631 H   0  0  0  0  0
   14.9246   37.5368   18.1827 H   0  0  0  0  0
   17.9110   35.0422   15.3336 H   0  0  0  0  0
   15.8573   31.4224   16.4237 H   0  0  0  0  0
   14.5249   32.6888   18.1118 H   0  0  0  0  0
   19.6036   32.5967   17.3799 H   0  0  0  0  0
   19.7498   33.6763   15.9304 H   0  0  0  0  0
   21.6680   31.4514   16.6591 H   0  0  0  0  0
   22.1037   33.6788   14.6883 H   0  0  0  0  0
   21.4285   32.0583   14.2412 H   0  0  0  0  0
   23.2029   33.2140   17.3242 H   0  0  0  0  0
   21.6483   33.2849   18.3009 H   0  0  0  0  0
   17.8725   30.1809   16.1680 H   0  0  0  0  0
   19.0752   30.6081   17.3567 H   0  0  0  0  0
   20.8305   29.8348   15.6535 H   0  0  0  0  0
   22.4401   35.0934   16.0268 H   0  0  0  0  0
   20.9333   35.1621   16.9734 H   0  0  0  0  0
   22.4952   35.4981   17.7601 H   0  0  0  0  0
   20.5085   27.6019   16.2810 H   0  0  0  0  0
   19.3019   29.7983   13.7417 H   0  0  0  0  0
   24.1094   32.5932   15.5313 H   0  0  0  0  0
   23.4457   31.0003   15.0919 H   0  0  0  0  0
   23.8321   32.1855   13.8202 H   0  0  0  0  0
   20.6812   27.1735   14.2489 H   0  0  0  0  0
   23.2934   28.5550   11.1842 H   0  0  0  0  0
   24.8282   27.2201   13.0216 H   0  0  0  0  0
   25.4324   27.2869   11.4159 H   0  0  0  0  0
   24.0503   24.8355    9.9386 H   0  0  0  0  0
   21.0708   25.2697   12.3675 H   0  0  0  0  0
   20.4245   24.3295   11.0665 H   0  0  0  0  0
   20.7166   27.0096   10.7379 H   0  0  0  0  0
   21.0074   25.9682    9.4013 H   0  0  0  0  0
   23.0752   27.0499    9.4948 H   0  0  0  0  0
   17.3586   28.6437   14.6136 H   0  0  0  0  0
   18.3137   27.1603   14.8466 H   0  0  0  0  0
   18.4385   25.5989   13.1058 H   0  0  0  0  0
   18.0883   24.9535   10.7411 H   0  0  0  0  0
   17.3649   26.6536    9.0895 H   0  0  0  0  0
   17.0162   28.9950    9.7982 H   0  0  0  0  0
   17.3796   29.6502   12.1655 H   0  0  0  0  0
  2  1  1  0  0  0
  4  1  1  0  0  0
  3  2  1  0  0  0
  5  3  4  0  0  0
  9  3  4  0  0  0
  5  4  1  0  0  0
  6  5  4  0  0  0
  7  6  4  0  0  0
  7  8  4  0  0  0
 10  7  1  0  0  0
  8  9  4  0  0  0
 10 11  2  0  0  0
 10 12  2  0  0  0
 13 10  1  0  0  0
 13 14  1  0  0  0
 18 13  1  0  0  0
 14 15  1  0  0  0
 15 16  1  0  0  0
 15 17  1  0  0  0
 16 23  1  0  0  0
 17 20  1  0  0  0
 19 18  1  0  0  0
 19 21  1  0  0  0
 22 19  1  0  0  0
 22 24  1  0  0  0
 36 22  1  0  0  0
 24 25  1  0  0  0
 25 26  2  0  0  0
 25 27  1  0  0  0
 27 28  1  0  0  0
 28 29  1  0  0  0
 28 35  1  0  0  0
 29 30  1  0  0  0
 31 30  1  0  0  0
 31 32  1  0  0  0
 35 31  1  0  0  0
 33 32  1  0  0  0
 34 33  1  0  0  0
 35 34  1  0  0  0
 42 36  1  0  0  0
 37 38  4  0  0  0
 37 42  4  0  0  0
 38 39  4  0  0  0
 39 40  4  0  0  0
 40 41  4  0  0  0
 41 42  4  0  0  0
  1 43  1  0  0  0
  1 44  1  0  0  0
  6 45  1  0  0  0
  8 46  1  0  0  0
  9 47  1  0  0  0
 14 48  1  0  0  0
 14 49  1  0  0  0
 15 50  1  0  0  0
 16 51  1  0  0  0
 16 52  1  0  0  0
 17 53  1  0  0  0
 17 54  1  0  0  0
 18 55  1  0  0  0
 18 56  1  0  0  0
 19 57  1  0  0  0
 20 58  1  0  0  0
 20 59  1  0  0  0
 20 60  1  0  0  0
 21 61  1  0  0  0
 22 62  1  0  0  0
 23 63  1  0  0  0
 23 64  1  0  0  0
 23 65  1  0  0  0
 24 66  1  0  0  0
 28 67  1  0  0  0
 29 68  1  0  0  0
 29 69  1  0  0  0
 31 70  1  0  0  0
 33 71  1  0  0  0
 33 72  1  0  0  0
 34 73  1  0  0  0
 34 74  1  0  0  0
 35 75  1  0  0  0
 36 76  1  0  0  0
 36 77  1  0  0  0
 37 78  1  0  0  0
 38 79  1  0  0  0
 39 80  1  0  0  0
 40 81  1  0  0  0
 41 82  1  0  0  0
M  END
$$$$
