### 
### Created by X-TOOL on Mon Sep 10 21:12:49 2018
### 

@<TRIPOS>MOLECULE
1n5z_ligand
  173   178     1     0     0
SMALL
GAST_HUCK


@<TRIPOS>ATOM
      1 N          -9.0600   11.5410   36.5130 N.4       1 MET         0.2379
      2 CA         -7.9980   10.8020   35.7480 C.3       1 MET         0.0660
      3 C          -8.0560   11.2050   34.2790 C.2       1 MET         0.2292
      4 O          -7.0490   11.0870   33.5330 O.2       1 MET        -0.3905
      5 CB         -8.1480    9.2830   35.9050 C.3       1 MET         0.0168
      6 CG         -7.5540    8.7420   37.2060 C.3       1 MET         0.0007
      7 SD         -7.2590    6.9260   37.2420 S.3       1 MET        -0.1638
      8 CE         -8.8190    6.3310   38.2650 C.3       1 MET        -0.0181
      9 N          -9.2310   11.6630   33.8620 N.am      1 PRO        -0.2471
     10 CA         -9.4220   12.2080   32.5150 C.3       1 PRO         0.1341
     11 C          -9.0540   13.6820   32.4320 C.2       1 PRO         0.2066
     12 O          -9.5670   14.4880   33.1800 O.2       1 PRO        -0.3942
     13 CB        -10.9210   12.0530   32.3060 C.3       1 PRO        -0.0104
     14 CG        -11.4740   12.3030   33.6750 C.3       1 PRO        -0.0281
     15 CD        -10.4850   11.6540   34.6370 C.3       1 PRO         0.0371
     16 N          -8.1940   14.0290   31.4980 N.am      1 PRO        -0.2498
     17 CA         -7.7600   15.4140   31.3130 C.3       1 PRO         0.1338
     18 C          -8.9300   16.3950   31.1870 C.2       1 PRO         0.2042
     19 O         -10.0290   16.0350   30.7640 O.2       1 PRO        -0.3944
     20 CB         -7.0110   15.3510   29.9840 C.3       1 PRO        -0.0104
     21 CG         -6.5230   13.9100   29.8930 C.3       1 PRO        -0.0281
     22 CD         -7.6120   13.1080   30.5110 C.3       1 PRO         0.0369
     23 N          -8.7130   17.6460   31.5340 N.am      1 THR        -0.2613
     24 CA         -9.7650   18.6390   31.4010 C.3       1 THR         0.1565
     25 C          -9.9510   18.9150   29.9710 C.2       1 THR         0.2065
     26 O          -9.0140   18.9670   29.2210 O.2       1 THR        -0.3943
     27 CB         -9.3380   19.9400   32.0320 C.3       1 THR         0.0924
     28 OG1        -9.0710   19.7320   33.4390 O.3       1 THR        -0.3874
     29 CG2       -10.4810   20.9690   31.9900 C.3       1 THR        -0.0346
     30 N         -11.1770   19.0990   29.5620 N.am      1 LEU        -0.2636
     31 CA        -11.4410   19.3740   28.1600 C.3       1 LEU         0.1314
     32 C         -11.1400   20.8370   27.8430 C.2       1 LEU         0.2064
     33 O         -11.4390   21.7260   28.5950 O.2       1 LEU        -0.3942
     34 CB        -12.9050   19.0710   27.8560 C.3       1 LEU        -0.0101
     35 CG        -13.2750   17.6060   27.9460 C.3       1 LEU        -0.0425
     36 CD1       -14.7690   17.3630   27.9120 C.3       1 LEU        -0.0625
     37 CD2       -12.5930   16.8930   26.8210 C.3       1 LEU        -0.0625
     38 N         -10.5480   21.0770   26.7030 N.am      1 PRO        -0.2498
     39 CA        -10.2790   22.4510   26.2400 C.3       1 PRO         0.1338
     40 C         -11.5810   23.1340   25.8970 C.2       1 PRO         0.2042
     41 O         -12.4810   22.4630   25.4540 O.2       1 PRO        -0.3944
     42 CB         -9.5270   22.2260   24.9320 C.3       1 PRO        -0.0104
     43 CG         -9.0880   20.7760   25.0000 C.3       1 PRO        -0.0281
     44 CD        -10.1210   20.0340   25.7520 C.3       1 PRO         0.0369
     45 N         -11.6520   24.4450   26.0790 N.am      1 HIS        -0.2619
     46 CA        -12.8510   25.2470   25.7990 C.3       1 HIS         0.1421
     47 C         -13.2450   25.1060   24.3610 C.2       1 HIS         0.2060
     48 O         -12.4170   25.2530   23.4800 O.2       1 HIS        -0.3942
     49 CB        -12.5510   26.7230   26.0790 C.3       1 HIS         0.0427
     50 CG        -13.4660   27.6890   25.3840 C.2       1 HIS         0.0561
     51 ND1       -14.7280   27.9930   25.8530 N.pl3     1 HIS        -0.2623
     52 CD2       -13.2850   28.4500   24.2770 C.2       1 HIS        -0.0276
     53 CE1       -15.2900   28.8820   25.0540 C.2       1 HIS         0.0875
     54 NE2       -14.4350   29.1840   24.0940 N.2       1 HIS        -0.3437
     55 N         -14.5020   24.8190   24.1070 N.am      1 ARG        -0.2636
     56 CA        -14.9110   24.7280   22.7230 C.3       1 ARG         0.1311
     57 C         -15.8880   25.8650   22.3930 C.2       1 ARG         0.2040
     58 O         -16.6310   26.3070   23.2660 O.2       1 ARG        -0.3944
     59 CB        -15.4980   23.3500   22.4460 C.3       1 ARG        -0.0092
     60 CG        -16.7870   23.0780   23.1570 C.3       1 ARG        -0.0156
     61 CD        -16.9830   21.5810   23.3950 C.3       1 ARG         0.0627
     62 NE        -16.8300   21.1870   24.7970 N.pl3     1 ARG        -0.2723
     63 CZ        -17.0930   19.9600   25.2560 C.cat     1 ARG         0.2882
     64 NH1       -17.4780   19.0110   24.4140 N.pl3     1 ARG        -0.2849
     65 NH2       -16.9480   19.6790   26.5500 N.pl3     1 ARG        -0.2849
     66 N         -15.8710   26.3440   21.1470 N.am      1 ASP        -0.2622
     67 CA        -16.7040   27.4630   20.7270 C.3       1 ASP         0.1423
     68 C         -18.0360   27.0760   20.1760 C.2       1 ASP         0.2058
     69 O         -18.5810   27.8270   19.4030 O.2       1 ASP        -0.3942
     70 CB        -16.0250   28.2870   19.6340 C.3       1 ASP         0.0406
     71 CG        -14.9140   29.1370   20.1560 C.2       1 ASP         0.0393
     72 OD1       -15.1990   30.1690   20.8240 O.co2     1 ASP        -0.5688
     73 OD2       -13.7180   28.8290   19.9430 O.co2     1 ASP        -0.5688
     74 N         -18.5790   25.9360   20.5390 N.am      1 TRP        -0.2612
     75 CA        -19.8870   25.5930   20.0270 C.3       1 TRP         0.1462
     76 C         -20.6540   24.9140   21.1300 C.2       1 TRP         0.2583
     77 O         -20.0200   24.5920   22.1300 O.2       1 TRP        -0.3679
     78 CB        -19.7800   24.6790   18.8180 C.3       1 TRP         0.0056
     79 CG        -18.8930   23.5140   19.0830 C.2       1 TRP        -0.0417
     80 CD1       -19.1370   22.4560   19.9200 C.2       1 TRP         0.0167
     81 CD2       -17.5880   23.3150   18.5720 C.ar      1 TRP        -0.0214
     82 NE1       -18.0660   21.6010   19.9340 N.pl3     1 TRP        -0.2890
     83 CE2       -17.0970   22.1120   19.1180 C.ar      1 TRP         0.0603
     84 CE3       -16.7740   24.0370   17.7080 C.ar      1 TRP        -0.0747
     85 CZ2       -15.8410   21.6090   18.8060 C.ar      1 TRP        -0.0443
     86 CZ3       -15.5490   23.5540   17.3950 C.ar      1 TRP        -0.0792
     87 CH2       -15.0830   22.3400   17.9360 C.ar      1 TRP        -0.0768
     88 O1        -21.9580   24.6743   21.0255 O.3       1 TRP        -0.2909
     89 H1         -9.0214   11.2743   37.4843 H         1 MET         0.2015
     90 H2         -9.9665   11.3108   36.1372 H         1 MET         0.2015
     91 H3         -8.9043   12.5335   36.4307 H         1 MET         0.2015
     92 H4         -7.0161   11.0916   36.1504 H         1 MET         0.1098
     93 H5         -7.6400    8.7940   35.0607 H         1 MET         0.0354
     94 H6         -9.2194    9.0348   35.8819 H         1 MET         0.0354
     95 H7         -8.2461    8.9899   38.0242 H         1 MET         0.0380
     96 H8         -6.5909    9.2459   37.3750 H         1 MET         0.0380
     97 H9         -8.7887    5.2371   38.3767 H         1 MET         0.0340
     98 H10        -9.7378    6.6200   37.7338 H         1 MET         0.0340
     99 H11        -8.8068    6.8015   39.2592 H         1 MET         0.0340
    100 H12        -8.8457   11.6377   31.7716 H         1 PRO         0.0802
    101 H13       -11.1698   11.0399   31.9571 H         1 PRO         0.0313
    102 H14       -11.2991   12.7925   31.5848 H         1 PRO         0.0313
    103 H15       -11.5469   13.3833   33.8690 H         1 PRO         0.0287
    104 H16       -12.4684   11.8440   33.7779 H         1 PRO         0.0287
    105 H17       -10.3852   12.2425   35.5610 H         1 PRO         0.0524
    106 H18       -10.7899   10.6272   34.8873 H         1 PRO         0.0524
    107 H19        -7.1013   15.7308   32.1350 H         1 PRO         0.0802
    108 H20        -6.1620   16.0505   29.9819 H         1 PRO         0.0313
    109 H21        -7.6835   15.5880   29.1464 H         1 PRO         0.0313
    110 H22        -6.3714   13.6165   28.8438 H         1 PRO         0.0287
    111 H23        -5.5825   13.7823   30.4491 H         1 PRO         0.0287
    112 H24        -8.3589   12.8130   29.7593 H         1 PRO         0.0524
    113 H25        -7.2096   12.2089   31.0007 H         1 PRO         0.0524
    114 H26        -7.8185   17.9145   31.8914 H         1 THR         0.1884
    115 H27       -10.6960   18.2730   31.8584 H         1 THR         0.0826
    116 H28        -8.4472   20.3284   31.5167 H         1 THR         0.0639
    117 H29        -8.3679   19.1007   33.5368 H         1 THR         0.2101
    118 H30       -10.1463   21.9080   32.4551 H         1 THR         0.0257
    119 H31       -11.3485   20.5761   32.5404 H         1 THR         0.0257
    120 H32       -10.7653   21.1587   30.9445 H         1 THR         0.0257
    121 H33       -11.9342   19.0507   30.2134 H         1 LEU         0.1883
    122 H34       -10.8000   18.7318   27.5382 H         1 LEU         0.0800
    123 H35       -13.1229   19.4182   26.8352 H         1 LEU         0.0315
    124 H36       -13.5269   19.6270   28.5730 H         1 LEU         0.0315
    125 H37       -12.8934   17.2110   28.8991 H         1 LEU         0.0298
    126 H38       -14.9665   16.2831   27.9809 H         1 LEU         0.0232
    127 H39       -15.1824   17.7519   26.9698 H         1 LEU         0.0232
    128 H40       -15.2436   17.8774   28.7606 H         1 LEU         0.0232
    129 H41       -11.5109   17.0849   26.8677 H         1 LEU         0.0232
    130 H42       -12.9890   17.2580   25.8619 H         1 LEU         0.0232
    131 H43       -12.7776   15.8120   26.9065 H         1 LEU         0.0232
    132 H44        -9.6993   23.0332   26.9714 H         1 PRO         0.0802
    133 H45        -8.6561   22.8944   24.8627 H         1 PRO         0.0313
    134 H46       -10.1875   22.3935   24.0685 H         1 PRO         0.0313
    135 H47        -8.9942   20.3640   23.9844 H         1 PRO         0.0287
    136 H48        -8.1201   20.7006   25.5172 H         1 PRO         0.0287
    137 H49       -10.9474   19.7127   25.1010 H         1 PRO         0.0524
    138 H50        -9.6997   19.1590   26.2685 H         1 PRO         0.0524
    139 H51       -10.8417   24.9161   26.4275 H         1 HIS         0.1885
    140 H52       -13.6763   24.9071   26.4419 H         1 HIS         0.0824
    141 H53       -11.5210   26.9315   25.7540 H         1 HIS         0.0491
    142 H54       -12.6345   26.8906   27.1629 H         1 HIS         0.0491
    143 H55       -15.1635   27.5896   26.6947 H         1 HIS         0.2386
    144 H56       -12.3955   28.4759   23.6493 H         1 HIS         0.0324
    145 H57       -16.2906   29.2964   25.1678 H         1 HIS         0.1149
    146 H58       -15.1559   24.6681   24.8484 H         1 ARG         0.1883
    147 H59       -14.0215   24.8509   22.0876 H         1 ARG         0.0800
    148 H60       -14.7644   22.5930   22.7601 H         1 ARG         0.0313
    149 H61       -15.6756   23.2618   21.3640 H         1 ARG         0.0313
    150 H62       -17.6201   23.4561   22.5463 H         1 ARG         0.0301
    151 H63       -16.7781   23.5971   24.1268 H         1 ARG         0.0301
    152 H64       -16.2402   21.0332   22.7965 H         1 ARG         0.0689
    153 H65       -17.9954   21.3056   23.0646 H         1 ARG         0.0689
    154 H66       -16.5009   21.8961   25.4676 H         1 ARG         0.2642
    155 H67       -17.6817   18.0639   24.7637 H         1 ARG         0.2615
    156 H68       -17.5734   19.2209   23.4101 H         1 ARG         0.2615
    157 H69       -16.6490   20.4143   27.2063 H         1 ARG         0.2615
    158 H70       -17.1349   18.7264   26.8942 H         1 ARG         0.2615
    159 H71       -15.2633   25.9185   20.4764 H         1 ASP         0.1884
    160 H72       -16.8651   28.1001   21.6091 H         1 ASP         0.0819
    161 H73       -16.7774   28.9398   19.1674 H         1 ASP         0.0478
    162 H74       -15.6165   27.5998   18.8784 H         1 ASP         0.0478
    163 H75       -18.0963   25.3167   21.1583 H         1 TRP         0.1886
    164 H76       -20.4122   26.5127   19.7297 H         1 TRP         0.0831
    165 H77       -19.3715   25.2526   17.9730 H         1 TRP         0.0398
    166 H78       -20.7839   24.3107   18.5600 H         1 TRP         0.0398
    167 H79       -20.0524   22.3149   20.4928 H         1 TRP         0.0795
    168 H80       -18.0026   20.7229   20.4686 H         1 TRP         0.2216
    169 H81       -17.1162   24.9765   17.2893 H         1 TRP         0.0540
    170 H82       -15.4792   20.6804   19.2325 H         1 TRP         0.0541
    171 H83       -14.9149   24.1118   16.7154 H         1 TRP         0.0510
    172 H84       -14.1006   21.9776   17.6556 H         1 TRP         0.0530
    173 H85       -22.4180   25.1205   21.7267 H         1 TRP         0.2540
@<TRIPOS>BOND
     1    2    1 1  
     2    2    5 1  
     3    3    2 1  
     4    3    4 2  
     5    5    6 1  
     6    6    7 1  
     7    7    8 1  
     8   11   10 1  
     9   10   13 1  
    10   10    9 1  
    11    9   15 1  
    12   15   14 1  
    13   13   14 1  
    14   11   12 2  
    15    9    3 am 
    16   18   17 1  
    17   17   20 1  
    18   17   16 1  
    19   16   22 1  
    20   22   21 1  
    21   20   21 1  
    22   18   19 2  
    23   16   11 am 
    24   24   23 1  
    25   24   27 1  
    26   25   24 1  
    27   25   26 2  
    28   27   29 1  
    29   27   28 1  
    30   23   18 am 
    31   31   30 1  
    32   31   34 1  
    33   32   31 1  
    34   32   33 2  
    35   34   35 1  
    36   35   36 1  
    37   35   37 1  
    38   30   25 am 
    39   40   39 1  
    40   39   42 1  
    41   39   38 1  
    42   38   44 1  
    43   44   43 1  
    44   42   43 1  
    45   40   41 2  
    46   38   32 am 
    47   46   45 1  
    48   46   49 1  
    49   47   46 1  
    50   47   48 2  
    51   49   50 1  
    52   50   51 1  
    53   50   52 2  
    54   52   54 1  
    55   54   53 2  
    56   51   53 1  
    57   45   40 am 
    58   56   55 1  
    59   56   59 1  
    60   57   56 1  
    61   57   58 2  
    62   59   60 1  
    63   60   61 1  
    64   61   62 1  
    65   62   63 ar 
    66   63   65 ar 
    67   63   64 ar 
    68   55   47 am 
    69   67   66 1  
    70   67   70 1  
    71   68   67 1  
    72   68   69 2  
    73   70   71 1  
    74   71   72 ar 
    75   71   73 ar 
    76   66   57 am 
    77   74   75 1  
    78   75   78 1  
    79   75   76 1  
    80   76   77 2  
    81   78   79 1  
    82   79   80 2  
    83   79   81 1  
    84   81   84 ar 
    85   81   83 ar 
    86   83   85 ar 
    87   83   82 1  
    88   80   82 1  
    89   85   87 ar 
    90   86   87 ar 
    91   84   86 ar 
    92   68   74 am 
    93   76   88 1  
    94    1   89 1  
    95    1   90 1  
    96    1   91 1  
    97    2   92 1  
    98    5   93 1  
    99    5   94 1  
   100    6   95 1  
   101    6   96 1  
   102    8   97 1  
   103    8   98 1  
   104    8   99 1  
   105   10  100 1  
   106   13  101 1  
   107   13  102 1  
   108   14  103 1  
   109   14  104 1  
   110   15  105 1  
   111   15  106 1  
   112   17  107 1  
   113   20  108 1  
   114   20  109 1  
   115   21  110 1  
   116   21  111 1  
   117   22  112 1  
   118   22  113 1  
   119   23  114 1  
   120   24  115 1  
   121   27  116 1  
   122   28  117 1  
   123   29  118 1  
   124   29  119 1  
   125   29  120 1  
   126   30  121 1  
   127   31  122 1  
   128   34  123 1  
   129   34  124 1  
   130   35  125 1  
   131   36  126 1  
   132   36  127 1  
   133   36  128 1  
   134   37  129 1  
   135   37  130 1  
   136   37  131 1  
   137   39  132 1  
   138   42  133 1  
   139   42  134 1  
   140   43  135 1  
   141   43  136 1  
   142   44  137 1  
   143   44  138 1  
   144   45  139 1  
   145   46  140 1  
   146   49  141 1  
   147   49  142 1  
   148   51  143 1  
   149   52  144 1  
   150   53  145 1  
   151   55  146 1  
   152   56  147 1  
   153   59  148 1  
   154   59  149 1  
   155   60  150 1  
   156   60  151 1  
   157   61  152 1  
   158   61  153 1  
   159   62  154 1  
   160   64  155 1  
   161   64  156 1  
   162   65  157 1  
   163   65  158 1  
   164   66  159 1  
   165   67  160 1  
   166   70  161 1  
   167   70  162 1  
   168   74  163 1  
   169   75  164 1  
   170   78  165 1  
   171   78  166 1  
   172   80  167 1  
   173   82  168 1  
   174   84  169 1  
   175   85  170 1  
   176   86  171 1  
   177   87  172 1  
   178   88  173 1  
@<TRIPOS>SUBSTRUCTURE
     1 MET         1

