1n5z_ligand
  -I-interpret- 

171176  0  0  0  0  0  0  0  0999 V2000
   -9.0600   11.5410   36.5130 N   0  3  0  0  0
   -7.9980   10.8020   35.7480 C   0  0  0  0  0
   -8.0560   11.2050   34.2790 C   0  0  0  0  0
   -7.0490   11.0870   33.5330 O   0  0  0  0  0
   -8.1480    9.2830   35.9050 C   0  0  0  0  0
   -7.5540    8.7420   37.2060 C   0  0  0  0  0
   -7.2590    6.9260   37.2420 S   0  0  0  0  0
   -8.8190    6.3310   38.2650 C   0  0  0  0  0
   -9.2310   11.6630   33.8620 N   0  0  0  0  0
   -9.4220   12.2080   32.5150 C   0  0  0  0  0
   -9.0540   13.6820   32.4320 C   0  0  0  0  0
   -9.5670   14.4880   33.1800 O   0  0  0  0  0
  -10.9210   12.0530   32.3060 C   0  0  0  0  0
  -11.4740   12.3030   33.6750 C   0  0  0  0  0
  -10.4850   11.6540   34.6370 C   0  0  0  0  0
   -8.1940   14.0290   31.4980 N   0  0  0  0  0
   -7.7600   15.4140   31.3130 C   0  0  0  0  0
   -8.9300   16.3950   31.1870 C   0  0  0  0  0
  -10.0290   16.0350   30.7640 O   0  0  0  0  0
   -7.0110   15.3510   29.9840 C   0  0  0  0  0
   -6.5230   13.9100   29.8930 C   0  0  0  0  0
   -7.6120   13.1080   30.5110 C   0  0  0  0  0
   -8.7130   17.6460   31.5340 N   0  0  0  0  0
   -9.7650   18.6390   31.4010 C   0  0  0  0  0
   -9.9510   18.9150   29.9710 C   0  0  0  0  0
   -9.0140   18.9670   29.2210 O   0  0  0  0  0
   -9.3380   19.9400   32.0320 C   0  0  0  0  0
   -9.0710   19.7320   33.4390 O   0  0  0  0  0
  -10.4810   20.9690   31.9900 C   0  0  0  0  0
  -11.1770   19.0990   29.5620 N   0  0  0  0  0
  -11.4410   19.3740   28.1600 C   0  0  0  0  0
  -11.1400   20.8370   27.8430 C   0  0  0  0  0
  -11.4390   21.7260   28.5950 O   0  0  0  0  0
  -12.9050   19.0710   27.8560 C   0  0  0  0  0
  -13.2750   17.6060   27.9460 C   0  0  0  0  0
  -14.7690   17.3630   27.9120 C   0  0  0  0  0
  -12.5930   16.8930   26.8210 C   0  0  0  0  0
  -10.5480   21.0770   26.7030 N   0  0  0  0  0
  -10.2790   22.4510   26.2400 C   0  0  0  0  0
  -11.5810   23.1340   25.8970 C   0  0  0  0  0
  -12.4810   22.4630   25.4540 O   0  0  0  0  0
   -9.5270   22.2260   24.9320 C   0  0  0  0  0
   -9.0880   20.7760   25.0000 C   0  0  0  0  0
  -10.1210   20.0340   25.7520 C   0  0  0  0  0
  -11.6520   24.4450   26.0790 N   0  0  0  0  0
  -12.8510   25.2470   25.7990 C   0  0  0  0  0
  -13.2450   25.1060   24.3610 C   0  0  0  0  0
  -12.4170   25.2530   23.4800 O   0  0  0  0  0
  -12.5510   26.7230   26.0790 C   0  0  0  0  0
  -13.4660   27.6890   25.3840 C   0  0  0  0  0
  -14.7280   27.9930   25.8530 N   0  0  0  0  0
  -13.2850   28.4500   24.2770 C   0  0  0  0  0
  -15.2900   28.8820   25.0540 C   0  0  0  0  0
  -14.4350   29.1840   24.0940 N   0  0  0  0  0
  -14.5020   24.8190   24.1070 N   0  0  0  0  0
  -14.9110   24.7280   22.7230 C   0  0  0  0  0
  -15.8880   25.8650   22.3930 C   0  0  0  0  0
  -16.6310   26.3070   23.2660 O   0  0  0  0  0
  -15.4980   23.3500   22.4460 C   0  0  0  0  0
  -16.7870   23.0780   23.1570 C   0  0  0  0  0
  -16.9830   21.5810   23.3950 C   0  0  0  0  0
  -16.8300   21.1870   24.7970 N   0  0  0  0  0
  -17.0930   19.9600   25.2560 C   0  0  0  0  0
  -17.4780   19.0110   24.4140 N   0  0  0  0  0
  -16.9480   19.6790   26.5500 N   0  0  0  0  0
  -15.8710   26.3440   21.1470 N   0  0  0  0  0
  -16.7040   27.4630   20.7270 C   0  0  0  0  0
  -18.0360   27.0760   20.1760 C   0  0  0  0  0
  -18.5810   27.8270   19.4030 O   0  0  0  0  0
  -16.0250   28.2870   19.6340 C   0  0  0  0  0
  -14.9140   29.1370   20.1560 C   0  0  0  0  0
  -15.1990   30.1690   20.8240 O   0  0  0  0  0
  -13.7180   28.8290   19.9430 O   0  0  0  0  0
  -18.5790   25.9360   20.5390 N   0  0  0  0  0
  -19.8870   25.5930   20.0270 C   0  0  0  0  0
  -20.6540   24.9140   21.1300 C   0  0  0  0  0
  -20.0200   24.5920   22.1300 O   0  0  0  0  0
  -19.7800   24.6790   18.8180 C   0  0  0  0  0
  -18.8930   23.5140   19.0830 C   0  0  0  0  0
  -19.1370   22.4560   19.9200 C   0  0  0  0  0
  -17.5880   23.3150   18.5720 C   0  0  0  0  0
  -18.0660   21.6010   19.9340 N   0  0  0  0  0
  -17.0970   22.1120   19.1180 C   0  0  0  0  0
  -16.7740   24.0370   17.7080 C   0  0  0  0  0
  -15.8410   21.6090   18.8060 C   0  0  0  0  0
  -15.5490   23.5540   17.3950 C   0  0  0  0  0
  -15.0830   22.3400   17.9360 C   0  0  0  0  0
  -21.9580   24.6743   21.0255 O   0  0  0  0  0
   -9.0200   11.2704   37.4956 H   0  0  0  0  0
   -8.9014   12.5451   36.4289 H   0  0  0  0  0
   -9.9768   11.3073   36.1318 H   0  0  0  0  0
   -7.0239   11.0725   36.1555 H   0  0  0  0  0
   -7.6114    8.8141   35.0802 H   0  0  0  0  0
   -9.2146    9.0585   35.9139 H   0  0  0  0  0
   -8.2784    8.9558   37.9919 H   0  0  0  0  0
   -6.5810    9.2183   37.3261 H   0  0  0  0  0
   -8.8057    6.7979   39.2498 H   0  0  0  0  0
   -9.7287    6.6180   37.7376 H   0  0  0  0  0
   -8.7879    5.2470   38.3750 H   0  0  0  0  0
   -8.7988   11.7048   31.7758 H   0  0  0  0  0
  -11.1954   11.0755   31.9094 H   0  0  0  0  0
  -11.3180   12.7375   31.5564 H   0  0  0  0  0
  -11.5839   13.3691   33.8734 H   0  0  0  0  0
  -12.4737   11.8828   33.7854 H   0  0  0  0  0
  -10.4035   12.1834   35.5863 H   0  0  0  0  0
  -10.7867   10.6540   34.9485 H   0  0  0  0  0
   -7.1753   15.7707   32.1609 H   0  0  0  0  0
   -6.1889   16.0655   29.9427 H   0  0  0  0  0
   -7.6474   15.6221   29.1417 H   0  0  0  0  0
   -6.3279   13.6091   28.8637 H   0  0  0  0  0
   -5.5708   13.7682   30.4042 H   0  0  0  0  0
   -8.3425   12.7602   29.7806 H   0  0  0  0  0
   -7.2482   12.1850   30.9626 H   0  0  0  0  0
   -7.8006   17.9199   31.8985 H   0  0  0  0  0
  -10.6697   18.2616   31.8776 H   0  0  0  0  0
   -8.4632   20.2912   31.4848 H   0  0  0  0  0
   -8.7994   20.5618   33.8381 H   0  0  0  0  0
  -10.7618   21.1561   30.9535 H   0  0  0  0  0
  -11.3400   20.5785   32.5357 H   0  0  0  0  0
  -10.1481   21.8989   32.4511 H   0  0  0  0  0
  -11.9493   19.0497   30.2265 H   0  0  0  0  0
  -10.7996   18.7442   27.5436 H   0  0  0  0  0
  -13.0885   19.3837   26.8281 H   0  0  0  0  0
  -13.5010   19.5968   28.6019 H   0  0  0  0  0
  -12.9433   17.2230   28.9111 H   0  0  0  0  0
  -15.2380   17.8732   28.7533 H   0  0  0  0  0
  -15.1774   17.7488   26.9779 H   0  0  0  0  0
  -14.9634   16.2926   27.9803 H   0  0  0  0  0
  -12.9278   17.3109   25.8716 H   0  0  0  0  0
  -11.5142   17.0180   26.9142 H   0  0  0  0  0
  -12.8420   15.8326   26.8606 H   0  0  0  0  0
   -9.7497   23.0523   26.9792 H   0  0  0  0  0
   -8.6829   22.9065   24.8205 H   0  0  0  0  0
  -10.1493   22.4269   24.0600 H   0  0  0  0  0
   -8.9769   20.3639   23.9970 H   0  0  0  0  0
   -8.1215   20.6933   25.4971 H   0  0  0  0  0
  -10.9247   19.6324   25.1348 H   0  0  0  0  0
   -9.7638   19.1172   26.2211 H   0  0  0  0  0
  -10.8255   24.9256   26.4344 H   0  0  0  0  0
  -13.6632   24.8961   26.4356 H   0  0  0  0  0
  -11.5436   26.9183   25.7115 H   0  0  0  0  0
  -12.6806   26.8764   27.1503 H   0  0  0  0  0
  -12.3946   28.4759   23.6487 H   0  0  0  0  0
  -16.2915   29.2968   25.1679 H   0  0  0  0  0
  -15.1690   24.6651   24.8632 H   0  0  0  0  0
  -14.0475   24.8460   22.0684 H   0  0  0  0  0
  -14.7745   22.6153   22.7993 H   0  0  0  0  0
  -15.7030   23.2967   21.3768 H   0  0  0  0  0
  -17.6081   23.4421   22.5395 H   0  0  0  0  0
  -16.7647   23.5834   24.1225 H   0  0  0  0  0
  -16.2190   21.0556   22.8220 H   0  0  0  0  0
  -18.0007   21.3321   23.0941 H   0  0  0  0  0
  -16.5041   21.8893   25.4611 H   0  0  0  0  0
  -17.5725   19.2189   23.4199 H   0  0  0  0  0
  -17.1330   18.7356   26.8909 H   0  0  0  0  0
  -16.6519   20.4072   27.2000 H   0  0  0  0  0
  -15.2512   25.9100   20.4630 H   0  0  0  0  0
  -16.8471   28.0277   21.6482 H   0  0  0  0  0
  -16.7751   28.9479   19.1997 H   0  0  0  0  0
  -15.6016   27.5934   18.9076 H   0  0  0  0  0
  -16.1531   30.2529   20.8897 H   0  0  0  0  0
  -18.0867   25.3043   21.1706 H   0  0  0  0  0
  -20.4032   26.4971   19.7042 H   0  0  0  0  0
  -19.3568   25.2511   17.9923 H   0  0  0  0  0
  -20.7762   24.3046   18.5822 H   0  0  0  0  0
  -20.0532   22.3148   20.4933 H   0  0  0  0  0
  -17.1180   24.9817   17.2870 H   0  0  0  0  0
  -15.4772   20.6753   19.2349 H   0  0  0  0  0
  -14.9114   24.1149   16.7117 H   0  0  0  0  0
  -14.0952   21.9756   17.6541 H   0  0  0  0  0
  -22.2744   24.9959   20.1781 H   0  0  0  0  0
  2  1  1  0  0  0
  2  5  1  0  0  0
  3  2  1  0  0  0
  3  4  2  0  0  0
  5  6  1  0  0  0
  6  7  1  0  0  0
  7  8  1  0  0  0
 11 10  1  0  0  0
 10 13  1  0  0  0
 10  9  1  0  0  0
  9 15  1  0  0  0
 15 14  1  0  0  0
 13 14  1  0  0  0
 11 12  2  0  0  0
  9  3  1  0  0  0
 18 17  1  0  0  0
 17 20  1  0  0  0
 17 16  1  0  0  0
 16 22  1  0  0  0
 22 21  1  0  0  0
 20 21  1  0  0  0
 18 19  2  0  0  0
 16 11  1  0  0  0
 24 23  1  0  0  0
 24 27  1  0  0  0
 25 24  1  0  0  0
 25 26  2  0  0  0
 27 29  1  0  0  0
 27 28  1  0  0  0
 23 18  1  0  0  0
 31 30  1  0  0  0
 31 34  1  0  0  0
 32 31  1  0  0  0
 32 33  2  0  0  0
 34 35  1  0  0  0
 35 36  1  0  0  0
 35 37  1  0  0  0
 30 25  1  0  0  0
 40 39  1  0  0  0
 39 42  1  0  0  0
 39 38  1  0  0  0
 38 44  1  0  0  0
 44 43  1  0  0  0
 42 43  1  0  0  0
 40 41  2  0  0  0
 38 32  1  0  0  0
 46 45  1  0  0  0
 46 49  1  0  0  0
 47 46  1  0  0  0
 47 48  2  0  0  0
 49 50  1  0  0  0
 50 51  4  0  0  0
 50 52  4  0  0  0
 52 54  4  0  0  0
 54 53  4  0  0  0
 51 53  4  0  0  0
 45 40  1  0  0  0
 56 55  1  0  0  0
 56 59  1  0  0  0
 57 56  1  0  0  0
 57 58  2  0  0  0
 59 60  1  0  0  0
 60 61  1  0  0  0
 61 62  1  0  0  0
 62 63  1  0  0  0
 63 65  1  0  0  0
 63 64  2  0  0  0
 55 47  1  0  0  0
 67 66  1  0  0  0
 67 70  1  0  0  0
 68 67  1  0  0  0
 68 69  2  0  0  0
 70 71  1  0  0  0
 71 72  1  0  0  0
 71 73  2  0  0  0
 66 57  1  0  0  0
 74 75  1  0  0  0
 75 78  1  0  0  0
 75 76  1  0  0  0
 76 77  2  0  0  0
 78 79  1  0  0  0
 79 80  4  0  0  0
 79 81  4  0  0  0
 81 84  4  0  0  0
 81 83  4  0  0  0
 83 85  4  0  0  0
 83 82  4  0  0  0
 80 82  4  0  0  0
 85 87  4  0  0  0
 86 87  4  0  0  0
 84 86  4  0  0  0
 68 74  1  0  0  0
 76 88  1  0  0  0
  1 89  1  0  0  0
  1 90  1  0  0  0
  1 91  1  0  0  0
  2 92  1  0  0  0
  5 93  1  0  0  0
  5 94  1  0  0  0
  6 95  1  0  0  0
  6 96  1  0  0  0
  8 97  1  0  0  0
  8 98  1  0  0  0
  8 99  1  0  0  0
 10100  1  0  0  0
 13101  1  0  0  0
 13102  1  0  0  0
 14103  1  0  0  0
 14104  1  0  0  0
 15105  1  0  0  0
 15106  1  0  0  0
 17107  1  0  0  0
 20108  1  0  0  0
 20109  1  0  0  0
 21110  1  0  0  0
 21111  1  0  0  0
 22112  1  0  0  0
 22113  1  0  0  0
 23114  1  0  0  0
 24115  1  0  0  0
 27116  1  0  0  0
 28117  1  0  0  0
 29118  1  0  0  0
 29119  1  0  0  0
 29120  1  0  0  0
 30121  1  0  0  0
 31122  1  0  0  0
 34123  1  0  0  0
 34124  1  0  0  0
 35125  1  0  0  0
 36126  1  0  0  0
 36127  1  0  0  0
 36128  1  0  0  0
 37129  1  0  0  0
 37130  1  0  0  0
 37131  1  0  0  0
 39132  1  0  0  0
 42133  1  0  0  0
 42134  1  0  0  0
 43135  1  0  0  0
 43136  1  0  0  0
 44137  1  0  0  0
 44138  1  0  0  0
 45139  1  0  0  0
 46140  1  0  0  0
 49141  1  0  0  0
 49142  1  0  0  0
 52143  1  0  0  0
 53144  1  0  0  0
 55145  1  0  0  0
 56146  1  0  0  0
 59147  1  0  0  0
 59148  1  0  0  0
 60149  1  0  0  0
 60150  1  0  0  0
 61151  1  0  0  0
 61152  1  0  0  0
 62153  1  0  0  0
 64154  1  0  0  0
 65155  1  0  0  0
 65156  1  0  0  0
 66157  1  0  0  0
 67158  1  0  0  0
 70159  1  0  0  0
 70160  1  0  0  0
 72161  1  0  0  0
 74162  1  0  0  0
 75163  1  0  0  0
 78164  1  0  0  0
 78165  1  0  0  0
 80166  1  0  0  0
 84167  1  0  0  0
 85168  1  0  0  0
 86169  1  0  0  0
 87170  1  0  0  0
 88171  1  0  0  0
M  END
$$$$
