5zg0_ligand
  -I-interpret- 

 42 44  0  0  0  0  0  0  0  0999 V2000
   33.7820  -54.2580   18.9440 C   0  0  0  0  0
   32.9890  -56.4910   19.2080 C   0  0  0  0  0
   32.4750  -53.8580   18.7890 C   0  0  0  0  0
   32.7540  -60.1550   18.6580 C   0  0  0  0  0
   32.5930  -58.7420   18.5690 C   0  0  0  0  0
   33.2140  -57.9010   19.4110 C   0  0  0  0  0
   34.9900  -59.7330   22.7740 C   0  0  0  0  0
   31.1160  -51.4680   20.3360 C   0  0  0  0  0
   31.6890  -56.0780   19.0470 C   0  0  0  0  0
   34.0360  -55.5940   19.1570 C   0  0  0  0  0
   31.4330  -54.7510   18.8360 C   0  0  0  0  0
   33.5550  -60.6360   19.6040 C   0  0  0  0  0
   34.0750  -58.4710   20.4610 C   0  0  0  0  0
   35.0820  -60.4680   21.4680 C   0  0  0  0  0
   32.8820  -50.4470   19.0070 C   0  0  0  0  0
   32.4280  -51.7300   19.6490 C   0  0  0  0  0
   34.6110  -57.6040   21.2650 N   0  0  0  0  0
   34.2250  -59.8390   20.4980 N   0  0  0  0  0
   36.9560  -58.1930   22.0860 O   0  0  0  0  0
   35.2250  -57.3700   23.6920 O   0  0  0  0  0
   32.1480  -52.5470   18.5450 O   0  0  0  0  0
   35.5590  -58.0850   22.4920 S   0  0  0  0  0
   34.5964  -53.5349   18.8993 H   0  0  0  0  0
   32.2352  -60.8226   17.9701 H   0  0  0  0  0
   31.9460  -58.3316   17.7937 H   0  0  0  0  0
   33.7147  -57.3720   20.2219 H   0  0  0  0  0
   35.5997  -60.2236   23.5328 H   0  0  0  0  0
   33.9624  -59.7259   23.1374 H   0  0  0  0  0
   31.2516  -50.6954   21.0928 H   0  0  0  0  0
   30.3830  -51.1343   19.6015 H   0  0  0  0  0
   30.7659  -52.3851   20.8098 H   0  0  0  0  0
   30.8719  -56.7984   19.0869 H   0  0  0  0  0
   35.0610  -55.9421   19.2850 H   0  0  0  0  0
   30.4078  -54.4044   18.7059 H   0  0  0  0  0
   34.3607  -61.0980   19.0335 H   0  0  0  0  0
   32.8738  -61.2013   20.2400 H   0  0  0  0  0
   34.7683  -61.5020   21.6117 H   0  0  0  0  0
   36.1116  -60.4440   21.1109 H   0  0  0  0  0
   33.7613  -50.6409   18.3927 H   0  0  0  0  0
   32.0810  -50.0514   18.3826 H   0  0  0  0  0
   33.1315  -49.7227   19.7824 H   0  0  0  0  0
   33.1469  -52.1443   20.3559 H   0  0  0  0  0
  3  1  4  0  0  0
  1 10  4  0  0  0
  2  6  1  0  0  0
  9  2  4  0  0  0
 10  2  4  0  0  0
  3 11  4  0  0  0
 21  3  1  0  0  0
  5  4  2  0  0  0
  4 12  1  0  0  0
  6  5  1  0  0  0
  6 13  1  0  0  0
 14  7  1  0  0  0
  7 22  1  0  0  0
 16  8  1  0  0  0
 11  9  4  0  0  0
 18 12  1  0  0  0
 13 17  2  0  0  0
 13 18  1  0  0  0
 18 14  1  0  0  0
 16 15  1  0  0  0
 16 21  1  0  0  0
 17 22  1  0  0  0
 22 19  2  0  0  0
 22 20  2  0  0  0
  1 23  1  0  0  0
  4 24  1  0  0  0
  5 25  1  0  0  0
  6 26  1  0  0  0
  7 27  1  0  0  0
  7 28  1  0  0  0
  8 29  1  0  0  0
  8 30  1  0  0  0
  8 31  1  0  0  0
  9 32  1  0  0  0
 10 33  1  0  0  0
 11 34  1  0  0  0
 12 35  1  0  0  0
 12 36  1  0  0  0
 14 37  1  0  0  0
 14 38  1  0  0  0
 15 39  1  0  0  0
 15 40  1  0  0  0
 15 41  1  0  0  0
 16 42  1  0  0  0
M  END
$$$$
