1yw8_ligand
  -I-interpret- 

 40 42  0  0  0  0  0  0  0  0999 V2000
   19.9950   33.6860   15.9840 C   0  0  0  0  0
   18.4750   33.8110   15.7830 C   0  0  0  0  0
   17.6970   32.5680   16.2150 C   0  0  0  0  0
   18.3490   31.2780   16.3780 C   0  0  0  0  0
   19.8570   31.1110   16.1190 C   0  0  0  0  0
   20.5540   32.3390   15.4920 C   0  0  0  0  0
   16.3040   32.6770   16.4650 C   0  0  0  0  0
   15.5450   31.5600   16.8640 C   0  0  0  0  0
   16.1640   30.3100   17.0250 C   0  0  0  0  0
   17.5520   30.1590   16.7870 C   0  0  0  0  0
   18.2050   28.7390   16.9860 C   0  0  0  0  0
   17.8100   27.7650   16.1510 O   0  0  0  0  0
   19.0090   28.5400   17.8610 O   0  0  0  0  0
   15.3100   29.1880   17.4440 N   0  0  0  0  0
   14.6710   28.8650   18.9180 S   0  0  0  0  0
   16.0490   28.5550   20.0060 C   0  0  0  0  0
   13.9090   27.6410   18.7820 O   0  0  0  0  0
   13.9740   30.0600   19.3630 O   0  0  0  0  0
   16.6550   29.6490   20.7590 C   0  0  0  0  0
   17.7760   29.3800   21.6450 C   0  0  0  0  0
   18.2910   28.0260   21.7780 C   0  0  0  0  0
   17.6830   26.9370   21.0250 C   0  0  0  0  0
   16.5640   27.1980   20.1400 C   0  0  0  0  0
   20.1973   33.7607   17.0525 H   0  0  0  0  0
   20.4738   34.4767   15.4064 H   0  0  0  0  0
   18.2967   33.9545   14.7173 H   0  0  0  0  0
   18.1310   34.6424   16.3983 H   0  0  0  0  0
   19.9645   30.2920   15.4079 H   0  0  0  0  0
   20.3256   30.9454   17.0891 H   0  0  0  0  0
   21.6051   32.2984   15.7779 H   0  0  0  0  0
   20.3906   32.2921   14.4153 H   0  0  0  0  0
   15.8129   33.6428   16.3460 H   0  0  0  0  0
   14.4759   31.6658   17.0481 H   0  0  0  0  0
   17.1703   28.1185   15.5286 H   0  0  0  0  0
   15.0831   28.5146   16.7123 H   0  0  0  0  0
   16.2687   30.6632   20.6575 H   0  0  0  0  0
   18.2309   30.1936   22.2100 H   0  0  0  0  0
   19.1324   27.8261   22.4415 H   0  0  0  0  0
   18.0702   25.9232   21.1270 H   0  0  0  0  0
   16.1098   26.3825   19.5772 H   0  0  0  0  0
  1  2  1  0  0  0
  1  6  1  0  0  0
  2  3  1  0  0  0
  3  4  4  0  0  0
  3  7  4  0  0  0
  4  5  1  0  0  0
  4 10  4  0  0  0
  5  6  1  0  0  0
  7  8  4  0  0  0
  8  9  4  0  0  0
  9 10  4  0  0  0
  9 14  1  0  0  0
 10 11  1  0  0  0
 11 12  1  0  0  0
 11 13  2  0  0  0
 14 15  1  0  0  0
 15 16  1  0  0  0
 15 17  2  0  0  0
 15 18  2  0  0  0
 16 19  4  0  0  0
 16 23  4  0  0  0
 19 20  4  0  0  0
 20 21  4  0  0  0
 21 22  4  0  0  0
 22 23  4  0  0  0
  1 24  1  0  0  0
  1 25  1  0  0  0
  2 26  1  0  0  0
  2 27  1  0  0  0
  5 28  1  0  0  0
  5 29  1  0  0  0
  6 30  1  0  0  0
  6 31  1  0  0  0
  7 32  1  0  0  0
  8 33  1  0  0  0
 12 34  1  0  0  0
 14 35  1  0  0  0
 19 36  1  0  0  0
 20 37  1  0  0  0
 21 38  1  0  0  0
 22 39  1  0  0  0
 23 40  1  0  0  0
M  END
$$$$
