2yz3_ligand
  -I-interpret- 

 31 31  0  0  0  0  0  0  0  0999 V2000
   34.5260    5.8250  107.5980 C   0  0  0  0  0
   35.6080    5.2180  106.9670 C   0  0  0  0  0
   36.9080    5.5610  107.3290 C   0  0  0  0  0
   37.1230    6.5060  108.3300 C   0  0  0  0  0
   36.0420    7.1110  108.9610 C   0  0  0  0  0
   34.7400    6.7780  108.5890 C   0  0  0  0  0
   33.5480    7.5720  109.1320 C   0  0  0  0  0
   33.7360    9.0420  108.7510 C   0  0  0  0  0
   32.4350    9.7360  108.3440 C   0  0  0  0  0
   32.7740   11.0190  107.5820 C   0  0  0  0  0
   31.5750   11.5870  106.8220 C   0  0  0  0  0
   31.4660   11.3770  105.6130 O   0  0  0  0  0
   30.7330   12.2740  107.3930 O   0  0  0  0  0
   33.3840   12.0800  108.4950 C   0  0  0  0  0
   35.1490   12.3230  108.0790 S   0  0  0  0  0
   33.5090    5.5533  107.3153 H   0  0  0  0  0
   35.4376    4.4738  106.1891 H   0  0  0  0  0
   37.7557    5.0912  106.8303 H   0  0  0  0  0
   38.1400    6.7713  108.6187 H   0  0  0  0  0
   36.2124    7.8464  109.7473 H   0  0  0  0  0
   33.4940    7.4707  110.2159 H   0  0  0  0  0
   32.6198    7.1911  108.7059 H   0  0  0  0  0
   34.4081    9.0755  107.8936 H   0  0  0  0  0
   34.1248    9.5611  109.6271 H   0  0  0  0  0
   31.8534    9.9788  109.2333 H   0  0  0  0  0
   31.8481    9.0739  107.7074 H   0  0  0  0  0
   33.5231   10.7373  106.8420 H   0  0  0  0  0
   32.1960   10.8279  105.3176 H   0  0  0  0  0
   33.3015   11.7520  109.5312 H   0  0  0  0  0
   32.8504   13.0206  108.3584 H   0  0  0  0  0
   35.6684   13.2486  108.8804 H   0  0  0  0  0
  1  2  4  0  0  0
  1  6  4  0  0  0
  2  3  4  0  0  0
  3  4  4  0  0  0
  4  5  4  0  0  0
  5  6  4  0  0  0
  6  7  1  0  0  0
  7  8  1  0  0  0
  8  9  1  0  0  0
  9 10  1  0  0  0
 10 11  1  0  0  0
 10 14  1  0  0  0
 11 12  1  0  0  0
 11 13  2  0  0  0
 14 15  1  0  0  0
  1 16  1  0  0  0
  2 17  1  0  0  0
  3 18  1  0  0  0
  4 19  1  0  0  0
  5 20  1  0  0  0
  7 21  1  0  0  0
  7 22  1  0  0  0
  8 23  1  0  0  0
  8 24  1  0  0  0
  9 25  1  0  0  0
  9 26  1  0  0  0
 10 27  1  0  0  0
 12 28  1  0  0  0
 14 29  1  0  0  0
 14 30  1  0  0  0
 15 31  1  0  0  0
M  END
$$$$
