2kaw_ligand
  -I-interpret- 

 44 46  0  0  0  0  0  0  0  0999 V2000
    3.2420   -3.7530   -8.5550 C   0  0  0  0  0
    2.1680   -2.8740   -8.5960 C   0  0  0  0  0
    1.1080   -3.0720   -9.5400 C   0  0  0  0  0
   -0.2430   -2.4390   -9.2670 C   0  0  0  0  0
   -1.0920   -2.7980   -8.1220 C   0  0  0  0  0
   -0.7090   -3.8660   -7.0680 C   0  0  0  0  0
    0.3390   -4.7990   -6.9020 C   0  0  0  0  0
    0.3390   -5.5940   -5.8080 C   0  0  0  0  0
   -0.6770   -5.5080   -4.8480 C   0  0  0  0  0
   -0.6430   -6.3150   -3.7770 F   0  0  0  0  0
   -1.7160   -4.6030   -4.9960 C   0  0  0  0  0
   -1.7230   -3.7950   -6.0980 C   0  0  0  0  0
   -2.7070   -2.7140   -6.5400 C   0  0  0  0  0
   -3.8850   -2.3260   -5.5870 C   0  0  0  0  0
   -5.2500   -2.4510   -6.2570 C   0  0  0  0  0
   -5.5080   -1.7020   -7.3170 O   0  0  0  0  0
   -6.1260   -3.2140   -5.8220 O   0  0  0  0  0
   -2.3630   -2.1310   -7.7110 C   0  0  0  0  0
   -3.1020   -1.0600   -8.4160 C   0  0  0  0  0
    1.1700   -4.1550  -10.4010 C   0  0  0  0  0
    2.2690   -5.0560  -10.3590 C   0  0  0  0  0
    3.2980   -4.8570   -9.4500 C   0  0  0  0  0
    4.6610   -5.9370   -9.3700 S   0  0  0  0  0
    4.2990   -7.2510   -8.9250 O   0  0  0  0  0
    5.6750   -5.1820   -8.1330 C   0  0  0  0  0
    4.0449   -3.5965   -7.8346 H   0  0  0  0  0
    2.1309   -2.0299   -7.9074 H   0  0  0  0  0
   -0.8390   -2.7583  -10.1220 H   0  0  0  0  0
    0.0117   -1.3986   -9.0649 H   0  0  0  0  0
   -0.9313   -2.8060   -9.2001 H   0  0  0  0  0
    1.1343   -4.8767   -7.6434 H   0  0  0  0  0
    1.1448   -6.3151   -5.6709 H   0  0  0  0  0
   -2.5089   -4.5372   -4.2510 H   0  0  0  0  0
   -3.7498   -1.2847   -5.2946 H   0  0  0  0  0
   -3.8659   -3.0076   -4.7366 H   0  0  0  0  0
   -4.7364   -1.1712   -7.5278 H   0  0  0  0  0
   -4.1046   -1.4116   -8.6592 H   0  0  0  0  0
   -3.1694   -0.1827   -7.7726 H   0  0  0  0  0
   -2.5744   -0.7996   -9.3335 H   0  0  0  0  0
    0.3667   -4.3185  -11.1194 H   0  0  0  0  0
    2.3032   -5.9046  -11.0422 H   0  0  0  0  0
    5.1182   -5.1177   -7.1982 H   0  0  0  0  0
    6.5714   -5.7837   -7.9828 H   0  0  0  0  0
    5.9581   -4.1810   -8.4584 H   0  0  0  0  0
  1  2  4  0  0  0
  1 22  4  0  0  0
  2  3  4  0  0  0
  3  4  1  0  0  0
  3 20  4  0  0  0
  4  5  1  0  0  0
  5  6  1  0  0  0
  5 18  1  0  0  0
  6  7  4  0  0  0
  6 12  4  0  0  0
  7  8  4  0  0  0
  8  9  4  0  0  0
  9 10  1  0  0  0
  9 11  4  0  0  0
 11 12  4  0  0  0
 12 13  1  0  0  0
 13 14  1  0  0  0
 13 18  2  0  0  0
 14 15  1  0  0  0
 15 16  1  0  0  0
 15 17  2  0  0  0
 18 19  1  0  0  0
 20 21  4  0  0  0
 21 22  4  0  0  0
 22 23  1  0  0  0
 23 24  2  0  0  0
 23 25  1  0  0  0
  1 26  1  0  0  0
  2 27  1  0  0  0
  4 28  1  0  0  0
  4 29  1  0  0  0
  5 30  1  0  0  0
  7 31  1  0  0  0
  8 32  1  0  0  0
 11 33  1  0  0  0
 14 34  1  0  0  0
 14 35  1  0  0  0
 16 36  1  0  0  0
 19 37  1  0  0  0
 19 38  1  0  0  0
 19 39  1  0  0  0
 20 40  1  0  0  0
 21 41  1  0  0  0
 25 42  1  0  0  0
 25 43  1  0  0  0
 25 44  1  0  0  0
M  END
$$$$
