4leq_ligand
  -I-interpret- 

 48 51  0  0  0  0  0  0  0  0999 V2000
    9.7800   17.4240   91.3360 C   0  0  0  0  0
   10.7740   17.8030   90.4290 C   0  0  0  0  0
   10.4870   17.6710   89.0720 C   0  0  0  0  0
    9.2600   17.1740   88.6510 C   0  0  0  0  0
    8.2410   16.7850   89.5190 C   0  0  0  0  0
    6.9440   16.2070   88.9960 C   0  0  0  0  0
    5.9840   17.1910   88.3900 C   0  0  0  0  0
    8.5390   16.9130   90.9090 C   0  0  0  0  0
   10.0170   17.5470   92.7890 C   0  0  0  0  0
    7.5610   16.5420   91.8490 N   0  0  0  0  0
    7.7890   16.6740   93.1150 C   0  0  0  0  0
    6.8480   16.3470   94.0260 N   0  0  0  0  0
    8.9740   17.1680   93.5950 N   0  0  0  0  0
   11.0750   17.9550   93.2570 O   0  0  0  0  0
   11.2640   18.0030   88.0000 N   0  0  0  0  0
    9.3230   17.2130   87.2820 N   0  0  0  0  0
   10.5550   17.7080   86.9350 C   0  0  0  0  0
   10.9200   17.8890   85.6590 N   0  0  0  0  0
    9.9580   18.0490   84.5880 C   0  0  0  0  0
    3.3480   15.9630   86.1810 C   0  0  0  0  0
    2.3290   15.2420   86.8450 O   0  0  0  0  0
    4.7210   15.6650   86.7680 C   0  0  0  0  0
    4.8030   14.2650   87.1060 O   0  0  0  0  0
    4.6600   16.5240   88.0360 C   0  0  0  0  0
    3.7750   17.6300   87.7420 O   0  0  0  0  0
    3.2600   17.4750   86.4180 C   0  0  0  0  0
    4.1340   18.1730   85.5180 O   0  0  0  0  0
    4.0690   19.5940   85.6890 C   0  0  0  0  0
   11.7356   18.1866   90.7700 H   0  0  0  0  0
    6.4344   15.7701   89.8548 H   0  0  0  0  0
    7.2159   15.5136   88.2002 H   0  0  0  0  0
    6.4263   17.5915   87.4778 H   0  0  0  0  0
    5.7920   17.9814   89.1156 H   0  0  0  0  0
    6.6675   16.1670   91.5306 H   0  0  0  0  0
    7.0360   16.4718   95.0207 H   0  0  0  0  0
   11.9142   17.9152   85.4327 H   0  0  0  0  0
    9.3276   17.1615   84.5320 H   0  0  0  0  0
    9.3389   18.9241   84.7852 H   0  0  0  0  0
   10.4861   18.1813   83.6437 H   0  0  0  0  0
    3.2203   15.6731   85.1380 H   0  0  0  0  0
    1.4798   15.4534   86.4503 H   0  0  0  0  0
    5.5714   15.8711   86.1181 H   0  0  0  0  0
    5.6685   14.0765   87.4762 H   0  0  0  0  0
    4.3567   15.8680   88.8520 H   0  0  0  0  0
    2.2504   17.8602   86.2754 H   0  0  0  0  0
    3.0504   19.9348   85.5034 H   0  0  0  0  0
    4.3590   19.8497   86.7081 H   0  0  0  0  0
    4.7483   20.0748   84.9851 H   0  0  0  0  0
  1  2  4  0  0  0
  8  1  4  0  0  0
  1  9  1  0  0  0
  3  2  4  0  0  0
  4  3  4  0  0  0
  3 15  4  0  0  0
  5  4  4  0  0  0
  4 16  4  0  0  0
  6  5  1  0  0  0
  5  8  4  0  0  0
  7  6  1  0  0  0
 24  7  1  0  0  0
  8 10  1  0  0  0
  9 13  1  0  0  0
  9 14  2  0  0  0
 10 11  1  0  0  0
 11 12  2  0  0  0
 11 13  4  0  0  0
 17 15  4  0  0  0
 16 17  4  0  0  0
 17 18  1  0  0  0
 18 19  1  0  0  0
 20 21  1  0  0  0
 22 20  1  0  0  0
 20 26  1  0  0  0
 22 23  1  0  0  0
 22 24  1  0  0  0
 24 25  1  0  0  0
 25 26  1  0  0  0
 26 27  1  0  0  0
 27 28  1  0  0  0
  2 29  1  0  0  0
  6 30  1  0  0  0
  6 31  1  0  0  0
  7 32  1  0  0  0
  7 33  1  0  0  0
 10 34  1  0  0  0
 12 35  1  0  0  0
 18 36  1  0  0  0
 19 37  1  0  0  0
 19 38  1  0  0  0
 19 39  1  0  0  0
 20 40  1  0  0  0
 21 41  1  0  0  0
 22 42  1  0  0  0
 23 43  1  0  0  0
 24 44  1  0  0  0
 26 45  1  0  0  0
 28 46  1  0  0  0
 28 47  1  0  0  0
 28 48  1  0  0  0
M  END
$$$$
