5q0u_ligand
  -I-interpret- 

 69 73  0  0  0  0  0  0  0  0999 V2000
   13.9730   22.3800    6.8810 C   0  0  0  0  0
   13.2380   23.3660    5.9730 C   0  0  0  0  0
   13.8310   24.7830    6.1790 C   0  0  0  0  0
   13.2850   22.9390    4.4870 C   0  0  0  0  0
   12.5090   21.6430    4.1570 C   0  0  0  0  0
   13.7550   24.7840    2.8040 C   0  0  0  0  0
    9.5700   26.3610    2.9870 C   0  0  0  0  0
   10.4550   24.4780    4.1910 C   0  0  0  0  0
   16.1860   25.2620    3.0590 C   0  0  0  0  0
   17.5200   24.9130    2.8970 C   0  0  0  0  0
   17.8340   23.7130    2.2940 C   0  0  0  0  0
   15.5210   23.2000    2.0140 C   0  0  0  0  0
   13.7680   25.2350    7.6600 C   0  0  0  0  0
   14.4470   24.1950    8.5960 C   0  0  0  0  0
   13.8710   22.8000    8.3750 C   0  0  0  0  0
   12.3380   20.8000    5.0180 O   0  0  0  0  0
   12.0500   21.4930    2.8990 N   0  0  0  0  0
   11.3170   20.2890    2.5030 C   0  0  0  0  0
   11.4090   20.0120    1.0100 C   0  0  0  0  0
   10.7370   18.6700    0.6610 C   0  0  0  0  0
    9.2790   18.6240    1.1710 C   0  0  0  0  0
    9.1880   18.9560    2.6750 C   0  0  0  0  0
    9.8660   20.2950    2.9710 C   0  0  0  0  0
    8.8080   17.2380    1.0090 O   0  0  0  0  0
    7.3610   16.7720    0.2950 S   0  0  0  0  0
    6.9300   15.7010    1.1100 O   0  0  0  0  0
    6.4530   17.9590    0.3920 O   0  0  0  0  0
    7.7590   16.5200   -1.0440 O   0  0  0  0  0
   12.8930   24.0880    3.6290 N   0  0  0  0  0
   11.6650   24.7330    3.5600 C   0  0  0  0  0
   11.8480   25.7830    2.6680 C   0  0  0  0  0
   13.1710   25.8010    2.2030 N   0  0  0  0  0
   15.1700   24.4160    2.6190 C   0  0  0  0  0
   16.8520   22.8510    1.8500 C   0  0  0  0  0
   19.5110   23.2720    2.0920 Cl  0  0  0  0  0
   10.7690   26.6240    2.3620 C   0  0  0  0  0
    9.4190   25.3190    3.8740 C   0  0  0  0  0
    8.2170   25.1240    4.4440 F   0  0  0  0  0
    8.4980   27.1390    2.7280 F   0  0  0  0  0
   15.0251   22.3656    6.5965 H   0  0  0  0  0
   13.5164   21.3969    6.7658 H   0  0  0  0  0
   12.1835   23.3740    6.2488 H   0  0  0  0  0
   13.2456   25.4850    5.5852 H   0  0  0  0  0
   14.8778   24.7597    5.8760 H   0  0  0  0  0
   14.3169   22.6658    4.2665 H   0  0  0  0  0
   10.3352   23.6568    4.8976 H   0  0  0  0  0
   15.9306   26.2084    3.5357 H   0  0  0  0  0
   18.3101   25.5797    3.2424 H   0  0  0  0  0
   14.7392   22.5231    1.6696 H   0  0  0  0  0
   12.7216   25.3321    7.9495 H   0  0  0  0  0
   14.2942   26.1847    7.7562 H   0  0  0  0  0
   14.2674   24.4869    9.6307 H   0  0  0  0  0
   15.5141   24.1710    8.3752 H   0  0  0  0  0
   14.4390   22.0897    8.9758 H   0  0  0  0  0
   12.8199   22.8078    8.6634 H   0  0  0  0  0
   12.2156   22.2290    2.2125 H   0  0  0  0  0
   11.8151   19.4676    3.0181 H   0  0  0  0  0
   12.4600   19.9637    0.7253 H   0  0  0  0  0
   10.8992   20.8112    0.4719 H   0  0  0  0  0
   11.2975   17.8663    1.1385 H   0  0  0  0  0
   10.7295   18.5568   -0.4231 H   0  0  0  0  0
    8.6893   19.3510    0.6126 H   0  0  0  0  0
    9.6907   18.1720    3.2414 H   0  0  0  0  0
    8.1379   19.0204    2.9602 H   0  0  0  0  0
    9.3309   21.0824    2.4402 H   0  0  0  0  0
    9.8468   20.4659    4.0473 H   0  0  0  0  0
    6.7825   18.6597   -0.1755 H   0  0  0  0  0
   17.1202   21.9068    1.3759 H   0  0  0  0  0
   10.8743   27.4507    1.6595 H   0  0  0  0  0
  2  1  1  0  0  0
  1 15  1  0  0  0
  2  3  1  0  0  0
  4  2  1  0  0  0
  3 13  1  0  0  0
  4  5  1  0  0  0
 29  4  1  0  0  0
  5 16  2  0  0  0
  5 17  1  0  0  0
 29  6  4  0  0  0
  6 32  4  0  0  0
  6 33  1  0  0  0
  7 36  4  0  0  0
 37  7  4  0  0  0
  7 39  1  0  0  0
 30  8  4  0  0  0
  8 37  4  0  0  0
  9 10  4  0  0  0
 33  9  4  0  0  0
 10 11  4  0  0  0
 34 11  4  0  0  0
 11 35  1  0  0  0
 33 12  4  0  0  0
 12 34  4  0  0  0
 13 14  1  0  0  0
 15 14  1  0  0  0
 17 18  1  0  0  0
 18 19  1  0  0  0
 18 23  1  0  0  0
 19 20  1  0  0  0
 20 21  1  0  0  0
 22 21  1  0  0  0
 21 24  1  0  0  0
 23 22  1  0  0  0
 24 25  1  0  0  0
 25 26  2  0  0  0
 25 27  1  0  0  0
 25 28  2  0  0  0
 29 30  4  0  0  0
 30 31  4  0  0  0
 31 32  4  0  0  0
 31 36  4  0  0  0
 37 38  1  0  0  0
  1 40  1  0  0  0
  1 41  1  0  0  0
  2 42  1  0  0  0
  3 43  1  0  0  0
  3 44  1  0  0  0
  4 45  1  0  0  0
  8 46  1  0  0  0
  9 47  1  0  0  0
 10 48  1  0  0  0
 12 49  1  0  0  0
 13 50  1  0  0  0
 13 51  1  0  0  0
 14 52  1  0  0  0
 14 53  1  0  0  0
 15 54  1  0  0  0
 15 55  1  0  0  0
 17 56  1  0  0  0
 18 57  1  0  0  0
 19 58  1  0  0  0
 19 59  1  0  0  0
 20 60  1  0  0  0
 20 61  1  0  0  0
 21 62  1  0  0  0
 22 63  1  0  0  0
 22 64  1  0  0  0
 23 65  1  0  0  0
 23 66  1  0  0  0
 27 67  1  0  0  0
 34 68  1  0  0  0
 36 69  1  0  0  0
M  END
$$$$
