1yyy_ligand
  -I-interpret- 

 57 58  0  0  0  0  0  0  0  0999 V2000
   24.1170    5.6950   29.9690 S   0  0  0  0  0
   23.2240    6.1850   28.9230 O   0  0  0  0  0
   23.3720    4.9650   30.9930 O   0  0  0  0  0
   25.2070    4.6360   29.2610 N   0  0  0  0  0
   25.6080    3.3340   29.6730 C   0  0  0  0  0
   26.1630    3.3970   31.0710 C   0  0  0  0  0
   26.3840    2.0510   31.7140 C   0  0  0  0  0
   24.5160    2.2170   29.5080 C   0  0  0  0  0
   25.2270    1.0820   31.6160 C   0  0  0  0  0
   23.7770    2.4060   28.5310 O   0  0  0  0  0
   24.5500    1.1280   30.2950 N   0  0  0  0  0
   23.5560    0.0650   29.9410 C   0  0  0  0  0
   22.3610    0.9520   30.3660 C   0  0  0  0  0
   22.1550    1.3880   31.5460 O   0  0  0  0  0
   19.9660    2.0220   28.2830 C   0  0  0  0  0
   20.1020    2.0220   26.7530 C   0  0  0  0  0
   21.4210    0.2370   29.5930 N   0  0  0  0  0
   20.0270    0.4370   30.0990 C   0  0  0  0  0
   19.5200   -0.6460   31.0470 C   0  0  0  0  0
   18.0960   -0.5750   31.1730 O   0  0  0  0  0
   19.1230    0.8780   28.9040 C   0  0  0  0  0
   20.0210    3.8610   24.9590 C   0  0  0  0  0
   20.4800    3.3890   26.2550 N   0  0  0  0  0
   21.2770    4.2670   27.2060 C   0  0  0  0  0
   20.4380    4.6230   28.4460 C   0  0  0  0  0
   19.7210    3.3550   29.0270 C   0  0  0  0  0
   20.2210    5.1190   24.6300 N   0  0  0  0  0
   19.4280    2.9970   24.1840 N   0  0  0  0  0
   25.6491    4.9758   28.4069 H   0  0  0  0  0
   26.3918    3.0176   28.9848 H   0  0  0  0  0
   25.4325    3.9275   31.6818 H   0  0  0  0  0
   27.1356    3.8850   31.0076 H   0  0  0  0  0
   26.5422    2.2377   32.7762 H   0  0  0  0  0
   27.2194    1.5898   31.1872 H   0  0  0  0  0
   24.4957    1.3565   32.3762 H   0  0  0  0  0
   25.6213    0.0753   31.7547 H   0  0  0  0  0
   23.6619   -0.9212   30.3931 H   0  0  0  0  0
   23.5683   -0.3471   28.9320 H   0  0  0  0  0
   21.0168    1.8088   28.4790 H   0  0  0  0  0
   19.1457    1.7382   26.3136 H   0  0  0  0  0
   20.8807    1.3146   26.4678 H   0  0  0  0  0
   21.6619   -0.3436   28.7897 H   0  0  0  0  0
   19.9967    1.2635   30.8090 H   0  0  0  0  0
   19.9703   -0.4969   32.0284 H   0  0  0  0  0
   19.7920   -1.6227   30.6468 H   0  0  0  0  0
   17.7942   -1.2620   31.7718 H   0  0  0  0  0
   18.9002    0.0718   28.2051 H   0  0  0  0  0
   18.1224    1.1879   29.2054 H   0  0  0  0  0
   21.5529    5.1868   26.6902 H   0  0  0  0  0
   22.1669    3.7247   27.5255 H   0  0  0  0  0
   19.6794    5.3501   28.1564 H   0  0  0  0  0
   21.1007    5.0293   29.2101 H   0  0  0  0  0
   20.1194    3.2171   30.0322 H   0  0  0  0  0
   18.6516    3.5513   28.9501 H   0  0  0  0  0
   19.9051    5.4657   23.7242 H   0  0  0  0  0
   20.6920    5.7476   25.2807 H   0  0  0  0  0
   19.3025    2.0340   24.4959 H   0  0  0  0  0
  1  2  4  0  0  0
  1  3  4  0  0  0
  4  1  1  0  0  0
  5  4  1  0  0  0
  5  6  1  0  0  0
  8  5  1  0  0  0
  7  6  1  0  0  0
  9  7  1  0  0  0
  8 10  2  0  0  0
 11  8  1  0  0  0
 11  9  1  0  0  0
 12 11  1  0  0  0
 13 12  1  0  0  0
 13 14  2  0  0  0
 17 13  1  0  0  0
 15 16  1  0  0  0
 21 15  1  0  0  0
 15 26  1  0  0  0
 16 23  1  0  0  0
 18 17  1  0  0  0
 18 19  1  0  0  0
 18 21  1  0  0  0
 19 20  1  0  0  0
 23 22  1  0  0  0
 22 27  1  0  0  0
 22 28  2  0  0  0
 23 24  1  0  0  0
 24 25  1  0  0  0
 25 26  1  0  0  0
  4 29  1  0  0  0
  5 30  1  0  0  0
  6 31  1  0  0  0
  6 32  1  0  0  0
  7 33  1  0  0  0
  7 34  1  0  0  0
  9 35  1  0  0  0
  9 36  1  0  0  0
 12 37  1  0  0  0
 12 38  1  0  0  0
 15 39  1  0  0  0
 16 40  1  0  0  0
 16 41  1  0  0  0
 17 42  1  0  0  0
 18 43  1  0  0  0
 19 44  1  0  0  0
 19 45  1  0  0  0
 20 46  1  0  0  0
 21 47  1  0  0  0
 21 48  1  0  0  0
 24 49  1  0  0  0
 24 50  1  0  0  0
 25 51  1  0  0  0
 25 52  1  0  0  0
 26 53  1  0  0  0
 26 54  1  0  0  0
 27 55  1  0  0  0
 27 56  1  0  0  0
 28 57  1  0  0  0
M  END
$$$$
