5nt4_ligand
  -I-interpret- 

 40 43  0  0  0  0  0  0  0  0999 V2000
   -6.3410  -40.1090    6.2740 C   0  0  0  0  0
   -5.6790  -40.3600    4.9290 C   0  0  0  0  0
   -6.3470  -39.5310    3.9880 O   0  0  0  0  0
   -6.1360  -38.1170    4.2520 C   0  0  0  0  0
   -6.9260  -37.7390    5.5170 C   0  0  0  0  0
   -6.5730  -38.6770    6.6150 N   0  0  0  0  0
   -6.6190  -38.2920    7.8990 C   0  0  0  0  0
   -6.0850  -37.0720    8.3530 C   0  0  0  0  0
   -6.1700  -36.6990    9.6990 C   0  0  0  0  0
   -7.1920  -39.1430    8.8400 C   0  0  0  0  0
   -7.2690  -38.7790   10.1690 C   0  0  0  0  0
   -6.7970  -37.5460   10.6370 C   0  0  0  0  0
   -6.8140  -37.2430   12.0040 C   0  0  0  0  0
   -5.9880  -36.2960   12.4700 N   0  0  0  0  0
   -5.9170  -36.0060   13.7700 C   0  0  0  0  0
   -5.0460  -34.9950   14.1770 C   0  0  0  0  0
   -4.9370  -34.6530   15.5220 C   0  0  0  0  0
   -5.6630  -35.3610   16.4760 C   0  0  0  0  0
   -6.5480  -36.3850   16.0620 C   0  0  0  0  0
   -6.6760  -36.7030   14.7340 C   0  0  0  0  0
   -7.5610  -37.7020   14.2600 C   0  0  0  0  0
   -8.3400  -38.3170   14.9730 O   0  0  0  0  0
   -7.6030  -37.9430   12.9130 N   0  0  0  0  0
   -5.6648  -40.5039    7.0322 H   0  0  0  0  0
   -7.3223  -40.5816    6.2309 H   0  0  0  0  0
   -5.7557  -41.4100    4.6468 H   0  0  0  0  0
   -4.6152  -40.1259    4.9685 H   0  0  0  0  0
   -6.4796  -37.5231    3.4051 H   0  0  0  0  0
   -5.0746  -37.9186    4.4007 H   0  0  0  0  0
   -7.9947  -37.8023    5.3124 H   0  0  0  0  0
   -6.6757  -36.7202    5.8128 H   0  0  0  0  0
   -5.5960  -36.4050    7.6430 H   0  0  0  0  0
   -5.7490  -35.7478   10.0249 H   0  0  0  0  0
   -7.5848  -40.1091    8.5231 H   0  0  0  0  0
   -7.7130  -39.4759   10.8799 H   0  0  0  0  0
   -4.4456  -34.4683   13.4353 H   0  0  0  0  0
   -4.2857  -33.8340   15.8271 H   0  0  0  0  0
   -5.5505  -35.1282   17.5349 H   0  0  0  0  0
   -7.1333  -36.9260   16.8055 H   0  0  0  0  0
   -8.2358  -38.6620   12.5623 H   0  0  0  0  0
  1  2  1  0  0  0
  1  6  1  0  0  0
  2  3  1  0  0  0
  3  4  1  0  0  0
  4  5  1  0  0  0
  5  6  1  0  0  0
  6  7  1  0  0  0
  7  8  4  0  0  0
  7 10  4  0  0  0
  8  9  4  0  0  0
  9 12  4  0  0  0
 10 11  4  0  0  0
 11 12  4  0  0  0
 12 13  1  0  0  0
 13 14  2  0  0  0
 13 23  1  0  0  0
 14 15  1  0  0  0
 15 16  4  0  0  0
 15 20  4  0  0  0
 16 17  4  0  0  0
 17 18  4  0  0  0
 18 19  4  0  0  0
 19 20  4  0  0  0
 20 21  1  0  0  0
 21 22  2  0  0  0
 21 23  1  0  0  0
  1 24  1  0  0  0
  1 25  1  0  0  0
  2 26  1  0  0  0
  2 27  1  0  0  0
  4 28  1  0  0  0
  4 29  1  0  0  0
  5 30  1  0  0  0
  5 31  1  0  0  0
  8 32  1  0  0  0
  9 33  1  0  0  0
 10 34  1  0  0  0
 11 35  1  0  0  0
 16 36  1  0  0  0
 17 37  1  0  0  0
 18 38  1  0  0  0
 19 39  1  0  0  0
 23 40  1  0  0  0
M  END
$$$$
