### 
### Created by X-TOOL on Mon Sep 10 21:13:20 2018
### 

@<TRIPOS>MOLECULE
2mwp_ligand
  222   223     1     0     0
SMALL
GAST_HUCK


@<TRIPOS>ATOM
      1 N          46.7980  -15.2660   -3.1850 N.4       1 SER         0.2396
      2 CA         46.3830  -14.5800   -4.4410 C.3       1 SER         0.0885
      3 C          44.8580  -14.5620   -4.6000 C.2       1 SER         0.2291
      4 O          44.1550  -15.3120   -3.9210 O.2       1 SER        -0.3906
      5 CB         47.0460  -15.2330   -5.6660 C.3       1 SER         0.1041
      6 OG         48.4560  -15.2410   -5.4870 O.3       1 SER        -0.3870
      7 N          44.3240  -13.7160   -5.4910 N.am      1 THR        -0.2585
      8 CA         42.8760  -13.6230   -5.8010 C.3       1 THR         0.1566
      9 C          42.6130  -13.2630   -7.2750 C.2       1 THR         0.2065
     10 O          43.5510  -13.0550   -8.0540 O.2       1 THR        -0.3943
     11 CB         42.1820  -12.6300   -4.8470 C.3       1 THR         0.0924
     12 OG1        40.7830  -12.8310   -4.8990 O.3       1 THR        -0.3874
     13 CG2        42.4370  -11.1630   -5.1940 C.3       1 THR        -0.0346
     14 N          41.3310  -13.1670   -7.6450 N.am      1 SER        -0.2615
     15 CA         40.8370  -12.9980   -9.0230 C.3       1 SER         0.1539
     16 C          39.7160  -11.9480   -9.1510 C.2       1 SER         0.2062
     17 O          39.0370  -11.9080  -10.1770 O.2       1 SER        -0.3943
     18 CB         40.3380  -14.3570   -9.5360 C.3       1 SER         0.0843
     19 OG         41.3750  -15.3340   -9.5150 O.3       1 SER        -0.3903
     20 N          39.5050  -11.0990   -8.1260 N.am      1 ARG        -0.2637
     21 CA         38.3720  -10.1530   -8.0140 C.3       1 ARG         0.1311
     22 C          38.7920   -8.6900   -7.7900 C.2       1 ARG         0.2040
     23 O          39.9010   -8.3890   -7.3490 O.2       1 ARG        -0.3944
     24 CB         37.4180  -10.6240   -6.8990 C.3       1 ARG        -0.0092
     25 CG         36.4770  -11.7360   -7.3770 C.3       1 ARG        -0.0156
     26 CD         35.3650  -12.0310   -6.3570 C.3       1 ARG         0.0627
     27 NE         35.7120  -13.1130   -5.4170 N.pl3     1 ARG        -0.2723
     28 CZ         34.9960  -13.4880   -4.3700 C.cat     1 ARG         0.2882
     29 NH1        34.0030  -12.8130   -3.8820 N.pl3     1 ARG        -0.2849
     30 NH2        35.2510  -14.5910   -3.7540 N.pl3     1 ARG        -0.2849
     31 N          37.8630   -7.7880   -8.1200 N.am      1 HIS        -0.2625
     32 CA         38.0130   -6.3260   -8.0680 C.3       1 HIS         0.1369
     33 C          38.0050   -5.7280   -6.6450 C.2       1 HIS         0.2054
     34 O          37.7020   -6.4110   -5.6660 O.2       1 HIS        -0.3942
     35 CB         36.9060   -5.7110   -8.9410 C.3       1 HIS         0.0145
     36 CG         37.0930   -4.2460   -9.2500 C.2       1 HIS        -0.0027
     37 ND1        38.2910   -3.6390   -9.6320 N.2       1 HIS        -0.3252
     38 CD2        36.1470   -3.2830   -9.0810 C.2       1 HIS         0.0291
     39 CE1        38.0190   -2.3260   -9.7450 C.2       1 HIS         0.0907
     40 NE2        36.7380   -2.0840   -9.4160 N.pl3     1 HIS        -0.2752
     41 N          38.3010   -4.4210   -6.5840 N.am      1 LYS        -0.2636
     42 CA         38.3790   -3.4760   -5.4530 C.3       1 LYS         0.1310
     43 C          37.8480   -3.9560   -4.0890 C.2       1 LYS         0.2039
     44 O          38.6510   -4.1150   -3.1700 O.2       1 LYS        -0.3944
     45 CB         37.7580   -2.1510   -5.9430 C.3       1 LYS        -0.0122
     46 CG         37.7710   -1.0130   -4.9090 C.3       1 LYS        -0.0440
     47 CD         37.5070    0.3730   -5.5280 C.3       1 LYS        -0.0124
     48 CE         38.6200    0.9020   -6.4550 C.3       1 LYS        -0.0354
     49 NZ         39.8770    1.2340   -5.7180 N.4       1 LYS         0.2185
     50 N          36.5350   -4.1770   -3.9510 N.am      1 MLY        -0.2637
     51 CA         35.8940   -4.4620   -2.6530 C.3       1 MLY         0.1310
     52 CB         34.9430   -3.2950   -2.3530 C.3       1 MLY        -0.0122
     53 CG         34.4580   -3.2480   -0.8850 C.3       1 MLY        -0.0440
     54 CD         32.9290   -3.1350   -0.7800 C.3       1 MLY        -0.0123
     55 CE         32.1770   -4.4650   -0.9760 C.3       1 MLY        -0.0324
     56 NZ         30.7730   -4.2620   -1.4390 N.4       1 MLY         0.2309
     57 CH1        30.6110   -4.0990   -2.9110 C.3       1 MLY        -0.0433
     58 CH2        29.9440   -3.3060   -0.6500 C.3       1 MLY        -0.0433
     59 C          35.1430   -5.8030   -2.5960 C.2       1 MLY         0.2039
     60 O          35.0320   -6.4000   -1.5280 O.2       1 MLY        -0.3944
     61 N          34.6280   -6.2750   -3.7360 N.am      1 LEU        -0.2637
     62 CA         33.7760   -7.4670   -3.8660 C.3       1 LEU         0.1312
     63 C          34.5200   -8.8110   -3.7430 C.2       1 LEU         0.2039
     64 O          33.9730   -9.8830   -4.0010 O.2       1 LEU        -0.3944
     65 CB         32.8310   -7.3490   -5.0820 C.3       1 LEU        -0.0101
     66 CG         33.3940   -7.0340   -6.4720 C.3       1 LEU        -0.0425
     67 CD1        34.0190   -5.6460   -6.5740 C.3       1 LEU        -0.0625
     68 CD2        34.4200   -8.0570   -6.9320 C.3       1 LEU        -0.0625
     69 N          35.7780   -8.7710   -3.3060 N.am      1 MET        -0.2637
     70 CA         36.5420   -9.9330   -2.8390 C.3       1 MET         0.1317
     71 C          36.0950  -10.2460   -1.3840 C.2       1 MET         0.2040
     72 O          36.8840  -10.2820   -0.4390 O.2       1 MET        -0.3944
     73 CB         38.0400   -9.6350   -3.0220 C.3       1 MET        -0.0034
     74 CG         38.9390  -10.8730   -3.1800 C.3       1 MET        -0.0024
     75 SD         39.1810  -11.9770   -1.7580 S.3       1 MET        -0.1639
     76 CE         37.8790  -13.2080   -2.0500 C.3       1 MET        -0.0181
     77 N          34.7740  -10.3480   -1.1860 N.am      1 PHE        -0.2619
     78 CA         34.1250  -10.6980    0.0810 C.3       1 PHE         0.1404
     79 C          34.3280  -12.1860    0.4420 C.2       1 PHE         0.2060
     80 O          34.8500  -12.9700   -0.3580 O.2       1 PHE        -0.3942
     81 CB         32.6440  -10.2700    0.0280 C.3       1 PHE         0.0214
     82 CG         31.9060  -10.4670   -1.2870 C.ar      1 PHE        -0.0386
     83 CD1        31.6740  -11.7590   -1.7930 C.ar      1 PHE        -0.0601
     84 CD2        31.4460   -9.3500   -2.0100 C.ar      1 PHE        -0.0601
     85 CE1        31.0080  -11.9300   -3.0190 C.ar      1 PHE        -0.0686
     86 CE2        30.7900   -9.5160   -3.2450 C.ar      1 PHE        -0.0686
     87 CZ         30.5720  -10.8100   -3.7510 C.ar      1 PHE        -0.0687
     88 N          33.9380  -12.5730    1.6700 N.am      1 LYS        -0.2636
     89 CA         34.2370  -13.8900    2.2730 C.3       1 LYS         0.1309
     90 C          33.8430  -15.0980    1.4050 C.2       1 LYS         0.2034
     91 O          34.5800  -16.0880    1.3780 O.2       1 LYS        -0.3944
     92 CB         33.5790  -13.9990    3.6610 C.3       1 LYS        -0.0122
     93 CG         34.1970  -13.0400    4.6930 C.3       1 LYS        -0.0440
     94 CD         33.5410  -13.2230    6.0720 C.3       1 LYS        -0.0124
     95 CE         34.0930  -12.2590    7.1330 C.3       1 LYS        -0.0354
     96 NZ         35.4950  -12.5810    7.5350 N.4       1 LYS         0.2185
     97 N          32.7110  -15.0110    0.6990 N.am      1 THR        -0.2670
     98 CA         32.2870  -15.9690   -0.3440 C.3       1 THR         0.1198
     99 C          33.0900  -15.7460   -1.6290 C.2       1 THR         0.0626
    100 O          32.8550  -14.7410   -2.3310 O.co2     1 THR        -0.5665
    101 CB         30.7870  -15.8540   -0.6340 C.3       1 THR         0.0869
    102 OG1        30.0730  -16.0140    0.5790 O.3       1 THR        -0.3880
    103 CG2        30.3050  -16.9390   -1.6030 C.3       1 THR        -0.0352
    104 OXT        33.9940  -16.5510   -1.9460 O.co2     1 THR        -0.5665
    105 H          47.8035  -15.2585   -3.1146 H         1 SER         0.2016
    106 H          46.4692  -16.2188   -3.1981 H         1 SER         0.2016
    107 H          46.4021  -14.7847   -2.3927 H         1 SER         0.2016
    108 H          46.7279  -13.5371   -4.3836 H         1 SER         0.1122
    109 H          46.7934  -14.6596   -6.5701 H         1 SER         0.0640
    110 H          46.6832  -16.2659   -5.7735 H         1 SER         0.0640
    111 H          48.8677  -15.6439   -6.2424 H         1 SER         0.2099
    112 H          44.9448  -13.1044   -5.9815 H         1 THR         0.1885
    113 H          42.4371  -14.6161   -5.6246 H         1 THR         0.0826
    114 H          42.5453  -12.8202   -3.8263 H         1 THR         0.0639
    115 H          40.3543  -12.2197   -4.3116 H         1 THR         0.2101
    116 H          41.9122  -10.5191   -4.4729 H         1 THR         0.0257
    117 H          42.0653  -10.9562   -6.2084 H         1 THR         0.0257
    118 H          43.5169  -10.9582   -5.1503 H         1 THR         0.0257
    119 H          40.6445  -13.2143   -6.9194 H         1 SER         0.1884
    120 H          41.6794  -12.6698   -9.6496 H         1 SER         0.0823
    121 H          39.9782  -14.2394  -10.5688 H         1 SER         0.0606
    122 H          39.5111  -14.6992   -8.8964 H         1 SER         0.0606
    123 H          41.0360  -16.1609   -9.8370 H         1 SER         0.2097
    124 H          40.1693  -11.1089   -7.3786 H         1 ARG         0.1883
    125 H          37.8229  -10.1876   -8.9665 H         1 ARG         0.0800
    126 H          36.8140   -9.7680   -6.5638 H         1 ARG         0.0313
    127 H          38.0160  -11.0029   -6.0571 H         1 ARG         0.0313
    128 H          37.0636  -12.6526   -7.5371 H         1 ARG         0.0301
    129 H          36.0148  -11.4260   -8.3258 H         1 ARG         0.0301
    130 H          34.4562  -12.3215   -6.9045 H         1 ARG         0.0689
    131 H          35.1683  -11.1157   -5.7795 H         1 ARG         0.0689
    132 H          36.5903  -13.6221   -5.5913 H         1 ARG         0.2642
    133 H          33.4913  -13.1696   -3.0623 H         1 ARG         0.2615
    134 H          33.7256  -11.9200   -4.3139 H         1 ARG         0.2615
    135 H          36.0239  -15.1924   -4.0732 H         1 ARG         0.2615
    136 H          34.6819  -14.8711   -2.9425 H         1 ARG         0.2615
    137 H          36.9811   -8.1410   -8.4323 H         1 HIS         0.1885
    138 H          38.9858   -6.0745   -8.5157 H         1 HIS         0.0817
    139 H          35.9473   -5.8314   -8.4152 H         1 HIS         0.0420
    140 H          36.8738   -6.2613   -9.8929 H         1 HIS         0.0420
    141 H          35.1214   -3.4310   -8.7459 H         1 HIS         0.0729
    142 H          38.7346   -1.5673  -10.0584 H         1 HIS         0.1199
    143 H          36.2782   -1.1623   -9.4146 H         1 HIS         0.2361
    144 H          38.5077   -4.0097   -7.4718 H         1 LYS         0.1883
    145 H          39.4492   -3.2845   -5.2858 H         1 LYS         0.0800
    146 H          36.7126   -2.3461   -6.2243 H         1 LYS         0.0312
    147 H          38.3194   -1.8162   -6.8277 H         1 LYS         0.0312
    148 H          38.7565   -0.9957   -4.4206 H         1 LYS         0.0269
    149 H          36.9930   -1.2142   -4.1579 H         1 LYS         0.0269
    150 H          37.3776    1.0932   -4.7067 H         1 LYS         0.0317
    151 H          36.5773    0.3128   -6.1129 H         1 LYS         0.0317
    152 H          38.2568    1.8105   -6.9577 H         1 LYS         0.0813
    153 H          38.8464    0.1322   -7.2074 H         1 LYS         0.0813
    154 H          40.5681    1.5736   -6.3685 H         1 LYS         0.1994
    155 H          40.2256    0.4072   -5.2587 H         1 LYS         0.1994
    156 H          39.6852    1.9451   -5.0298 H         1 LYS         0.1994
    157 H          35.9598   -4.1475   -4.7685 H         1 MLY         0.1883
    158 H          36.6783   -4.4899   -1.8822 H         1 MLY         0.0800
    159 H          34.0630   -3.3877   -3.0064 H         1 MLY         0.0312
    160 H          35.4674   -2.3540   -2.5755 H         1 MLY         0.0312
    161 H          34.9120   -2.3769   -0.3900 H         1 MLY         0.0269
    162 H          34.7805   -4.1683   -0.3761 H         1 MLY         0.0269
    163 H          32.5828   -2.4278   -1.5482 H         1 MLY         0.0317
    164 H          32.6808   -2.7434    0.2175 H         1 MLY         0.0317
    165 H          32.1583   -5.0048   -0.0177 H         1 MLY         0.0814
    166 H          32.7125   -5.0665   -1.7253 H         1 MLY         0.0814
    167 H          30.3420   -5.1535   -1.2504 H         1 MLY         0.2028
    168 H          29.5466   -3.9562   -3.1491 H         1 MLY         0.0777
    169 H          30.9837   -4.9985   -3.4228 H         1 MLY         0.0777
    170 H          31.1829   -3.2219   -3.2480 H         1 MLY         0.0777
    171 H          30.1086   -3.4778    0.4240 H         1 MLY         0.0777
    172 H          28.8810   -3.4600   -0.8872 H         1 MLY         0.0777
    173 H          30.2309   -2.2751   -0.9046 H         1 MLY         0.0777
    174 H          34.8409   -5.7733   -4.5744 H         1 LEU         0.1883
    175 H          33.1139   -7.4419   -2.9879 H         1 LEU         0.0800
    176 H          32.1097   -6.5529   -4.8455 H         1 LEU         0.0315
    177 H          32.3023   -8.3099   -5.1657 H         1 LEU         0.0315
    178 H          32.5471   -7.0695   -7.1731 H         1 LEU         0.0298
    179 H          34.4002   -5.4896   -7.5939 H         1 LEU         0.0232
    180 H          34.8483   -5.5636   -5.8560 H         1 LEU         0.0232
    181 H          33.2592   -4.8840   -6.3457 H         1 LEU         0.0232
    182 H          33.9870   -9.0660   -6.8655 H         1 LEU         0.0232
    183 H          35.3109   -7.9973   -6.2895 H         1 LEU         0.0232
    184 H          34.7045   -7.8481   -7.9738 H         1 LEU         0.0232
    185 H          36.2358   -7.8820   -3.2956 H         1 MET         0.1883
    186 H          36.2948  -10.8048   -3.4626 H         1 MET         0.0800
    187 H          38.3855   -9.0737   -2.1414 H         1 MET         0.0320
    188 H          38.1559   -9.0131   -3.9219 H         1 MET         0.0320
    189 H          39.9338  -10.5121   -3.4800 H         1 MET         0.0378
    190 H          38.5098  -11.4811   -3.9900 H         1 MET         0.0378
    191 H          37.9013  -13.9621   -1.2495 H         1 MET         0.0340
    192 H          38.0485  -13.6980   -3.0201 H         1 MET         0.0340
    193 H          36.8983  -12.7098   -2.0572 H         1 MET         0.0340
    194 H          34.1794  -10.1700   -1.9701 H         1 PHE         0.1885
    195 H          34.6070  -10.1101    0.8760 H         1 PHE         0.0823
    196 H          32.6010   -9.1986    0.2733 H         1 PHE         0.0474
    197 H          32.1067  -10.8441    0.7972 H         1 PHE         0.0474
    198 H          32.0100  -12.6258   -1.2354 H         1 PHE         0.0557
    199 H          31.5982   -8.3531   -1.6124 H         1 PHE         0.0557
    200 H          30.8296  -12.9283   -3.4020 H         1 PHE         0.0599
    201 H          30.4543   -8.6497   -3.8035 H         1 PHE         0.0599
    202 H          30.0696  -10.9442   -4.7021 H         1 PHE         0.0559
    203 H          33.4076  -11.9232    2.2145 H         1 LYS         0.1883
    204 H          35.3270  -13.9380    2.4125 H         1 LYS         0.0800
    205 H          33.6968  -15.0302    4.0254 H         1 LYS         0.0312
    206 H          32.5087  -13.7653    3.5615 H         1 LYS         0.0312
    207 H          34.0465  -12.0034    4.3571 H         1 LYS         0.0269
    208 H          35.2744  -13.2458    4.7763 H         1 LYS         0.0269
    209 H          33.7180  -14.2547    6.4101 H         1 LYS         0.0317
    210 H          32.4593  -13.0507    5.9711 H         1 LYS         0.0317
    211 H          33.4508  -12.3126    8.0245 H         1 LYS         0.0813
    212 H          34.0702  -11.2375    6.7255 H         1 LYS         0.0813
    213 H          35.8054  -11.9201    8.2299 H         1 LYS         0.1994
    214 H          36.0967  -12.5275    6.7280 H         1 LYS         0.1994
    215 H          35.5291  -13.5126    7.9184 H         1 LYS         0.1994
    216 H          32.1050  -14.2391    0.8911 H         1 THR         0.1876
    217 H          32.4899  -16.9865    0.0214 H         1 THR         0.0752
    218 H          30.5788  -14.8633   -1.0643 H         1 THR         0.0632
    219 H          29.1411  -15.9440    0.4082 H         1 THR         0.2100
    220 H          29.2264  -16.8181   -1.7817 H         1 THR         0.0256
    221 H          30.4955  -17.9308   -1.1671 H         1 THR         0.0256
    222 H          30.8471  -16.8469   -2.5557 H         1 THR         0.0256
@<TRIPOS>BOND
     1    1    2 1  
     2    2    3 1  
     3    2    5 1  
     4    3    4 2  
     5    3    7 am 
     6    5    6 1  
     7    7    8 1  
     8    8    9 1  
     9    8   11 1  
    10    9   10 2  
    11    9   14 am 
    12   11   12 1  
    13   11   13 1  
    14   14   15 1  
    15   15   16 1  
    16   15   18 1  
    17   16   17 2  
    18   16   20 am 
    19   18   19 1  
    20   20   21 1  
    21   21   22 1  
    22   21   24 1  
    23   22   23 2  
    24   22   31 am 
    25   24   25 1  
    26   25   26 1  
    27   26   27 1  
    28   27   28 ar 
    29   28   29 ar 
    30   28   30 ar 
    31   31   32 1  
    32   32   33 1  
    33   32   35 1  
    34   33   34 2  
    35   33   41 am 
    36   35   36 1  
    37   36   37 1  
    38   36   38 2  
    39   37   39 2  
    40   38   40 1  
    41   39   40 1  
    42   41   42 1  
    43   42   43 1  
    44   42   45 1  
    45   43   44 2  
    46   43   50 am 
    47   45   46 1  
    48   46   47 1  
    49   47   48 1  
    50   48   49 1  
    51   50   51 1  
    52   51   52 1  
    53   51   59 1  
    54   52   53 1  
    55   53   54 1  
    56   54   55 1  
    57   55   56 1  
    58   56   57 1  
    59   56   58 1  
    60   59   60 2  
    61   59   61 am 
    62   61   62 1  
    63   62   63 1  
    64   62   65 1  
    65   63   64 2  
    66   63   69 am 
    67   65   66 1  
    68   66   67 1  
    69   66   68 1  
    70   69   70 1  
    71   70   71 1  
    72   70   73 1  
    73   71   72 2  
    74   71   77 am 
    75   73   74 1  
    76   74   75 1  
    77   75   76 1  
    78   77   78 1  
    79   78   79 1  
    80   78   81 1  
    81   79   80 2  
    82   79   88 am 
    83   81   82 1  
    84   82   83 ar 
    85   82   84 ar 
    86   83   85 ar 
    87   84   86 ar 
    88   85   87 ar 
    89   86   87 ar 
    90   88   89 1  
    91   89   90 1  
    92   89   92 1  
    93   90   91 2  
    94   90   97 am 
    95   92   93 1  
    96   93   94 1  
    97   94   95 1  
    98   95   96 1  
    99   97   98 1  
   100   98   99 1  
   101   98  101 1  
   102   99  100 ar 
   103   99  104 ar 
   104  101  102 1  
   105  101  103 1  
   106    1  105 1  
   107    1  106 1  
   108    1  107 1  
   109    2  108 1  
   110    5  109 1  
   111    5  110 1  
   112    6  111 1  
   113    7  112 1  
   114    8  113 1  
   115   11  114 1  
   116   12  115 1  
   117   13  116 1  
   118   13  117 1  
   119   13  118 1  
   120   14  119 1  
   121   15  120 1  
   122   18  121 1  
   123   18  122 1  
   124   19  123 1  
   125   20  124 1  
   126   21  125 1  
   127   24  126 1  
   128   24  127 1  
   129   25  128 1  
   130   25  129 1  
   131   26  130 1  
   132   26  131 1  
   133   27  132 1  
   134   29  133 1  
   135   29  134 1  
   136   30  135 1  
   137   30  136 1  
   138   31  137 1  
   139   32  138 1  
   140   35  139 1  
   141   35  140 1  
   142   38  141 1  
   143   39  142 1  
   144   40  143 1  
   145   41  144 1  
   146   42  145 1  
   147   45  146 1  
   148   45  147 1  
   149   46  148 1  
   150   46  149 1  
   151   47  150 1  
   152   47  151 1  
   153   48  152 1  
   154   48  153 1  
   155   49  154 1  
   156   49  155 1  
   157   49  156 1  
   158   50  157 1  
   159   51  158 1  
   160   52  159 1  
   161   52  160 1  
   162   53  161 1  
   163   53  162 1  
   164   54  163 1  
   165   54  164 1  
   166   55  165 1  
   167   55  166 1  
   168   56  167 1  
   169   57  168 1  
   170   57  169 1  
   171   57  170 1  
   172   58  171 1  
   173   58  172 1  
   174   58  173 1  
   175   61  174 1  
   176   62  175 1  
   177   65  176 1  
   178   65  177 1  
   179   66  178 1  
   180   67  179 1  
   181   67  180 1  
   182   67  181 1  
   183   68  182 1  
   184   68  183 1  
   185   68  184 1  
   186   69  185 1  
   187   70  186 1  
   188   73  187 1  
   189   73  188 1  
   190   74  189 1  
   191   74  190 1  
   192   76  191 1  
   193   76  192 1  
   194   76  193 1  
   195   77  194 1  
   196   78  195 1  
   197   81  196 1  
   198   81  197 1  
   199   83  198 1  
   200   84  199 1  
   201   85  200 1  
   202   86  201 1  
   203   87  202 1  
   204   88  203 1  
   205   89  204 1  
   206   92  205 1  
   207   92  206 1  
   208   93  207 1  
   209   93  208 1  
   210   94  209 1  
   211   94  210 1  
   212   95  211 1  
   213   95  212 1  
   214   96  213 1  
   215   96  214 1  
   216   96  215 1  
   217   97  216 1  
   218   98  217 1  
   219  101  218 1  
   220  102  219 1  
   221  103  220 1  
   222  103  221 1  
   223  103  222 1  
@<TRIPOS>SUBSTRUCTURE
     1 SER         1

