2mwp_ligand
  -I-interpret- 

221222  0  0  0  0  0  0  0  0999 V2000
   46.7980  -15.2660   -3.1850 N   0  3  0  0  0
   46.3830  -14.5800   -4.4410 C   0  0  0  0  0
   44.8580  -14.5620   -4.6000 C   0  0  0  0  0
   44.1550  -15.3120   -3.9210 O   0  0  0  0  0
   47.0460  -15.2330   -5.6660 C   0  0  0  0  0
   48.4560  -15.2410   -5.4870 O   0  0  0  0  0
   44.3240  -13.7160   -5.4910 N   0  0  0  0  0
   42.8760  -13.6230   -5.8010 C   0  0  0  0  0
   42.6130  -13.2630   -7.2750 C   0  0  0  0  0
   43.5510  -13.0550   -8.0540 O   0  0  0  0  0
   42.1820  -12.6300   -4.8470 C   0  0  0  0  0
   40.7830  -12.8310   -4.8990 O   0  0  0  0  0
   42.4370  -11.1630   -5.1940 C   0  0  0  0  0
   41.3310  -13.1670   -7.6450 N   0  0  0  0  0
   40.8370  -12.9980   -9.0230 C   0  0  0  0  0
   39.7160  -11.9480   -9.1510 C   0  0  0  0  0
   39.0370  -11.9080  -10.1770 O   0  0  0  0  0
   40.3380  -14.3570   -9.5360 C   0  0  0  0  0
   41.3750  -15.3340   -9.5150 O   0  0  0  0  0
   39.5050  -11.0990   -8.1260 N   0  0  0  0  0
   38.3720  -10.1530   -8.0140 C   0  0  0  0  0
   38.7920   -8.6900   -7.7900 C   0  0  0  0  0
   39.9010   -8.3890   -7.3490 O   0  0  0  0  0
   37.4180  -10.6240   -6.8990 C   0  0  0  0  0
   36.4770  -11.7360   -7.3770 C   0  0  0  0  0
   35.3650  -12.0310   -6.3570 C   0  0  0  0  0
   35.7120  -13.1130   -5.4170 N   0  0  0  0  0
   34.9960  -13.4880   -4.3700 C   0  0  0  0  0
   34.0030  -12.8130   -3.8820 N   0  0  0  0  0
   35.2510  -14.5910   -3.7540 N   0  0  0  0  0
   37.8630   -7.7880   -8.1200 N   0  0  0  0  0
   38.0130   -6.3260   -8.0680 C   0  0  0  0  0
   38.0050   -5.7280   -6.6450 C   0  0  0  0  0
   37.7020   -6.4110   -5.6660 O   0  0  0  0  0
   36.9060   -5.7110   -8.9410 C   0  0  0  0  0
   37.0930   -4.2460   -9.2500 C   0  0  0  0  0
   38.2910   -3.6390   -9.6320 N   0  0  0  0  0
   36.1470   -3.2830   -9.0810 C   0  0  0  0  0
   38.0190   -2.3260   -9.7450 C   0  0  0  0  0
   36.7380   -2.0840   -9.4160 N   0  0  0  0  0
   38.3010   -4.4210   -6.5840 N   0  0  0  0  0
   38.3790   -3.4760   -5.4530 C   0  0  0  0  0
   37.8480   -3.9560   -4.0890 C   0  0  0  0  0
   38.6510   -4.1150   -3.1700 O   0  0  0  0  0
   37.7580   -2.1510   -5.9430 C   0  0  0  0  0
   37.7710   -1.0130   -4.9090 C   0  0  0  0  0
   37.5070    0.3730   -5.5280 C   0  0  0  0  0
   38.6200    0.9020   -6.4550 C   0  0  0  0  0
   39.8770    1.2340   -5.7180 N   0  3  0  0  0
   36.5350   -4.1770   -3.9510 N   0  0  0  0  0
   35.8940   -4.4620   -2.6530 C   0  0  0  0  0
   34.9430   -3.2950   -2.3530 C   0  0  0  0  0
   34.4580   -3.2480   -0.8850 C   0  0  0  0  0
   32.9290   -3.1350   -0.7800 C   0  0  0  0  0
   32.1770   -4.4650   -0.9760 C   0  0  0  0  0
   30.7730   -4.2620   -1.4390 N   0  3  0  0  0
   30.6110   -4.0990   -2.9110 C   0  0  0  0  0
   29.9440   -3.3060   -0.6500 C   0  0  0  0  0
   35.1430   -5.8030   -2.5960 C   0  0  0  0  0
   35.0320   -6.4000   -1.5280 O   0  0  0  0  0
   34.6280   -6.2750   -3.7360 N   0  0  0  0  0
   33.7760   -7.4670   -3.8660 C   0  0  0  0  0
   34.5200   -8.8110   -3.7430 C   0  0  0  0  0
   33.9730   -9.8830   -4.0010 O   0  0  0  0  0
   32.8310   -7.3490   -5.0820 C   0  0  0  0  0
   33.3940   -7.0340   -6.4720 C   0  0  0  0  0
   34.0190   -5.6460   -6.5740 C   0  0  0  0  0
   34.4200   -8.0570   -6.9320 C   0  0  0  0  0
   35.7780   -8.7710   -3.3060 N   0  0  0  0  0
   36.5420   -9.9330   -2.8390 C   0  0  0  0  0
   36.0950  -10.2460   -1.3840 C   0  0  0  0  0
   36.8840  -10.2820   -0.4390 O   0  0  0  0  0
   38.0400   -9.6350   -3.0220 C   0  0  0  0  0
   38.9390  -10.8730   -3.1800 C   0  0  0  0  0
   39.1810  -11.9770   -1.7580 S   0  0  0  0  0
   37.8790  -13.2080   -2.0500 C   0  0  0  0  0
   34.7740  -10.3480   -1.1860 N   0  0  0  0  0
   34.1250  -10.6980    0.0810 C   0  0  0  0  0
   34.3280  -12.1860    0.4420 C   0  0  0  0  0
   34.8500  -12.9700   -0.3580 O   0  0  0  0  0
   32.6440  -10.2700    0.0280 C   0  0  0  0  0
   31.9060  -10.4670   -1.2870 C   0  0  0  0  0
   31.6740  -11.7590   -1.7930 C   0  0  0  0  0
   31.4460   -9.3500   -2.0100 C   0  0  0  0  0
   31.0080  -11.9300   -3.0190 C   0  0  0  0  0
   30.7900   -9.5160   -3.2450 C   0  0  0  0  0
   30.5720  -10.8100   -3.7510 C   0  0  0  0  0
   33.9380  -12.5730    1.6700 N   0  0  0  0  0
   34.2370  -13.8900    2.2730 C   0  0  0  0  0
   33.8430  -15.0980    1.4050 C   0  0  0  0  0
   34.5800  -16.0880    1.3780 O   0  0  0  0  0
   33.5790  -13.9990    3.6610 C   0  0  0  0  0
   34.1970  -13.0400    4.6930 C   0  0  0  0  0
   33.5410  -13.2230    6.0720 C   0  0  0  0  0
   34.0930  -12.2590    7.1330 C   0  0  0  0  0
   35.4950  -12.5810    7.5350 N   0  3  0  0  0
   32.7110  -15.0110    0.6990 N   0  0  0  0  0
   32.2870  -15.9690   -0.3440 C   0  0  0  0  0
   33.0900  -15.7460   -1.6290 C   0  0  0  0  0
   32.8550  -14.7410   -2.3310 O   0  0  0  0  0
   30.7870  -15.8540   -0.6340 C   0  0  0  0  0
   30.0730  -16.0140    0.5790 O   0  0  0  0  0
   30.3050  -16.9390   -1.6030 C   0  0  0  0  0
   33.9940  -16.5510   -1.9460 O   0  0  0  0  0
   46.3467  -14.8164   -2.3884 H   0  0  0  0  0
   46.5194  -16.2463   -3.2264 H   0  0  0  0  0
   47.8110  -15.2032   -3.0834 H   0  0  0  0  0
   46.7206  -13.5458   -4.3734 H   0  0  0  0  0
   46.7948  -14.6666   -6.5627 H   0  0  0  0  0
   46.6857  -16.2560   -5.7745 H   0  0  0  0  0
   48.8720  -15.6481   -6.2504 H   0  0  0  0  0
   44.9572  -13.0921   -5.9913 H   0  0  0  0  0
   42.4452  -14.6118   -5.6438 H   0  0  0  0  0
   42.5990  -12.8242   -3.8588 H   0  0  0  0  0
   40.3498  -12.2133   -4.3054 H   0  0  0  0  0
   42.0547  -10.9556   -6.1935 H   0  0  0  0  0
   41.9289  -10.5261   -4.4699 H   0  0  0  0  0
   43.5085  -10.9651   -5.1651 H   0  0  0  0  0
   40.6308  -13.2152   -6.9049 H   0  0  0  0  0
   41.6683  -12.6290   -9.6237 H   0  0  0  0  0
   39.9985  -14.2350  -10.5646 H   0  0  0  0  0
   39.5301  -14.6961   -8.8876 H   0  0  0  0  0
   41.0324  -16.1697   -9.8404 H   0  0  0  0  0
   40.1826  -11.1091   -7.3637 H   0  0  0  0  0
   37.8626  -10.1606   -8.9776 H   0  0  0  0  0
   36.8102   -9.7737   -6.5898 H   0  0  0  0  0
   38.0201  -11.0169   -6.0797 H   0  0  0  0  0
   37.0646  -12.6441   -7.5115 H   0  0  0  0  0
   36.0087  -11.4093   -8.3055 H   0  0  0  0  0
   34.4819  -12.3464   -6.9127 H   0  0  0  0  0
   35.2033  -11.1250   -5.7730 H   0  0  0  0  0
   36.5817  -13.6172   -5.5896 H   0  0  0  0  0
   33.4938  -13.1680   -3.0726 H   0  0  0  0  0
   33.7307  -11.9268   -4.3073 H   0  0  0  0  0
   36.0140  -15.1884   -4.0724 H   0  0  0  0  0
   36.9634   -8.1481   -8.4386 H   0  0  0  0  0
   39.0033   -6.0782   -8.4500 H   0  0  0  0  0
   35.9733   -5.8028   -8.3844 H   0  0  0  0  0
   36.9191   -6.2417   -9.8930 H   0  0  0  0  0
   35.1205   -3.4311   -8.7456 H   0  0  0  0  0
   38.7353   -1.5666  -10.0586 H   0  0  0  0  0
   38.5118   -4.0014   -7.4895 H   0  0  0  0  0
   39.4303   -3.3534   -5.1923 H   0  0  0  0  0
   36.7129   -2.3572   -6.1742 H   0  0  0  0  0
   38.3552   -1.8156   -6.7909 H   0  0  0  0  0
   38.7624   -0.9892   -4.4567 H   0  0  0  0  0
   36.9756   -1.2107   -4.1905 H   0  0  0  0  0
   37.4303    1.0762   -4.6987 H   0  0  0  0  0
   36.6102    0.2764   -6.1399 H   0  0  0  0  0
   38.2570    1.8159   -6.9252 H   0  0  0  0  0
   38.8529    0.1199   -7.1776 H   0  0  0  0  0
   40.5755    1.5775   -6.3771 H   0  0  0  0  0
   39.6817    1.9536   -5.0220 H   0  0  0  0  0
   40.2287    0.3967   -5.2536 H   0  0  0  0  0
   35.9483   -4.1469   -4.7849 H   0  0  0  0  0
   36.6769   -4.5568   -1.9005 H   0  0  0  0  0
   34.0625   -3.4226   -2.9827 H   0  0  0  0  0
   35.4900   -2.3719   -2.5447 H   0  0  0  0  0
   34.8956   -2.3689   -0.4120 H   0  0  0  0  0
   34.7631   -4.1742   -0.3980 H   0  0  0  0  0
   32.6029   -2.4634   -1.5741 H   0  0  0  0  0
   32.7028   -2.7853    0.2273 H   0  0  0  0  0
   32.1442   -4.9786   -0.0151 H   0  0  0  0  0
   32.7032   -5.0408   -1.7374 H   0  0  0  0  0
   30.3646   -5.1705   -1.2192 H   0  0  0  0  0
   31.1782   -3.2297   -3.2436 H   0  0  0  0  0
   30.9807   -4.9909   -3.4169 H   0  0  0  0  0
   29.5560   -3.9576   -3.1457 H   0  0  0  0  0
   29.8712   -3.6546    0.3802 H   0  0  0  0  0
   30.4102   -2.3209   -0.6695 H   0  0  0  0  0
   28.9468   -3.2461   -1.0860 H   0  0  0  0  0
   34.8451   -5.7632   -4.5912 H   0  0  0  0  0
   33.1351   -7.4879   -2.9846 H   0  0  0  0  0
   32.1959   -6.4945   -4.8482 H   0  0  0  0  0
   32.3987   -8.3443   -5.1853 H   0  0  0  0  0
   32.5224   -7.0720   -7.1254 H   0  0  0  0  0
   33.2652   -4.8920   -6.3475 H   0  0  0  0  0
   34.8405   -5.5656   -5.8621 H   0  0  0  0  0
   34.3963   -5.4922   -7.5850 H   0  0  0  0  0
   35.2528   -8.0758   -6.2290 H   0  0  0  0  0
   33.9555   -9.0422   -6.9735 H   0  0  0  0  0
   34.7848   -7.7839   -7.9222 H   0  0  0  0  0
   36.2450   -7.8642   -3.2954 H   0  0  0  0  0
   36.3511  -10.8385   -3.4150 H   0  0  0  0  0
   38.3698   -9.1218   -2.1187 H   0  0  0  0  0
   38.1346   -9.0597   -3.9430 H   0  0  0  0  0
   39.9299  -10.4735   -3.3959 H   0  0  0  0  0
   38.4400  -11.4873   -3.9294 H   0  0  0  0  0
   36.9078  -12.7131   -2.0569 H   0  0  0  0  0
   38.0481  -13.6927   -3.0115 H   0  0  0  0  0
   37.9021  -13.9546   -1.2562 H   0  0  0  0  0
   34.1675  -10.1665   -1.9858 H   0  0  0  0  0
   34.5980  -10.1500    0.8959 H   0  0  0  0  0
   32.6415   -9.1951    0.2089 H   0  0  0  0  0
   32.1290  -10.9012    0.7521 H   0  0  0  0  0
   32.0119  -12.6306   -1.2324 H   0  0  0  0  0
   31.5990   -8.3476   -1.6102 H   0  0  0  0  0
   30.8286  -12.9338   -3.4041 H   0  0  0  0  0
   30.4525   -8.6449   -3.8066 H   0  0  0  0  0
   30.0668  -10.9450   -4.7074 H   0  0  0  0  0
   33.3970  -11.9102    2.2254 H   0  0  0  0  0
   35.3227  -13.9325    2.3594 H   0  0  0  0  0
   33.7280  -15.0169    4.0212 H   0  0  0  0  0
   32.5264  -13.7377    3.5520 H   0  0  0  0  0
   34.0349  -12.0147    4.3605 H   0  0  0  0  0
   35.2619  -13.2561    4.7794 H   0  0  0  0  0
   33.7498  -14.2392    6.4064 H   0  0  0  0  0
   32.4756  -13.0205    5.9620 H   0  0  0  0  0
   33.4642  -12.3429    8.0194 H   0  0  0  0  0
   34.0904  -11.2561    6.7061 H   0  0  0  0  0
   35.8080  -11.9117    8.2382 H   0  0  0  0  0
   35.5282  -13.5239    7.9227 H   0  0  0  0  0
   36.1028  -12.5266    6.7177 H   0  0  0  0  0
   32.0928  -14.2237    0.8949 H   0  0  0  0  0
   32.4814  -16.9744    0.0295 H   0  0  0  0  0
   30.6120  -14.8770   -1.0846 H   0  0  0  0  0
   29.1313  -15.9433    0.4064 H   0  0  0  0  0
   30.8429  -16.8467   -2.5465 H   0  0  0  0  0
   30.4944  -17.9212   -1.1700 H   0  0  0  0  0
   29.2362  -16.8181   -1.7793 H   0  0  0  0  0
   34.0333  -17.2578   -1.2976 H   0  0  0  0  0
  1  2  1  0  0  0
  2  3  1  0  0  0
  2  5  1  0  0  0
  3  4  2  0  0  0
  3  7  1  0  0  0
  5  6  1  0  0  0
  7  8  1  0  0  0
  8  9  1  0  0  0
  8 11  1  0  0  0
  9 10  2  0  0  0
  9 14  1  0  0  0
 11 12  1  0  0  0
 11 13  1  0  0  0
 14 15  1  0  0  0
 15 16  1  0  0  0
 15 18  1  0  0  0
 16 17  2  0  0  0
 16 20  1  0  0  0
 18 19  1  0  0  0
 20 21  1  0  0  0
 21 22  1  0  0  0
 21 24  1  0  0  0
 22 23  2  0  0  0
 22 31  1  0  0  0
 24 25  1  0  0  0
 25 26  1  0  0  0
 26 27  1  0  0  0
 27 28  1  0  0  0
 28 29  1  0  0  0
 28 30  2  0  0  0
 31 32  1  0  0  0
 32 33  1  0  0  0
 32 35  1  0  0  0
 33 34  2  0  0  0
 33 41  1  0  0  0
 35 36  1  0  0  0
 36 37  4  0  0  0
 36 38  4  0  0  0
 37 39  4  0  0  0
 38 40  4  0  0  0
 39 40  4  0  0  0
 41 42  1  0  0  0
 42 43  1  0  0  0
 42 45  1  0  0  0
 43 44  2  0  0  0
 43 50  1  0  0  0
 45 46  1  0  0  0
 46 47  1  0  0  0
 47 48  1  0  0  0
 48 49  1  0  0  0
 50 51  1  0  0  0
 51 52  1  0  0  0
 51 59  1  0  0  0
 52 53  1  0  0  0
 53 54  1  0  0  0
 54 55  1  0  0  0
 55 56  1  0  0  0
 56 57  1  0  0  0
 56 58  1  0  0  0
 59 60  2  0  0  0
 59 61  1  0  0  0
 61 62  1  0  0  0
 62 63  1  0  0  0
 62 65  1  0  0  0
 63 64  2  0  0  0
 63 69  1  0  0  0
 65 66  1  0  0  0
 66 67  1  0  0  0
 66 68  1  0  0  0
 69 70  1  0  0  0
 70 71  1  0  0  0
 70 73  1  0  0  0
 71 72  2  0  0  0
 71 77  1  0  0  0
 73 74  1  0  0  0
 74 75  1  0  0  0
 75 76  1  0  0  0
 77 78  1  0  0  0
 78 79  1  0  0  0
 78 81  1  0  0  0
 79 80  2  0  0  0
 79 88  1  0  0  0
 81 82  1  0  0  0
 82 83  4  0  0  0
 82 84  4  0  0  0
 83 85  4  0  0  0
 84 86  4  0  0  0
 85 87  4  0  0  0
 86 87  4  0  0  0
 88 89  1  0  0  0
 89 90  1  0  0  0
 89 92  1  0  0  0
 90 91  2  0  0  0
 90 97  1  0  0  0
 92 93  1  0  0  0
 93 94  1  0  0  0
 94 95  1  0  0  0
 95 96  1  0  0  0
 97 98  1  0  0  0
 98 99  1  0  0  0
 98101  1  0  0  0
 99100  2  0  0  0
 99104  1  0  0  0
101102  1  0  0  0
101103  1  0  0  0
  1105  1  0  0  0
  1106  1  0  0  0
  1107  1  0  0  0
  2108  1  0  0  0
  5109  1  0  0  0
  5110  1  0  0  0
  6111  1  0  0  0
  7112  1  0  0  0
  8113  1  0  0  0
 11114  1  0  0  0
 12115  1  0  0  0
 13116  1  0  0  0
 13117  1  0  0  0
 13118  1  0  0  0
 14119  1  0  0  0
 15120  1  0  0  0
 18121  1  0  0  0
 18122  1  0  0  0
 19123  1  0  0  0
 20124  1  0  0  0
 21125  1  0  0  0
 24126  1  0  0  0
 24127  1  0  0  0
 25128  1  0  0  0
 25129  1  0  0  0
 26130  1  0  0  0
 26131  1  0  0  0
 27132  1  0  0  0
 29133  1  0  0  0
 29134  1  0  0  0
 30135  1  0  0  0
 31136  1  0  0  0
 32137  1  0  0  0
 35138  1  0  0  0
 35139  1  0  0  0
 38140  1  0  0  0
 39141  1  0  0  0
 41142  1  0  0  0
 42143  1  0  0  0
 45144  1  0  0  0
 45145  1  0  0  0
 46146  1  0  0  0
 46147  1  0  0  0
 47148  1  0  0  0
 47149  1  0  0  0
 48150  1  0  0  0
 48151  1  0  0  0
 49152  1  0  0  0
 49153  1  0  0  0
 49154  1  0  0  0
 50155  1  0  0  0
 51156  1  0  0  0
 52157  1  0  0  0
 52158  1  0  0  0
 53159  1  0  0  0
 53160  1  0  0  0
 54161  1  0  0  0
 54162  1  0  0  0
 55163  1  0  0  0
 55164  1  0  0  0
 56165  1  0  0  0
 57166  1  0  0  0
 57167  1  0  0  0
 57168  1  0  0  0
 58169  1  0  0  0
 58170  1  0  0  0
 58171  1  0  0  0
 61172  1  0  0  0
 62173  1  0  0  0
 65174  1  0  0  0
 65175  1  0  0  0
 66176  1  0  0  0
 67177  1  0  0  0
 67178  1  0  0  0
 67179  1  0  0  0
 68180  1  0  0  0
 68181  1  0  0  0
 68182  1  0  0  0
 69183  1  0  0  0
 70184  1  0  0  0
 73185  1  0  0  0
 73186  1  0  0  0
 74187  1  0  0  0
 74188  1  0  0  0
 76189  1  0  0  0
 76190  1  0  0  0
 76191  1  0  0  0
 77192  1  0  0  0
 78193  1  0  0  0
 81194  1  0  0  0
 81195  1  0  0  0
 83196  1  0  0  0
 84197  1  0  0  0
 85198  1  0  0  0
 86199  1  0  0  0
 87200  1  0  0  0
 88201  1  0  0  0
 89202  1  0  0  0
 92203  1  0  0  0
 92204  1  0  0  0
 93205  1  0  0  0
 93206  1  0  0  0
 94207  1  0  0  0
 94208  1  0  0  0
 95209  1  0  0  0
 95210  1  0  0  0
 96211  1  0  0  0
 96212  1  0  0  0
 96213  1  0  0  0
 97214  1  0  0  0
 98215  1  0  0  0
101216  1  0  0  0
102217  1  0  0  0
103218  1  0  0  0
103219  1  0  0  0
103220  1  0  0  0
104221  1  0  0  0
M  END
$$$$
