4c4i_ligand
  -I-interpret- 

 58 61  0  0  0  0  0  0  0  0999 V2000
   -2.0840  -15.7160  -13.9840 C   0  0  0  0  0
   -1.8840  -17.0640  -13.5930 N   0  0  0  0  0
   -2.7540  -15.3780  -14.9220 O   0  0  0  0  0
    0.7590  -16.1280   -6.7800 Cl  0  0  0  0  0
   -1.1500  -17.5050  -12.4840 C   0  0  0  0  0
    0.9160  -16.9620   -9.5440 N   0  0  0  0  0
    2.9900  -11.2190   -7.7960 O   0  0  0  0  0
   -0.4520  -16.8050  -11.5100 C   0  0  0  0  0
    1.3910  -10.5560   -9.2550 N   0  0  0  0  0
   -2.9010  -19.1680  -16.3980 O   0  0  0  0  0
    0.1900  -17.6010  -10.5440 C   0  0  0  0  0
    0.1560  -18.9770  -10.5180 N   0  0  0  0  0
   -1.4350  -14.8260  -13.1900 O   0  0  0  0  0
    1.1810  -15.6020   -9.3900 C   0  0  0  0  0
   -4.5890  -17.9150  -17.1780 N   0  0  0  0  0
    1.4950  -14.7210  -10.4270 C   0  0  0  0  0
    1.7790  -13.3980  -10.1450 C   0  0  0  0  0
    1.7560  -12.9350   -8.8370 C   0  0  0  0  0
    2.1050  -11.5250   -8.5770 C   0  0  0  0  0
    1.5640   -9.1330   -8.9220 C   0  0  0  0  0
    0.0940  -10.8800   -9.8710 C   0  0  0  0  0
    1.4350  -13.7810   -7.7940 C   0  0  0  0  0
    1.1550  -15.0920   -8.0920 C   0  0  0  0  0
   -0.5290  -19.5990  -11.4720 C   0  0  0  0  0
   -1.1980  -18.9170  -12.4770 C   0  0  0  0  0
   -1.9730  -19.3410  -13.5930 C   0  0  0  0  0
   -2.3830  -18.2260  -14.2650 C   0  0  0  0  0
   -3.1680  -18.2130  -15.4580 C   0  0  0  0  0
   -4.2040  -17.4310  -15.9170 C   0  0  0  0  0
   -3.7850  -18.9440  -17.4140 C   0  0  0  0  0
   -1.4250  -13.4240  -13.6100 C   0  0  0  0  0
   -0.8420  -13.3540  -15.0020 C   0  0  0  0  0
   -0.5780  -12.6590  -12.6200 C   0  0  0  0  0
   -2.8590  -12.9480  -13.5900 C   0  0  0  0  0
    1.3076  -17.5714   -8.8259 H   0  0  0  0  0
   -0.4046  -15.7161  -11.4946 H   0  0  0  0  0
    1.5161  -15.0761  -11.4573 H   0  0  0  0  0
    2.0230  -12.7127  -10.9567 H   0  0  0  0  0
    1.2963   -8.9703   -7.8780 H   0  0  0  0  0
    2.6041   -8.8480   -9.0804 H   0  0  0  0  0
    0.9193   -8.5305   -9.5619 H   0  0  0  0  0
    0.2317  -11.6675  -10.6119 H   0  0  0  0  0
   -0.5976  -11.2211   -9.1006 H   0  0  0  0  0
   -0.3092   -9.9905  -10.3550 H   0  0  0  0  0
    1.4048  -13.4195   -6.7661 H   0  0  0  0  0
   -0.5664  -20.6883  -11.4641 H   0  0  0  0  0
   -2.1989  -20.3726  -13.8630 H   0  0  0  0  0
   -4.6478  -16.5843  -15.3933 H   0  0  0  0  0
   -3.8260  -19.5459  -18.3218 H   0  0  0  0  0
    0.1735  -13.7498  -14.9895 H   0  0  0  0  0
   -1.4555  -13.9455  -15.6816 H   0  0  0  0  0
   -0.8249  -12.3165  -15.3356 H   0  0  0  0  0
   -1.0095  -12.7555  -11.6237 H   0  0  0  0  0
    0.4338  -13.0643  -12.6200 H   0  0  0  0  0
   -0.5495  -11.6072  -12.9046 H   0  0  0  0  0
   -3.4508  -13.5528  -14.2771 H   0  0  0  0  0
   -3.2590  -13.0460  -12.5808 H   0  0  0  0  0
   -2.8980  -11.9031  -13.8978 H   0  0  0  0  0
  2  1  1  0  0  0
  1  3  2  0  0  0
  1 13  1  0  0  0
  2  5  4  0  0  0
 27  2  4  0  0  0
 23  4  1  0  0  0
  5  8  4  0  0  0
 25  5  4  0  0  0
 11  6  1  0  0  0
  6 14  1  0  0  0
 19  7  2  0  0  0
  8 11  4  0  0  0
 19  9  1  0  0  0
  9 20  1  0  0  0
  9 21  1  0  0  0
 28 10  4  0  0  0
 10 30  4  0  0  0
 12 11  4  0  0  0
 24 12  4  0  0  0
 13 31  1  0  0  0
 14 16  4  0  0  0
 14 23  4  0  0  0
 15 29  4  0  0  0
 30 15  4  0  0  0
 16 17  4  0  0  0
 17 18  4  0  0  0
 18 19  1  0  0  0
 22 18  4  0  0  0
 23 22  4  0  0  0
 25 24  4  0  0  0
 26 25  4  0  0  0
 27 26  4  0  0  0
 27 28  1  0  0  0
 28 29  4  0  0  0
 31 32  1  0  0  0
 31 33  1  0  0  0
 31 34  1  0  0  0
  6 35  1  0  0  0
  8 36  1  0  0  0
 16 37  1  0  0  0
 17 38  1  0  0  0
 20 39  1  0  0  0
 20 40  1  0  0  0
 20 41  1  0  0  0
 21 42  1  0  0  0
 21 43  1  0  0  0
 21 44  1  0  0  0
 22 45  1  0  0  0
 24 46  1  0  0  0
 26 47  1  0  0  0
 29 48  1  0  0  0
 30 49  1  0  0  0
 32 50  1  0  0  0
 32 51  1  0  0  0
 32 52  1  0  0  0
 33 53  1  0  0  0
 33 54  1  0  0  0
 33 55  1  0  0  0
 34 56  1  0  0  0
 34 57  1  0  0  0
 34 58  1  0  0  0
M  END
$$$$
