4msg_ligand
  -I-interpret- 

 59 63  0  0  0  0  0  0  0  0999 V2000
   -1.0390   43.0350   29.9750 N   0  0  0  0  0
    0.2560   42.5600   29.9240 C   0  0  0  0  0
    0.6090   41.5870   30.5720 O   0  0  0  0  0
    1.2140   43.2590   29.0930 C   0  0  0  0  0
    2.5980   42.8490   28.9060 C   0  0  0  0  0
    3.4770   43.6060   28.0040 C   0  0  0  0  0
    2.9580   44.7800   27.2680 C   0  0  0  0  0
    1.5680   45.1970   27.4470 C   0  0  0  0  0
    0.6690   44.4460   28.3320 C   0  0  0  0  0
   -0.6740   44.8030   28.4930 N   0  0  0  0  0
   -1.5040   44.1180   29.2620 C   0  0  0  0  0
   -3.2330   44.5000   29.3940 S   0  0  0  0  0
   -9.0150   39.7620   27.1020 C   0  0  0  0  0
   -8.5640   38.6090   26.6270 N   0  0  0  0  0
   -9.4470   37.5810   26.7760 N   0  0  0  0  0
  -10.5060   38.2180   27.3980 C   0  0  0  0  0
  -11.7980   37.6180   27.8540 C   0  0  0  0  0
  -10.2280   39.5490   27.5890 O   0  0  0  0  0
  -12.0530   36.1700   27.7070 C   0  0  0  0  0
  -13.3030   35.5800   28.1640 C   0  0  0  0  0
  -14.3270   36.4160   28.7710 C   0  0  0  0  0
  -14.1070   37.8550   28.9320 C   0  0  0  0  0
  -12.8430   38.4540   28.4720 C   0  0  0  0  0
   -6.2900   42.2440   28.0430 C   0  0  0  0  0
   -5.9600   42.7010   26.6210 C   0  0  0  0  0
   -7.1830   42.7890   25.7050 C   0  0  0  0  0
   -8.0140   41.5100   25.7160 C   0  0  0  0  0
   -8.3720   41.0640   27.1340 C   0  0  0  0  0
   -7.1840   40.9900   28.0960 C   0  0  0  0  0
   -3.5030   45.7990   28.1460 C   0  0  0  0  0
   -3.3040   45.3060   26.6810 C   0  0  0  0  0
   -3.9920   43.9550   26.5370 C   0  0  0  0  0
   -3.3210   42.9470   26.3530 O   0  0  0  0  0
   -5.3360   43.9980   26.6640 N   0  0  0  0  0
   -1.6982   42.5498   30.5836 H   0  0  0  0  0
    2.9834   41.9782   29.4364 H   0  0  0  0  0
    4.5158   43.3014   27.8766 H   0  0  0  0  0
    3.6111   45.3333   26.5932 H   0  0  0  0  0
    1.1955   46.0743   26.9181 H   0  0  0  0  0
  -11.2945   35.5346   27.2499 H   0  0  0  0  0
  -13.4720   34.5091   28.0510 H   0  0  0  0  0
  -15.2626   35.9693   29.1076 H   0  0  0  0  0
  -14.8746   38.4790   29.3897 H   0  0  0  0  0
  -12.6786   39.5251   28.5895 H   0  0  0  0  0
   -6.8341   43.0541   28.5287 H   0  0  0  0  0
   -5.3487   41.9953   28.5331 H   0  0  0  0  0
   -5.2932   41.9447   26.2070 H   0  0  0  0  0
   -6.8296   42.9518   24.6868 H   0  0  0  0  0
   -7.8135   43.6029   26.0630 H   0  0  0  0  0
   -7.4249   40.7195   25.2511 H   0  0  0  0  0
   -8.9418   41.7044   25.1779 H   0  0  0  0  0
   -9.0425   41.8353   27.5130 H   0  0  0  0  0
   -7.5800   40.9062   29.1080 H   0  0  0  0  0
   -6.5742   40.1341   27.8066 H   0  0  0  0  0
   -2.7710   46.5857   28.3288 H   0  0  0  0  0
   -4.5357   46.1345   28.2410 H   0  0  0  0  0
   -2.2412   45.2113   26.4582 H   0  0  0  0  0
   -3.7352   46.0228   25.9822 H   0  0  0  0  0
   -5.8589   44.8661   26.7793 H   0  0  0  0  0
  1  2  1  0  0  0
 11  1  1  0  0  0
  2  3  2  0  0  0
  2  4  1  0  0  0
  4  5  4  0  0  0
  9  4  4  0  0  0
  5  6  4  0  0  0
  7  6  4  0  0  0
  8  7  4  0  0  0
  9  8  4  0  0  0
 10  9  1  0  0  0
 11 10  2  0  0  0
 12 11  1  0  0  0
 30 12  1  0  0  0
 13 14  4  0  0  0
 13 18  4  0  0  0
 28 13  1  0  0  0
 14 15  4  0  0  0
 16 15  4  0  0  0
 16 17  1  0  0  0
 18 16  4  0  0  0
 17 19  4  0  0  0
 17 23  4  0  0  0
 19 20  4  0  0  0
 20 21  4  0  0  0
 22 21  4  0  0  0
 23 22  4  0  0  0
 25 24  1  0  0  0
 24 29  1  0  0  0
 25 26  1  0  0  0
 34 25  1  0  0  0
 26 27  1  0  0  0
 27 28  1  0  0  0
 29 28  1  0  0  0
 31 30  1  0  0  0
 32 31  1  0  0  0
 32 33  2  0  0  0
 32 34  1  0  0  0
  1 35  1  0  0  0
  5 36  1  0  0  0
  6 37  1  0  0  0
  7 38  1  0  0  0
  8 39  1  0  0  0
 19 40  1  0  0  0
 20 41  1  0  0  0
 21 42  1  0  0  0
 22 43  1  0  0  0
 23 44  1  0  0  0
 24 45  1  0  0  0
 24 46  1  0  0  0
 25 47  1  0  0  0
 26 48  1  0  0  0
 26 49  1  0  0  0
 27 50  1  0  0  0
 27 51  1  0  0  0
 28 52  1  0  0  0
 29 53  1  0  0  0
 29 54  1  0  0  0
 30 55  1  0  0  0
 30 56  1  0  0  0
 31 57  1  0  0  0
 31 58  1  0  0  0
 34 59  1  0  0  0
M  END
$$$$
