### 
### Created by X-TOOL on Mon Sep 10 21:13:17 2018
### 

@<TRIPOS>MOLECULE
4j09_ligand
  107   107     1     0     0
SMALL
GAST_HUCK


@<TRIPOS>ATOM
      1 N          -4.3990   17.8110    7.5970 N.4       1 THR         0.2398
      2 CA         -3.1290   17.4270    8.2060 C.3       1 THR         0.0910
      3 C          -2.5930   18.5130    9.1060 C.2       1 THR         0.2294
      4 O          -2.2220   19.6180    8.6640 O.2       1 THR        -0.3906
      5 CB         -2.0800   17.0390    7.1520 C.3       1 THR         0.1120
      6 OG1        -2.6540   16.0820    6.2610 O.3       1 THR        -0.3840
      7 CG2        -0.7600   16.4830    7.7710 C.3       1 THR        -0.0314
      8 N          -2.5770   18.1790   10.4010 N.am      1 ASN        -0.2588
      9 CA         -1.9930   18.9720   11.4770 C.3       1 ASN         0.1477
     10 C          -0.8670   18.1250   12.0770 C.2       1 ASN         0.2063
     11 O          -1.1290   17.0240   12.5770 O.2       1 ASN        -0.3942
     12 CB         -3.0530   19.3630   12.5230 C.3       1 ASN         0.0773
     13 CG         -2.6360   20.5200   13.4090 C.2       1 ASN         0.1780
     14 OD1        -1.4480   20.8040   13.6000 O.2       1 ASN        -0.3970
     15 ND2        -3.6070   21.2000   14.0000 N.am      1 ASN        -0.3007
     16 N           0.3900   18.5930   11.9610 N.am      1 LEU        -0.2636
     17 CA          1.5240   17.8220   12.4600 C.3       1 LEU         0.1312
     18 C           1.8750   18.1980   13.9010 C.2       1 LEU         0.2040
     19 O           2.7770   17.5770   14.4960 O.2       1 LEU        -0.3944
     20 CB          2.7430   17.9770   11.5280 C.3       1 LEU        -0.0101
     21 CG          2.5250   17.4880   10.0860 C.3       1 LEU        -0.0425
     22 CD1         3.7290   17.8710    9.1940 C.3       1 LEU        -0.0625
     23 CD2         2.2040   15.9720   10.0490 C.3       1 LEU        -0.0625
     24 N           1.1180   19.1800   14.4700 N.am      1 TYR        -0.2621
     25 CA          1.2120   19.6660   15.8490 C.3       1 TYR         0.1390
     26 C           2.6310   20.1060   16.1920 C.2       1 TYR         0.2057
     27 O           3.1840   19.7510   17.2360 O.2       1 TYR        -0.3942
     28 CB          0.6820   18.6090   16.8400 C.3       1 TYR         0.0163
     29 CG         -0.7900   18.3720   16.6210 C.ar      1 TYR        -0.0493
     30 CD1        -1.7390   19.2330   17.1700 C.ar      1 TYR        -0.0685
     31 CD2        -1.2400   17.3520   15.7830 C.ar      1 TYR        -0.0685
     32 CE1        -3.0940   19.0650   16.9140 C.ar      1 TYR        -0.0398
     33 CE2        -2.5940   17.1660   15.5300 C.ar      1 TYR        -0.0398
     34 CZ         -3.5170   18.0340   16.0900 C.ar      1 TYR         0.0805
     35 OH         -4.8530   17.8780   15.8390 O.3       1 TYR        -0.3376
     36 N           3.2100   20.9050   15.3020 N.am      1 MET        -0.2636
     37 CA          4.5310   21.4570   15.5390 C.3       1 MET         0.1317
     38 C           4.3300   22.6840   16.4040 C.2       1 MET         0.2034
     39 O           3.3610   23.4160   16.1970 O.2       1 MET        -0.3944
     40 CB          5.2500   21.7470   14.2220 C.3       1 MET        -0.0034
     41 CG          5.5800   20.4760   13.4430 C.3       1 MET        -0.0024
     42 SD          6.1730   20.8110   11.7760 S.3       1 MET        -0.1639
     43 CE          7.6440   21.7380   12.1520 C.3       1 MET        -0.0181
     44 N           5.1580   22.8430   17.4430 N.am      1 LEU        -0.2670
     45 CA          5.0060   23.9370   18.4010 C.3       1 LEU         0.1228
     46 C           6.0890   24.9970   18.2100 C.2       1 LEU         0.2149
     47 O           7.1980   24.8670   18.7260 O.co2     1 LEU        -0.4120
     48 CB          5.0220   23.3820   19.8390 C.3       1 LEU        -0.0132
     49 CG          3.9670   22.3210   20.1490 C.3       1 LEU        -0.0430
     50 CD1         4.4850   21.3050   21.1410 C.3       1 LEU        -0.0625
     51 CD2         2.6730   22.9530   20.6020 C.3       1 LEU        -0.0625
     52 H          -5.0572   18.0573    8.3196 H         1 THR         0.2016
     53 H          -4.7619   17.0383    7.0611 H         1 THR         0.2016
     54 H          -4.2548   18.6026    6.9899 H         1 THR         0.2016
     55 H          -3.3184   16.5403    8.8288 H         1 THR         0.1125
     56 H          -1.8250   17.9423    6.5784 H         1 THR         0.0674
     57 H          -2.0118   15.8363    5.6055 H         1 THR         0.2102
     58 H          -0.0568   16.2264    6.9650 H         1 THR         0.0258
     59 H          -0.9832   15.5833    8.3631 H         1 THR         0.0258
     60 H          -0.3094   17.2474    8.4211 H         1 THR         0.0258
     61 H          -3.0024   17.3100   10.6536 H         1 ASN         0.1886
     62 H          -1.5662   19.8956   11.0590 H         1 ASN         0.0826
     63 H          -3.2494   18.4894   13.1620 H         1 ASN         0.0551
     64 H          -3.9753   19.6453   11.9942 H         1 ASN         0.0551
     65 H          -3.3858   21.9727   14.5950 H         1 ASN         0.1814
     66 H          -4.5613   20.9407   13.8512 H         1 ASN         0.1814
     67 H           0.5485   19.4801   11.5275 H         1 LEU         0.1883
     68 H           1.2328   16.7613   12.4563 H         1 LEU         0.0800
     69 H           3.5776   17.4051   11.9597 H         1 LEU         0.0315
     70 H           3.0101   19.0434   11.4900 H         1 LEU         0.0315
     71 H           1.6449   18.0139    9.6875 H         1 LEU         0.0298
     72 H           3.5541   17.5131    8.1686 H         1 LEU         0.0232
     73 H           4.6432   17.4075    9.5932 H         1 LEU         0.0232
     74 H           3.8459   18.9647    9.1856 H         1 LEU         0.0232
     75 H           1.3423   15.7637   10.7002 H         1 LEU         0.0232
     76 H           3.0768   15.4036   10.4028 H         1 LEU         0.0232
     77 H           1.9650   15.6728    9.0178 H         1 LEU         0.0232
     78 H           0.4295   19.6116   13.8871 H         1 TYR         0.1885
     79 H           0.5649   20.5515   15.9333 H         1 TYR         0.0821
     80 H           0.8424   18.9644   17.8686 H         1 TYR         0.0453
     81 H           1.2270   17.6655   16.6889 H         1 TYR         0.0453
     82 H          -1.4141   20.0474   17.8074 H         1 TYR         0.0530
     83 H          -0.5181   16.6898   15.3189 H         1 TYR         0.0530
     84 H          -3.8185   19.7384   17.3575 H         1 TYR         0.0525
     85 H          -2.9250   16.3485   14.8997 H         1 TYR         0.0525
     86 H          -5.0093   17.9516   14.9049 H         1 TYR         0.2458
     87 H           2.7277   21.1295   14.4553 H         1 MET         0.1883
     88 H           5.1344   20.7263   16.0975 H         1 MET         0.0800
     89 H           6.1872   22.2793   14.4417 H         1 MET         0.0320
     90 H           4.6037   22.3839   13.6002 H         1 MET         0.0320
     91 H           4.6713   19.8598   13.3752 H         1 MET         0.0378
     92 H           6.3587   19.9223   13.9880 H         1 MET         0.0378
     93 H           8.1428   22.0297   11.2160 H         1 MET         0.0340
     94 H           8.3252   21.1172   12.7524 H         1 MET         0.0340
     95 H           7.3736   22.6404   12.7200 H         1 MET         0.0340
     96 H           5.9062   22.1915   17.5685 H         1 LEU         0.1876
     97 H           4.0300   24.4134   18.2265 H         1 LEU         0.0751
     98 O1          5.8431   26.0184   17.5144 O.co2     1 LEU        -0.4120
     99 H           4.8672   24.2247   20.5288 H         1 LEU         0.0309
    100 H           6.0120   22.9376   20.0193 H         1 LEU         0.0309
    101 H           3.7563   21.7833   19.2128 H         1 LEU         0.0297
    102 H           3.7035   20.5574   21.3421 H         1 LEU         0.0232
    103 H           4.7563   21.8129   22.0782 H         1 LEU         0.0232
    104 H           5.3720   20.8052   20.7247 H         1 LEU         0.0232
    105 H           2.3380   23.6822   19.8496 H         1 LEU         0.0232
    106 H           2.8313   23.4643   21.5630 H         1 LEU         0.0232
    107 H           1.9068   22.1731   20.7234 H         1 LEU         0.0232
@<TRIPOS>BOND
     1    1    2 1  
     2    2    3 1  
     3    2    5 1  
     4    3    4 2  
     5    3    8 am 
     6    5    6 1  
     7    5    7 1  
     8    8    9 1  
     9    9   10 1  
    10    9   12 1  
    11   10   11 2  
    12   10   16 am 
    13   12   13 1  
    14   13   14 2  
    15   13   15 am 
    16   16   17 1  
    17   17   18 1  
    18   17   20 1  
    19   18   19 2  
    20   18   24 am 
    21   20   21 1  
    22   21   22 1  
    23   21   23 1  
    24   24   25 1  
    25   25   26 1  
    26   25   28 1  
    27   26   27 2  
    28   26   36 am 
    29   28   29 1  
    30   29   30 ar 
    31   29   31 ar 
    32   30   32 ar 
    33   31   33 ar 
    34   32   34 ar 
    35   33   34 ar 
    36   34   35 1  
    37   36   37 1  
    38   37   38 1  
    39   37   40 1  
    40   38   39 2  
    41   38   44 am 
    42   40   41 1  
    43   41   42 1  
    44   42   43 1  
    45   44   45 1  
    46   45   46 1  
    47   45   48 1  
    48   46   47 ar 
    49   48   49 1  
    50   49   50 1  
    51   49   51 1  
    52    1   52 1  
    53    1   53 1  
    54    1   54 1  
    55    2   55 1  
    56    5   56 1  
    57    6   57 1  
    58    7   58 1  
    59    7   59 1  
    60    7   60 1  
    61    8   61 1  
    62    9   62 1  
    63   12   63 1  
    64   12   64 1  
    65   15   65 1  
    66   15   66 1  
    67   16   67 1  
    68   17   68 1  
    69   20   69 1  
    70   20   70 1  
    71   21   71 1  
    72   22   72 1  
    73   22   73 1  
    74   22   74 1  
    75   23   75 1  
    76   23   76 1  
    77   23   77 1  
    78   24   78 1  
    79   25   79 1  
    80   28   80 1  
    81   28   81 1  
    82   30   82 1  
    83   31   83 1  
    84   32   84 1  
    85   33   85 1  
    86   35   86 1  
    87   36   87 1  
    88   37   88 1  
    89   40   89 1  
    90   40   90 1  
    91   41   91 1  
    92   41   92 1  
    93   43   93 1  
    94   43   94 1  
    95   43   95 1  
    96   44   96 1  
    97   45   97 1  
    98   46   98 ar 
    99   48   99 1  
   100   48  100 1  
   101   49  101 1  
   102   50  102 1  
   103   50  103 1  
   104   50  104 1  
   105   51  105 1  
   106   51  106 1  
   107   51  107 1  
@<TRIPOS>SUBSTRUCTURE
     1 THR         1

