4j09_ligand
  -I-interpret- 

108108  0  0  0  0  0  0  0  0999 V2000
   -4.3990   17.8110    7.5970 N   0  3  0  0  0
   -3.1290   17.4270    8.2060 C   0  0  0  0  0
   -2.5930   18.5130    9.1060 C   0  0  0  0  0
   -2.2220   19.6180    8.6640 O   0  0  0  0  0
   -2.0800   17.0390    7.1520 C   0  0  0  0  0
   -2.6540   16.0820    6.2610 O   0  0  0  0  0
   -0.7600   16.4830    7.7710 C   0  0  0  0  0
   -2.5770   18.1790   10.4010 N   0  0  0  0  0
   -1.9930   18.9720   11.4770 C   0  0  0  0  0
   -0.8670   18.1250   12.0770 C   0  0  0  0  0
   -1.1290   17.0240   12.5770 O   0  0  0  0  0
   -3.0530   19.3630   12.5230 C   0  0  0  0  0
   -2.6360   20.5200   13.4090 C   0  0  0  0  0
   -1.4480   20.8040   13.6000 O   0  0  0  0  0
   -3.6070   21.2000   14.0000 N   0  0  0  0  0
    0.3900   18.5930   11.9610 N   0  0  0  0  0
    1.5240   17.8220   12.4600 C   0  0  0  0  0
    1.8750   18.1980   13.9010 C   0  0  0  0  0
    2.7770   17.5770   14.4960 O   0  0  0  0  0
    2.7430   17.9770   11.5280 C   0  0  0  0  0
    2.5250   17.4880   10.0860 C   0  0  0  0  0
    3.7290   17.8710    9.1940 C   0  0  0  0  0
    2.2040   15.9720   10.0490 C   0  0  0  0  0
    1.1180   19.1800   14.4700 N   0  0  0  0  0
    1.2120   19.6660   15.8490 C   0  0  0  0  0
    2.6310   20.1060   16.1920 C   0  0  0  0  0
    3.1840   19.7510   17.2360 O   0  0  0  0  0
    0.6820   18.6090   16.8400 C   0  0  0  0  0
   -0.7900   18.3720   16.6210 C   0  0  0  0  0
   -1.7390   19.2330   17.1700 C   0  0  0  0  0
   -1.2400   17.3520   15.7830 C   0  0  0  0  0
   -3.0940   19.0650   16.9140 C   0  0  0  0  0
   -2.5940   17.1660   15.5300 C   0  0  0  0  0
   -3.5170   18.0340   16.0900 C   0  0  0  0  0
   -4.8530   17.8780   15.8390 O   0  0  0  0  0
    3.2100   20.9050   15.3020 N   0  0  0  0  0
    4.5310   21.4570   15.5390 C   0  0  0  0  0
    4.3300   22.6840   16.4040 C   0  0  0  0  0
    3.3610   23.4160   16.1970 O   0  0  0  0  0
    5.2500   21.7470   14.2220 C   0  0  0  0  0
    5.5800   20.4760   13.4430 C   0  0  0  0  0
    6.1730   20.8110   11.7760 S   0  0  0  0  0
    7.6440   21.7380   12.1520 C   0  0  0  0  0
    5.1580   22.8430   17.4430 N   0  0  0  0  0
    5.0060   23.9370   18.4010 C   0  0  0  0  0
    6.0890   24.9970   18.2100 C   0  0  0  0  0
    7.1980   24.8670   18.7260 O   0  0  0  0  0
    5.0220   23.3820   19.8390 C   0  0  0  0  0
    3.9670   22.3210   20.1490 C   0  0  0  0  0
    4.4850   21.3050   21.1410 C   0  0  0  0  0
    2.6730   22.9530   20.6020 C   0  0  0  0  0
    5.8431   26.0184   17.5144 O   0  0  0  0  0
   -5.0642   18.0599    8.3291 H   0  0  0  0  0
   -4.2518   18.6120    6.9830 H   0  0  0  0  0
   -4.7652   17.0284    7.0550 H   0  0  0  0  0
   -3.3313   16.5469    8.8164 H   0  0  0  0  0
   -1.8006   17.9454    6.6150 H   0  0  0  0  0
   -3.4641   16.4384    5.8890 H   0  0  0  0  0
   -0.9761   15.5683    8.3230 H   0  0  0  0  0
   -0.0486   16.2682    6.9736 H   0  0  0  0  0
   -0.3364   17.2255    8.4473 H   0  0  0  0  0
   -3.0110   17.2926   10.6586 H   0  0  0  0  0
   -1.5969   19.9162   11.1034 H   0  0  0  0  0
   -3.2094   18.4982   13.1679 H   0  0  0  0  0
   -3.9469   19.6725   11.9815 H   0  0  0  0  0
   -3.3805   21.9733   14.6254 H   0  0  0  0  0
   -4.5812   20.9504   13.8297 H   0  0  0  0  0
    0.5517   19.4978   11.5188 H   0  0  0  0  0
    1.2326   16.7717   12.4654 H   0  0  0  0  0
    3.5414   17.3666   11.9500 H   0  0  0  0  0
    2.9606   19.0434   11.4692 H   0  0  0  0  0
    1.6517   17.9932    9.6735 H   0  0  0  0  0
    3.8438   18.9549    9.1866 H   0  0  0  0  0
    4.6342   17.4112    9.5906 H   0  0  0  0  0
    3.5546   17.5159    8.1783 H   0  0  0  0  0
    3.0345   15.4154   10.4832 H   0  0  0  0  0
    1.2970   15.7799   10.6222 H   0  0  0  0  0
    2.0555   15.6585    9.0157 H   0  0  0  0  0
    0.4158   19.6203   13.8755 H   0  0  0  0  0
    0.5784   20.5484   15.9385 H   0  0  0  0  0
    0.8354   18.9689   17.8574 H   0  0  0  0  0
    1.2189   17.6738   16.6812 H   0  0  0  0  0
   -1.4123   20.0519   17.8110 H   0  0  0  0  0
   -0.5141   16.6862   15.3163 H   0  0  0  0  0
   -3.8225   19.7421   17.3599 H   0  0  0  0  0
   -2.9268   16.3440   14.8962 H   0  0  0  0  0
   -4.9823   17.1263   15.2560 H   0  0  0  0  0
    2.7180   21.1340   14.4383 H   0  0  0  0  0
    5.1825   20.7521   16.0556 H   0  0  0  0  0
    6.1878   22.2513   14.4551 H   0  0  0  0  0
    4.5894   22.3569   13.6057 H   0  0  0  0  0
    4.6651   19.8893   13.3596 H   0  0  0  0  0
    6.3715   19.9525   13.9793 H   0  0  0  0  0
    7.3747   22.6318   12.7148 H   0  0  0  0  0
    8.3181   21.1218   12.7469 H   0  0  0  0  0
    8.1373   22.0264   11.2238 H   0  0  0  0  0
    5.9211   22.1784   17.5710 H   0  0  0  0  0
    4.0454   24.4204   18.2230 H   0  0  0  0  0
    4.8162   24.2251   20.4985 H   0  0  0  0  0
    5.9917   22.9033   19.9752 H   0  0  0  0  0
    3.7516   21.7814   19.2267 H   0  0  0  0  0
    5.3639   20.8105   20.7273 H   0  0  0  0  0
    4.7535   21.8095   22.0692 H   0  0  0  0  0
    3.7098   20.5649   21.3394 H   0  0  0  0  0
    2.8524   23.5393   21.5032 H   0  0  0  0  0
    2.2922   23.6028   19.8141 H   0  0  0  0  0
    1.9434   22.1716   20.8146 H   0  0  0  0  0
    4.9426   25.9707   17.1851 H   0  0  0  0  0
  1  2  1  0  0  0
  2  3  1  0  0  0
  2  5  1  0  0  0
  3  4  2  0  0  0
  3  8  1  0  0  0
  5  6  1  0  0  0
  5  7  1  0  0  0
  8  9  1  0  0  0
  9 10  1  0  0  0
  9 12  1  0  0  0
 10 11  2  0  0  0
 10 16  1  0  0  0
 12 13  1  0  0  0
 13 14  2  0  0  0
 13 15  1  0  0  0
 16 17  1  0  0  0
 17 18  1  0  0  0
 17 20  1  0  0  0
 18 19  2  0  0  0
 18 24  1  0  0  0
 20 21  1  0  0  0
 21 22  1  0  0  0
 21 23  1  0  0  0
 24 25  1  0  0  0
 25 26  1  0  0  0
 25 28  1  0  0  0
 26 27  2  0  0  0
 26 36  1  0  0  0
 28 29  1  0  0  0
 29 30  4  0  0  0
 29 31  4  0  0  0
 30 32  4  0  0  0
 31 33  4  0  0  0
 32 34  4  0  0  0
 33 34  4  0  0  0
 34 35  1  0  0  0
 36 37  1  0  0  0
 37 38  1  0  0  0
 37 40  1  0  0  0
 38 39  2  0  0  0
 38 44  1  0  0  0
 40 41  1  0  0  0
 41 42  1  0  0  0
 42 43  1  0  0  0
 44 45  1  0  0  0
 45 46  1  0  0  0
 45 48  1  0  0  0
 46 47  2  0  0  0
 48 49  1  0  0  0
 49 50  1  0  0  0
 49 51  1  0  0  0
 46 52  1  0  0  0
  1 53  1  0  0  0
  1 54  1  0  0  0
  1 55  1  0  0  0
  2 56  1  0  0  0
  5 57  1  0  0  0
  6 58  1  0  0  0
  7 59  1  0  0  0
  7 60  1  0  0  0
  7 61  1  0  0  0
  8 62  1  0  0  0
  9 63  1  0  0  0
 12 64  1  0  0  0
 12 65  1  0  0  0
 15 66  1  0  0  0
 15 67  1  0  0  0
 16 68  1  0  0  0
 17 69  1  0  0  0
 20 70  1  0  0  0
 20 71  1  0  0  0
 21 72  1  0  0  0
 22 73  1  0  0  0
 22 74  1  0  0  0
 22 75  1  0  0  0
 23 76  1  0  0  0
 23 77  1  0  0  0
 23 78  1  0  0  0
 24 79  1  0  0  0
 25 80  1  0  0  0
 28 81  1  0  0  0
 28 82  1  0  0  0
 30 83  1  0  0  0
 31 84  1  0  0  0
 32 85  1  0  0  0
 33 86  1  0  0  0
 35 87  1  0  0  0
 36 88  1  0  0  0
 37 89  1  0  0  0
 40 90  1  0  0  0
 40 91  1  0  0  0
 41 92  1  0  0  0
 41 93  1  0  0  0
 43 94  1  0  0  0
 43 95  1  0  0  0
 43 96  1  0  0  0
 44 97  1  0  0  0
 45 98  1  0  0  0
 48 99  1  0  0  0
 48100  1  0  0  0
 49101  1  0  0  0
 50102  1  0  0  0
 50103  1  0  0  0
 50104  1  0  0  0
 51105  1  0  0  0
 51106  1  0  0  0
 51107  1  0  0  0
 52108  1  0  0  0
M  END
$$$$
