5d3j_ligand
  -I-interpret- 

 54 55  0  0  0  0  0  0  0  0999 V2000
    1.5280   54.9490   24.9990 C   0  0  0  0  0
    0.9800   54.1260   24.0140 C   0  0  0  0  0
    2.2890   55.2910   22.3470 C   0  0  0  0  0
    5.6010   60.8160   21.3840 C   0  0  0  0  0
    4.7200   59.9950   22.0820 C   0  0  0  0  0
    2.8530   56.1210   23.3490 C   0  0  0  0  0
    2.4530   55.9390   24.6760 C   0  0  0  0  0
    1.3480   54.3020   22.6830 C   0  0  0  0  0
    5.0090   58.6310   21.5580 C   0  0  0  0  0
    6.4010   59.9740   20.4750 C   0  0  0  0  0
    5.7580   62.2980   21.4400 C   0  0  0  0  0
    4.3430   57.3420   21.9410 C   0  0  0  0  0
    7.4640   60.4420   19.5120 C   0  0  0  0  0
    4.5520   63.0770   21.8980 C   0  0  0  0  0
    4.4720   60.9520   24.3240 C   0  0  0  0  0
    2.6620   50.7260   19.7760 C   0  0  0  0  0
    2.3760   50.7950   23.3890 C   0  0  0  0  0
    3.7190   60.4020   23.1350 C   0  0  0  0  0
    2.6980   52.0310   20.5450 C   0  0  0  0  0
    1.2980   50.9250   22.3400 C   0  0  0  0  0
    5.9860   58.7030   20.6350 N   0  0  0  0  0
    3.7520   57.1340   23.1210 N   0  0  0  0  0
    1.5800   52.0760   21.4800 N   0  0  0  0  0
    6.7800   62.8610   21.0520 O   0  0  0  0  0
    4.3620   56.4690   21.0840 O   0  0  0  0  0
    0.5600   54.0280   20.3350 O   0  0  0  0  0
   -0.6190   52.8800   21.9950 O   0  0  0  0  0
    0.6900   53.3300   21.5710 S   0  0  0  0  0
    1.2272   54.8148   26.0380 H   0  0  0  0  0
    0.2664   53.3482   24.2859 H   0  0  0  0  0
    2.5878   55.4210   21.3068 H   0  0  0  0  0
    2.8661   56.5735   25.4601 H   0  0  0  0  0
    7.0242   61.1376   18.7973 H   0  0  0  0  0
    8.2590   60.9419   20.0653 H   0  0  0  0  0
    7.8741   59.5835   18.9802 H   0  0  0  0  0
    4.8268   63.7041   22.7461 H   0  0  0  0  0
    4.1946   63.7043   21.0814 H   0  0  0  0  0
    3.7654   62.3841   22.1966 H   0  0  0  0  0
    5.1367   60.1836   24.7186 H   0  0  0  0  0
    5.0583   61.8166   24.0129 H   0  0  0  0  0
    3.7622   61.2512   25.0952 H   0  0  0  0  0
    2.7378   49.8922   20.4740 H   0  0  0  0  0
    1.7241   50.6562   19.2251 H   0  0  0  0  0
    3.4983   50.6941   19.0777 H   0  0  0  0  0
    3.3406   50.6539   22.9014 H   0  0  0  0  0
    2.4027   51.7007   23.9948 H   0  0  0  0  0
    2.1602   49.9368   24.0255 H   0  0  0  0  0
    3.1248   59.5396   23.4370 H   0  0  0  0  0
    3.0469   61.1617   22.7360 H   0  0  0  0  0
    2.6221   52.8654   19.8478 H   0  0  0  0  0
    3.6356   52.1017   21.0964 H   0  0  0  0  0
    0.3343   51.0676   22.8289 H   0  0  0  0  0
    1.2735   50.0194   21.7339 H   0  0  0  0  0
    3.9804   57.7603   23.8930 H   0  0  0  0  0
  2  1  4  0  0  0
  1  7  4  0  0  0
  8  2  4  0  0  0
  3  6  4  0  0  0
  8  3  4  0  0  0
  5  4  4  0  0  0
 10  4  4  0  0  0
  4 11  1  0  0  0
  9  5  4  0  0  0
  5 18  1  0  0  0
  6  7  4  0  0  0
  6 22  1  0  0  0
 28  8  1  0  0  0
 12  9  1  0  0  0
  9 21  4  0  0  0
 10 13  1  0  0  0
 21 10  4  0  0  0
 11 14  1  0  0  0
 11 24  2  0  0  0
 22 12  1  0  0  0
 12 25  2  0  0  0
 18 15  1  0  0  0
 19 16  1  0  0  0
 20 17  1  0  0  0
 23 19  1  0  0  0
 23 20  1  0  0  0
 23 28  1  0  0  0
 28 26  2  0  0  0
 28 27  2  0  0  0
  1 29  1  0  0  0
  2 30  1  0  0  0
  3 31  1  0  0  0
  7 32  1  0  0  0
 13 33  1  0  0  0
 13 34  1  0  0  0
 13 35  1  0  0  0
 14 36  1  0  0  0
 14 37  1  0  0  0
 14 38  1  0  0  0
 15 39  1  0  0  0
 15 40  1  0  0  0
 15 41  1  0  0  0
 16 42  1  0  0  0
 16 43  1  0  0  0
 16 44  1  0  0  0
 17 45  1  0  0  0
 17 46  1  0  0  0
 17 47  1  0  0  0
 18 48  1  0  0  0
 18 49  1  0  0  0
 19 50  1  0  0  0
 19 51  1  0  0  0
 20 52  1  0  0  0
 20 53  1  0  0  0
 22 54  1  0  0  0
M  END
$$$$
