1w1y_ligand
  -I-interpret- 

 35 37  0  0  0  0  0  0  0  0999 V2000
   17.9710   43.0160  100.4770 N   0  0  0  0  0
   18.8720   42.5860  101.5650 C   0  0  0  0  0
   19.4970   43.8150  102.2060 C   0  0  0  0  0
   20.6540   43.8030  102.5850 O   0  0  0  0  0
   19.9510   41.6650  100.9840 C   0  0  0  0  0
   19.3380   40.3010  100.6820 C   0  0  0  0  0
   18.6840   40.0680   99.4470 C   0  0  0  0  0
   18.1010   38.8100   99.1950 C   0  0  0  0  0
   18.8270   38.0250  101.3960 C   0  0  0  0  0
   19.4100   39.2790  101.6540 C   0  0  0  0  0
   18.1710   37.7900  100.1700 C   0  0  0  0  0
   17.5920   36.5780   99.9300 O   0  0  0  0  0
   18.7050   44.9510  102.3990 N   0  0  0  0  0
   17.2770   44.8930  101.9930 C   0  0  0  0  0
   17.1890   44.1680  100.6480 C   0  0  0  0  0
   16.4730   44.5830   99.7290 O   0  0  0  0  0
   16.8370   46.3580  101.9130 C   0  0  0  0  0
   18.1340   47.1680  101.9520 C   0  0  0  0  0
   19.1040   46.3240  102.7740 C   0  0  0  0  0
   17.9178   42.4810   99.6102 H   0  0  0  0  0
   18.3178   42.0384  102.3273 H   0  0  0  0  0
   20.7606   41.5504  101.7048 H   0  0  0  0  0
   20.3466   42.0993  100.0659 H   0  0  0  0  0
   18.6321   40.8568   98.6965 H   0  0  0  0  0
   17.5958   38.6238   98.2473 H   0  0  0  0  0
   18.8824   37.2344  102.1443 H   0  0  0  0  0
   19.9161   39.4614  102.6020 H   0  0  0  0  0
   17.7296   36.0034  100.6866 H   0  0  0  0  0
   16.6319   44.3470  102.6814 H   0  0  0  0  0
   16.1717   46.6238  102.7344 H   0  0  0  0  0
   16.2650   46.5575  101.0068 H   0  0  0  0  0
   17.9815   48.1526  102.3940 H   0  0  0  0  0
   18.5179   47.3634  100.9507 H   0  0  0  0  0
   20.1515   46.5425  102.5662 H   0  0  0  0  0
   19.0436   46.5151  103.8454 H   0  0  0  0  0
  1  2  1  0  0  0
  1 15  1  0  0  0
  2  3  1  0  0  0
  2  5  1  0  0  0
  3  4  2  0  0  0
  3 13  1  0  0  0
  5  6  1  0  0  0
  6  7  4  0  0  0
  6 10  4  0  0  0
  7  8  4  0  0  0
  8 11  4  0  0  0
 10  9  4  0  0  0
  9 11  4  0  0  0
 11 12  1  0  0  0
 13 14  1  0  0  0
 13 19  1  0  0  0
 14 15  1  0  0  0
 14 17  1  0  0  0
 15 16  2  0  0  0
 17 18  1  0  0  0
 18 19  1  0  0  0
  1 20  1  0  0  0
  2 21  1  0  0  0
  5 22  1  0  0  0
  5 23  1  0  0  0
  7 24  1  0  0  0
  8 25  1  0  0  0
  9 26  1  0  0  0
 10 27  1  0  0  0
 12 28  1  0  0  0
 14 29  1  0  0  0
 17 30  1  0  0  0
 17 31  1  0  0  0
 18 32  1  0  0  0
 18 33  1  0  0  0
 19 34  1  0  0  0
 19 35  1  0  0  0
M  END
$$$$
