4ban_ligand
  -I-interpret- 

 67 69  0  0  0  0  0  0  0  0999 V2000
   18.7550  -14.5330   24.3130 C   0  0  0  0  0
   18.9820  -15.9020   24.9910 C   0  0  0  0  0
   19.5380  -15.7040   26.4150 C   0  0  0  0  0
   20.8480  -14.8930   26.3990 C   0  0  0  0  0
   20.6360  -13.5210   25.7340 C   0  0  0  0  0
   20.0780  -13.7220   24.3110 C   0  0  0  0  0
   16.9120  -15.4810   22.9110 N   0  3  0  0  0
   18.1870  -14.7150   22.8850 C   0  0  0  0  0
   17.8930  -13.3740   22.2670 C   0  0  0  0  0
   16.8400  -12.8000   22.5530 O   0  0  0  0  0
   18.7300  -12.7970   21.3670 N   0  0  0  0  0
   18.5620  -11.5920   20.5480 C   0  0  0  0  0
   17.1940  -11.7130   19.9190 C   0  0  0  0  0
   16.9030  -12.7360   19.3270 O   0  0  0  0  0
   16.2630  -10.7680   20.1290 N   0  0  0  0  0
   14.9340  -10.9720   19.5560 C   0  0  0  0  0
   13.9560  -10.9430   20.6920 C   0  0  0  0  0
   13.4490   -9.7210   21.0990 C   0  0  0  0  0
   12.5350   -9.6630   22.1360 C   0  0  0  0  0
   12.1730  -10.8340   22.8130 C   0  0  0  0  0
   12.7020  -12.0710   22.3980 C   0  0  0  0  0
   13.5990  -12.1160   21.3380 C   0  0  0  0  0
   11.1560  -10.7780   23.9000 C   0  0  0  0  0
   10.4320  -11.8410   24.1870 N   0  0  0  0  0
   10.8940   -9.5970   24.5570 N   0  0  0  0  0
   19.7500  -11.9790   19.6520 C   0  0  0  0  0
   19.9870  -13.1160   20.6570 C   0  0  0  0  0
   16.3280  -15.8450   21.5910 C   0  0  0  0  0
   14.8150  -15.9560   21.6790 C   0  0  0  0  0
   14.2850  -16.3140   22.7220 O   0  0  0  0  0
   12.5900  -15.6930   20.5780 C   0  0  0  0  0
   14.0640  -15.6410   20.5900 N   0  0  0  0  0
   18.0146  -13.9695   24.8808 H   0  0  0  0  0
   19.6988  -16.4766   24.4044 H   0  0  0  0  0
   18.0322  -16.4336   25.0492 H   0  0  0  0  0
   19.7427  -16.6840   26.8461 H   0  0  0  0  0
   18.7997  -15.1578   27.0021 H   0  0  0  0  0
   21.5960  -15.4462   25.8310 H   0  0  0  0  0
   21.1768  -14.7376   27.4265 H   0  0  0  0  0
   21.5874  -12.9918   25.6804 H   0  0  0  0  0
   19.9290  -12.9366   26.3229 H   0  0  0  0  0
   19.8747  -12.7402   23.8833 H   0  0  0  0  0
   20.8161  -14.2762   23.7312 H   0  0  0  0  0
   16.2281  -14.8754   23.3648 H   0  0  0  0  0
   17.1218  -16.3624   23.3795 H   0  0  0  0  0
   18.9363  -15.2545   22.3058 H   0  0  0  0  0
   18.5783  -10.5739   20.9370 H   0  0  0  0  0
   16.4773   -9.9320   20.6727 H   0  0  0  0  0
   14.8840  -11.9248   19.0290 H   0  0  0  0  0
   14.7039  -10.1924   18.8298 H   0  0  0  0  0
   13.7696   -8.8050   20.6028 H   0  0  0  0  0
   12.0975   -8.7075   22.4254 H   0  0  0  0  0
   12.4090  -12.9896   22.9063 H   0  0  0  0  0
   14.0197  -13.0687   21.0162 H   0  0  0  0  0
   10.5669  -12.7063   23.6641 H   0  0  0  0  0
   10.1496   -9.5549   25.2531 H   0  0  0  0  0
   11.4443   -8.7640   24.3477 H   0  0  0  0  0
   20.5300  -11.2702   19.3740 H   0  0  0  0  0
   19.6440  -12.1553   18.5816 H   0  0  0  0  0
   20.1471  -14.1287   20.2870 H   0  0  0  0  0
   20.9218  -13.1454   21.2168 H   0  0  0  0  0
   16.7327  -16.8090   21.2827 H   0  0  0  0  0
   16.5809  -15.0679   20.8697 H   0  0  0  0  0
   12.2618  -16.7089   20.7977 H   0  0  0  0  0
   12.1975  -15.0117   21.3329 H   0  0  0  0  0
   12.2253  -15.3967   19.5945 H   0  0  0  0  0
   14.5448  -15.3540   19.7375 H   0  0  0  0  0
  1  2  1  0  0  0
  1  6  1  0  0  0
  1  8  1  0  0  0
  2  3  1  0  0  0
  3  4  1  0  0  0
  4  5  1  0  0  0
  5  6  1  0  0  0
  8  7  1  0  0  0
  7 28  1  0  0  0
  8  9  1  0  0  0
  9 10  2  0  0  0
  9 11  1  0  0  0
 11 12  1  0  0  0
 11 27  1  0  0  0
 12 13  1  0  0  0
 12 26  1  0  0  0
 13 14  2  0  0  0
 13 15  1  0  0  0
 15 16  1  0  0  0
 16 17  1  0  0  0
 17 18  4  0  0  0
 17 22  4  0  0  0
 18 19  4  0  0  0
 19 20  4  0  0  0
 20 21  4  0  0  0
 20 23  1  0  0  0
 21 22  4  0  0  0
 23 24  2  0  0  0
 23 25  1  0  0  0
 26 27  1  0  0  0
 28 29  1  0  0  0
 29 30  2  0  0  0
 29 32  1  0  0  0
 32 31  1  0  0  0
  1 33  1  0  0  0
  2 34  1  0  0  0
  2 35  1  0  0  0
  3 36  1  0  0  0
  3 37  1  0  0  0
  4 38  1  0  0  0
  4 39  1  0  0  0
  5 40  1  0  0  0
  5 41  1  0  0  0
  6 42  1  0  0  0
  6 43  1  0  0  0
  7 44  1  0  0  0
  7 45  1  0  0  0
  8 46  1  0  0  0
 12 47  1  0  0  0
 15 48  1  0  0  0
 16 49  1  0  0  0
 16 50  1  0  0  0
 18 51  1  0  0  0
 19 52  1  0  0  0
 21 53  1  0  0  0
 22 54  1  0  0  0
 24 55  1  0  0  0
 25 56  1  0  0  0
 25 57  1  0  0  0
 26 58  1  0  0  0
 26 59  1  0  0  0
 27 60  1  0  0  0
 27 61  1  0  0  0
 28 62  1  0  0  0
 28 63  1  0  0  0
 31 64  1  0  0  0
 31 65  1  0  0  0
 31 66  1  0  0  0
 32 67  1  0  0  0
M  END
$$$$
