6fnq_ligand
  -I-interpret- 

 29 29  0  0  0  0  0  0  0  0999 V2000
    7.8840   17.6830   17.3230 C   0  0  0  0  0
   10.1710   17.5710   16.8070 C   0  0  0  0  0
    8.6890   18.5790   15.2980 C   0  0  0  0  0
    7.6750   15.9520   13.3890 O   0  0  0  0  0
    6.2580   16.3960   14.9910 O   0  0  0  0  0
    9.0630   13.1130   14.8120 C   0  0  0  0  0
    8.5000   15.0240   16.5360 C   0  0  0  0  0
    7.4020   12.6950   16.2480 N   0  0  0  0  0
    8.5890   11.8290   14.5460 N   0  0  0  0  0
    7.4520   16.1530   14.6040 C   0  0  0  0  0
    8.3320   13.6410   15.8630 C   0  0  0  0  0
    7.5680   11.5880   15.4250 C   0  0  0  0  0
    8.6310   16.1900   15.5510 C   0  0  0  0  0
    8.8150   17.4880   16.2270 N   0  3  0  0  0
    6.8634   17.6448   16.9422 H   0  0  0  0  0
    8.0266   16.8960   18.0635 H   0  0  0  0  0
    8.0652   18.6541   17.7836 H   0  0  0  0  0
   10.3047   16.7677   17.5315 H   0  0  0  0  0
   10.9111   17.4726   16.0129 H   0  0  0  0  0
   10.2943   18.5337   17.3031 H   0  0  0  0  0
    9.4454   18.4807   14.5194 H   0  0  0  0  0
    7.6968   18.5579   14.8472 H   0  0  0  0  0
    8.8296   19.5222   15.8260 H   0  0  0  0  0
    6.2514   16.5266   15.9421 H   0  0  0  0  0
    9.8720   13.6160   14.2823 H   0  0  0  0  0
    9.4214   14.9890   17.1172 H   0  0  0  0  0
    7.6037   15.2037   17.1297 H   0  0  0  0  0
    6.9784   10.6724   15.4720 H   0  0  0  0  0
    9.5430   16.0737   14.9655 H   0  0  0  0  0
 14  1  1  0  0  0
 14  2  1  0  0  0
 14  3  1  0  0  0
 10  4  2  0  0  0
 10  5  1  0  0  0
  6  9  4  0  0  0
 11  6  4  0  0  0
  7 11  1  0  0  0
 13  7  1  0  0  0
 11  8  4  0  0  0
  8 12  4  0  0  0
 12  9  4  0  0  0
 13 10  1  0  0  0
 13 14  1  0  0  0
  1 15  1  0  0  0
  1 16  1  0  0  0
  1 17  1  0  0  0
  2 18  1  0  0  0
  2 19  1  0  0  0
  2 20  1  0  0  0
  3 21  1  0  0  0
  3 22  1  0  0  0
  3 23  1  0  0  0
  5 24  1  0  0  0
  6 25  1  0  0  0
  7 26  1  0  0  0
  7 27  1  0  0  0
 12 28  1  0  0  0
 13 29  1  0  0  0
M  END
$$$$
