4o3b_ligand
  -I-interpret- 

 20 19  0  0  0  0  0  0  0  0999 V2000
    8.5400  103.9930   25.0710 N   0  3  0  0  0
    9.0540  105.3580   25.1980 C   0  0  0  0  0
    9.3360  105.7030   26.6380 C   0  0  0  0  0
    9.5480  106.8820   26.9440 O   0  0  0  0  0
    8.0290  106.3550   24.6730 C   0  0  0  0  0
    8.0940  106.5740   23.2570 C   0  0  0  0  0
    9.3100  107.3300   22.8530 C   0  0  0  0  0
    9.6440  107.1540   21.6720 O   0  0  0  0  0
    9.8750  108.1250   23.6750 O   0  0  0  0  0
    9.3060  104.8150   27.5040 O   0  0  0  0  0
    9.2343  103.3352   25.4254 H   0  0  0  0  0
    7.6789  103.9037   25.6104 H   0  0  0  0  0
    8.3499  103.7925   24.0891 H   0  0  0  0  0
    9.9768  105.4119   24.6203 H   0  0  0  0  0
    8.2330  107.3106   25.1560 H   0  0  0  0  0
    7.0421  105.9464   24.8904 H   0  0  0  0  0
    7.2218  107.1598   22.9668 H   0  0  0  0  0
    8.1247  105.6008   22.7671 H   0  0  0  0  0
    9.4282  108.0770   24.5233 H   0  0  0  0  0
    9.1304  103.9685   27.0867 H   0  0  0  0  0
  1  2  1  0  0  0
  2  3  1  0  0  0
  2  5  1  0  0  0
  3  4  2  0  0  0
  3 10  1  0  0  0
  5  6  1  0  0  0
  6  7  1  0  0  0
  7  8  2  0  0  0
  7  9  1  0  0  0
  1 11  1  0  0  0
  1 12  1  0  0  0
  1 13  1  0  0  0
  2 14  1  0  0  0
  5 15  1  0  0  0
  5 16  1  0  0  0
  6 17  1  0  0  0
  6 18  1  0  0  0
  9 19  1  0  0  0
 10 20  1  0  0  0
M  END
$$$$
