4bnt_ligand
  -I-interpret- 

 17 18  0  0  0  0  0  0  0  0999 V2000
   -4.3890    3.0500  -37.7880 C   0  0  0  0  0
   -5.6680    2.6360  -38.1530 C   0  0  0  0  0
   -9.6920    6.1050  -40.7190 F   0  0  0  0  0
   -4.0280    4.3770  -38.0060 C   0  0  0  0  0
   -4.9510    5.2420  -38.5750 C   0  0  0  0  0
   -6.1670    4.8020  -38.9050 C   0  0  0  0  0
   -6.5150    3.5160  -38.6970 C   0  0  0  0  0
  -10.5950    4.5360  -39.2900 F   0  0  0  0  0
   -9.5980    4.7620  -40.1860 C   0  0  0  0  0
   -8.1900    4.5350  -39.5710 C   0  0  0  0  0
   -7.2090    5.4380  -39.4540 N   0  0  0  0  0
   -7.7700    3.3540  -39.1160 N   0  0  0  0  0
   -9.7230    3.8370  -41.1830 F   0  0  0  0  0
   -3.6846    2.3488  -37.3405 H   0  0  0  0  0
   -5.9760    1.6022  -37.9963 H   0  0  0  0  0
   -3.0339    4.7311  -37.7333 H   0  0  0  0  0
   -4.6826    6.2833  -38.7530 H   0  0  0  0  0
  2  1  4  0  0  0
  4  1  4  0  0  0
  7  2  4  0  0  0
  9  3  1  0  0  0
  5  4  4  0  0  0
  6  5  4  0  0  0
  6  7  4  0  0  0
 11  6  4  0  0  0
  7 12  4  0  0  0
  9  8  1  0  0  0
 10  9  1  0  0  0
  9 13  1  0  0  0
 10 11  4  0  0  0
 10 12  4  0  0  0
  1 14  1  0  0  0
  2 15  1  0  0  0
  4 16  1  0  0  0
  5 17  1  0  0  0
M  END
$$$$
