### 
### Created by X-TOOL on Mon Aug  2 16:11:00 2021
### 

@<TRIPOS>MOLECULE
6n94_ligand
   91    93     1     0     0
SMALL
GAST_HUCK


@<TRIPOS>ATOM
      1 N1         26.9890   22.0890   15.5960 N.ar      1 KGJ        -0.2698
      2 C2         26.4520   23.1910   14.9690 C.ar      1 KGJ         0.0533
      3 N3         25.3440   23.7870   15.4100 N.ar      1 KGJ        -0.2714
      4 C4         24.7850   23.3140   16.5500 C.ar      1 KGJ         0.1613
      5 C5         25.3250   22.1630   17.2940 C.ar      1 KGJ         0.1045
      6 C6         26.5010   21.5690   16.7420 C.ar      1 KGJ         0.1298
      7 N6         27.0560   20.5440   17.3970 N.pl3     1 KGJ        -0.3152
      8 N7         24.5250   21.9110   18.3690 N.2       1 KGJ        -0.2958
      9 C8         23.5620   22.8520   18.3470 C.2       1 KGJ         0.1123
     10 N9         23.7410   23.6760   17.2560 N.pl3     1 KGJ        -0.1919
     11 C1'        22.9250   24.8630   16.8360 C.3       1 KGJ         0.2013
     12 C2'        21.4920   24.4370   16.5340 C.3       1 KGJ         0.1432
     13 O2'        21.2830   23.7860   15.2410 O.3       1 KGJ        -0.3832
     14 C3'        20.8360   25.7900   16.7550 C.3       1 KGJ         0.1487
     15 O3'        20.9160   26.5220   15.5390 O.3       1 KGJ        -0.2674
     16 C4'        21.6390   26.4600   17.8870 C.3       1 KGJ         0.1235
     17 O4'        22.9970   25.9200   17.8630 O.3       1 KGJ        -0.3360
     18 C5'        20.9750   26.1700   19.2300 C.3       1 KGJ         0.1131
     19 O5'        20.5170   24.8180   19.1570 O.3       1 KGJ        -0.2476
     20 O31        20.2920   27.9820   13.7430 O.co2     1 KGJ        -0.5537
     21 P3         19.7040   27.5230   15.0580 P.3       1 KGJ         0.2013
     22 O32        19.7220   28.6580   16.0770 O.co2     1 KGJ        -0.5537
     23 O33        18.4600   26.6390   15.0630 O.co2     1 KGJ        -0.5537
     24 P1         19.1120   24.1910   19.5670 P.3       1 KGJ         0.2972
     25 O11        18.8330   22.7890   19.0500 O.co2     1 KGJ        -0.6127
     26 O12        18.2320   25.3080   19.0480 O.co2     1 KGJ        -0.6127
     27 O6         18.9040   24.0510   21.1810 O.3       1 KGJ        -0.1319
     28 P2         18.3440   22.8280   22.0860 P.3       1 KGJ         0.2971
     29 O21        16.9470   22.4750   21.6960 O.co2     1 KGJ        -0.6127
     30 O22        18.4220   23.4710   23.4340 O.co2     1 KGJ        -0.6127
     31 O7         19.1620   21.4300   22.1540 O.3       1 KGJ        -0.2496
     32 CPB        20.5110   21.4550   22.5120 C.3       1 KGJ         0.0936
     33 CPA        21.1140   20.1930   21.9730 C.3       1 KGJ         0.0367
     34 CP9        20.5470   19.0110   22.7500 C.3       1 KGJ        -0.0528
     35 CP8        22.6070   20.3090   22.2570 C.3       1 KGJ        -0.0528
     36 CP7        20.8470   20.0610   20.4560 C.3       1 KGJ         0.1510
     37 OP3        21.2210   21.2500   19.7870 O.3       1 KGJ        -0.3708
     38 CP6        21.6580   18.9680   19.8660 C.2       1 KGJ         0.2057
     39 OP2        21.4560   17.7810   20.1660 O.2       1 KGJ        -0.3942
     40 NP2        22.6750   19.3640   19.1120 N.am      1 KGJ        -0.2826
     41 CP5        23.5810   18.3880   18.5530 C.3       1 KGJ         0.0477
     42 CP4        24.4410   17.7720   19.6250 C.3       1 KGJ         0.0574
     43 CP3        25.4120   16.8120   18.9790 C.2       1 KGJ         0.1780
     44 OP1        24.9810   15.7890   18.5110 O.2       1 KGJ        -0.3970
     45 NP1        26.6960   17.1300   18.9280 N.am      1 KGJ        -0.2850
     46 CP2        27.7080   16.2650   18.4210 C.3       1 KGJ         0.0510
     47 CP1        28.4350   16.8130   17.2530 C.3       1 KGJ         0.0511
     48 N          29.3000   15.7140   16.8120 N.am      1 KGJ        -0.2827
     49 CS1        30.7080   15.6340   17.2300 C.2       1 KGJ         0.2144
     50 OS1        31.2120   16.4200   18.0090 O.2       1 KGJ        -0.3940
     51 CS2        31.5410   14.5890   16.5870 C.3       1 KGJ         0.2612
     52 CS3        33.0430   14.7160   16.7310 C.3       1 KGJ        -0.0118
     53 NS4        31.0270   13.6810   15.8460 N.2       1 KGJ         0.3129
     54 OS4        29.8500   13.7100   15.5380 O.2       1 KGJ         0.1890
     55 OS5        31.7400   12.8490   15.3370 O.2       1 KGJ         0.1890
     56 H1         26.9459   23.5865   14.0888 H         1 KGJ         0.0996
     57 H2         26.6291   20.1977   18.2680 H         1 KGJ         0.1820
     58 H3         27.9105   20.1007   17.0306 H         1 KGJ         0.1820
     59 H4         22.7625   22.9478   19.0802 H         1 KGJ         0.1349
     60 H5         23.3573   25.2667   15.9086 H         1 KGJ         0.0996
     61 H6         21.1406   23.7261   17.2963 H         1 KGJ         0.0680
     62 H7         21.5375   24.3794   14.5441 H         1 KGJ         0.2101
     63 H8         19.7830   25.6753   17.0516 H         1 KGJ         0.0704
     64 H9         21.6718   27.5476   17.7255 H         1 KGJ         0.0654
     65 H10        20.1280   26.8525   19.3933 H         1 KGJ         0.0648
     66 H11        21.7011   26.2843   20.0484 H         1 KGJ         0.0648
     67 H12        20.6138   21.4887   23.6067 H         1 KGJ         0.0628
     68 H13        21.0059   22.3323   22.0701 H         1 KGJ         0.0628
     69 H14        20.9813   18.0767   22.3647 H         1 KGJ         0.0238
     70 H15        19.4539   18.9839   22.6303 H         1 KGJ         0.0238
     71 H16        20.7966   19.1191   23.8158 H         1 KGJ         0.0238
     72 H17        23.0214   21.1611   21.6983 H         1 KGJ         0.0238
     73 H18        23.1129   19.3840   21.9433 H         1 KGJ         0.0238
     74 H19        22.7642   20.4657   23.3344 H         1 KGJ         0.0238
     75 H20        19.7776   19.8601   20.2951 H         1 KGJ         0.0844
     76 H21        20.7150   21.9774   20.1296 H         1 KGJ         0.2133
     77 H22        22.8143   20.3375   18.9308 H         1 KGJ         0.1853
     78 H23        24.2278   18.8807   17.8122 H         1 KGJ         0.0545
     79 H24        22.9974   17.5959   18.0611 H         1 KGJ         0.0545
     80 H25        23.8067   17.2297   20.3416 H         1 KGJ         0.0522
     81 H26        24.9971   18.5614   20.1518 H         1 KGJ         0.0522
     82 H27        26.9717   18.0302   19.2651 H         1 KGJ         0.1851
     83 H28        27.2360   15.3175   18.1219 H         1 KGJ         0.0540
     84 H29        28.4355   16.0749   19.2239 H         1 KGJ         0.0540
     85 H30        29.0352   17.6878   17.5437 H         1 KGJ         0.0540
     86 H31        27.7323   17.0987   16.4564 H         1 KGJ         0.0540
     87 H32        28.9251   15.0047   16.2151 H         1 KGJ         0.1852
     88 H33        31.4715   13.9381   17.4710 H         1 KGJ         0.0933
     89 H34        33.2772   15.5520   17.4065 H         1 KGJ         0.0282
     90 H35        33.4913   14.9052   15.7445 H         1 KGJ         0.0282
     91 H36        33.4517   13.7832   17.1467 H         1 KGJ         0.0282
@<TRIPOS>BOND
     1    1    2 ar 
     2    1    6 ar 
     3    2    3 ar 
     4    3    4 ar 
     5    4    5 ar 
     6    4   10 1  
     7    5    6 ar 
     8    5    8 1  
     9    6    7 1  
    10    8    9 2  
    11    9   10 1  
    12   10   11 1  
    13   11   12 1  
    14   11   17 1  
    15   12   13 1  
    16   12   14 1  
    17   14   15 1  
    18   14   16 1  
    19   15   21 1  
    20   16   17 1  
    21   16   18 1  
    22   18   19 1  
    23   19   24 1  
    24   21   20 ar 
    25   21   22 ar 
    26   21   23 ar 
    27   24   25 ar 
    28   24   26 ar 
    29   24   27 1  
    30   27   28 1  
    31   28   29 ar 
    32   28   30 ar 
    33   28   31 1  
    34   31   32 1  
    35   32   33 1  
    36   33   34 1  
    37   33   35 1  
    38   33   36 1  
    39   36   37 1  
    40   36   38 1  
    41   38   39 2  
    42   38   40 am 
    43   40   41 1  
    44   41   42 1  
    45   42   43 1  
    46   43   44 2  
    47   43   45 am 
    48   45   46 1  
    49   46   47 1  
    50   47   48 1  
    51   48   49 am 
    52   49   50 2  
    53   49   51 1  
    54   51   52 1  
    55   51   53 1  
    56   53   54 2  
    57   53   55 2  
    58    2   56 1  
    59    7   57 1  
    60    7   58 1  
    61    9   59 1  
    62   11   60 1  
    63   12   61 1  
    64   13   62 1  
    65   14   63 1  
    66   16   64 1  
    67   18   65 1  
    68   18   66 1  
    69   32   67 1  
    70   32   68 1  
    71   34   69 1  
    72   34   70 1  
    73   34   71 1  
    74   35   72 1  
    75   35   73 1  
    76   35   74 1  
    77   36   75 1  
    78   37   76 1  
    79   40   77 1  
    80   41   78 1  
    81   41   79 1  
    82   42   80 1  
    83   42   81 1  
    84   45   82 1  
    85   46   83 1  
    86   46   84 1  
    87   47   85 1  
    88   47   86 1  
    89   48   87 1  
    90   51   88 1  
    91   52   89 1  
    92   52   90 1  
    93   52   91 1  
@<TRIPOS>SUBSTRUCTURE
     1 KGJ         1

