6n94_ligand
  -I-interpret- 

 95 97  0  0  0  0  0  0  0  0999 V2000
   26.9890   22.0890   15.5960 N   0  0  0  0  0
   26.4520   23.1910   14.9690 C   0  0  0  0  0
   25.3440   23.7870   15.4100 N   0  0  0  0  0
   24.7850   23.3140   16.5500 C   0  0  0  0  0
   25.3250   22.1630   17.2940 C   0  0  0  0  0
   26.5010   21.5690   16.7420 C   0  0  0  0  0
   27.0560   20.5440   17.3970 N   0  0  0  0  0
   24.5250   21.9110   18.3690 N   0  0  0  0  0
   23.5620   22.8520   18.3470 C   0  0  0  0  0
   23.7410   23.6760   17.2560 N   0  0  0  0  0
   22.9250   24.8630   16.8360 C   0  0  0  0  0
   21.4920   24.4370   16.5340 C   0  0  0  0  0
   21.2830   23.7860   15.2410 O   0  0  0  0  0
   20.8360   25.7900   16.7550 C   0  0  0  0  0
   20.9160   26.5220   15.5390 O   0  0  0  0  0
   21.6390   26.4600   17.8870 C   0  0  0  0  0
   22.9970   25.9200   17.8630 O   0  0  0  0  0
   20.9750   26.1700   19.2300 C   0  0  0  0  0
   20.5170   24.8180   19.1570 O   0  0  0  0  0
   20.2920   27.9820   13.7430 O   0  0  0  0  0
   19.7040   27.5230   15.0580 P   0  0  0  0  0
   19.7220   28.6580   16.0770 O   0  0  0  0  0
   18.4600   26.6390   15.0630 O   0  0  0  0  0
   19.1120   24.1910   19.5670 P   0  0  0  0  0
   18.8330   22.7890   19.0500 O   0  0  0  0  0
   18.2320   25.3080   19.0480 O   0  0  0  0  0
   18.9040   24.0510   21.1810 O   0  0  0  0  0
   18.3440   22.8280   22.0860 P   0  0  0  0  0
   16.9470   22.4750   21.6960 O   0  0  0  0  0
   18.4220   23.4710   23.4340 O   0  0  0  0  0
   19.1620   21.4300   22.1540 O   0  0  0  0  0
   20.5110   21.4550   22.5120 C   0  0  0  0  0
   21.1140   20.1930   21.9730 C   0  0  0  0  0
   20.5470   19.0110   22.7500 C   0  0  0  0  0
   22.6070   20.3090   22.2570 C   0  0  0  0  0
   20.8470   20.0610   20.4560 C   0  0  0  0  0
   21.2210   21.2500   19.7870 O   0  0  0  0  0
   21.6580   18.9680   19.8660 C   0  0  0  0  0
   21.4560   17.7810   20.1660 O   0  0  0  0  0
   22.6750   19.3640   19.1120 N   0  0  0  0  0
   23.5810   18.3880   18.5530 C   0  0  0  0  0
   24.4410   17.7720   19.6250 C   0  0  0  0  0
   25.4120   16.8120   18.9790 C   0  0  0  0  0
   24.9810   15.7890   18.5110 O   0  0  0  0  0
   26.6960   17.1300   18.9280 N   0  0  0  0  0
   27.7080   16.2650   18.4210 C   0  0  0  0  0
   28.4350   16.8130   17.2530 C   0  0  0  0  0
   29.3000   15.7140   16.8120 N   0  0  0  0  0
   30.7080   15.6340   17.2300 C   0  0  0  0  0
   31.2120   16.4200   18.0090 O   0  0  0  0  0
   31.5410   14.5890   16.5870 C   0  0  0  0  0
   33.0430   14.7160   16.7310 C   0  0  0  0  0
   31.0270   13.6810   15.8460 N   0  0  0  0  0
   29.8500   13.7100   15.5380 O   0  0  0  0  0
   31.7400   12.8490   15.3370 O   0  0  0  0  0
   26.9486   23.5887   14.0839 H   0  0  0  0  0
   27.9022   20.1050   17.0341 H   0  0  0  0  0
   26.6332   20.2010   18.2596 H   0  0  0  0  0
   22.7618   22.9479   19.0809 H   0  0  0  0  0
   23.3349   25.2814   15.9168 H   0  0  0  0  0
   21.0839   23.6270   17.1384 H   0  0  0  0  0
   20.3556   23.5573   15.1453 H   0  0  0  0  0
   19.7838   25.7280   17.0327 H   0  0  0  0  0
   21.6684   27.5405   17.7466 H   0  0  0  0  0
   20.1506   26.8572   19.4202 H   0  0  0  0  0
   21.6744   26.3067   20.0548 H   0  0  0  0  0
   19.3457   28.3495   16.9046 H   0  0  0  0  0
   18.2159   26.4371   15.9692 H   0  0  0  0  0
   19.4518   22.1730   19.4490 H   0  0  0  0  0
   19.3375   23.6773   23.6364 H   0  0  0  0  0
   20.6280   21.5138   23.5941 H   0  0  0  0  0
   21.0089   22.3334   22.1014 H   0  0  0  0  0
   20.7950   19.1194   23.8059 H   0  0  0  0  0
   19.4639   18.9853   22.6306 H   0  0  0  0  0
   20.9781   18.0859   22.3673 H   0  0  0  0  0
   23.0041   21.1900   21.7528 H   0  0  0  0  0
   22.7650   20.4016   23.3315 H   0  0  0  0  0
   23.1158   19.4180   21.8891 H   0  0  0  0  0
   19.7831   19.8565   20.3364 H   0  0  0  0  0
   21.0501   21.1543   18.8472 H   0  0  0  0  0
   22.8170   20.3570   18.9272 H   0  0  0  0  0
   24.2272   18.8853   17.8296 H   0  0  0  0  0
   22.9962   17.5999   18.0786 H   0  0  0  0  0
   23.8145   17.2383   20.3396 H   0  0  0  0  0
   24.9893   18.5526   20.1524 H   0  0  0  0  0
   26.9772   18.0482   19.2719 H   0  0  0  0  0
   27.2176   15.3472   18.0965 H   0  0  0  0  0
   28.4376   16.1176   19.2173 H   0  0  0  0  0
   29.0059   17.7057   17.5085 H   0  0  0  0  0
   27.7562   17.1406   16.4656 H   0  0  0  0  0
   28.9176   14.9905   16.2031 H   0  0  0  0  0
   31.2228   13.7099   17.1473 H   0  0  0  0  0
   33.3701   15.6596   16.2943 H   0  0  0  0  0
   33.3087   14.6918   17.7878 H   0  0  0  0  0
   33.5276   13.8877   16.2141 H   0  0  0  0  0
  1  2  4  0  0  0
  1  6  4  0  0  0
  2  3  4  0  0  0
  3  4  4  0  0  0
  4  5  4  0  0  0
  4 10  4  0  0  0
  5  6  4  0  0  0
  5  8  4  0  0  0
  6  7  1  0  0  0
  8  9  4  0  0  0
  9 10  4  0  0  0
 10 11  1  0  0  0
 11 12  1  0  0  0
 11 17  1  0  0  0
 12 13  1  0  0  0
 12 14  1  0  0  0
 14 15  1  0  0  0
 14 16  1  0  0  0
 15 21  1  0  0  0
 16 17  1  0  0  0
 16 18  1  0  0  0
 18 19  1  0  0  0
 19 24  1  0  0  0
 21 20  2  0  0  0
 21 22  1  0  0  0
 21 23  1  0  0  0
 24 25  1  0  0  0
 24 26  2  0  0  0
 24 27  1  0  0  0
 27 28  1  0  0  0
 28 29  2  0  0  0
 28 30  1  0  0  0
 28 31  1  0  0  0
 31 32  1  0  0  0
 32 33  1  0  0  0
 33 34  1  0  0  0
 33 35  1  0  0  0
 33 36  1  0  0  0
 36 37  1  0  0  0
 36 38  1  0  0  0
 38 39  2  0  0  0
 38 40  1  0  0  0
 40 41  1  0  0  0
 41 42  1  0  0  0
 42 43  1  0  0  0
 43 44  2  0  0  0
 43 45  1  0  0  0
 45 46  1  0  0  0
 46 47  1  0  0  0
 47 48  1  0  0  0
 48 49  1  0  0  0
 49 50  2  0  0  0
 49 51  1  0  0  0
 51 52  1  0  0  0
 51 53  1  0  0  0
 53 54  2  0  0  0
 53 55  2  0  0  0
  2 56  1  0  0  0
  7 57  1  0  0  0
  7 58  1  0  0  0
  9 59  1  0  0  0
 11 60  1  0  0  0
 12 61  1  0  0  0
 13 62  1  0  0  0
 14 63  1  0  0  0
 16 64  1  0  0  0
 18 65  1  0  0  0
 18 66  1  0  0  0
 22 67  1  0  0  0
 23 68  1  0  0  0
 25 69  1  0  0  0
 30 70  1  0  0  0
 32 71  1  0  0  0
 32 72  1  0  0  0
 34 73  1  0  0  0
 34 74  1  0  0  0
 34 75  1  0  0  0
 35 76  1  0  0  0
 35 77  1  0  0  0
 35 78  1  0  0  0
 36 79  1  0  0  0
 37 80  1  0  0  0
 40 81  1  0  0  0
 41 82  1  0  0  0
 41 83  1  0  0  0
 42 84  1  0  0  0
 42 85  1  0  0  0
 45 86  1  0  0  0
 46 87  1  0  0  0
 46 88  1  0  0  0
 47 89  1  0  0  0
 47 90  1  0  0  0
 48 91  1  0  0  0
 51 92  1  0  0  0
 52 93  1  0  0  0
 52 94  1  0  0  0
 52 95  1  0  0  0
M  END
$$$$
