1ke9_ligand
  -I-interpret- 

 39 41  0  0  0  0  0  0  0  0999 V2000
   -9.5700   52.7640   13.5930 N   0  0  0  0  0
  -10.0190   51.8650   12.6860 C   0  0  0  0  0
   -9.3120   50.5910   12.9160 C   0  0  0  0  0
   -7.7000   49.9500   14.8400 C   0  0  0  0  0
   -7.0590   50.4430   16.0050 C   0  0  0  0  0
   -7.2090   51.7970   16.3550 C   0  0  0  0  0
   -7.9970   52.6630   15.5720 C   0  0  0  0  0
   -8.6820   52.1550   14.4540 C   0  0  0  0  0
   -8.5150   50.8400   14.0960 C   0  0  0  0  0
  -10.8660   52.0250   11.8180 O   0  0  0  0  0
   -9.3980   49.4830   12.1580 C   0  0  0  0  0
  -10.2490   49.4850   10.9500 N   0  0  0  0  0
  -10.3340   48.4460   10.0880 C   0  0  0  0  0
  -11.3950   48.4690    9.1760 C   0  0  0  0  0
  -11.5090   47.4790    8.1940 C   0  0  0  0  0
  -10.5670   46.4430    8.1460 C   0  0  0  0  0
   -9.5480   46.3760    9.0990 C   0  0  0  0  0
   -9.4230   47.3750   10.0590 C   0  0  0  0  0
  -10.7040   45.2560    6.8260 S   0  0  0  0  0
  -10.2000   43.9530    7.1760 O   0  0  0  0  0
  -10.2260   45.9490    5.6880 O   0  0  0  0  0
  -12.3310   45.0510    6.7050 N   0  0  0  0  0
  -13.0290   44.3140    7.6640 C   0  0  0  0  0
  -12.4570   43.3530    8.4190 N   0  0  0  0  0
  -14.3340   44.5470    7.8660 N   0  0  0  0  0
   -9.8471   53.7448   13.6334 H   0  0  0  0  0
   -7.5696   48.9147   14.5251 H   0  0  0  0  0
   -6.4556   49.7787   16.6236 H   0  0  0  0  0
   -6.7088   52.1812   17.2440 H   0  0  0  0  0
   -8.0752   53.7189   15.8308 H   0  0  0  0  0
   -8.8420   48.5870   12.4339 H   0  0  0  0  0
  -10.8044   50.3180   10.7549 H   0  0  0  0  0
  -12.1384   49.2643    9.2311 H   0  0  0  0  0
  -12.3246   47.5134    7.4717 H   0  0  0  0  0
   -8.8494   45.5393    9.0905 H   0  0  0  0  0
   -8.6166   47.3275   10.7909 H   0  0  0  0  0
  -11.4674   43.1348    8.3030 H   0  0  0  0  0
  -13.0142   42.8447    9.1057 H   0  0  0  0  0
  -14.8150   45.2615    7.3196 H   0  0  0  0  0
  1  8  1  0  0  0
  1  2  1  0  0  0
  2 10  2  0  0  0
  2  3  1  0  0  0
  3 11  2  0  0  0
  3  9  1  0  0  0
  9  8  4  0  0  0
  9  4  4  0  0  0
  4  5  4  0  0  0
  5  6  4  0  0  0
  6  7  4  0  0  0
  7  8  4  0  0  0
 11 12  1  0  0  0
 12 13  1  0  0  0
 13 18  4  0  0  0
 13 14  4  0  0  0
 14 15  4  0  0  0
 15 16  4  0  0  0
 16 19  1  0  0  0
 16 17  4  0  0  0
 17 18  4  0  0  0
 19 22  1  0  0  0
 19 21  2  0  0  0
 19 20  2  0  0  0
 22 23  4  0  0  0
 23 25  2  0  0  0
 23 24  1  0  0  0
  1 26  1  0  0  0
  4 27  1  0  0  0
  5 28  1  0  0  0
  6 29  1  0  0  0
  7 30  1  0  0  0
 11 31  1  0  0  0
 12 32  1  0  0  0
 14 33  1  0  0  0
 15 34  1  0  0  0
 17 35  1  0  0  0
 18 36  1  0  0  0
 24 37  1  0  0  0
 24 38  1  0  0  0
 25 39  1  0  0  0
M  END
$$$$
