5iez_ligand
  -I-interpret- 

 74 78  0  0  0  0  0  0  0  0999 V2000
   13.1020  -10.4350   18.1840 C   0  0  0  0  0
   14.7140  -11.8340   19.3380 C   0  0  0  0  0
   11.0160  -10.7520   25.0880 C   0  0  0  0  0
   11.6410   -9.3720   25.2490 C   0  0  0  0  0
   11.9270   -9.0420   27.5250 C   0  0  0  0  0
   11.9570   -9.9230   29.8840 C   0  0  0  0  0
   10.9720   -9.1210   31.9340 C   0  0  0  0  0
    7.3850  -14.6530   27.8570 Cl  0  0  0  0  0
    8.4470  -13.4690   27.0790 C   0  0  0  0  0
    8.6900  -12.2870   27.7660 C   0  0  0  0  0
    9.5240  -11.3140   27.2020 C   0  0  0  0  0
   10.1260  -11.5020   25.9520 C   0  0  0  0  0
    9.8690  -12.6880   25.2770 C   0  0  0  0  0
   10.5230  -12.6730   24.1250 N   0  0  0  0  0
   11.1940  -11.5360   23.9800 C   0  0  0  0  0
   12.0710  -11.2280   22.8030 C   0  0  0  0  0
   11.6900  -11.5850   21.4760 N   0  0  0  0  0
   12.5610  -11.3440   20.3380 C   0  0  0  0  0
   12.2030  -10.5800   19.2330 C   0  0  0  0  0
   14.3530  -11.0600   18.2400 C   0  0  0  0  0
   16.0860  -12.5250   19.4240 C   0  0  0  0  0
   16.2430  -13.5650   20.1180 O   0  0  0  0  0
   17.0780  -12.0250   18.7940 O   0  0  0  0  0
   13.8080  -11.9750   20.3810 C   0  0  0  0  0
   13.1250  -10.7370   23.0560 O   0  0  0  0  0
   12.7740   -9.3620   26.3110 C   0  0  0  0  0
   12.4830   -9.8430   28.5390 O   0  0  0  0  0
   11.3890   -8.8480   30.6230 C   0  0  0  0  0
   10.3360   -8.0780   32.8370 C   0  0  0  0  0
   12.0940  -11.1900   30.4660 C   0  0  0  0  0
   11.6920  -11.4330   31.7480 C   0  0  0  0  0
   11.8320  -12.8350   32.3750 C   0  0  0  0  0
   11.1270  -10.3920   32.4860 C   0  0  0  0  0
   10.6000  -10.7110   34.1280 Cl  0  0  0  0  0
    9.0370  -13.6810   25.8270 C   0  0  0  0  0
    8.7920  -14.9780   24.9890 C   0  0  0  0  0
    9.4040  -16.2420   25.1260 C   0  0  0  0  0
   10.4860  -16.6660   26.1210 C   0  0  0  0  0
    8.8750  -17.0300   24.2070 N   0  0  0  0  0
    9.2640  -18.4170   24.0470 C   0  0  0  0  0
    7.9850  -16.3830   23.5080 N   0  0  0  0  0
    7.8760  -15.1590   23.9220 C   0  0  0  0  0
    6.9430  -14.1450   23.3240 C   0  0  0  0  0
   12.8327   -9.8335   17.3158 H   0  0  0  0  0
   10.8625   -8.6831   25.5769 H   0  0  0  0  0
   12.0714   -9.0806   24.2909 H   0  0  0  0  0
   10.8699   -9.2516   27.3618 H   0  0  0  0  0
   11.9437   -7.9815   27.7763 H   0  0  0  0  0
    8.2331  -12.1172   28.7409 H   0  0  0  0  0
    9.7088  -10.3892   27.7485 H   0  0  0  0  0
   10.7812  -12.0215   21.3213 H   0  0  0  0  0
   11.2257  -10.0991   19.1902 H   0  0  0  0  0
   15.0529  -10.9388   17.4132 H   0  0  0  0  0
   16.7916  -11.2420   18.3182 H   0  0  0  0  0
   14.0724  -12.5855   21.2444 H   0  0  0  0  0
   13.5923   -8.6690   26.1156 H   0  0  0  0  0
   13.3605  -10.2783   26.3781 H   0  0  0  0  0
   11.2824   -7.8540   30.1885 H   0  0  0  0  0
   11.0318   -7.2515   32.9815 H   0  0  0  0  0
    9.4212   -7.7078   32.3742 H   0  0  0  0  0
   10.1003   -8.5290   33.8009 H   0  0  0  0  0
   12.5313  -12.0000   29.8822 H   0  0  0  0  0
   11.2573  -13.5525   31.7894 H   0  0  0  0  0
   12.8824  -13.1262   32.3797 H   0  0  0  0  0
   11.4549  -12.8136   33.3975 H   0  0  0  0  0
   11.3738  -16.0508   25.9744 H   0  0  0  0  0
   10.1149  -16.5343   27.1374 H   0  0  0  0  0
   10.7375  -17.7139   25.9576 H   0  0  0  0  0
   10.3289  -18.4706   23.8207 H   0  0  0  0  0
    9.0597  -18.9591   24.9703 H   0  0  0  0  0
    8.6949  -18.8607   23.2301 H   0  0  0  0  0
    6.2595  -13.7843   24.0926 H   0  0  0  0  0
    7.5212  -13.3096   22.9290 H   0  0  0  0  0
    6.3737  -14.6079   22.5179 H   0  0  0  0  0
 19  1  4  0  0  0
  1 20  4  0  0  0
 20  2  4  0  0  0
  2 21  1  0  0  0
  2 24  4  0  0  0
  3  4  1  0  0  0
  3 12  4  0  0  0
 15  3  4  0  0  0
  4 26  1  0  0  0
 26  5  1  0  0  0
  5 27  1  0  0  0
 27  6  1  0  0  0
  6 28  4  0  0  0
  6 30  4  0  0  0
 28  7  4  0  0  0
  7 29  1  0  0  0
  7 33  4  0  0  0
  9  8  1  0  0  0
  9 10  4  0  0  0
 35  9  4  0  0  0
 11 10  4  0  0  0
 12 11  4  0  0  0
 13 12  4  0  0  0
 14 13  4  0  0  0
 13 35  4  0  0  0
 15 14  4  0  0  0
 16 15  1  0  0  0
 17 16  1  0  0  0
 16 25  2  0  0  0
 18 17  1  0  0  0
 18 19  4  0  0  0
 18 24  4  0  0  0
 21 22  2  0  0  0
 21 23  1  0  0  0
 30 31  4  0  0  0
 31 32  1  0  0  0
 31 33  4  0  0  0
 33 34  1  0  0  0
 35 36  1  0  0  0
 36 37  4  0  0  0
 36 42  4  0  0  0
 37 38  1  0  0  0
 37 39  4  0  0  0
 39 40  1  0  0  0
 39 41  4  0  0  0
 41 42  4  0  0  0
 42 43  1  0  0  0
  1 44  1  0  0  0
  4 45  1  0  0  0
  4 46  1  0  0  0
  5 47  1  0  0  0
  5 48  1  0  0  0
 10 49  1  0  0  0
 11 50  1  0  0  0
 17 51  1  0  0  0
 19 52  1  0  0  0
 20 53  1  0  0  0
 23 54  1  0  0  0
 24 55  1  0  0  0
 26 56  1  0  0  0
 26 57  1  0  0  0
 28 58  1  0  0  0
 29 59  1  0  0  0
 29 60  1  0  0  0
 29 61  1  0  0  0
 30 62  1  0  0  0
 32 63  1  0  0  0
 32 64  1  0  0  0
 32 65  1  0  0  0
 38 66  1  0  0  0
 38 67  1  0  0  0
 38 68  1  0  0  0
 40 69  1  0  0  0
 40 70  1  0  0  0
 40 71  1  0  0  0
 43 72  1  0  0  0
 43 73  1  0  0  0
 43 74  1  0  0  0
M  END
$$$$
