3fts_ligand
  -I-interpret- 

 29 30  0  0  0  0  0  0  0  0999 V2000
  -22.5090    2.8030   -4.5660 C   0  0  0  0  0
  -22.4130    1.8130   -5.4950 C   0  0  0  0  0
  -22.9940    0.5960   -5.2880 C   0  0  0  0  0
  -23.7010    0.3480   -4.1300 C   0  0  0  0  0
  -23.7860    1.3180   -3.1550 C   0  0  0  0  0
  -23.2220    2.5610   -3.4090 C   0  0  0  0  0
  -24.6220    1.1530   -1.9400 C   0  0  0  0  0
  -25.5990    0.2160   -1.9040 C   0  0  0  0  0
  -26.5510    0.1850   -0.7630 C   0  0  0  0  0
  -26.2020    0.6590    0.4950 C   0  0  0  0  0
  -27.1540    0.6840    1.5280 C   0  0  0  0  0
  -28.4700    0.2960    1.2850 C   0  0  0  0  0
  -28.8250   -0.1360    0.0060 C   0  0  0  0  0
  -27.8720   -0.1770   -1.0040 C   0  0  0  0  0
  -29.4030    0.3230    2.2850 O   0  0  0  0  0
  -22.8440   -0.3550   -6.2480 O   0  0  0  0  0
  -21.8820    3.9990   -4.8410 O   0  0  0  0  0
  -21.8635    1.9952   -6.4186 H   0  0  0  0  0
  -24.1921   -0.6144   -3.9862 H   0  0  0  0  0
  -23.3447    3.3620   -2.6800 H   0  0  0  0  0
  -24.4487    1.7893   -1.0721 H   0  0  0  0  0
  -25.6870   -0.5133   -2.7093 H   0  0  0  0  0
  -25.1878    1.0122    0.6812 H   0  0  0  0  0
  -26.8611    1.0091    2.5263 H   0  0  0  0  0
  -29.8508   -0.4414   -0.2005 H   0  0  0  0  0
  -28.1649   -0.4987   -2.0034 H   0  0  0  0  0
  -30.2482    0.0253    1.9406 H   0  0  0  0  0
  -23.2988   -1.1559   -5.9773 H   0  0  0  0  0
  -22.0242    4.6084   -4.1129 H   0  0  0  0  0
  1  2  4  0  0  0
  1  6  4  0  0  0
  1 17  1  0  0  0
  2  3  4  0  0  0
  3  4  4  0  0  0
  3 16  1  0  0  0
  4  5  4  0  0  0
  5  6  4  0  0  0
  5  7  1  0  0  0
  7  8  2  0  0  0
  8  9  1  0  0  0
  9 10  4  0  0  0
  9 14  4  0  0  0
 10 11  4  0  0  0
 11 12  4  0  0  0
 12 13  4  0  0  0
 12 15  1  0  0  0
 13 14  4  0  0  0
  2 18  1  0  0  0
  4 19  1  0  0  0
  6 20  1  0  0  0
  7 21  1  0  0  0
  8 22  1  0  0  0
 10 23  1  0  0  0
 11 24  1  0  0  0
 13 25  1  0  0  0
 14 26  1  0  0  0
 15 27  1  0  0  0
 16 28  1  0  0  0
 17 29  1  0  0  0
M  END
$$$$
