3pj3_ligand
  -I-interpret- 

 58 62  0  0  0  0  0  0  0  0999 V2000
  -18.1040    5.8430  -20.4070 C   0  0  0  0  0
  -19.4110    5.5190  -20.5390 N   0  0  0  0  0
  -17.8100    5.8760  -19.0880 N   0  0  0  0  0
  -19.9410    5.3390  -19.3170 C   0  0  0  0  0
  -20.1110    5.3690  -14.2500 C   0  0  0  0  0
  -18.9260    5.5720  -18.3960 C   0  0  0  0  0
  -20.6560    5.1520  -12.8700 C   0  0  0  0  0
  -21.1930    5.0080  -18.9020 N   0  0  0  0  0
  -20.8320    4.9910  -15.3130 N   0  0  0  0  0
  -19.1950    5.4560  -17.0350 C   0  0  0  0  0
  -23.0900    8.0760  -10.7740 C   0  0  0  0  0
  -23.5970    9.0820  -10.0030 C   0  0  0  0  0
  -22.2710    7.1580  -10.2330 N   0  0  0  0  0
  -20.4880    5.1190  -16.6220 C   0  0  0  0  0
  -24.8090    9.4170  -10.1300 C   0  0  0  0  0
  -21.2010    6.2430  -12.1940 C   0  0  0  0  0
  -17.1650    6.1230  -21.5330 C   0  0  0  0  0
  -19.0180    5.9000  -14.3530 O   0  0  0  0  0
  -20.6050    3.9000  -12.2590 C   0  0  0  0  0
  -21.7220    6.1040  -10.9070 C   0  0  0  0  0
  -23.3980    8.0280  -11.9610 O   0  0  0  0  0
  -21.4750    4.9000  -17.5900 C   0  0  0  0  0
  -21.1160    3.7520  -10.9680 C   0  0  0  0  0
  -21.6730    4.8470  -10.2980 C   0  0  0  0  0
  -25.4630   10.4980   -9.3440 C   0  0  0  0  0
  -20.0160    2.7110  -12.9770 C   0  0  0  0  0
  -17.5000    5.7490  -22.8340 C   0  0  0  0  0
  -15.9480    6.7710  -21.2940 C   0  0  0  0  0
  -26.1140   11.5330  -10.0160 C   0  0  0  0  0
  -25.4580   10.4820   -7.9460 C   0  0  0  0  0
  -16.6310    6.0130  -23.8920 C   0  0  0  0  0
  -15.0760    7.0360  -22.3510 C   0  0  0  0  0
  -26.7430   12.5560   -9.3010 C   0  0  0  0  0
  -26.0870   11.5010   -7.2280 C   0  0  0  0  0
  -15.4190    6.6560  -23.6520 C   0  0  0  0  0
  -26.7320   12.5380   -7.9070 C   0  0  0  0  0
  -21.7365    4.5608  -15.1200 H   0  0  0  0  0
  -18.4077    5.6257  -16.3005 H   0  0  0  0  0
  -22.9599    9.5937   -9.2816 H   0  0  0  0  0
  -22.0418    7.2556   -9.2439 H   0  0  0  0  0
  -25.4133    8.8803  -10.8614 H   0  0  0  0  0
  -21.2204    7.2193  -12.6783 H   0  0  0  0  0
  -22.4859    4.6384  -17.2773 H   0  0  0  0  0
  -21.0808    2.7783  -10.4795 H   0  0  0  0  0
  -22.0723    4.7184   -9.2920 H   0  0  0  0  0
  -20.5784    2.5256  -13.8921 H   0  0  0  0  0
  -18.9746    2.9169  -13.2244 H   0  0  0  0  0
  -20.0710    1.8345  -12.3314 H   0  0  0  0  0
  -18.4482    5.2466  -23.0253 H   0  0  0  0  0
  -15.6805    7.0694  -20.2803 H   0  0  0  0  0
  -26.1322   11.5438  -11.1058 H   0  0  0  0  0
  -24.9610    9.6706   -7.4143 H   0  0  0  0  0
  -16.8999    5.7165  -24.9058 H   0  0  0  0  0
  -14.1277    7.5392  -22.1622 H   0  0  0  0  0
  -27.2414   13.3667   -9.8325 H   0  0  0  0  0
  -26.0749   11.4876   -6.1382 H   0  0  0  0  0
  -14.7384    6.8628  -24.4779 H   0  0  0  0  0
  -27.2261   13.3322   -7.3473 H   0  0  0  0  0
  2  1  4  0  0  0
  3  1  4  0  0  0
  1 17  1  0  0  0
  4  2  4  0  0  0
  6  3  4  0  0  0
  6  4  4  0  0  0
  8  4  4  0  0  0
  7  5  1  0  0  0
  5  9  1  0  0  0
  5 18  2  0  0  0
 10  6  4  0  0  0
 16  7  4  0  0  0
  7 19  4  0  0  0
 22  8  4  0  0  0
  9 14  1  0  0  0
 14 10  4  0  0  0
 11 12  1  0  0  0
 13 11  1  0  0  0
 11 21  2  0  0  0
 12 15  2  0  0  0
 20 13  1  0  0  0
 14 22  4  0  0  0
 15 25  1  0  0  0
 16 20  4  0  0  0
 17 27  4  0  0  0
 17 28  4  0  0  0
 19 23  4  0  0  0
 19 26  1  0  0  0
 20 24  4  0  0  0
 23 24  4  0  0  0
 25 29  4  0  0  0
 25 30  4  0  0  0
 27 31  4  0  0  0
 28 32  4  0  0  0
 29 33  4  0  0  0
 30 34  4  0  0  0
 31 35  4  0  0  0
 32 35  4  0  0  0
 33 36  4  0  0  0
 34 36  4  0  0  0
  9 37  1  0  0  0
 10 38  1  0  0  0
 12 39  1  0  0  0
 13 40  1  0  0  0
 15 41  1  0  0  0
 16 42  1  0  0  0
 22 43  1  0  0  0
 23 44  1  0  0  0
 24 45  1  0  0  0
 26 46  1  0  0  0
 26 47  1  0  0  0
 26 48  1  0  0  0
 27 49  1  0  0  0
 28 50  1  0  0  0
 29 51  1  0  0  0
 30 52  1  0  0  0
 31 53  1  0  0  0
 32 54  1  0  0  0
 33 55  1  0  0  0
 34 56  1  0  0  0
 35 57  1  0  0  0
 36 58  1  0  0  0
M  END
$$$$
