3fyk_ligand
  -I-interpret- 

 35 37  0  0  0  0  0  0  0  0999 V2000
   83.1280  262.8670  106.1580 C   0  0  0  0  0
   84.4490  262.6760  106.4570 C   0  0  0  0  0
   82.4390  261.8550  108.2380 C   0  0  0  0  0
   83.7670  261.6470  108.5690 C   0  0  0  0  0
   84.3470  261.0510  109.7300 C   0  0  0  0  0
   82.1570  262.4660  107.0330 C   0  0  0  0  0
   84.7200  262.0690  107.6600 C   0  0  0  0  0
   85.7250  261.0090  109.7110 C   0  0  0  0  0
   86.7430  260.5340  110.6120 C   0  0  0  0  0
   84.1620  260.1460  112.0070 C   0  0  0  0  0
   85.1630  259.0210  111.8450 C   0  0  0  0  0
   80.0220  262.1720  107.6450 C   0  0  0  0  0
   84.6790  257.8940  110.9640 C   0  0  0  0  0
   83.5760  260.5680  110.7380 N   0  0  0  0  0
   86.4620  259.4550  111.4170 N   0  0  0  0  0
   83.5130  257.3220  111.6660 N   0  3  0  0  0
   87.8430  261.0670  110.6560 O   0  0  0  0  0
   80.8580  262.7080  106.6340 O   0  0  0  0  0
   86.2810  261.7220  108.2630 S   0  0  0  0  0
   82.8480  263.3413  105.2174 H   0  0  0  0  0
   85.2431  262.9880  105.7786 H   0  0  0  0  0
   81.6387  261.5450  108.9100 H   0  0  0  0  0
   84.6865  261.0010  112.4335 H   0  0  0  0  0
   83.3546  259.7856  112.6444 H   0  0  0  0  0
   85.2625  258.6302  112.8577 H   0  0  0  0  0
   80.2088  261.1023  107.7399 H   0  0  0  0  0
   80.2380  262.6653  108.5927 H   0  0  0  0  0
   78.9784  262.3376  107.3773 H   0  0  0  0  0
   85.4570  257.1472  110.8051 H   0  0  0  0  0
   84.4126  258.2496  109.9687 H   0  0  0  0  0
   82.5670  260.4986  110.6060 H   0  0  0  0  0
   87.2583  258.9073  111.7431 H   0  0  0  0  0
   83.1344  256.5485  111.1194 H   0  0  0  0  0
   83.8029  256.9820  112.5830 H   0  0  0  0  0
   82.7990  258.0416  111.7790 H   0  0  0  0  0
  2  1  4  0  0  0
  6  1  4  0  0  0
  7  2  4  0  0  0
  4  3  4  0  0  0
  3  6  4  0  0  0
  5  4  4  0  0  0
  4  7  4  0  0  0
  5  8  4  0  0  0
 14  5  1  0  0  0
  6 18  1  0  0  0
 19  7  4  0  0  0
  8  9  1  0  0  0
  8 19  4  0  0  0
  9 15  1  0  0  0
  9 17  2  0  0  0
 10 11  1  0  0  0
 10 14  1  0  0  0
 11 13  1  0  0  0
 11 15  1  0  0  0
 18 12  1  0  0  0
 13 16  1  0  0  0
  1 20  1  0  0  0
  2 21  1  0  0  0
  3 22  1  0  0  0
 10 23  1  0  0  0
 10 24  1  0  0  0
 11 25  1  0  0  0
 12 26  1  0  0  0
 12 27  1  0  0  0
 12 28  1  0  0  0
 13 29  1  0  0  0
 13 30  1  0  0  0
 14 31  1  0  0  0
 15 32  1  0  0  0
 16 33  1  0  0  0
 16 34  1  0  0  0
 16 35  1  0  0  0
M  END
$$$$
