4ptc_ligand
  -I-interpret- 

 33 35  0  0  0  0  0  0  0  0999 V2000
   -5.4800   -1.2690  -32.2410 O   0  0  0  0  0
   -5.2490   -1.5970  -33.5010 C   0  0  0  0  0
   -5.8240   -2.7140  -34.1070 C   0  0  0  0  0
   -5.1820   -2.6600  -35.7120 S   0  0  0  0  0
   -4.2360   -1.2380  -35.5500 C   0  0  0  0  0
   -4.4480   -0.8710  -34.2760 N   0  0  0  0  0
   -3.4030   -0.5850  -36.5710 C   0  0  0  0  0
   -3.1260   -1.1590  -37.7980 C   0  0  0  0  0
   -2.3310   -0.4670  -38.6980 C   0  0  0  0  0
   -1.8460    0.7490  -38.3680 N   0  0  0  0  0
   -2.1150    1.3260  -37.1760 C   0  0  0  0  0
   -2.8970    0.6590  -36.2590 C   0  0  0  0  0
   -1.6050    2.5370  -36.8750 N   0  0  0  0  0
   -1.9970    3.4390  -35.9520 C   0  0  0  0  0
   -2.4470    3.1280  -34.8480 O   0  0  0  0  0
   -1.8390    4.9000  -36.2930 C   0  0  0  0  0
   -2.1510    5.8820  -35.1660 C   0  0  0  0  0
   -0.6990    5.6280  -35.5700 C   0  0  0  0  0
   -6.7490   -3.7570  -33.6120 C   0  0  0  0  0
   -6.9780   -4.7320  -34.3150 O   0  0  0  0  0
   -7.3270   -3.6330  -32.4130 N   0  0  0  0  0
   -4.9903   -0.4723  -32.0240 H   0  0  0  0  0
   -3.5265   -2.1401  -38.0534 H   0  0  0  0  0
   -2.0980   -0.9032  -39.6694 H   0  0  0  0  0
   -3.1146    1.1122  -35.2919 H   0  0  0  0  0
   -0.7968    2.8144  -37.4320 H   0  0  0  0  0
   -2.1530    4.7920  -37.3312 H   0  0  0  0  0
   -2.7503    5.9153  -34.2561 H   0  0  0  0  0
   -2.8099    6.7308  -34.9833 H   0  0  0  0  0
    0.1942    6.2012  -35.8183 H   0  0  0  0  0
    0.2535    5.3910  -35.0960 H   0  0  0  0  0
   -7.9649   -4.3546  -32.0773 H   0  0  0  0  0
   -7.1301   -2.8167  -31.8339 H   0  0  0  0  0
  1  2  1  0  0  0
  2  3  4  0  0  0
  2  6  4  0  0  0
  3  4  4  0  0  0
  3 19  1  0  0  0
  4  5  4  0  0  0
  5  6  4  0  0  0
  5  7  1  0  0  0
  7  8  4  0  0  0
  7 12  4  0  0  0
  8  9  4  0  0  0
  9 10  4  0  0  0
 10 11  4  0  0  0
 11 12  4  0  0  0
 11 13  1  0  0  0
 13 14  1  0  0  0
 14 15  2  0  0  0
 14 16  1  0  0  0
 16 17  1  0  0  0
 16 18  1  0  0  0
 17 18  1  0  0  0
 19 20  2  0  0  0
 19 21  1  0  0  0
  1 22  1  0  0  0
  8 23  1  0  0  0
  9 24  1  0  0  0
 12 25  1  0  0  0
 13 26  1  0  0  0
 16 27  1  0  0  0
 17 28  1  0  0  0
 17 29  1  0  0  0
 18 30  1  0  0  0
 18 31  1  0  0  0
 21 32  1  0  0  0
 21 33  1  0  0  0
M  END
$$$$
