3zqt_ligand
  -I-interpret- 

 44 45  0  0  0  0  0  0  0  0999 V2000
   20.9530   14.4150   31.9130 O   0  0  0  0  0
   20.0930   15.4680   32.0660 C   0  0  0  0  0
   18.9210   15.5380   31.3190 C   0  0  0  0  0
   20.3960   16.5560   33.0310 C   0  0  0  0  0
   21.5330   16.5340   33.7780 O   0  0  0  0  0
   19.5050   17.6100   33.1650 C   0  0  0  0  0
   18.3470   17.6340   32.3960 C   0  0  0  0  0
   18.0580   16.6160   31.4880 C   0  0  0  0  0
   16.7850   16.6970   30.6800 C   0  0  0  0  0
   17.0480   16.1300   29.2930 C   0  0  0  0  0
   18.5240   15.7800   29.1430 C   0  0  0  0  0
   16.5950   17.0600   28.1700 C   0  0  0  0  0
   16.8980   16.3570   26.8610 C   0  0  0  0  0
   15.1110   17.4120   28.2390 C   0  0  0  0  0
   14.8180   18.9020   28.3000 C   0  0  0  0  0
   15.7100   19.7850   28.9090 C   0  0  0  0  0
   13.6290   19.3870   27.7530 C   0  0  0  0  0
   13.3150   20.7430   27.7960 C   0  0  0  0  0
   12.1530   21.2110   27.2590 O   0  0  0  0  0
   14.2720   21.6770   28.4400 C   0  0  0  0  0
   15.4440   21.1530   28.9760 C   0  0  0  0  0
   14.0070   23.0150   28.5100 O   0  0  0  0  0
   21.7031   14.5278   32.5014 H   0  0  0  0  0
   18.6801   14.7512   30.6042 H   0  0  0  0  0
   21.5601   17.3115   34.3405 H   0  0  0  0  0
   19.7114   18.4156   33.8696 H   0  0  0  0  0
   17.6508   18.4656   32.5051 H   0  0  0  0  0
   16.4638   17.7355   30.5998 H   0  0  0  0  0
   15.9988   16.1232   31.1707 H   0  0  0  0  0
   16.4479   15.2249   29.1994 H   0  0  0  0  0
   19.1252   16.6783   29.2834 H   0  0  0  0  0
   18.7979   15.0372   29.8922 H   0  0  0  0  0
   18.7006   15.3751   28.1465 H   0  0  0  0  0
   17.1290   18.0057   28.2627 H   0  0  0  0  0
   17.9686   16.1639   26.7931 H   0  0  0  0  0
   16.3541   15.4132   26.8226 H   0  0  0  0  0
   16.5883   16.9904   26.0297 H   0  0  0  0  0
   14.7217   16.9728   29.1575 H   0  0  0  0  0
   14.6510   17.0339   27.3260 H   0  0  0  0  0
   16.6331   19.3985   29.3411 H   0  0  0  0  0
   12.9334   18.6915   27.2835 H   0  0  0  0  0
   12.1062   22.1622   27.3800 H   0  0  0  0  0
   16.1627   21.8188   29.4538 H   0  0  0  0  0
   14.7308   23.4605   28.9565 H   0  0  0  0  0
  1  2  1  0  0  0
  2  3  4  0  0  0
  2  4  4  0  0  0
  3  8  4  0  0  0
  4  5  1  0  0  0
  4  6  4  0  0  0
  6  7  4  0  0  0
  7  8  4  0  0  0
  8  9  1  0  0  0
  9 10  1  0  0  0
 10 11  1  0  0  0
 10 12  1  0  0  0
 12 13  1  0  0  0
 12 14  1  0  0  0
 14 15  1  0  0  0
 15 16  4  0  0  0
 15 17  4  0  0  0
 16 21  4  0  0  0
 17 18  4  0  0  0
 18 19  1  0  0  0
 18 20  4  0  0  0
 20 21  4  0  0  0
 20 22  1  0  0  0
  1 23  1  0  0  0
  3 24  1  0  0  0
  5 25  1  0  0  0
  6 26  1  0  0  0
  7 27  1  0  0  0
  9 28  1  0  0  0
  9 29  1  0  0  0
 10 30  1  0  0  0
 11 31  1  0  0  0
 11 32  1  0  0  0
 11 33  1  0  0  0
 12 34  1  0  0  0
 13 35  1  0  0  0
 13 36  1  0  0  0
 13 37  1  0  0  0
 14 38  1  0  0  0
 14 39  1  0  0  0
 16 40  1  0  0  0
 17 41  1  0  0  0
 19 42  1  0  0  0
 21 43  1  0  0  0
 22 44  1  0  0  0
M  END
$$$$
