4he9_ligand
  -I-interpret- 

 82 86  0  0  0  0  0  0  0  0999 V2000
    8.3080   15.3370   14.9380 C   0  0  0  0  0
    9.6530   15.3950   14.5540 C   0  0  0  0  0
   10.4320   16.5000   14.8660 C   0  0  0  0  0
    9.8430   17.5880   15.5070 C   0  0  0  0  0
    8.4970   17.5560   15.8200 C   0  0  0  0  0
    7.7060   16.4640   15.4950 C   0  0  0  0  0
   10.8020   18.9720   16.0090 S   0  0  0  0  0
   11.8750   19.0450   14.9890 O   0  0  0  0  0
    9.9150   20.0830   16.1790 O   0  0  0  0  0
   11.5020   18.6420   17.4340 N   0  0  0  0  0
   10.5790   18.3540   18.5290 C   0  0  0  0  0
   11.0160   18.9810   19.8740 C   0  0  0  0  0
   11.0730   20.5050   19.7550 C   0  0  0  0  0
    9.9660   18.5810   20.9330 C   0  0  0  0  0
   12.7840   17.9610   17.4770 C   0  0  0  0  0
   13.9540   18.8180   17.9070 C   0  0  0  0  0
   15.0880   18.0310   18.2470 O   0  0  0  0  0
   14.3530   19.9380   16.9840 C   0  0  0  0  0
   15.2330   20.8720   17.6470 N   0  0  0  0  0
   14.9560   22.1310   17.9930 C   0  0  0  0  0
   13.8730   22.7250   17.7450 O   0  0  0  0  0
   15.9820   22.7100   18.6510 O   0  0  0  0  0
   15.8370   24.1290   18.9750 C   0  0  0  0  0
   16.4180   24.2980   20.3790 C   0  0  0  0  0
   17.8260   24.3740   20.1950 O   0  0  0  0  0
   18.1400   24.7690   18.9080 C   0  0  0  0  0
   18.8490   23.7650   18.2340 O   0  0  0  0  0
   18.2880   23.4430   16.9810 C   0  0  0  0  0
   17.1180   24.3830   16.7600 C   0  0  0  0  0
   16.8510   24.9520   18.1400 C   0  0  0  0  0
   15.0180   19.4710   15.6940 C   0  0  0  0  0
   16.5750   21.1730   14.6210 C   0  0  0  0  0
   16.7800   22.2650   13.8220 C   0  0  0  0  0
   15.7180   22.8620   13.1840 C   0  0  0  0  0
   14.4140   22.3640   13.2670 C   0  0  0  0  0
   14.2170   21.2840   14.0870 C   0  0  0  0  0
   15.2730   20.6830   14.7850 C   0  0  0  0  0
    7.6770   14.1580   14.7410 O   0  0  0  0  0
    6.2950   14.1360   15.0080 C   0  0  0  0  0
   19.2580   23.6630   15.9620 O   0  0  0  0  0
   19.2020   25.0940   15.8560 C   0  0  0  0  0
   17.7130   25.4100   15.7750 C   0  0  0  0  0
   10.0930   14.5631   14.0040 H   0  0  0  0  0
   11.4920   16.5168   14.6127 H   0  0  0  0  0
    8.0479   18.4065   16.3328 H   0  0  0  0  0
    6.6308   16.4868   15.6723 H   0  0  0  0  0
   10.5509   17.2725   18.6620 H   0  0  0  0  0
    9.6104   18.7788   18.2654 H   0  0  0  0  0
   12.0075   18.6253   20.1541 H   0  0  0  0  0
   11.7909   20.7813   18.9827 H   0  0  0  0  0
   10.0866   20.8845   19.4884 H   0  0  0  0  0
   11.3820   20.9314   20.7094 H   0  0  0  0  0
    8.9884   18.9596   20.6346 H   0  0  0  0  0
    9.9276   17.4946   21.0124 H   0  0  0  0  0
   10.2434   19.0074   21.8970 H   0  0  0  0  0
   12.9962   17.6286   16.4608 H   0  0  0  0  0
   12.6910   17.1648   18.2156 H   0  0  0  0  0
   13.5654   19.3231   18.7913 H   0  0  0  0  0
   15.8078   18.6074   18.5139 H   0  0  0  0  0
   13.4155   20.4231   16.7123 H   0  0  0  0  0
   16.1674   20.5327   17.8755 H   0  0  0  0  0
   14.7994   24.4299   18.8302 H   0  0  0  0  0
   16.1424   23.4684   21.0301 H   0  0  0  0  0
   16.0286   25.1898   20.8700 H   0  0  0  0  0
   18.7342   25.6808   18.9679 H   0  0  0  0  0
   17.9682   22.4014   16.9526 H   0  0  0  0  0
   16.1852   23.9822   16.3633 H   0  0  0  0  0
   16.4804   25.9681   18.0048 H   0  0  0  0  0
   14.3652   18.7632   15.1831 H   0  0  0  0  0
   15.9653   18.9850   15.9276 H   0  0  0  0  0
   17.4138   20.6909   15.1231 H   0  0  0  0  0
   17.7866   22.6622   13.6911 H   0  0  0  0  0
   15.8998   23.7581   12.5906 H   0  0  0  0  0
   13.5940   22.8131   12.7066 H   0  0  0  0  0
   13.2105   20.8810   14.1995 H   0  0  0  0  0
    6.1238   14.3967   16.0524 H   0  0  0  0  0
    5.7905   14.8571   14.3649 H   0  0  0  0  0
    5.9044   13.1373   14.8127 H   0  0  0  0  0
   19.7466   25.4618   14.9864 H   0  0  0  0  0
   19.6796   25.5864   16.7031 H   0  0  0  0  0
   17.4747   26.4428   16.0293 H   0  0  0  0  0
   17.3070   25.3290   14.7667 H   0  0  0  0  0
  2  1  4  0  0  0
  6  1  4  0  0  0
  1 38  1  0  0  0
  3  2  4  0  0  0
  4  3  4  0  0  0
  4  5  4  0  0  0
  7  4  1  0  0  0
  5  6  4  0  0  0
  7  8  2  0  0  0
  7  9  2  0  0  0
 10  7  1  0  0  0
 10 11  1  0  0  0
 15 10  1  0  0  0
 11 12  1  0  0  0
 12 13  1  0  0  0
 12 14  1  0  0  0
 16 15  1  0  0  0
 16 17  1  0  0  0
 18 16  1  0  0  0
 18 19  1  0  0  0
 31 18  1  0  0  0
 19 20  1  0  0  0
 20 21  2  0  0  0
 20 22  1  0  0  0
 22 23  1  0  0  0
 23 24  1  0  0  0
 23 30  1  0  0  0
 24 25  1  0  0  0
 26 25  1  0  0  0
 26 27  1  0  0  0
 30 26  1  0  0  0
 28 27  1  0  0  0
 29 28  1  0  0  0
 28 40  1  0  0  0
 30 29  1  0  0  0
 29 42  1  0  0  0
 37 31  1  0  0  0
 32 33  4  0  0  0
 32 37  4  0  0  0
 33 34  4  0  0  0
 34 35  4  0  0  0
 35 36  4  0  0  0
 36 37  4  0  0  0
 38 39  1  0  0  0
 40 41  1  0  0  0
 41 42  1  0  0  0
  2 43  1  0  0  0
  3 44  1  0  0  0
  5 45  1  0  0  0
  6 46  1  0  0  0
 11 47  1  0  0  0
 11 48  1  0  0  0
 12 49  1  0  0  0
 13 50  1  0  0  0
 13 51  1  0  0  0
 13 52  1  0  0  0
 14 53  1  0  0  0
 14 54  1  0  0  0
 14 55  1  0  0  0
 15 56  1  0  0  0
 15 57  1  0  0  0
 16 58  1  0  0  0
 17 59  1  0  0  0
 18 60  1  0  0  0
 19 61  1  0  0  0
 23 62  1  0  0  0
 24 63  1  0  0  0
 24 64  1  0  0  0
 26 65  1  0  0  0
 28 66  1  0  0  0
 29 67  1  0  0  0
 30 68  1  0  0  0
 31 69  1  0  0  0
 31 70  1  0  0  0
 32 71  1  0  0  0
 33 72  1  0  0  0
 34 73  1  0  0  0
 35 74  1  0  0  0
 36 75  1  0  0  0
 39 76  1  0  0  0
 39 77  1  0  0  0
 39 78  1  0  0  0
 41 79  1  0  0  0
 41 80  1  0  0  0
 42 81  1  0  0  0
 42 82  1  0  0  0
M  END
$$$$
