1y2h_ligand
  -I-interpret- 

 34 35  0  0  0  0  0  0  0  0999 V2000
   -0.2810   48.0130  -12.7470 O   0  0  0  0  0
   -0.0310   48.2200  -11.5670 C   0  0  0  0  0
   -0.9720   48.2910  -10.6040 O   0  0  0  0  0
   -2.3470   48.5440  -10.9710 C   0  0  0  0  0
   -2.9930   49.4190   -9.8730 C   0  0  0  0  0
    1.4100   48.3990  -11.1480 C   0  0  0  0  0
    1.8400   49.0190   -9.9700 C   0  0  0  0  0
    0.9910   49.6490   -8.8620 C   0  0  0  0  0
    2.5470   47.9780  -11.8560 C   0  0  0  0  0
    2.5350   47.2530  -13.2010 C   0  0  0  0  0
    3.7170   48.2690  -11.2450 N   0  0  0  0  0
    3.3120   48.9690   -9.9960 N   0  0  0  0  0
    4.1890   49.4370   -9.0740 C   0  0  0  0  0
    4.5580   48.6190   -8.0200 C   0  0  0  0  0
    3.8450   47.0380   -7.9540 Cl  0  0  0  0  0
    5.4640   49.0400   -7.0460 C   0  0  0  0  0
    6.0150   50.3140   -7.1380 C   0  0  0  0  0
    5.6560   51.1560   -8.1970 C   0  0  0  0  0
    4.7450   50.7180   -9.1660 C   0  0  0  0  0
   -2.8875   47.6019  -11.0627 H   0  0  0  0  0
   -2.3877   49.0597  -11.9304 H   0  0  0  0  0
   -2.9521   48.8923   -8.9196 H   0  0  0  0  0
   -2.4489   50.3601   -9.7932 H   0  0  0  0  0
   -4.0320   49.6196  -10.1345 H   0  0  0  0  0
    0.3920   50.4579   -9.2804 H   0  0  0  0  0
    0.3335   48.8918   -8.4348 H   0  0  0  0  0
    1.6453   50.0441   -8.0849 H   0  0  0  0  0
    1.9914   46.3135  -13.1011 H   0  0  0  0  0
    2.0453   47.8801  -13.9460 H   0  0  0  0  0
    3.5598   47.0500  -13.5120 H   0  0  0  0  0
    5.7366   48.3789   -6.2233 H   0  0  0  0  0
    6.7258   50.6564   -6.3859 H   0  0  0  0  0
    6.0866   52.1549   -8.2675 H   0  0  0  0  0
    4.4691   51.3743   -9.9914 H   0  0  0  0  0
  1  2  2  0  0  0
  2  3  1  0  0  0
  2  6  1  0  0  0
  3  4  1  0  0  0
  4  5  1  0  0  0
  6  7  4  0  0  0
  6  9  4  0  0  0
  7  8  1  0  0  0
  7 12  4  0  0  0
  9 10  1  0  0  0
  9 11  4  0  0  0
 11 12  4  0  0  0
 12 13  1  0  0  0
 13 14  4  0  0  0
 13 19  4  0  0  0
 14 15  1  0  0  0
 14 16  4  0  0  0
 16 17  4  0  0  0
 17 18  4  0  0  0
 18 19  4  0  0  0
  4 20  1  0  0  0
  4 21  1  0  0  0
  5 22  1  0  0  0
  5 23  1  0  0  0
  5 24  1  0  0  0
  8 25  1  0  0  0
  8 26  1  0  0  0
  8 27  1  0  0  0
 10 28  1  0  0  0
 10 29  1  0  0  0
 10 30  1  0  0  0
 16 31  1  0  0  0
 17 32  1  0  0  0
 18 33  1  0  0  0
 19 34  1  0  0  0
M  END
$$$$
