1kzn_ligand
  -I-interpret- 

 85 89  0  0  0  0  0  0  0  0999 V2000
   18.8020   24.1050   36.3490 C   0  0  0  0  0
   18.8670   28.0610   34.4960 C   0  0  0  0  0
   19.7800   26.2630   33.1940 C   0  0  0  0  0
   20.0830   26.0850   35.7500 C   0  0  0  0  0
   20.5530   26.8640   37.0010 C   0  0  0  0  0
   21.9800   27.3980   36.7800 C   0  0  0  0  0
   21.9390   28.2690   35.4890 C   0  0  0  0  0
   20.0060   27.0280   34.4950 C   0  0  0  0  0
   21.0800   30.5270   34.9930 C   0  0  0  0  0
   20.1180   31.5210   35.4180 C   0  0  0  0  0
   19.8990   32.6690   34.5810 C   0  0  0  0  0
   18.9710   34.9870   34.3350 C   0  0  0  0  0
   19.6540   35.1360   33.0180 C   0  0  0  0  0
   20.4450   34.1120   32.5490 C   0  0  0  0  0
   20.6270   32.8390   33.3180 C   0  0  0  0  0
   21.5740   31.8190   32.8900 C   0  0  0  0  0
   21.8070   30.6760   33.7110 C   0  0  0  0  0
   18.0840   36.6760   31.8520 C   0  0  0  0  0
   17.0000   35.7420   31.4970 C   0  0  0  0  0
   17.2920   34.5070   30.7560 C   0  0  0  0  0
   16.2120   33.7010   30.2520 C   0  0  0  0  0
   14.8450   34.1450   30.4890 C   0  0  0  0  0
   14.5440   35.3510   31.2450 C   0  0  0  0  0
   15.6200   36.1400   31.7660 C   0  0  0  0  0
   16.5010   32.4120   29.5170 C   0  0  0  0  0
   16.2960   31.1300   30.3750 C   0  0  0  0  0
   17.1960   30.2790   30.8980 C   0  0  0  0  0
   16.7210   29.1560   31.7160 C   0  0  0  0  0
   18.6210   30.5360   30.7380 C   0  0  0  0  0
   19.3180   36.2940   32.1840 N   0  0  0  0  0
   18.8300   25.5040   36.0880 O   0  0  0  0  0
   20.5180   26.0190   38.1540 O   0  0  0  0  0
   21.2620   27.6860   34.3740 O   0  0  0  0  0
   21.2760   29.4610   35.8670 O   0  0  0  0  0
   21.1150   34.2200   31.3710 O   0  0  0  0  0
   19.0610   33.7420   35.0210 O   0  0  0  0  0
   18.1920   35.7970   34.7370 O   0  0  0  0  0
   17.8870   37.8240   31.7570 O   0  0  0  0  0
   13.7970   33.3800   30.0440 O   0  0  0  0  0
   19.5130   23.7420   41.5590 C   0  0  0  0  0
   19.5560   24.2690   40.3450 C   0  0  0  0  0
   20.0400   25.6330   40.4530 C   0  0  0  0  0
   20.3100   25.9400   41.8560 N   0  0  0  0  0
   19.8900   24.7250   42.5610 C   0  0  0  0  0
   19.6810   24.8600   44.0060 C   0  0  0  0  0
   20.3780   26.5730   39.4070 C   0  0  0  0  0
   20.5240   27.7620   39.6120 O   0  0  0  0  0
   22.8530   26.2650   36.7100 O   0  0  0  0  0
   19.2400   31.4040   36.9200 Cl  0  0  0  0  0
   19.1411   23.5649   35.4650 H   0  0  0  0  0
   19.4599   23.8801   37.1884 H   0  0  0  0  0
   17.7836   23.8025   36.5927 H   0  0  0  0  0
   18.9972   28.7426   35.3366 H   0  0  0  0  0
   18.8883   28.6243   33.5631 H   0  0  0  0  0
   17.9110   27.5457   34.5891 H   0  0  0  0  0
   19.7710   26.9635   32.3590 H   0  0  0  0  0
   20.5838   25.5400   33.0548 H   0  0  0  0  0
   18.8244   25.7410   33.2423 H   0  0  0  0  0
   20.7884   25.3023   35.4708 H   0  0  0  0  0
   19.8796   27.7052   37.1652 H   0  0  0  0  0
   22.3560   28.0316   37.5833 H   0  0  0  0  0
   22.9611   28.4084   35.1371 H   0  0  0  0  0
   22.1040   31.9287   31.9438 H   0  0  0  0  0
   22.5190   29.9133   33.3955 H   0  0  0  0  0
   18.3250   34.2021   30.5885 H   0  0  0  0  0
   13.5098   35.6512   31.4133 H   0  0  0  0  0
   15.4110   37.0306   32.3587 H   0  0  0  0  0
   17.5500   32.4377   29.2221 H   0  0  0  0  0
   15.8039   32.3548   28.6810 H   0  0  0  0  0
   15.2557   30.8821   30.5858 H   0  0  0  0  0
   16.1746   29.5409   32.5770 H   0  0  0  0  0
   16.0625   28.5258   31.1183 H   0  0  0  0  0
   17.5745   28.5706   32.0578 H   0  0  0  0  0
   18.8674   30.5612   29.6765 H   0  0  0  0  0
   18.8692   31.4950   31.1928 H   0  0  0  0  0
   19.1888   29.7434   31.2254 H   0  0  0  0  0
   20.0925   36.8542   31.8280 H   0  0  0  0  0
   21.6099   33.4132   31.2105 H   0  0  0  0  0
   12.9692   33.8067   30.2770 H   0  0  0  0  0
   19.2330   22.7114   41.7771 H   0  0  0  0  0
   19.2753   23.7638   39.4208 H   0  0  0  0  0
   18.6119   24.8944   44.2155 H   0  0  0  0  0
   20.1255   24.0062   44.5174 H   0  0  0  0  0
   20.1508   25.7794   44.3554 H   0  0  0  0  0
   22.8197   25.7850   37.5407 H   0  0  0  0  0
  1 31  1  0  0  0
 31  4  1  0  0  0
  4  8  1  0  0  0
  4  5  1  0  0  0
  5 32  1  0  0  0
  5  6  1  0  0  0
  6 48  1  0  0  0
  6  7  1  0  0  0
  7 34  1  0  0  0
  7 33  1  0  0  0
 33  8  1  0  0  0
  8  3  1  0  0  0
  8  2  1  0  0  0
 34  9  1  0  0  0
  9 10  4  0  0  0
  9 17  4  0  0  0
 17 16  4  0  0  0
 16 15  4  0  0  0
 15 14  1  0  0  0
 15 11  4  0  0  0
 11 36  1  0  0  0
 11 10  4  0  0  0
 36 12  1  0  0  0
 12 37  2  0  0  0
 12 13  1  0  0  0
 13 30  1  0  0  0
 13 14  2  0  0  0
 14 35  1  0  0  0
 30 18  1  0  0  0
 18 38  2  0  0  0
 18 19  1  0  0  0
 19 24  4  0  0  0
 19 20  4  0  0  0
 20 21  4  0  0  0
 21 25  1  0  0  0
 21 22  4  0  0  0
 22 39  1  0  0  0
 22 23  4  0  0  0
 23 24  4  0  0  0
 25 26  1  0  0  0
 26 27  2  0  0  0
 27 29  1  0  0  0
 27 28  1  0  0  0
 32 46  1  0  0  0
 46 47  2  0  0  0
 46 42  1  0  0  0
 42 43  4  0  0  0
 42 41  4  0  0  0
 41 40  4  0  0  0
 40 44  4  0  0  0
 44 45  1  0  0  0
 44 43  4  0  0  0
 10 49  1  0  0  0
  1 50  1  0  0  0
  1 51  1  0  0  0
  1 52  1  0  0  0
  2 53  1  0  0  0
  2 54  1  0  0  0
  2 55  1  0  0  0
  3 56  1  0  0  0
  3 57  1  0  0  0
  3 58  1  0  0  0
  4 59  1  0  0  0
  5 60  1  0  0  0
  6 61  1  0  0  0
  7 62  1  0  0  0
 16 63  1  0  0  0
 17 64  1  0  0  0
 20 65  1  0  0  0
 23 66  1  0  0  0
 24 67  1  0  0  0
 25 68  1  0  0  0
 25 69  1  0  0  0
 26 70  1  0  0  0
 28 71  1  0  0  0
 28 72  1  0  0  0
 28 73  1  0  0  0
 29 74  1  0  0  0
 29 75  1  0  0  0
 29 76  1  0  0  0
 30 77  1  0  0  0
 35 78  1  0  0  0
 39 79  1  0  0  0
 40 80  1  0  0  0
 41 81  1  0  0  0
 45 82  1  0  0  0
 45 83  1  0  0  0
 45 84  1  0  0  0
 48 85  1  0  0  0
M  END
$$$$
