1anf_ligand
  -I-interpret- 

 45 46  0  0  0  0  0  0  0  0999 V2000
   11.3820   15.5960   41.1810 C   0  0  0  0  0
   10.6860   16.0920   42.4640 C   0  0  0  0  0
   10.2520   17.5280   42.3090 C   0  0  0  0  0
   11.4890   18.3650   41.8450 C   0  0  0  0  0
   12.1020   17.8100   40.5770 C   0  0  0  0  0
   13.4220   18.4800   40.3150 C   0  0  0  0  0
    9.5900   15.2330   42.8480 O   0  0  0  0  0
    9.7560   18.1050   43.5280 O   0  0  0  0  0
   11.1360   19.7490   41.6240 O   0  0  0  0  0
   12.4060   16.4200   40.8060 O   0  0  0  0  0
   13.9080   18.1910   38.9310 O   0  0  0  0  0
    8.5370   13.1410   37.4360 C   0  0  0  0  0
    8.6570   12.6250   38.8660 C   0  0  0  0  0
    8.9460   13.7530   39.8190 C   0  0  0  0  0
   10.1450   14.5230   39.3600 C   0  0  0  0  0
    9.8470   15.1610   37.9650 C   0  0  0  0  0
   11.1090   15.8230   37.3730 C   0  0  0  0  0
    7.3430   13.7470   37.2600 O   0  0  0  0  0
    7.4300   12.0310   39.2450 O   0  0  0  0  0
    9.2530   13.1490   41.0940 O   0  0  0  0  0
   10.3170   15.6750   40.2450 O   0  0  0  0  0
    9.3520   14.1830   37.0850 O   0  0  0  0  0
   10.5830   16.5420   36.2380 O   0  0  0  0  0
   11.8366   14.6106   41.2828 H   0  0  0  0  0
   11.4097   16.0485   43.2779 H   0  0  0  0  0
    9.4387   17.5451   41.5835 H   0  0  0  0  0
   12.2206   18.3002   42.6504 H   0  0  0  0  0
   11.4118   17.9635   39.7474 H   0  0  0  0  0
   14.1535   18.0994   41.0278 H   0  0  0  0  0
   13.2932   19.5571   40.4213 H   0  0  0  0  0
    9.9073   14.3312   42.9357 H   0  0  0  0  0
    8.9945   17.6049   43.8308 H   0  0  0  0  0
   10.7460   20.1102   42.4234 H   0  0  0  0  0
   14.7503   18.6297   38.7907 H   0  0  0  0  0
    8.7545   12.2381   36.8654 H   0  0  0  0  0
    9.4721   11.9024   38.9055 H   0  0  0  0  0
    8.0943   14.4307   39.8780 H   0  0  0  0  0
   11.0045   13.8529   39.3414 H   0  0  0  0  0
    9.0929   15.9365   38.0994 H   0  0  0  0  0
   11.8808   15.1029   37.1013 H   0  0  0  0  0
   11.6259   16.4675   38.0839 H   0  0  0  0  0
    7.2781   14.0677   36.3575 H   0  0  0  0  0
    7.4987   11.7038   40.1449 H   0  0  0  0  0
    9.4447   13.8374   41.7350 H   0  0  0  0  0
   11.2989   16.9984   35.7899 H   0  0  0  0  0
  1  2  1  0  0  0
  1 10  1  0  0  0
 21  1  1  0  0  0
  2  3  1  0  0  0
  2  7  1  0  0  0
  3  4  1  0  0  0
  3  8  1  0  0  0
  5  4  1  0  0  0
  4  9  1  0  0  0
  5  6  1  0  0  0
 10  5  1  0  0  0
  6 11  1  0  0  0
 13 12  1  0  0  0
 12 18  1  0  0  0
 12 22  1  0  0  0
 14 13  1  0  0  0
 13 19  1  0  0  0
 15 14  1  0  0  0
 14 20  1  0  0  0
 15 16  1  0  0  0
 15 21  1  0  0  0
 16 17  1  0  0  0
 16 22  1  0  0  0
 17 23  1  0  0  0
  1 24  1  0  0  0
  2 25  1  0  0  0
  3 26  1  0  0  0
  4 27  1  0  0  0
  5 28  1  0  0  0
  6 29  1  0  0  0
  6 30  1  0  0  0
  7 31  1  0  0  0
  8 32  1  0  0  0
  9 33  1  0  0  0
 11 34  1  0  0  0
 12 35  1  0  0  0
 13 36  1  0  0  0
 14 37  1  0  0  0
 15 38  1  0  0  0
 16 39  1  0  0  0
 17 40  1  0  0  0
 17 41  1  0  0  0
 18 42  1  0  0  0
 19 43  1  0  0  0
 20 44  1  0  0  0
 23 45  1  0  0  0
M  END
$$$$
