5ywg_ligand
  -I-interpret- 

 40 41  0  0  0  0  0  0  0  0999 V2000
   24.7910   -5.0070  -31.2990 C   0  0  0  0  0
   22.8500   -4.7190  -29.3670 C   0  0  0  0  0
   25.1840   -8.1130  -26.0280 C   0  0  0  0  0
   25.0260   -9.6300  -26.2040 C   0  0  0  0  0
   23.6220  -10.0140  -26.5710 C   0  0  0  0  0
   23.1320   -9.2760  -27.7850 C   0  0  0  0  0
   23.2460   -7.7410  -27.6920 C   0  0  0  0  0
   24.6490   -7.2620  -27.2300 C   0  0  0  0  0
   22.8710   -7.2800  -29.0830 C   0  0  0  0  0
   23.3740   -5.9980  -29.6980 C   0  0  0  0  0
   24.3370   -6.1490  -30.6740 C   0  0  0  0  0
   24.2790   -3.7610  -30.9420 C   0  0  0  0  0
   23.3030   -3.6090  -29.9930 C   0  0  0  0  0
   25.2280   -6.3530  -27.6900 O   0  0  0  0  0
   21.7600   -9.6270  -28.0510 O   0  0  0  0  0
   21.4640   -7.2170  -29.1190 O   0  0  0  0  0
   21.9110   -4.6140  -28.4420 N   0  0  0  0  0
   22.1890   -4.0090  -27.2590 O   0  0  0  0  0
   20.6670   -5.1110  -28.6770 O   0  0  0  0  0
   24.8940   -2.3130  -31.8060 S   0  0  0  0  0
   23.8030   -1.5320  -32.3950 O   0  0  0  0  0
   25.5430   -2.8890  -32.9690 O   0  0  0  0  0
   26.0520   -1.3110  -30.8700 C   0  0  0  0  0
   25.5530   -5.0790  -32.0750 H   0  0  0  0  0
   26.2517   -7.9106  -25.9432 H   0  0  0  0  0
   24.6007   -7.8304  -25.1517 H   0  0  0  0  0
   25.2724  -10.1092  -25.2565 H   0  0  0  0  0
   25.6869   -9.9489  -27.0100 H   0  0  0  0  0
   22.9710   -9.7612  -25.7341 H   0  0  0  0  0
   23.6089  -11.0809  -26.7939 H   0  0  0  0  0
   23.7887   -9.5861  -28.5978 H   0  0  0  0  0
   22.5955   -7.3136  -26.9289 H   0  0  0  0  0
   23.3932   -8.0183  -29.6916 H   0  0  0  0  0
   24.7238   -7.1325  -30.9406 H   0  0  0  0  0
   22.9039   -2.6242  -29.7499 H   0  0  0  0  0
   21.6809  -10.5819  -28.1103 H   0  0  0  0  0
   21.1799   -6.9269  -29.9889 H   0  0  0  0  0
   26.4973   -0.5637  -31.5267 H   0  0  0  0  0
   25.5247   -0.8133  -30.0561 H   0  0  0  0  0
   26.8348   -1.9496  -30.4607 H   0  0  0  0  0
 11  1  4  0  0  0
  1 12  4  0  0  0
 10  2  4  0  0  0
  2 13  4  0  0  0
  2 17  1  0  0  0
  3  4  1  0  0  0
  8  3  1  0  0  0
  5  4  1  0  0  0
  6  5  1  0  0  0
  7  6  1  0  0  0
  6 15  1  0  0  0
  7  8  1  0  0  0
  9  7  1  0  0  0
  8 14  2  0  0  0
 10  9  1  0  0  0
  9 16  1  0  0  0
 10 11  4  0  0  0
 12 13  4  0  0  0
 12 20  1  0  0  0
 17 18  2  0  0  0
 17 19  2  0  0  0
 20 21  2  0  0  0
 20 22  2  0  0  0
 20 23  1  0  0  0
  1 24  1  0  0  0
  3 25  1  0  0  0
  3 26  1  0  0  0
  4 27  1  0  0  0
  4 28  1  0  0  0
  5 29  1  0  0  0
  5 30  1  0  0  0
  6 31  1  0  0  0
  7 32  1  0  0  0
  9 33  1  0  0  0
 11 34  1  0  0  0
 13 35  1  0  0  0
 15 36  1  0  0  0
 16 37  1  0  0  0
 23 38  1  0  0  0
 23 39  1  0  0  0
 23 40  1  0  0  0
M  END
$$$$
