### 
### Created by X-TOOL on Mon Sep 10 21:13:01 2018
### 

@<TRIPOS>MOLECULE
2vr3_ligand
  145   144     1     0     0
SMALL
GAST_HUCK


@<TRIPOS>ATOM
      1 N          45.4640   43.1780   44.1950 N.4       1 HIS         0.2357
      2 CA         44.6350   43.5280   43.0020 C.3       1 HIS         0.0545
      3 C          45.3760   43.2500   41.7090 C.2       1 HIS         0.2236
      4 O          46.5270   43.6440   41.5560 O.2       1 HIS        -0.3910
      5 N          44.7150   42.5500   40.7900 N.am      1 HIS        -0.2615
      6 CA         45.3040   42.1890   39.4940 C.3       1 HIS         0.1283
      7 C          44.2480   42.1620   38.3830 C.2       1 HIS         0.2036
      8 O          43.0320   42.2220   38.6580 O.2       1 HIS        -0.3944
      9 CB         46.0130   40.8380   39.5870 C.3       1 HIS        -0.0244
     10 N          44.7060   42.0610   37.1370 N.am      1 LEU        -0.2637
     11 CA         43.8500   42.2790   35.9510 C.3       1 LEU         0.1312
     12 C          44.1730   41.4890   34.6790 C.2       1 LEU         0.2037
     13 O          45.2660   41.6080   34.1490 O.2       1 LEU        -0.3944
     14 CB         43.8140   43.7640   35.6030 C.3       1 LEU        -0.0101
     15 CG         42.9200   44.1940   34.4370 C.3       1 LEU        -0.0425
     16 CD1        41.4170   43.8650   34.6720 C.3       1 LEU        -0.0625
     17 CD2        43.1170   45.6730   34.2670 C.3       1 LEU        -0.0625
     18 N          43.2000   40.7230   34.1770 N.am      1 GLY        -0.2664
     19 CA         43.2530   40.1630   32.8130 C.3       1 GLY         0.1201
     20 C          42.0970   40.6430   31.9380 C.2       1 GLY         0.2005
     21 O          41.3890   41.5720   32.2900 O.2       1 GLY        -0.3947
     22 N          41.8780   40.0050   30.7970 N.am      1 GLY        -0.2666
     23 CA         40.7720   40.4210   29.9480 C.3       1 GLY         0.1201
     24 C          40.5650   39.4690   28.8110 C.2       1 GLY         0.2007
     25 O          41.4680   38.7130   28.4710 O.2       1 GLY        -0.3947
     26 N          39.3690   39.5190   28.2220 N.am      1 ALA        -0.2642
     27 CA         39.1120   38.9900   26.9070 C.3       1 ALA         0.1282
     28 C          38.5640   40.0400   25.9350 C.2       1 ALA         0.2036
     29 O          37.9630   41.0750   26.3190 O.2       1 ALA        -0.3944
     30 CB         38.1620   37.8040   26.9960 C.3       1 ALA        -0.0244
     31 N          38.7740   39.7740   24.6560 N.am      1 LYS        -0.2637
     32 CA         38.1120   40.5460   23.6130 C.3       1 LYS         0.1310
     33 C          37.4430   39.5850   22.6180 C.2       1 LYS         0.2039
     34 O          37.9880   38.5460   22.2670 O.2       1 LYS        -0.3944
     35 CB         39.1010   41.4900   22.9310 C.3       1 LYS        -0.0122
     36 CG         38.4530   42.6510   22.1640 C.3       1 LYS        -0.0440
     37 CD         39.4920   43.6060   21.5640 C.3       1 LYS        -0.0124
     38 CE         39.7360   44.8640   22.4120 C.3       1 LYS        -0.0354
     39 NZ         38.9500   46.0940   21.9700 N.4       1 LYS         0.2185
     40 N          36.2550   39.9410   22.1530 N.am      1 GLN        -0.2636
     41 CA         35.5090   39.0590   21.2830 C.3       1 GLN         0.1330
     42 C          35.0260   39.8080   20.0640 C.2       1 GLN         0.2040
     43 O          34.7220   40.9790   20.1590 O.2       1 GLN        -0.3944
     44 CB         34.2980   38.4990   22.0180 C.3       1 GLN         0.0045
     45 CG         34.6310   37.5710   23.1890 C.3       1 GLN         0.0412
     46 CD         33.3880   37.2910   24.0330 C.2       1 GLN         0.1737
     47 OE1        33.1730   37.9370   25.0390 O.2       1 GLN        -0.3973
     48 NE2        32.5850   36.3200   23.6280 N.am      1 GLN        -0.3009
     49 N          34.9410   39.0940   18.9430 N.am      1 ALA        -0.2640
     50 CA         34.6790   39.6290   17.6390 C.3       1 ALA         0.1282
     51 C          33.2990   39.2200   17.2700 C.2       1 ALA         0.2034
     52 O          32.8260   38.2090   17.7680 O.2       1 ALA        -0.3944
     53 CB         35.6220   39.0670   16.6300 C.3       1 ALA        -0.0244
     54 N          32.7020   39.9600   16.3480 N.am      1 GLY        -0.2664
     55 CA         31.2850   39.7760   15.9660 C.3       1 GLY         0.1201
     56 C          30.9540   40.6130   14.7780 C.2       1 GLY         0.2007
     57 O          31.7600   41.4580   14.3460 O.2       1 GLY        -0.3947
     58 N          29.7380   40.4100   14.2800 N.am      1 ALA        -0.2642
     59 CA         29.3400   40.8950   12.9890 C.3       1 ALA         0.1281
     60 C          28.9080   42.3150   13.2710 C.2       1 ALA         0.2031
     61 O          28.5050   42.6050   14.3760 O.2       1 ALA        -0.3944
     62 CB         28.1330   40.0110   12.4600 C.3       1 ALA        -0.0244
     63 N          29.0540   43.2250   12.3180 N.am      1 VAL        -0.2692
     64 CA         28.6510   44.6110   12.5870 C.3       1 VAL         0.0967
     65 C          27.1710   44.6170   12.8350 C.2       1 VAL         0.0603
     66 O          26.6580   45.3160   13.7010 O.co2     1 VAL        -0.5666
     67 CB         28.9500   45.5780   11.4110 C.3       1 VAL        -0.0118
     68 CG1        28.4410   46.9840   11.7400 C.3       1 VAL        -0.0590
     69 CG2        30.4270   45.6290   11.1250 C.3       1 VAL        -0.0590
     70 OXT        26.4710   43.9030   12.1500 O.co2     1 VAL        -0.5666
     71 H1         44.9432   43.3744   45.0354 H         1 HIS         0.2012
     72 H2         46.3102   43.7256   44.1885 H         1 HIS         0.2012
     73 H3         45.6977   42.1979   44.1659 H         1 HIS         0.2012
     74 H4         44.3803   44.5972   43.0451 H         1 HIS         0.1061
     75 H5         43.7119   42.9301   43.0204 H         1 HIS         0.1061
     76 H6         43.7797   42.2581   40.9900 H         1 HIS         0.1884
     77 H7         46.0515   42.9534   39.2351 H         1 HIS         0.0797
     78 H8         46.4475   40.5839   38.6089 H         1 HIS         0.0277
     79 H9         45.2889   40.0632   39.8789 H         1 HIS         0.0277
     80 H10        46.8129   40.8947   40.3399 H         1 HIS         0.0277
     81 H11        45.6684   41.8281   36.9974 H         1 LEU         0.1883
     82 H12        42.8352   41.9782   36.2505 H         1 LEU         0.0800
     83 H13        44.8421   44.0709   35.3607 H         1 LEU         0.0315
     84 H14        43.4713   44.3042   36.4978 H         1 LEU         0.0315
     85 H15        43.2471   43.6737   33.5247 H         1 LEU         0.0298
     86 H16        40.8290   44.1965   33.8035 H         1 LEU         0.0232
     87 H17        41.0642   44.3862   35.5741 H         1 LEU         0.0232
     88 H18        41.2955   42.7798   34.8044 H         1 LEU         0.0232
     89 H19        44.1839   45.8842   34.1023 H         1 LEU         0.0232
     90 H20        42.7755   46.1950   35.1730 H         1 LEU         0.0232
     91 H21        42.5360   46.0232   33.4011 H         1 LEU         0.0232
     92 H22        42.4045   40.5213   34.7484 H         1 GLY         0.1881
     93 H23        43.2123   39.0658   32.8803 H         1 GLY         0.0763
     94 H24        44.2003   40.4667   32.3436 H         1 GLY         0.0763
     95 H25        42.4672   39.2451   30.5223 H         1 GLY         0.1881
     96 H26        40.9888   41.4203   29.5425 H         1 GLY         0.0763
     97 H27        39.8535   40.4617   30.5518 H         1 GLY         0.0763
     98 H28        38.6128   39.9452   28.7184 H         1 ALA         0.1883
     99 H29        40.0692   38.6309   26.5010 H         1 ALA         0.0797
    100 H30        37.9733   37.4088   25.9869 H         1 ALA         0.0277
    101 H31        37.2122   38.1280   27.4464 H         1 ALA         0.0277
    102 H32        38.6140   37.0181   27.6189 H         1 ALA         0.0277
    103 H33        39.3956   39.0330   24.4019 H         1 LYS         0.1883
    104 H34        37.3262   41.1590   24.0785 H         1 LYS         0.0800
    105 H35        39.7015   40.9027   22.2207 H         1 LYS         0.0312
    106 H36        39.7586   41.9144   23.7039 H         1 LYS         0.0312
    107 H37        37.8108   43.2165   22.8552 H         1 LYS         0.0269
    108 H38        37.8404   42.2380   21.3491 H         1 LYS         0.0269
    109 H39        39.1420   43.9199   20.5696 H         1 LYS         0.0317
    110 H40        40.4443   43.0647   21.4635 H         1 LYS         0.0317
    111 H41        40.8077   45.1070   22.3638 H         1 LYS         0.0813
    112 H42        39.4582   44.6355   23.4515 H         1 LYS         0.0813
    113 H43        39.1687   46.8685   22.5770 H         1 LYS         0.1994
    114 H44        37.9626   45.8972   22.0189 H         1 LYS         0.1994
    115 H45        39.1993   46.3293   21.0221 H         1 LYS         0.1994
    116 H46        35.8701   40.8286   22.4061 H         1 GLN         0.1883
    117 H47        36.1604   38.2306   20.9676 H         1 GLN         0.0801
    118 H48        33.6903   37.9341   21.2958 H         1 GLN         0.0337
    119 H49        33.7126   39.3449   22.4075 H         1 GLN         0.0337
    120 H50        35.3952   38.0478   23.8204 H         1 GLN         0.0504
    121 H51        35.0210   36.6206   22.7958 H         1 GLN         0.0504
    122 H52        31.7603   36.1027   24.1501 H         1 GLN         0.1814
    123 H53        32.8030   35.8036   22.7999 H         1 GLN         0.1814
    124 H54        35.0703   38.1051   19.0168 H         1 ALA         0.1883
    125 H55        34.7649   40.7255   17.6577 H         1 ALA         0.0797
    126 H56        35.3983   39.4940   15.6413 H         1 ALA         0.0277
    127 H57        35.5087   37.9735   16.5913 H         1 ALA         0.0277
    128 H58        36.6547   39.3189   16.9130 H         1 ALA         0.0277
    129 H59        33.2321   40.6739   15.8904 H         1 GLY         0.1881
    130 H60        30.6414   40.0711   16.8078 H         1 GLY         0.0763
    131 H61        31.1095   38.7175   15.7237 H         1 GLY         0.0763
    132 H62        29.0744   39.8992   14.8265 H         1 ALA         0.1883
    133 H63        30.1714   40.8682   12.2692 H         1 ALA         0.0797
    134 H64        27.8191   40.3738   11.4701 H         1 ALA         0.0277
    135 H65        27.2893   40.0846   13.1620 H         1 ALA         0.0277
    136 H66        28.4539   38.9618   12.3811 H         1 ALA         0.0277
    137 H67        29.4333   42.9709   11.4283 H         1 VAL         0.1875
    138 H68        29.1817   44.9680   13.4819 H         1 VAL         0.0729
    139 H69        28.4288   45.2122   10.5141 H         1 VAL         0.0336
    140 H70        28.6590   47.6589   10.8992 H         1 VAL         0.0234
    141 H71        28.9435   47.3532   12.6462 H         1 VAL         0.0234
    142 H72        27.3549   46.9501   11.9109 H         1 VAL         0.0234
    143 H73        30.7899   44.6177   10.8890 H         1 VAL         0.0234
    144 H74        30.9585   46.0124   12.0084 H         1 VAL         0.0234
    145 H75        30.6119   46.2940   10.2685 H         1 VAL         0.0234
@<TRIPOS>BOND
     1    1    2 1  
     2    2    3 1  
     3    3    4 2  
     4    3    5 am 
     5    5    6 1  
     6    6    7 1  
     7    6    9 1  
     8    7    8 2  
     9    7   10 am 
    10   10   11 1  
    11   11   12 1  
    12   11   14 1  
    13   12   13 2  
    14   12   18 am 
    15   14   15 1  
    16   15   16 1  
    17   15   17 1  
    18   18   19 1  
    19   19   20 1  
    20   20   21 2  
    21   20   22 am 
    22   22   23 1  
    23   23   24 1  
    24   24   25 2  
    25   24   26 am 
    26   26   27 1  
    27   27   28 1  
    28   27   30 1  
    29   28   29 2  
    30   28   31 am 
    31   31   32 1  
    32   32   33 1  
    33   32   35 1  
    34   33   34 2  
    35   33   40 am 
    36   35   36 1  
    37   36   37 1  
    38   37   38 1  
    39   38   39 1  
    40   40   41 1  
    41   41   42 1  
    42   41   44 1  
    43   42   43 2  
    44   42   49 am 
    45   44   45 1  
    46   45   46 1  
    47   46   47 2  
    48   46   48 am 
    49   49   50 1  
    50   50   51 1  
    51   50   53 1  
    52   51   52 2  
    53   51   54 am 
    54   54   55 1  
    55   55   56 1  
    56   56   57 2  
    57   56   58 am 
    58   58   59 1  
    59   59   60 1  
    60   59   62 1  
    61   60   61 2  
    62   60   63 am 
    63   63   64 1  
    64   64   65 1  
    65   64   67 1  
    66   65   66 ar 
    67   65   70 ar 
    68   67   68 1  
    69   67   69 1  
    70    1   71 1  
    71    1   72 1  
    72    1   73 1  
    73    2   74 1  
    74    2   75 1  
    75    5   76 1  
    76    6   77 1  
    77    9   78 1  
    78    9   79 1  
    79    9   80 1  
    80   10   81 1  
    81   11   82 1  
    82   14   83 1  
    83   14   84 1  
    84   15   85 1  
    85   16   86 1  
    86   16   87 1  
    87   16   88 1  
    88   17   89 1  
    89   17   90 1  
    90   17   91 1  
    91   18   92 1  
    92   19   93 1  
    93   19   94 1  
    94   22   95 1  
    95   23   96 1  
    96   23   97 1  
    97   26   98 1  
    98   27   99 1  
    99   30  100 1  
   100   30  101 1  
   101   30  102 1  
   102   31  103 1  
   103   32  104 1  
   104   35  105 1  
   105   35  106 1  
   106   36  107 1  
   107   36  108 1  
   108   37  109 1  
   109   37  110 1  
   110   38  111 1  
   111   38  112 1  
   112   39  113 1  
   113   39  114 1  
   114   39  115 1  
   115   40  116 1  
   116   41  117 1  
   117   44  118 1  
   118   44  119 1  
   119   45  120 1  
   120   45  121 1  
   121   48  122 1  
   122   48  123 1  
   123   49  124 1  
   124   50  125 1  
   125   53  126 1  
   126   53  127 1  
   127   53  128 1  
   128   54  129 1  
   129   55  130 1  
   130   55  131 1  
   131   58  132 1  
   132   59  133 1  
   133   62  134 1  
   134   62  135 1  
   135   62  136 1  
   136   63  137 1  
   137   64  138 1  
   138   67  139 1  
   139   68  140 1  
   140   68  141 1  
   141   68  142 1  
   142   69  143 1  
   143   69  144 1  
   144   69  145 1  
@<TRIPOS>SUBSTRUCTURE
     1 HIS         1

