2vr3_ligand
  -I-interpret- 

146145  0  0  0  0  0  0  0  0999 V2000
   45.4640   43.1780   44.1950 N   0  3  0  0  0
   44.6350   43.5280   43.0020 C   0  0  0  0  0
   45.3760   43.2500   41.7090 C   0  0  0  0  0
   46.5270   43.6440   41.5560 O   0  0  0  0  0
   44.7150   42.5500   40.7900 N   0  0  0  0  0
   45.3040   42.1890   39.4940 C   0  0  0  0  0
   44.2480   42.1620   38.3830 C   0  0  0  0  0
   43.0320   42.2220   38.6580 O   0  0  0  0  0
   46.0130   40.8380   39.5870 C   0  0  0  0  0
   44.7060   42.0610   37.1370 N   0  0  0  0  0
   43.8500   42.2790   35.9510 C   0  0  0  0  0
   44.1730   41.4890   34.6790 C   0  0  0  0  0
   45.2660   41.6080   34.1490 O   0  0  0  0  0
   43.8140   43.7640   35.6030 C   0  0  0  0  0
   42.9200   44.1940   34.4370 C   0  0  0  0  0
   41.4170   43.8650   34.6720 C   0  0  0  0  0
   43.1170   45.6730   34.2670 C   0  0  0  0  0
   43.2000   40.7230   34.1770 N   0  0  0  0  0
   43.2530   40.1630   32.8130 C   0  0  0  0  0
   42.0970   40.6430   31.9380 C   0  0  0  0  0
   41.3890   41.5720   32.2900 O   0  0  0  0  0
   41.8780   40.0050   30.7970 N   0  0  0  0  0
   40.7720   40.4210   29.9480 C   0  0  0  0  0
   40.5650   39.4690   28.8110 C   0  0  0  0  0
   41.4680   38.7130   28.4710 O   0  0  0  0  0
   39.3690   39.5190   28.2220 N   0  0  0  0  0
   39.1120   38.9900   26.9070 C   0  0  0  0  0
   38.5640   40.0400   25.9350 C   0  0  0  0  0
   37.9630   41.0750   26.3190 O   0  0  0  0  0
   38.1620   37.8040   26.9960 C   0  0  0  0  0
   38.7740   39.7740   24.6560 N   0  0  0  0  0
   38.1120   40.5460   23.6130 C   0  0  0  0  0
   37.4430   39.5850   22.6180 C   0  0  0  0  0
   37.9880   38.5460   22.2670 O   0  0  0  0  0
   39.1010   41.4900   22.9310 C   0  0  0  0  0
   38.4530   42.6510   22.1640 C   0  0  0  0  0
   39.4920   43.6060   21.5640 C   0  0  0  0  0
   39.7360   44.8640   22.4120 C   0  0  0  0  0
   38.9500   46.0940   21.9700 N   0  3  0  0  0
   36.2550   39.9410   22.1530 N   0  0  0  0  0
   35.5090   39.0590   21.2830 C   0  0  0  0  0
   35.0260   39.8080   20.0640 C   0  0  0  0  0
   34.7220   40.9790   20.1590 O   0  0  0  0  0
   34.2980   38.4990   22.0180 C   0  0  0  0  0
   34.6310   37.5710   23.1890 C   0  0  0  0  0
   33.3880   37.2910   24.0330 C   0  0  0  0  0
   33.1730   37.9370   25.0390 O   0  0  0  0  0
   32.5850   36.3200   23.6280 N   0  0  0  0  0
   34.9410   39.0940   18.9430 N   0  0  0  0  0
   34.6790   39.6290   17.6390 C   0  0  0  0  0
   33.2990   39.2200   17.2700 C   0  0  0  0  0
   32.8260   38.2090   17.7680 O   0  0  0  0  0
   35.6220   39.0670   16.6300 C   0  0  0  0  0
   32.7020   39.9600   16.3480 N   0  0  0  0  0
   31.2850   39.7760   15.9660 C   0  0  0  0  0
   30.9540   40.6130   14.7780 C   0  0  0  0  0
   31.7600   41.4580   14.3460 O   0  0  0  0  0
   29.7380   40.4100   14.2800 N   0  0  0  0  0
   29.3400   40.8950   12.9890 C   0  0  0  0  0
   28.9080   42.3150   13.2710 C   0  0  0  0  0
   28.5050   42.6050   14.3760 O   0  0  0  0  0
   28.1330   40.0110   12.4600 C   0  0  0  0  0
   29.0540   43.2250   12.3180 N   0  0  0  0  0
   28.6510   44.6110   12.5870 C   0  0  0  0  0
   27.1710   44.6170   12.8350 C   0  0  0  0  0
   26.6580   45.3160   13.7010 O   0  0  0  0  0
   28.9500   45.5780   11.4110 C   0  0  0  0  0
   28.4410   46.9840   11.7400 C   0  0  0  0  0
   30.4270   45.6290   11.1250 C   0  0  0  0  0
   26.4710   43.9030   12.1500 O   0  0  0  0  0
   44.9360   43.3771   45.0447 H   0  0  0  0  0
   45.6999   42.1861   44.1645 H   0  0  0  0  0
   46.3200   43.7327   44.1873 H   0  0  0  0  0
   44.4016   44.5919   43.0441 H   0  0  0  0  0
   43.7310   42.9193   43.0194 H   0  0  0  0  0
   43.7610   42.2523   40.9940 H   0  0  0  0  0
   46.0358   42.9554   39.2385 H   0  0  0  0  0
   45.2824   40.0602   39.8092 H   0  0  0  0  0
   46.5011   40.6191   38.6373 H   0  0  0  0  0
   46.7593   40.8747   40.3806 H   0  0  0  0  0
   45.6877   41.8235   36.9946 H   0  0  0  0  0
   42.8851   41.8883   36.2741 H   0  0  0  0  0
   44.8304   44.0204   35.3041 H   0  0  0  0  0
   43.4084   44.2624   36.4835 H   0  0  0  0  0
   43.2010   43.6415   33.5404 H   0  0  0  0  0
   41.2980   42.7895   34.8031 H   0  0  0  0  0
   41.0687   44.3820   35.5661 H   0  0  0  0  0
   40.8354   44.1939   33.8108 H   0  0  0  0  0
   42.8304   46.1844   35.1859 H   0  0  0  0  0
   44.1654   45.8759   34.0486 H   0  0  0  0  0
   42.4976   46.0285   33.4435 H   0  0  0  0  0
   42.3886   40.5173   34.7598 H   0  0  0  0  0
   43.1865   39.0779   32.8923 H   0  0  0  0  0
   44.1837   40.4918   32.3506 H   0  0  0  0  0
   42.4790   39.2299   30.5168 H   0  0  0  0  0
   41.0025   41.4041   29.5376 H   0  0  0  0  0
   39.8636   40.4425   30.5501 H   0  0  0  0  0
   38.5976   39.9537   28.7284 H   0  0  0  0  0
   40.0711   38.6636   26.5048 H   0  0  0  0  0
   38.6110   37.0260   27.6135 H   0  0  0  0  0
   37.2213   38.1263   27.4424 H   0  0  0  0  0
   37.9758   37.4134   25.9956 H   0  0  0  0  0
   39.4080   39.0182   24.3968 H   0  0  0  0  0
   37.3359   41.1721   24.0532 H   0  0  0  0  0
   39.6547   40.8977   22.2025 H   0  0  0  0  0
   39.7130   41.9313   23.7176 H   0  0  0  0  0
   37.8387   43.2171   22.8642 H   0  0  0  0  0
   37.8686   42.2305   21.3456 H   0  0  0  0  0
   39.1132   43.9336   20.5959 H   0  0  0  0  0
   40.4363   43.0648   21.5041 H   0  0  0  0  0
   40.7931   45.1116   22.3148 H   0  0  0  0  0
   39.4138   44.6297   23.4266 H   0  0  0  0  0
   39.1721   46.8770   22.5849 H   0  0  0  0  0
   39.2030   46.3311   21.0107 H   0  0  0  0  0
   37.9511   45.8937   22.0198 H   0  0  0  0  0
   35.8624   40.8463   22.4111 H   0  0  0  0  0
   36.1684   38.2463   20.9782 H   0  0  0  0  0
   33.7348   37.9079   21.2959 H   0  0  0  0  0
   33.7576   39.3501   22.4323 H   0  0  0  0  0
   35.3798   38.0537   23.8170 H   0  0  0  0  0
   35.0058   36.6272   22.7929 H   0  0  0  0  0
   31.7499   36.0907   24.1669 H   0  0  0  0  0
   32.8012   35.8010   22.7770 H   0  0  0  0  0
   35.0729   38.0854   19.0183 H   0  0  0  0  0
   34.7990   40.7123   17.6553 H   0  0  0  0  0
   36.6448   39.3172   16.9116 H   0  0  0  0  0
   35.5088   37.9835   16.5926 H   0  0  0  0  0
   35.3993   39.4908   15.6508 H   0  0  0  0  0
   33.2427   40.6882   15.8813 H   0  0  0  0  0
   30.6507   40.0767   16.7999 H   0  0  0  0  0
   31.1171   38.7276   15.7194 H   0  0  0  0  0
   29.0611   39.8890   14.8375 H   0  0  0  0  0
   30.1184   40.8495   12.2274 H   0  0  0  0  0
   28.4522   38.9717   12.3823 H   0  0  0  0  0
   27.2977   40.0848   13.1564 H   0  0  0  0  0
   27.8229   40.3714   11.4792 H   0  0  0  0  0
   29.4409   42.9659   11.4105 H   0  0  0  0  0
   29.2249   44.9612   13.4449 H   0  0  0  0  0
   27.3410   45.8181   14.1516 H   0  0  0  0  0
   28.4343   45.2060   10.5257 H   0  0  0  0  0
   27.3648   46.9491   11.9092 H   0  0  0  0  0
   28.9396   47.3486   12.6381 H   0  0  0  0  0
   28.6575   47.6518   10.9062 H   0  0  0  0  0
   30.9557   45.9785   12.0118 H   0  0  0  0  0
   30.7791   44.6321   10.8598 H   0  0  0  0  0
   30.6120   46.3132   10.2969 H   0  0  0  0  0
  1  2  1  0  0  0
  2  3  1  0  0  0
  3  4  2  0  0  0
  3  5  1  0  0  0
  5  6  1  0  0  0
  6  7  1  0  0  0
  6  9  1  0  0  0
  7  8  2  0  0  0
  7 10  1  0  0  0
 10 11  1  0  0  0
 11 12  1  0  0  0
 11 14  1  0  0  0
 12 13  2  0  0  0
 12 18  1  0  0  0
 14 15  1  0  0  0
 15 16  1  0  0  0
 15 17  1  0  0  0
 18 19  1  0  0  0
 19 20  1  0  0  0
 20 21  2  0  0  0
 20 22  1  0  0  0
 22 23  1  0  0  0
 23 24  1  0  0  0
 24 25  2  0  0  0
 24 26  1  0  0  0
 26 27  1  0  0  0
 27 28  1  0  0  0
 27 30  1  0  0  0
 28 29  2  0  0  0
 28 31  1  0  0  0
 31 32  1  0  0  0
 32 33  1  0  0  0
 32 35  1  0  0  0
 33 34  2  0  0  0
 33 40  1  0  0  0
 35 36  1  0  0  0
 36 37  1  0  0  0
 37 38  1  0  0  0
 38 39  1  0  0  0
 40 41  1  0  0  0
 41 42  1  0  0  0
 41 44  1  0  0  0
 42 43  2  0  0  0
 42 49  1  0  0  0
 44 45  1  0  0  0
 45 46  1  0  0  0
 46 47  2  0  0  0
 46 48  1  0  0  0
 49 50  1  0  0  0
 50 51  1  0  0  0
 50 53  1  0  0  0
 51 52  2  0  0  0
 51 54  1  0  0  0
 54 55  1  0  0  0
 55 56  1  0  0  0
 56 57  2  0  0  0
 56 58  1  0  0  0
 58 59  1  0  0  0
 59 60  1  0  0  0
 59 62  1  0  0  0
 60 61  2  0  0  0
 60 63  1  0  0  0
 63 64  1  0  0  0
 64 65  1  0  0  0
 64 67  1  0  0  0
 65 66  1  0  0  0
 65 70  2  0  0  0
 67 68  1  0  0  0
 67 69  1  0  0  0
  1 71  1  0  0  0
  1 72  1  0  0  0
  1 73  1  0  0  0
  2 74  1  0  0  0
  2 75  1  0  0  0
  5 76  1  0  0  0
  6 77  1  0  0  0
  9 78  1  0  0  0
  9 79  1  0  0  0
  9 80  1  0  0  0
 10 81  1  0  0  0
 11 82  1  0  0  0
 14 83  1  0  0  0
 14 84  1  0  0  0
 15 85  1  0  0  0
 16 86  1  0  0  0
 16 87  1  0  0  0
 16 88  1  0  0  0
 17 89  1  0  0  0
 17 90  1  0  0  0
 17 91  1  0  0  0
 18 92  1  0  0  0
 19 93  1  0  0  0
 19 94  1  0  0  0
 22 95  1  0  0  0
 23 96  1  0  0  0
 23 97  1  0  0  0
 26 98  1  0  0  0
 27 99  1  0  0  0
 30100  1  0  0  0
 30101  1  0  0  0
 30102  1  0  0  0
 31103  1  0  0  0
 32104  1  0  0  0
 35105  1  0  0  0
 35106  1  0  0  0
 36107  1  0  0  0
 36108  1  0  0  0
 37109  1  0  0  0
 37110  1  0  0  0
 38111  1  0  0  0
 38112  1  0  0  0
 39113  1  0  0  0
 39114  1  0  0  0
 39115  1  0  0  0
 40116  1  0  0  0
 41117  1  0  0  0
 44118  1  0  0  0
 44119  1  0  0  0
 45120  1  0  0  0
 45121  1  0  0  0
 48122  1  0  0  0
 48123  1  0  0  0
 49124  1  0  0  0
 50125  1  0  0  0
 53126  1  0  0  0
 53127  1  0  0  0
 53128  1  0  0  0
 54129  1  0  0  0
 55130  1  0  0  0
 55131  1  0  0  0
 58132  1  0  0  0
 59133  1  0  0  0
 62134  1  0  0  0
 62135  1  0  0  0
 62136  1  0  0  0
 63137  1  0  0  0
 64138  1  0  0  0
 66139  1  0  0  0
 67140  1  0  0  0
 68141  1  0  0  0
 68142  1  0  0  0
 68143  1  0  0  0
 69144  1  0  0  0
 69145  1  0  0  0
 69146  1  0  0  0
M  END
$$$$
