4nro_ligand
  -I-interpret- 

 16 15  0  0  0  0  0  0  0  0999 V2000
   12.5160   20.4920   16.7890 C   0  0  0  0  0
   11.4460   20.0720   17.2940 O   0  0  0  0  0
   13.6200   20.1100   17.2310 O   0  0  0  0  0
   12.4810   21.4550   15.6840 C   0  0  0  0  0
   11.7080   21.2790   14.7560 O   0  0  0  0  0
   13.4110   22.6570   15.7090 C   0  0  0  0  0
   13.0500   23.7340   14.6870 C   0  0  0  0  0
   14.2970   24.4780   14.2520 C   0  0  0  0  0
   14.2150   25.6990   13.9810 O   0  0  0  0  0
   15.3810   23.8570   14.1620 O   0  0  0  0  0
   10.7006   20.4659   16.8349 H   0  0  0  0  0
   14.4119   22.2999   15.4665 H   0  0  0  0  0
   13.3346   23.1078   16.6985 H   0  0  0  0  0
   12.3530   24.4386   15.1408 H   0  0  0  0  0
   12.5928   23.2627   13.8170 H   0  0  0  0  0
   13.3104   25.9940   14.1089 H   0  0  0  0  0
  1  2  1  0  0  0
  1  3  2  0  0  0
  1  4  1  0  0  0
  4  5  2  0  0  0
  4  6  1  0  0  0
  6  7  1  0  0  0
  7  8  1  0  0  0
  8  9  1  0  0  0
  8 10  2  0  0  0
  2 11  1  0  0  0
  6 12  1  0  0  0
  6 13  1  0  0  0
  7 14  1  0  0  0
  7 15  1  0  0  0
  9 16  1  0  0  0
M  END
$$$$
