6nzg_ligand
  -I-interpret- 

 27 27  0  0  0  0  0  0  0  0999 V2000
   14.6120  -29.3530  -29.9230 C   0  0  0  0  0
   15.1940  -29.0730  -31.3190 C   0  0  0  0  0
   14.1360  -28.4420  -32.2530 C   0  0  0  0  0
   13.5300  -27.1580  -31.6400 C   0  0  0  0  0
   12.9280  -27.4530  -30.2720 C   0  0  0  0  0
   14.0340  -28.0240  -29.3770 C   0  0  0  0  0
   14.7560  -28.2100  -33.6480 C   0  0  0  0  0
   16.3600  -28.2010  -31.2170 N   0  3  0  0  0
   12.5590  -26.5740  -32.4680 O   0  0  0  0  0
   12.4300  -26.2590  -29.7390 O   0  0  0  0  0
   13.6280  -28.1100  -28.0300 O   0  0  0  0  0
   15.8810  -27.6300  -33.7430 O   0  0  0  0  0
   14.1600  -28.6040  -34.6960 O   0  0  0  0  0
   15.3886  -29.7301  -29.2575 H   0  0  0  0  0
   13.8298  -30.1097  -29.9835 H   0  0  0  0  0
   15.4994  -30.0260  -31.7510 H   0  0  0  0  0
   13.2999  -29.1315  -32.3700 H   0  0  0  0  0
   14.3469  -26.4439  -31.5361 H   0  0  0  0  0
   12.1142  -28.1746  -30.3434 H   0  0  0  0  0
   14.8605  -27.3138  -29.4021 H   0  0  0  0  0
   17.0496  -28.6283  -30.5987 H   0  0  0  0  0
   16.7669  -28.0697  -32.1430 H   0  0  0  0  0
   16.0754  -27.2977  -30.8382 H   0  0  0  0  0
   12.9426  -26.3899  -33.3285 H   0  0  0  0  0
   11.7398  -25.9173  -30.3122 H   0  0  0  0  0
   14.3450  -28.4707  -27.5033 H   0  0  0  0  0
   16.1947  -27.3970  -32.8661 H   0  0  0  0  0
  1  2  1  0  0  0
  1  6  1  0  0  0
  2  3  1  0  0  0
  2  8  1  0  0  0
  3  4  1  0  0  0
  3  7  1  0  0  0
  4  5  1  0  0  0
  4  9  1  0  0  0
  5  6  1  0  0  0
  5 10  1  0  0  0
  6 11  1  0  0  0
  7 12  1  0  0  0
  7 13  2  0  0  0
  1 14  1  0  0  0
  1 15  1  0  0  0
  2 16  1  0  0  0
  3 17  1  0  0  0
  4 18  1  0  0  0
  5 19  1  0  0  0
  6 20  1  0  0  0
  8 21  1  0  0  0
  8 22  1  0  0  0
  8 23  1  0  0  0
  9 24  1  0  0  0
 10 25  1  0  0  0
 11 26  1  0  0  0
 12 27  1  0  0  0
M  END
$$$$
