1noi_ligand
  -I-interpret- 

 24 25  0  0  0  0  0  0  0  0999 V2000
   45.7870    3.1450   20.2780 C   0  0  0  0  0
   44.5270    3.5800   19.4740 C   0  0  0  0  0
   43.3610    2.7060   19.9190 C   0  0  0  0  0
   43.7660    1.2300   20.0310 C   0  0  0  0  0
   44.8010    0.9750   21.1270 C   0  0  0  0  0
   45.3810   -0.4250   21.0820 C   0  0  0  0  0
   45.8160    1.9690   21.0050 N   0  0  0  0  0
   47.0810    1.9990   21.5500 N   0  0  0  0  0
   47.7340    3.1270   21.1820 N   0  0  0  0  0
   46.9490    3.8420   20.3670 N   0  0  0  0  0
   44.1530    4.9450   19.6040 O   0  0  0  0  0
   42.2960    2.8160   19.0150 O   0  0  0  0  0
   42.5860    0.5030   20.3800 O   0  0  0  0  0
   45.6670   -0.8740   19.7460 O   0  0  0  0  0
   44.7830    3.4545   18.4219 H   0  0  0  0  0
   43.0543    3.0588   20.9037 H   0  0  0  0  0
   44.2068    0.9241   19.0822 H   0  0  0  0  0
   44.3132    1.0446   22.0993 H   0  0  0  0  0
   44.6424   -1.1036   21.5087 H   0  0  0  0  0
   46.3199   -0.4127   21.6356 H   0  0  0  0  0
   44.8825    5.5034   19.3255 H   0  0  0  0  0
   42.0361    3.7370   18.9389 H   0  0  0  0  0
   41.9146    0.6434   19.7083 H   0  0  0  0  0
   46.0302   -1.7620   19.7789 H   0  0  0  0  0
  1  2  1  0  0  0
  7  1  4  0  0  0
  1 10  4  0  0  0
  3  2  1  0  0  0
  2 11  1  0  0  0
  4  3  1  0  0  0
  3 12  1  0  0  0
  5  4  1  0  0  0
  4 13  1  0  0  0
  6  5  1  0  0  0
  5  7  1  0  0  0
  6 14  1  0  0  0
  7  8  4  0  0  0
  8  9  4  0  0  0
  9 10  4  0  0  0
  2 15  1  0  0  0
  3 16  1  0  0  0
  4 17  1  0  0  0
  5 18  1  0  0  0
  6 19  1  0  0  0
  6 20  1  0  0  0
 11 21  1  0  0  0
 12 22  1  0  0  0
 13 23  1  0  0  0
 14 24  1  0  0  0
M  END
$$$$
