4olc_ligand
  -I-interpret- 

 19 18  0  0  0  0  0  0  0  0999 V2000
   63.5900   63.4090   61.1340 C   0  0  0  0  0
   62.2220   63.5940   61.7590 C   0  0  0  0  0
   61.4940   64.6790   61.1040 N   0  0  0  0  0
   60.1680   64.8320   61.2310 C   0  0  0  0  0
   59.3980   66.2220   60.6530 S   0  0  0  0  0
   59.2830   63.7170   61.8970 S   0  0  0  0  0
   62.3120   65.5910   60.3160 C   0  0  0  0  0
   62.4910   66.8990   61.0580 C   0  0  0  0  0
   63.4756   63.1681   60.0771 H   0  0  0  0  0
   64.1632   64.3303   61.2380 H   0  0  0  0  0
   64.1118   62.5960   61.6389 H   0  0  0  0  0
   62.3479   63.8416   62.8130 H   0  0  0  0  0
   61.6550   62.6703   61.6430 H   0  0  0  0  0
   60.3035   67.0429   60.1285 H   0  0  0  0  0
   61.8182   65.7837   59.3636 H   0  0  0  0  0
   63.2891   65.1393   60.1447 H   0  0  0  0  0
   61.5153   67.3521   61.2336 H   0  0  0  0  0
   62.9821   66.7095   62.0125 H   0  0  0  0  0
   63.1040   67.5735   60.4601 H   0  0  0  0  0
  1  2  1  0  0  0
  2  3  1  0  0  0
  3  4  1  0  0  0
  3  7  1  0  0  0
  4  5  1  0  0  0
  4  6  2  0  0  0
  7  8  1  0  0  0
  1  9  1  0  0  0
  1 10  1  0  0  0
  1 11  1  0  0  0
  2 12  1  0  0  0
  2 13  1  0  0  0
  5 14  1  0  0  0
  7 15  1  0  0  0
  7 16  1  0  0  0
  8 17  1  0  0  0
  8 18  1  0  0  0
  8 19  1  0  0  0
M  END
$$$$
