4hnf_ligand
  -I-interpret- 

 43 46  0  0  0  0  0  0  0  0999 V2000
   23.6650   -8.0350   24.7180 C   0  0  0  0  0
   24.8510   -7.5520   24.0560 C   0  0  0  0  0
   25.8740   -8.4980   23.5850 C   0  0  0  0  0
   26.7530   -1.3490   21.7220 C   0  0  0  0  0
   25.5780   -1.9430   23.7210 C   0  0  0  0  0
   25.1320   -3.2210   23.1900 C   0  0  0  0  0
   25.5540   -3.4640   21.8660 C   0  0  0  0  0
   24.3800   -3.8970   24.2120 C   0  0  0  0  0
   23.8500   -5.2820   24.1650 C   0  0  0  0  0
   24.1390    0.5900   27.7680 C   0  0  0  0  0
   26.4890   -0.0570   27.9570 C   0  0  0  0  0
   26.2930   -1.1910   26.9510 C   0  0  0  0  0
   25.2110   -0.8610   25.9190 C   0  0  0  0  0
   26.3700   -1.0190   23.0150 N   0  0  0  0  0
   26.3420   -2.5500   21.1780 N   0  0  0  0  0
   25.0490   -1.9670   24.9620 N   0  0  0  0  0
   24.3710   -3.0620   25.2490 N   0  0  0  0  0
   25.1770   -4.5500   21.1680 N   0  0  0  0  0
   25.0090   -6.1730   23.8840 O   0  0  0  0  0
   25.2100    0.1700   28.6060 O   0  0  0  0  0
   23.9100   -0.4670   26.6360 C   0  0  0  0  0
   25.7380   -9.9120   23.7640 C   0  0  0  0  0
   24.5480  -10.3710   24.4330 C   0  0  0  0  0
   23.5490   -9.4310   24.8880 C   0  0  0  0  0
   22.1420   -9.9180   25.6700 Cl  0  0  0  0  0
   22.8923   -7.3523   25.0715 H   0  0  0  0  0
   26.7619   -8.1112   23.0849 H   0  0  0  0  0
   27.3728   -0.6660   21.1411 H   0  0  0  0  0
   23.0875   -5.3805   23.3923 H   0  0  0  0  0
   23.3745   -5.5486   25.1089 H   0  0  0  0  0
   24.3867    1.5521   27.3196 H   0  0  0  0  0
   23.2306    0.6854   28.3627 H   0  0  0  0  0
   26.8287    0.8478   27.4529 H   0  0  0  0  0
   27.2492   -0.3235   28.6913 H   0  0  0  0  0
   25.9828   -2.0817   27.4974 H   0  0  0  0  0
   27.2336   -1.3438   26.4219 H   0  0  0  0  0
   25.5142    0.0009   25.3246 H   0  0  0  0  0
   24.5597   -5.2412   21.5941 H   0  0  0  0  0
   25.5084   -4.6825   20.2125 H   0  0  0  0  0
   23.2414   -0.0257   25.8969 H   0  0  0  0  0
   23.4965   -1.3647   27.0955 H   0  0  0  0  0
   26.4989  -10.6080   23.4108 H   0  0  0  0  0
   24.3994  -11.4382   24.5978 H   0  0  0  0  0
  2  1  4  0  0  0
  1 24  4  0  0  0
  2  3  4  0  0  0
 19  2  1  0  0  0
  3 22  4  0  0  0
 14  4  4  0  0  0
  4 15  4  0  0  0
  5  6  4  0  0  0
  5 14  4  0  0  0
 16  5  4  0  0  0
  6  7  4  0  0  0
  6  8  4  0  0  0
  7 15  4  0  0  0
  7 18  1  0  0  0
  8  9  1  0  0  0
  8 17  4  0  0  0
  9 19  1  0  0  0
 20 10  1  0  0  0
 10 21  1  0  0  0
 12 11  1  0  0  0
 11 20  1  0  0  0
 13 12  1  0  0  0
 13 16  1  0  0  0
 13 21  1  0  0  0
 16 17  4  0  0  0
 22 23  4  0  0  0
 23 24  4  0  0  0
 24 25  1  0  0  0
  1 26  1  0  0  0
  3 27  1  0  0  0
  4 28  1  0  0  0
  9 29  1  0  0  0
  9 30  1  0  0  0
 10 31  1  0  0  0
 10 32  1  0  0  0
 11 33  1  0  0  0
 11 34  1  0  0  0
 12 35  1  0  0  0
 12 36  1  0  0  0
 13 37  1  0  0  0
 18 38  1  0  0  0
 18 39  1  0  0  0
 21 40  1  0  0  0
 21 41  1  0  0  0
 22 42  1  0  0  0
 23 43  1  0  0  0
M  END
$$$$
