2pj8_ligand
  -I-interpret- 

 68 70  0  0  0  0  0  0  0  0999 V2000
   37.9700   20.7890   67.0120 C   0  0  0  0  0
   38.2610   22.1410   67.3150 C   0  0  0  0  0
   37.3650   23.1660   66.9150 C   0  0  0  0  0
   36.1760   22.8430   66.2140 C   0  0  0  0  0
   35.8780   21.4910   65.9110 C   0  0  0  0  0
   36.7720   20.4420   66.3030 C   0  0  0  0  0
   36.5350   19.0920   65.8900 C   0  0  0  0  0
   37.6270   18.1870   65.7000 C   0  0  0  0  0
   37.4030   16.8830   65.1930 C   0  0  0  0  0
   35.2130   18.6490   65.5610 C   0  0  0  0  0
   34.9950   17.3440   65.0590 C   0  0  0  0  0
   36.0880   16.4610   64.8730 C   0  0  0  0  0
   35.8260   14.8600   64.2220 S   0  0  0  0  0
   34.4730   14.4310   64.4930 O   0  0  0  0  0
   36.7910   13.8970   64.8550 O   0  0  0  0  0
   36.0960   14.8830   62.5540 N   0  0  0  0  0
   35.1050   14.6150   61.6080 C   0  0  0  0  0
   34.9730   15.7960   60.6120 C   0  0  0  0  0
   36.2980   16.1720   59.9370 C   0  0  0  0  0
   34.4130   17.0280   61.3310 C   0  0  0  0  0
   35.4090   12.9730   60.8180 P   0  0  0  0  0
   34.4720   12.8420   59.6940 O   0  0  0  0  0
   35.2840   12.0120   61.9370 O   0  0  0  0  0
   37.0920   12.8170   60.1310 C   0  0  0  0  0
   37.4830   11.3520   59.8260 C   0  0  0  0  0
   37.6630   10.5060   61.1070 C   0  0  0  0  0
   37.4150    9.2870   61.0100 O   0  0  0  0  0
   38.0700   11.0950   62.1370 O   0  0  0  0  0
   38.8130   11.3210   59.0480 C   0  0  0  0  0
   38.8790   10.6190   57.8270 C   0  0  0  0  0
   39.9840   11.9380   59.5740 C   0  0  0  0  0
   41.2090   11.8450   58.8780 C   0  0  0  0  0
   41.2730   11.1380   57.6570 C   0  0  0  0  0
   40.1080   10.5210   57.1340 C   0  0  0  0  0
   40.1930    9.6890   55.8660 C   0  0  0  0  0
   40.3000    8.2700   56.2430 N   0  3  0  0  0
   38.6620   20.0051   67.3200 H   0  0  0  0  0
   39.1731   22.3945   67.8554 H   0  0  0  0  0
   37.5920   24.2064   67.1478 H   0  0  0  0  0
   35.4913   23.6341   65.9082 H   0  0  0  0  0
   34.9607   21.2470   65.3751 H   0  0  0  0  0
   38.6402   18.5036   65.9475 H   0  0  0  0  0
   38.2429   16.2034   65.0488 H   0  0  0  0  0
   34.3675   19.3231   65.6986 H   0  0  0  0  0
   33.9842   17.0171   64.8148 H   0  0  0  0  0
   37.0340   15.1047   62.2203 H   0  0  0  0  0
   34.1316   14.5351   62.0919 H   0  0  0  0  0
   34.2926   15.4609   59.8291 H   0  0  0  0  0
   37.0222   16.4630   60.6979 H   0  0  0  0  0
   36.6775   15.3144   59.3815 H   0  0  0  0  0
   36.1326   17.0048   59.2535 H   0  0  0  0  0
   33.4310   16.7926   61.7412 H   0  0  0  0  0
   35.0868   17.3131   62.1390 H   0  0  0  0  0
   34.3243   17.8515   60.6225 H   0  0  0  0  0
   35.9503   12.2064   62.6002 H   0  0  0  0  0
   37.7919   13.2012   60.8731 H   0  0  0  0  0
   37.1221   13.3721   59.1934 H   0  0  0  0  0
   36.6677   10.9259   59.2413 H   0  0  0  0  0
   38.1827   12.0292   61.9466 H   0  0  0  0  0
   37.9833   10.1521   57.4174 H   0  0  0  0  0
   39.9344   12.4835   60.5164 H   0  0  0  0  0
   42.1039   12.3181   59.2824 H   0  0  0  0  0
   42.2171   11.0666   57.1170 H   0  0  0  0  0
   41.0659    9.9858   55.2847 H   0  0  0  0  0
   39.3018    9.8458   55.2583 H   0  0  0  0  0
   40.3579    7.6989   55.3999 H   0  0  0  0  0
   41.1385    8.1316   56.8071 H   0  0  0  0  0
   39.4775    7.9998   56.7823 H   0  0  0  0  0
  1  2  4  0  0  0
  1  6  4  0  0  0
  2  3  4  0  0  0
  3  4  4  0  0  0
  4  5  4  0  0  0
  5  6  4  0  0  0
  6  7  1  0  0  0
  7  8  4  0  0  0
  7 10  4  0  0  0
  8  9  4  0  0  0
  9 12  4  0  0  0
 10 11  4  0  0  0
 11 12  4  0  0  0
 12 13  1  0  0  0
 13 14  2  0  0  0
 13 15  2  0  0  0
 13 16  1  0  0  0
 16 17  1  0  0  0
 17 18  1  0  0  0
 17 21  1  0  0  0
 18 19  1  0  0  0
 18 20  1  0  0  0
 21 22  2  0  0  0
 21 23  1  0  0  0
 21 24  1  0  0  0
 24 25  1  0  0  0
 25 26  1  0  0  0
 25 29  1  0  0  0
 26 27  2  0  0  0
 26 28  1  0  0  0
 29 30  4  0  0  0
 29 31  4  0  0  0
 30 34  4  0  0  0
 31 32  4  0  0  0
 32 33  4  0  0  0
 33 34  4  0  0  0
 34 35  1  0  0  0
 35 36  1  0  0  0
  1 37  1  0  0  0
  2 38  1  0  0  0
  3 39  1  0  0  0
  4 40  1  0  0  0
  5 41  1  0  0  0
  8 42  1  0  0  0
  9 43  1  0  0  0
 10 44  1  0  0  0
 11 45  1  0  0  0
 16 46  1  0  0  0
 17 47  1  0  0  0
 18 48  1  0  0  0
 19 49  1  0  0  0
 19 50  1  0  0  0
 19 51  1  0  0  0
 20 52  1  0  0  0
 20 53  1  0  0  0
 20 54  1  0  0  0
 23 55  1  0  0  0
 24 56  1  0  0  0
 24 57  1  0  0  0
 25 58  1  0  0  0
 28 59  1  0  0  0
 30 60  1  0  0  0
 31 61  1  0  0  0
 32 62  1  0  0  0
 33 63  1  0  0  0
 35 64  1  0  0  0
 35 65  1  0  0  0
 36 66  1  0  0  0
 36 67  1  0  0  0
 36 68  1  0  0  0
M  END
$$$$
