### 
### Created by X-TOOL on Mon Sep 10 21:12:57 2018
### 

@<TRIPOS>MOLECULE
2pj8_ligand
   66    68     1     0     0
SMALL
GAST_HUCK


@<TRIPOS>ATOM
      1 C41        37.9700   20.7890   67.0120 C.ar      1 17A        -0.0540
      2 C42        38.2610   22.1410   67.3150 C.ar      1 17A        -0.0612
      3 C43        37.3650   23.1660   66.9150 C.ar      1 17A        -0.0617
      4 C44        36.1760   22.8430   66.2140 C.ar      1 17A        -0.0612
      5 C45        35.8780   21.4910   65.9110 C.ar      1 17A        -0.0540
      6 C40        36.7720   20.4420   66.3030 C.ar      1 17A        -0.0179
      7 C37        36.5350   19.0920   65.8900 C.ar      1 17A        -0.0178
      8 C38        37.6270   18.1870   65.7000 C.ar      1 17A        -0.0522
      9 C39        37.4030   16.8830   65.1930 C.ar      1 17A        -0.0345
     10 C36        35.2130   18.6490   65.5610 C.ar      1 17A        -0.0522
     11 C35        34.9950   17.3440   65.0590 C.ar      1 17A        -0.0345
     12 C34        36.0880   16.4610   64.8730 C.ar      1 17A         0.1082
     13 S32        35.8260   14.8600   64.2220 S.o2      1 17A         0.0698
     14 O33        34.4730   14.4310   64.4930 O.2       1 17A        -0.1502
     15 O32        36.7910   13.8970   64.8550 O.2       1 17A        -0.1502
     16 N31        36.0960   14.8830   62.5540 N.am      1 17A        -0.2274
     17 C27        35.1050   14.6150   61.6080 C.3       1 17A         0.1043
     18 C28        34.9730   15.7960   60.6120 C.3       1 17A        -0.0107
     19 C30        36.2980   16.1720   59.9370 C.3       1 17A        -0.0594
     20 C29        34.4130   17.0280   61.3310 C.3       1 17A        -0.0594
     21 P24        35.4090   12.9730   60.8180 P.3       1 17A         0.0106
     22 O25        34.4720   12.8420   59.6940 O.co2     1 17A        -0.6177
     23 O26        35.2840   12.0120   61.9370 O.co2     1 17A        -0.6177
     24 C15        37.0920   12.8170   60.1310 C.3       1 17A         0.0387
     25 C1         37.4830   11.3520   59.8260 C.3       1 17A         0.0592
     26 C2         37.6630   10.5060   61.1070 C.2       1 17A         0.0508
     27 O14        37.4150    9.2870   61.0100 O.co2     1 17A        -0.5660
     28 O13        38.0700   11.0950   62.1370 O.co2     1 17A        -0.5660
     29 C3         38.8130   11.3210   59.0480 C.ar      1 17A        -0.0322
     30 C8         38.8790   10.6190   57.8270 C.ar      1 17A        -0.0522
     31 C4         39.9840   11.9380   59.5740 C.ar      1 17A        -0.0653
     32 C5         41.2090   11.8450   58.8780 C.ar      1 17A        -0.0748
     33 C6         41.2730   11.1380   57.6570 C.ar      1 17A        -0.0621
     34 C7         40.1080   10.5210   57.1340 C.ar      1 17A        -0.0052
     35 C9         40.1930    9.6890   55.8660 C.3       1 17A        -0.0032
     36 N10        40.3000    8.2700   56.2430 N.4       1 17A         0.2307
     37 H1         38.6582   20.0094   67.3183 H         1 17A         0.0624
     38 H2         39.1680   22.3931   67.8524 H         1 17A         0.0618
     39 H3         37.5907   24.2007   67.1465 H         1 17A         0.0618
     40 H4         35.4951   23.6297   65.9099 H         1 17A         0.0618
     41 H5         34.9658   21.2483   65.3780 H         1 17A         0.0624
     42 H6         38.6346   18.5019   65.9462 H         1 17A         0.0624
     43 H7         38.2383   16.2071   65.0496 H         1 17A         0.0637
     44 H8         34.3722   19.3194   65.6978 H         1 17A         0.0624
     45 H9         33.9898   17.0189   64.8162 H         1 17A         0.0637
     46 H10        37.0156   15.1004   62.2268 H         1 17A         0.1693
     47 H11        34.1457   14.5399   62.1410 H         1 17A         0.0720
     48 H12        34.2647   15.4952   59.8260 H         1 17A         0.0330
     49 H13        36.1324   17.0125   59.2469 H         1 17A         0.0233
     50 H14        36.6821   15.3073   59.3760 H         1 17A         0.0233
     51 H15        37.0297   16.4660   60.7039 H         1 17A         0.0233
     52 H16        33.4619   16.7673   61.8184 H         1 17A         0.0233
     53 H17        34.2422   17.8327   60.6007 H         1 17A         0.0233
     54 H18        35.1327   17.3683   62.0900 H         1 17A         0.0233
     55 H19        37.8078   13.2273   60.8586 H         1 17A         0.0508
     56 H20        37.1454   13.3963   59.1974 H         1 17A         0.0508
     57 H21        36.6899   10.9007   59.2117 H         1 17A         0.0638
     58 H22        37.9882   10.1546   57.4196 H         1 17A         0.0499
     59 H23        39.9346   12.4805   60.5112 H         1 17A         0.0502
     60 H24        42.0989   12.3155   59.2802 H         1 17A         0.0582
     61 H25        42.2119   11.0670   57.1200 H         1 17A         0.0503
     62 H26        41.0791    9.9864   55.2861 H         1 17A         0.0978
     63 H27        39.2887    9.8442   55.2593 H         1 17A         0.0978
     64 H28        40.3573    7.7046   55.4105 H         1 17A         0.2008
     65 H29        39.4876    8.0017   56.7760 H         1 17A         0.2008
     66 H30        41.1283    8.1320   56.8005 H         1 17A         0.2008
@<TRIPOS>BOND
     1    1    2 ar 
     2    1    6 ar 
     3    2    3 ar 
     4    3    4 ar 
     5    4    5 ar 
     6    5    6 ar 
     7    6    7 1  
     8    7    8 ar 
     9    7   10 ar 
    10    8    9 ar 
    11    9   12 ar 
    12   10   11 ar 
    13   11   12 ar 
    14   12   13 1  
    15   13   14 2  
    16   13   15 2  
    17   13   16 am 
    18   16   17 1  
    19   17   18 1  
    20   17   21 1  
    21   18   19 1  
    22   18   20 1  
    23   21   22 ar 
    24   21   23 ar 
    25   21   24 1  
    26   24   25 1  
    27   25   26 1  
    28   25   29 1  
    29   26   27 ar 
    30   26   28 ar 
    31   29   30 ar 
    32   29   31 ar 
    33   30   34 ar 
    34   31   32 ar 
    35   32   33 ar 
    36   33   34 ar 
    37   34   35 1  
    38   35   36 1  
    39    1   37 1  
    40    2   38 1  
    41    3   39 1  
    42    4   40 1  
    43    5   41 1  
    44    8   42 1  
    45    9   43 1  
    46   10   44 1  
    47   11   45 1  
    48   16   46 1  
    49   17   47 1  
    50   18   48 1  
    51   19   49 1  
    52   19   50 1  
    53   19   51 1  
    54   20   52 1  
    55   20   53 1  
    56   20   54 1  
    57   24   55 1  
    58   24   56 1  
    59   25   57 1  
    60   30   58 1  
    61   31   59 1  
    62   32   60 1  
    63   33   61 1  
    64   35   62 1  
    65   35   63 1  
    66   36   64 1  
    67   36   65 1  
    68   36   66 1  
@<TRIPOS>SUBSTRUCTURE
     1 17A         1

