4gqp_ligand
  -I-interpret- 

 27 27  0  0  0  0  0  0  0  0999 V2000
   -2.2240   -2.0410   15.2970 N   0  3  0  0  0
   -2.8150   -3.4030   15.5240 C   0  0  0  0  0
   -1.6300   -4.3280   15.3530 C   0  0  0  0  0
   -3.3150   -3.6640   17.0270 C   0  0  0  0  0
   -4.0300   -4.9260   17.2130 C   0  0  0  0  0
   -3.3680   -6.0190   17.7230 C   0  0  0  0  0
   -5.4040   -5.0520   16.9880 C   0  0  0  0  0
   -4.0710   -7.1960   17.9670 C   0  0  0  0  0
   -6.1350   -6.2430   17.1710 C   0  0  0  0  0
   -5.4650   -7.3510   17.6720 C   0  0  0  0  0
   -3.3880   -1.0880   15.2610 C   0  0  0  0  0
   -1.6915   -2.0084   14.4277 H   0  0  0  0  0
   -1.5662   -1.7946   16.0366 H   0  0  0  0  0
   -3.6696   -3.5342   14.8602 H   0  0  0  0  0
   -0.8644   -4.0749   16.0864 H   0  0  0  0  0
   -1.9510   -5.3590   15.5019 H   0  0  0  0  0
   -1.2239   -4.2142   14.3479 H   0  0  0  0  0
   -4.0094   -2.8621   17.2777 H   0  0  0  0  0
   -2.4272   -3.7025   17.6581 H   0  0  0  0  0
   -2.3002   -5.9640   17.9347 H   0  0  0  0  0
   -5.9465   -4.1698   16.6482 H   0  0  0  0  0
   -3.5357   -8.0395   18.4030 H   0  0  0  0  0
   -7.1960   -6.2928   16.9262 H   0  0  0  0  0
   -5.9777   -8.2991   17.8342 H   0  0  0  0  0
   -4.0600   -1.3677   14.4496 H   0  0  0  0  0
   -3.9229   -1.1338   16.2096 H   0  0  0  0  0
   -3.0213   -0.0746   15.0978 H   0  0  0  0  0
  1  2  1  0  0  0
  1 11  1  0  0  0
  2  3  1  0  0  0
  2  4  1  0  0  0
  4  5  1  0  0  0
  5  6  4  0  0  0
  5  7  4  0  0  0
  6  8  4  0  0  0
  7  9  4  0  0  0
  8 10  4  0  0  0
  9 10  4  0  0  0
  1 12  1  0  0  0
  1 13  1  0  0  0
  2 14  1  0  0  0
  3 15  1  0  0  0
  3 16  1  0  0  0
  3 17  1  0  0  0
  4 18  1  0  0  0
  4 19  1  0  0  0
  6 20  1  0  0  0
  7 21  1  0  0  0
  8 22  1  0  0  0
  9 23  1  0  0  0
 10 24  1  0  0  0
 11 25  1  0  0  0
 11 26  1  0  0  0
 11 27  1  0  0  0
M  END
$$$$
