3gcu_ligand
  -I-interpret- 

 68 72  0  0  0  0  0  0  0  0999 V2000
   12.0610    1.4800    3.3380 C   0  0  0  0  0
   12.0070    2.3380    2.2090 C   0  0  0  0  0
   11.8720    3.7320    2.3700 C   0  0  0  0  0
   11.8240    4.5870    1.2970 N   0  0  0  0  0
   11.8020    4.2330    3.6680 C   0  0  0  0  0
   11.8560    3.3990    4.8000 C   0  0  0  0  0
   11.9780    2.0200    4.6330 C   0  0  0  0  0
   12.0290    1.2170    5.7020 N   0  0  0  0  0
   12.1450   -0.1200    5.5590 C   0  0  0  0  0
   12.2280   -0.6770    4.3440 N   0  0  0  0  0
   12.1770    0.0800    3.2080 C   0  0  0  0  0
   12.2660   -0.4790    1.9810 N   0  0  0  0  0
   12.0430   -1.8130    1.7190 C   0  0  0  0  0
   12.9910   -2.5650    0.9780 C   0  0  0  0  0
   10.8580   -2.4440    2.1280 C   0  0  0  0  0
   10.6260   -3.7960    1.8160 C   0  0  0  0  0
   11.5770   -4.5270    1.0960 C   0  0  0  0  0
   12.7690   -3.9180    0.6790 C   0  0  0  0  0
   13.6160   -4.7000   -0.0190 N   0  0  0  0  0
   14.9170   -4.9360    0.1640 C   0  0  0  0  0
   15.5560   -4.4140    1.0730 O   0  0  0  0  0
   15.4700   -5.7740   -0.7320 N   0  0  0  0  0
   16.7290   -6.3000   -0.7260 C   0  0  0  0  0
   17.5120   -6.5020    0.3640 C   0  0  0  0  0
   18.6130   -7.1730   -0.0660 C   0  0  0  0  0
   19.8240   -7.6190    0.8090 C   0  0  0  0  0
   19.3350   -8.8180    1.6190 C   0  0  0  0  0
   21.0840   -8.0740    0.0650 C   0  0  0  0  0
   20.2420   -6.5170    1.7550 C   0  0  0  0  0
   18.4510   -7.4100   -1.3650 N   0  0  0  0  0
   17.3430   -6.9310   -1.7330 N   0  0  0  0  0
   16.8790   -7.0260   -2.9950 C   0  0  0  0  0
   16.9710   -8.2910   -3.5790 C   0  0  0  0  0
   16.5220   -8.5200   -4.8690 C   0  0  0  0  0
   15.9620   -7.4810   -5.5880 C   0  0  0  0  0
   15.5020   -7.7570   -7.0240 C   0  0  0  0  0
   15.8650   -6.2040   -5.0370 C   0  0  0  0  0
   16.3140   -5.9630   -3.7230 C   0  0  0  0  0
   12.0706    1.9147    1.2066 H   0  0  0  0  0
   11.8866    4.2184    0.3480 H   0  0  0  0  0
   11.7257    5.5908    1.4488 H   0  0  0  0  0
   11.7019    5.3088    3.8117 H   0  0  0  0  0
   11.8028    3.8280    5.8006 H   0  0  0  0  0
   12.1715   -0.7551    6.4445 H   0  0  0  0  0
   12.5144    0.1259    1.1981 H   0  0  0  0  0
   13.9070   -2.0837    0.6353 H   0  0  0  0  0
   10.1124   -1.8828    2.6912 H   0  0  0  0  0
    9.7014   -4.2760    2.1366 H   0  0  0  0  0
   11.3905   -5.5743    0.8583 H   0  0  0  0  0
   13.1975   -5.1878   -0.8110 H   0  0  0  0  0
   14.8741   -6.0502   -1.5124 H   0  0  0  0  0
   17.2992   -6.1873    1.3857 H   0  0  0  0  0
   18.4898   -8.5165    2.2378 H   0  0  0  0  0
   19.0246   -9.6117    0.9394 H   0  0  0  0  0
   20.1429   -9.1785    2.2558 H   0  0  0  0  0
   20.8432   -8.9305   -0.5648 H   0  0  0  0  0
   21.4528   -7.2573   -0.5556 H   0  0  0  0  0
   21.8491   -8.3567    0.7880 H   0  0  0  0  0
   20.5299   -5.6365    1.1805 H   0  0  0  0  0
   19.4082   -6.2676    2.4113 H   0  0  0  0  0
   21.0883   -6.8549    2.3531 H   0  0  0  0  0
   17.4041   -9.1132   -3.0093 H   0  0  0  0  0
   16.6096   -9.5114   -5.3135 H   0  0  0  0  0
   16.3535   -8.0848   -7.6203 H   0  0  0  0  0
   14.7403   -8.5366   -7.0166 H   0  0  0  0  0
   15.0863   -6.8451   -7.4526 H   0  0  0  0  0
   15.4407   -5.3896   -5.6242 H   0  0  0  0  0
   16.2252   -4.9715   -3.2791 H   0  0  0  0  0
  1  2  4  0  0  0
  1  7  4  0  0  0
  1 11  4  0  0  0
  2  3  4  0  0  0
  3  4  1  0  0  0
  3  5  4  0  0  0
  5  6  4  0  0  0
  6  7  4  0  0  0
  7  8  4  0  0  0
  8  9  4  0  0  0
  9 10  4  0  0  0
 10 11  4  0  0  0
 11 12  1  0  0  0
 12 13  1  0  0  0
 13 14  4  0  0  0
 13 15  4  0  0  0
 14 18  4  0  0  0
 15 16  4  0  0  0
 16 17  4  0  0  0
 17 18  4  0  0  0
 18 19  1  0  0  0
 19 20  1  0  0  0
 20 21  2  0  0  0
 20 22  1  0  0  0
 22 23  1  0  0  0
 23 24  4  0  0  0
 23 31  4  0  0  0
 24 25  4  0  0  0
 25 26  1  0  0  0
 25 30  4  0  0  0
 26 27  1  0  0  0
 26 28  1  0  0  0
 26 29  1  0  0  0
 30 31  4  0  0  0
 31 32  1  0  0  0
 32 33  4  0  0  0
 32 38  4  0  0  0
 33 34  4  0  0  0
 34 35  4  0  0  0
 35 36  1  0  0  0
 35 37  4  0  0  0
 37 38  4  0  0  0
  2 39  1  0  0  0
  4 40  1  0  0  0
  4 41  1  0  0  0
  5 42  1  0  0  0
  6 43  1  0  0  0
  9 44  1  0  0  0
 12 45  1  0  0  0
 14 46  1  0  0  0
 15 47  1  0  0  0
 16 48  1  0  0  0
 17 49  1  0  0  0
 19 50  1  0  0  0
 22 51  1  0  0  0
 24 52  1  0  0  0
 27 53  1  0  0  0
 27 54  1  0  0  0
 27 55  1  0  0  0
 28 56  1  0  0  0
 28 57  1  0  0  0
 28 58  1  0  0  0
 29 59  1  0  0  0
 29 60  1  0  0  0
 29 61  1  0  0  0
 33 62  1  0  0  0
 34 63  1  0  0  0
 36 64  1  0  0  0
 36 65  1  0  0  0
 36 66  1  0  0  0
 37 67  1  0  0  0
 38 68  1  0  0  0
M  END
$$$$
