2iok_ligand
  -I-interpret- 

 55 58  0  0  0  0  0  0  0  0999 V2000
   15.8130   35.8830   49.8880 C   0  0  0  0  0
   14.7030   36.0910   50.7260 C   0  0  0  0  0
   13.4320   36.2650   50.1780 C   0  0  0  0  0
   13.2600   36.2310   48.7960 C   0  0  0  0  0
   12.0210   36.3920   48.2900 O   0  0  0  0  0
   14.3680   36.0660   47.9580 C   0  0  0  0  0
   15.6420   35.8330   48.5130 C   0  0  0  0  0
   17.1660   35.7170   50.5440 C   0  0  0  0  0
   18.3040   35.7050   49.5170 C   0  0  0  0  0
   19.6700   35.7650   50.2260 C   0  0  0  0  0
   20.2190   37.1960   50.2740 C   0  0  0  0  0
   19.5080   35.2640   51.6000 N   0  0  0  0  0
   19.7070   33.9740   51.8590 C   0  0  0  0  0
   20.0400   33.1950   50.9300 O   0  0  0  0  0
   19.5540   33.4560   53.2550 C   0  0  0  0  0
   18.6170   34.2690   54.1110 C   0  0  0  0  0
   18.9210   35.1530   55.1780 C   0  0  0  0  0
   17.7520   35.6460   55.6650 N   0  0  0  0  0
   16.7130   35.1350   54.9380 C   0  0  0  0  0
   15.3360   35.3240   55.0830 C   0  0  0  0  0
   14.4810   34.6600   54.1970 C   0  0  0  0  0
   15.0160   33.8390   53.1800 C   0  0  0  0  0
   16.3820   33.6210   53.0720 C   0  0  0  0  0
   17.2400   34.3160   53.9610 C   0  0  0  0  0
   20.2230   35.5800   55.7620 C   0  0  0  0  0
   21.4750   35.2110   55.2730 C   0  0  0  0  0
   22.6520   35.6750   55.8940 C   0  0  0  0  0
   22.5730   36.4840   57.0220 C   0  0  0  0  0
   21.3200   36.8740   57.5120 C   0  0  0  0  0
   20.1570   36.4350   56.8730 C   0  0  0  0  0
   14.8362   36.1164   51.8075 H   0  0  0  0  0
   12.5742   36.4274   50.8306 H   0  0  0  0  0
   12.0593   36.3452   47.3319 H   0  0  0  0  0
   14.2458   36.1177   46.8761 H   0  0  0  0  0
   16.4899   35.6143   47.8639 H   0  0  0  0  0
   17.1739   34.7640   51.0729 H   0  0  0  0  0
   17.3238   36.5590   51.2180 H   0  0  0  0  0
   18.2037   36.5740   48.8667 H   0  0  0  0  0
   18.2467   34.7850   48.9353 H   0  0  0  0  0
   20.3773   35.1521   49.6673 H   0  0  0  0  0
   20.3414   37.5711   49.2579 H   0  0  0  0  0
   19.5209   37.8336   50.8164 H   0  0  0  0  0
   21.1836   37.1969   50.7816 H   0  0  0  0  0
   19.2444   35.9025   52.3504 H   0  0  0  0  0
   20.5371   33.4954   53.7242 H   0  0  0  0  0
   19.1371   32.4514   53.1833 H   0  0  0  0  0
   14.9390   35.9711   55.8651 H   0  0  0  0  0
   13.4014   34.7763   54.2916 H   0  0  0  0  0
   14.3419   33.3669   52.4652 H   0  0  0  0  0
   16.7835   32.9356   52.3256 H   0  0  0  0  0
   21.5444   34.5581   54.4030 H   0  0  0  0  0
   23.6258   35.3992   55.4893 H   0  0  0  0  0
   23.4830   36.8136   57.5233 H   0  0  0  0  0
   21.2522   37.5178   58.3889 H   0  0  0  0  0
   19.1850   36.7613   57.2428 H   0  0  0  0  0
  1  2  4  0  0  0
  1  7  4  0  0  0
  1  8  1  0  0  0
  2  3  4  0  0  0
  3  4  4  0  0  0
  4  5  1  0  0  0
  4  6  4  0  0  0
  6  7  4  0  0  0
  8  9  1  0  0  0
  9 10  1  0  0  0
 10 11  1  0  0  0
 10 12  1  0  0  0
 12 13  1  0  0  0
 13 14  2  0  0  0
 13 15  1  0  0  0
 15 16  1  0  0  0
 16 17  4  0  0  0
 16 24  4  0  0  0
 17 18  4  0  0  0
 17 25  1  0  0  0
 18 19  4  0  0  0
 19 20  4  0  0  0
 19 24  4  0  0  0
 20 21  4  0  0  0
 21 22  4  0  0  0
 22 23  4  0  0  0
 23 24  4  0  0  0
 25 26  4  0  0  0
 25 30  4  0  0  0
 26 27  4  0  0  0
 27 28  4  0  0  0
 28 29  4  0  0  0
 29 30  4  0  0  0
  2 31  1  0  0  0
  3 32  1  0  0  0
  5 33  1  0  0  0
  6 34  1  0  0  0
  7 35  1  0  0  0
  8 36  1  0  0  0
  8 37  1  0  0  0
  9 38  1  0  0  0
  9 39  1  0  0  0
 10 40  1  0  0  0
 11 41  1  0  0  0
 11 42  1  0  0  0
 11 43  1  0  0  0
 12 44  1  0  0  0
 15 45  1  0  0  0
 15 46  1  0  0  0
 20 47  1  0  0  0
 21 48  1  0  0  0
 22 49  1  0  0  0
 23 50  1  0  0  0
 26 51  1  0  0  0
 27 52  1  0  0  0
 28 53  1  0  0  0
 29 54  1  0  0  0
 30 55  1  0  0  0
M  END
$$$$
