2aof_ligand
  -I-interpret- 

169171  0  0  0  0  0  0  0  0999 V2000
   29.7560   24.5050   18.7370 N   0  3  0  0  0
   28.9570   25.5690   18.1580 C   0  0  0  0  0
   27.4550   25.3480   18.2380 C   0  0  0  0  0
   26.7700   26.1410   17.5400 O   0  0  0  0  0
   29.2650   25.6660   16.6620 C   0  0  0  0  0
   29.8560   26.9250   16.0900 C   0  0  0  0  0
   29.7200   26.8210   14.5660 C   0  0  0  0  0
   29.7180   28.1750   14.0170 N   0  0  0  0  0
   30.1450   28.5270   12.8140 C   0  0  0  0  0
   30.6290   27.6170   11.9460 N   0  0  0  0  0
   30.0600   29.8280   12.5310 N   0  0  0  0  0
   26.8800   24.3870   18.9310 N   0  0  0  0  0
   25.4620   24.1740   18.6040 C   0  0  0  0  0
   24.7090   25.3450   19.2500 C   0  0  0  0  0
   24.9830   25.6730   20.4010 O   0  0  0  0  0
   25.1100   22.8030   19.1450 C   0  0  0  0  0
   26.1360   22.4800   20.1470 C   0  0  0  0  0
   27.2680   23.4540   20.0030 C   0  0  0  0  0
   23.8370   25.9290   18.4380 N   0  0  0  0  0
   22.9560   27.0070   18.6790 C   0  0  0  0  0
   21.5890   26.7910   18.0520 C   0  0  0  0  0
   20.8100   27.6860   18.2040 O   0  0  0  0  0
   21.2400   25.6930   17.3910 N   0  0  0  0  0
   19.9000   25.5450   16.8260 C   0  0  0  0  0
   19.1520   24.3620   17.4400 C   0  0  0  0  0
   19.3000   23.2390   16.9740 O   0  0  0  0  0
   19.9400   25.2540   15.3220 C   0  0  0  0  0
   18.5560   25.1280   14.7420 C   0  0  0  0  0
   17.5940   24.4780   15.1750 O   0  0  0  0  0
   18.4010   25.8050   13.6250 N   0  0  0  0  0
   18.2890   24.6450   18.3830 N   0  0  0  0  0
   17.3900   23.6910   18.9920 C   0  0  0  0  0
   15.9580   23.9570   18.5820 C   0  0  0  0  0
   17.5590   23.8150   20.5120 C   0  0  0  0  0
   19.0120   23.5670   20.8570 C   0  0  0  0  0
   19.8350   24.6370   21.0900 C   0  0  0  0  0
   19.4950   22.2770   20.9590 C   0  0  0  0  0
   21.1600   24.4620   21.4230 C   0  0  0  0  0
   20.8240   22.0870   21.2690 C   0  0  0  0  0
   21.6470   23.1720   21.5100 C   0  0  0  0  0
   15.5510   23.8760   17.2920 N   0  3  0  0  0
   14.5170   22.9570   16.8360 C   0  0  0  0  0
   14.5140   21.5410   17.3610 C   0  0  0  0  0
   15.4980   20.8240   17.2680 O   0  0  0  0  0
   14.6780   22.7690   15.3250 C   0  0  0  0  0
   13.7030   21.6980   14.8080 C   0  0  0  0  0
   12.3870   22.3590   14.4790 C   0  0  0  0  0
   14.3450   20.9900   13.6420 C   0  0  0  0  0
   13.3760   21.0760   17.8560 N   0  0  0  0  0
   13.2350   19.6720   18.2520 C   0  0  0  0  0
   11.8350   19.2090   17.8520 C   0  0  0  0  0
   10.8620   19.9180   18.0800 O   0  0  0  0  0
   13.4810   19.4940   19.7430 C   0  0  0  0  0
   13.3450   18.0640   20.3170 C   0  0  0  0  0
   11.9250   17.7370   20.7380 C   0  0  0  0  0
   11.1270   18.6090   21.0430 O   0  0  0  0  0
   11.5370   16.4750   20.6830 N   0  0  0  0  0
   11.7430   17.9640   17.3940 N   0  0  0  0  0
   10.4340   17.4130   17.0600 C   0  0  0  0  0
   10.1710   16.0170   17.6070 C   0  0  0  0  0
   11.0630   15.1750   17.6060 O   0  0  0  0  0
   10.3400   17.3410   15.5250 C   0  0  0  0  0
   11.4790   16.6440   15.0330 O   0  0  0  0  0
    8.9270   15.7880   18.0250 N   0  0  0  0  0
    8.4120   14.4660   18.2970 C   0  0  0  0  0
    8.5340   13.6050   17.0410 C   0  0  0  0  0
    8.5080   14.1430   15.9340 O   0  0  0  0  0
    6.9180   14.5230   18.6590 C   0  0  0  0  0
    6.1320   14.8320   17.3870 C   0  0  0  0  0
    4.7340   15.3780   17.5860 C   0  0  0  0  0
    4.5160   16.1410   18.8030 N   0  0  0  0  0
    3.8910   17.3170   18.7780 C   0  0  0  0  0
    3.7120   17.9790   19.9170 N   0  0  0  0  0
    3.4630   17.8080   17.6240 N   0  0  0  0  0
    8.6190   12.2850   17.1240 N   0  0  0  0  0
    8.5440   11.4780   15.9150 C   0  0  0  0  0
    7.2410   11.7630   15.1640 C   0  0  0  0  0
    6.2970   12.2640   15.7900 O   0  0  0  0  0
    8.4760   10.0250   16.3990 C   0  0  0  0  0
    8.1660   10.1300   17.8530 C   0  0  0  0  0
    8.7470   11.4300   18.3270 C   0  0  0  0  0
    7.2400   11.4180   13.9520 N   0  0  0  0  0
   29.5553   24.4351   19.7346 H   0  0  0  0  0
   29.5269   23.6223   18.2802 H   0  0  0  0  0
   30.7455   24.7124   18.6018 H   0  0  0  0  0
   29.2148   26.4590   18.7321 H   0  0  0  0  0
   28.2913   25.5809   16.1794 H   0  0  0  0  0
   30.0297   24.9077   16.4937 H   0  0  0  0  0
   30.9011   27.0311   16.3809 H   0  0  0  0  0
   29.3359   27.8053   16.4677 H   0  0  0  0  0
   28.7938   26.3086   14.3056 H   0  0  0  0  0
   30.5510   26.2493   14.1528 H   0  0  0  0  0
   29.3544   28.9170   14.6151 H   0  0  0  0  0
   30.9512   27.9123   11.0244 H   0  0  0  0  0
   30.6732   26.6329   12.2106 H   0  0  0  0  0
   29.6849   30.4770   13.2228 H   0  0  0  0  0
   25.2064   24.1708   17.5444 H   0  0  0  0  0
   25.0919   22.0595   18.3481 H   0  0  0  0  0
   24.1141   22.7998   19.5880 H   0  0  0  0  0
   26.4986   21.4637   19.9929 H   0  0  0  0  0
   25.7117   22.5492   21.1486 H   0  0  0  0  0
   27.4483   23.9852   20.9376 H   0  0  0  0  0
   28.1973   22.9401   19.7570 H   0  0  0  0  0
   23.7965   25.5403   17.4958 H   0  0  0  0  0
   23.3915   27.9031   18.2368 H   0  0  0  0  0
   22.8216   27.0975   19.7569 H   0  0  0  0  0
   21.9186   24.9403   17.2757 H   0  0  0  0  0
   19.4026   26.4914   17.0380 H   0  0  0  0  0
   20.4638   24.3105   15.1686 H   0  0  0  0  0
   20.4464   26.0817   14.8254 H   0  0  0  0  0
   17.5052   25.7864   13.1375 H   0  0  0  0  0
   19.1766   26.3486   13.2463 H   0  0  0  0  0
   18.2481   25.6096   18.7121 H   0  0  0  0  0
   17.6265   22.6792   18.6627 H   0  0  0  0  0
   15.8126   25.0084   18.8300 H   0  0  0  0  0
   15.3992   23.1624   19.0763 H   0  0  0  0  0
   16.9273   23.0842   21.0169 H   0  0  0  0  0
   17.2646   24.8124   20.8384 H   0  0  0  0  0
   19.4333   25.6471   21.0103 H   0  0  0  0  0
   18.8361   21.4239   20.7970 H   0  0  0  0  0
   21.8071   25.3184   21.6128 H   0  0  0  0  0
   21.2288   21.0765   21.3246 H   0  0  0  0  0
   22.6923   23.0075   21.7717 H   0  0  0  0  0
   16.3848   23.5425   16.8082 H   0  0  0  0  0
   15.1350   24.7920   17.1241 H   0  0  0  0  0
   13.6087   23.4368   17.2004 H   0  0  0  0  0
   15.6987   22.4494   15.1149 H   0  0  0  0  0
   14.4630   23.7139   14.8259 H   0  0  0  0  0
   13.4881   20.9369   15.5581 H   0  0  0  0  0
   11.9821   22.8263   15.3767 H   0  0  0  0  0
   12.5446   23.1177   13.7124 H   0  0  0  0  0
   11.6870   21.6088   14.1111 H   0  0  0  0  0
   14.5586   21.7115   12.8534 H   0  0  0  0  0
   15.2734   20.5220   13.9692 H   0  0  0  0  0
   13.6655   20.2264   13.2634 H   0  0  0  0  0
   12.5825   21.7078   17.9635 H   0  0  0  0  0
   13.9818   19.0618   17.7440 H   0  0  0  0  0
   12.7145   20.0870   20.2420 H   0  0  0  0  0
   14.5195   19.7811   19.9076 H   0  0  0  0  0
   13.9808   17.9950   21.1997 H   0  0  0  0  0
   13.6338   17.3603   19.5363 H   0  0  0  0  0
   10.5702   16.2290   20.8955 H   0  0  0  0  0
   12.2043   15.7469   20.4281 H   0  0  0  0  0
   12.5830   17.3973   17.2768 H   0  0  0  0  0
    9.6924   18.0683   17.5170 H   0  0  0  0  0
   10.3114   18.3473   15.1072 H   0  0  0  0  0
    9.4296   16.8176   15.2329 H   0  0  0  0  0
   11.4322   16.5923   14.0755 H   0  0  0  0  0
    8.3068   16.5865   18.1598 H   0  0  0  0  0
    8.9842   14.0503   19.1263 H   0  0  0  0  0
    6.7422   15.2969   19.4061 H   0  0  0  0  0
    6.5963   13.5689   19.0764 H   0  0  0  0  0
    6.0182   13.8846   16.8601 H   0  0  0  0  0
    6.6912   15.6069   16.8626 H   0  0  0  0  0
    4.0729   14.5133   17.6441 H   0  0  0  0  0
    4.5522   16.0633   16.7581 H   0  0  0  0  0
    4.8477   15.7693   19.6930 H   0  0  0  0  0
    3.2377   18.8820   19.9129 H   0  0  0  0  0
    4.0489   17.5839   20.7949 H   0  0  0  0  0
    3.6128   17.2859   16.7607 H   0  0  0  0  0
    9.3890   11.6854   15.2585 H   0  0  0  0  0
    9.4082    9.4900   16.2177 H   0  0  0  0  0
    7.7222    9.4501   15.8611 H   0  0  0  0  0
    8.5936    9.2911   18.4021 H   0  0  0  0  0
    7.0897   10.1015   18.0230 H   0  0  0  0  0
    8.2370   11.8365   19.2004 H   0  0  0  0  0
    9.7731   11.3386   18.6830 H   0  0  0  0  0
    6.4004   11.5438   13.3866 H   0  0  0  0  0
    8.0788   11.0129   13.5364 H   0  0  0  0  0
  1  2  1  0  0  0
  2  3  1  0  0  0
  2  5  1  0  0  0
  3  4  2  0  0  0
  3 12  1  0  0  0
  5  6  1  0  0  0
  6  7  1  0  0  0
  7  8  1  0  0  0
  8  9  1  0  0  0
  9 10  1  0  0  0
  9 11  2  0  0  0
 12 13  1  0  0  0
 12 18  1  0  0  0
 13 14  1  0  0  0
 13 16  1  0  0  0
 14 15  2  0  0  0
 14 19  1  0  0  0
 16 17  1  0  0  0
 17 18  1  0  0  0
 19 20  1  0  0  0
 20 21  1  0  0  0
 21 22  2  0  0  0
 21 23  1  0  0  0
 23 24  1  0  0  0
 24 25  1  0  0  0
 24 27  1  0  0  0
 25 26  2  0  0  0
 25 31  1  0  0  0
 27 28  1  0  0  0
 28 29  2  0  0  0
 28 30  1  0  0  0
 31 32  1  0  0  0
 32 33  1  0  0  0
 32 34  1  0  0  0
 33 41  1  0  0  0
 34 35  1  0  0  0
 35 36  4  0  0  0
 35 37  4  0  0  0
 36 38  4  0  0  0
 37 39  4  0  0  0
 38 40  4  0  0  0
 39 40  4  0  0  0
 41 42  1  0  0  0
 42 43  1  0  0  0
 42 45  1  0  0  0
 43 44  2  0  0  0
 43 49  1  0  0  0
 45 46  1  0  0  0
 46 47  1  0  0  0
 46 48  1  0  0  0
 49 50  1  0  0  0
 50 51  1  0  0  0
 50 53  1  0  0  0
 51 52  2  0  0  0
 51 58  1  0  0  0
 53 54  1  0  0  0
 54 55  1  0  0  0
 55 56  2  0  0  0
 55 57  1  0  0  0
 58 59  1  0  0  0
 59 60  1  0  0  0
 59 62  1  0  0  0
 60 61  2  0  0  0
 60 64  1  0  0  0
 62 63  1  0  0  0
 64 65  1  0  0  0
 65 66  1  0  0  0
 65 68  1  0  0  0
 66 67  2  0  0  0
 66 75  1  0  0  0
 68 69  1  0  0  0
 69 70  1  0  0  0
 70 71  1  0  0  0
 71 72  1  0  0  0
 72 73  1  0  0  0
 72 74  2  0  0  0
 75 76  1  0  0  0
 75 81  1  0  0  0
 76 77  1  0  0  0
 76 79  1  0  0  0
 77 78  2  0  0  0
 77 82  1  0  0  0
 79 80  1  0  0  0
 80 81  1  0  0  0
  1 83  1  0  0  0
  1 84  1  0  0  0
  1 85  1  0  0  0
  2 86  1  0  0  0
  5 87  1  0  0  0
  5 88  1  0  0  0
  6 89  1  0  0  0
  6 90  1  0  0  0
  7 91  1  0  0  0
  7 92  1  0  0  0
  8 93  1  0  0  0
 10 94  1  0  0  0
 10 95  1  0  0  0
 11 96  1  0  0  0
 13 97  1  0  0  0
 16 98  1  0  0  0
 16 99  1  0  0  0
 17100  1  0  0  0
 17101  1  0  0  0
 18102  1  0  0  0
 18103  1  0  0  0
 19104  1  0  0  0
 20105  1  0  0  0
 20106  1  0  0  0
 23107  1  0  0  0
 24108  1  0  0  0
 27109  1  0  0  0
 27110  1  0  0  0
 30111  1  0  0  0
 30112  1  0  0  0
 31113  1  0  0  0
 32114  1  0  0  0
 33115  1  0  0  0
 33116  1  0  0  0
 34117  1  0  0  0
 34118  1  0  0  0
 36119  1  0  0  0
 37120  1  0  0  0
 38121  1  0  0  0
 39122  1  0  0  0
 40123  1  0  0  0
 41124  1  0  0  0
 41125  1  0  0  0
 42126  1  0  0  0
 45127  1  0  0  0
 45128  1  0  0  0
 46129  1  0  0  0
 47130  1  0  0  0
 47131  1  0  0  0
 47132  1  0  0  0
 48133  1  0  0  0
 48134  1  0  0  0
 48135  1  0  0  0
 49136  1  0  0  0
 50137  1  0  0  0
 53138  1  0  0  0
 53139  1  0  0  0
 54140  1  0  0  0
 54141  1  0  0  0
 57142  1  0  0  0
 57143  1  0  0  0
 58144  1  0  0  0
 59145  1  0  0  0
 62146  1  0  0  0
 62147  1  0  0  0
 63148  1  0  0  0
 64149  1  0  0  0
 65150  1  0  0  0
 68151  1  0  0  0
 68152  1  0  0  0
 69153  1  0  0  0
 69154  1  0  0  0
 70155  1  0  0  0
 70156  1  0  0  0
 71157  1  0  0  0
 73158  1  0  0  0
 73159  1  0  0  0
 74160  1  0  0  0
 76161  1  0  0  0
 79162  1  0  0  0
 79163  1  0  0  0
 80164  1  0  0  0
 80165  1  0  0  0
 81166  1  0  0  0
 81167  1  0  0  0
 82168  1  0  0  0
 82169  1  0  0  0
M  END
$$$$
