### 
### Created by X-TOOL on Mon Sep 10 21:12:53 2018
### 

@<TRIPOS>MOLECULE
2aof_ligand
  171   173     1     0     0
SMALL
GAST_HUCK


@<TRIPOS>ATOM
      1 N          29.7560   24.5050   18.7370 N.4       1 ARG         0.2379
      2 CA         28.9570   25.5690   18.1580 C.3       1 ARG         0.0653
      3 C          27.4550   25.3480   18.2380 C.2       1 ARG         0.2292
      4 O          26.7700   26.1410   17.5400 O.2       1 ARG        -0.3905
      5 CB         29.2650   25.6660   16.6620 C.3       1 ARG         0.0110
      6 CG         29.8560   26.9250   16.0900 C.3       1 ARG        -0.0125
      7 CD         29.7200   26.8210   14.5660 C.3       1 ARG         0.0629
      8 NE         29.7180   28.1750   14.0170 N.pl3     1 ARG        -0.2723
      9 CZ         30.1450   28.5270   12.8140 C.cat     1 ARG         0.2882
     10 NH1        30.6290   27.6170   11.9460 N.pl3     1 ARG        -0.2849
     11 NH2        30.0600   29.8280   12.5310 N.pl3     1 ARG        -0.2849
     12 N          26.8800   24.3870   18.9310 N.am      1 PRO        -0.2471
     13 CA         25.4620   24.1740   18.6040 C.3       1 PRO         0.1339
     14 C          24.7090   25.3450   19.2500 C.2       1 PRO         0.2039
     15 O          24.9830   25.6730   20.4010 O.2       1 PRO        -0.3944
     16 CB         25.1100   22.8030   19.1450 C.3       1 PRO        -0.0104
     17 CG         26.1360   22.4800   20.1470 C.3       1 PRO        -0.0281
     18 CD         27.2680   23.4540   20.0030 C.3       1 PRO         0.0371
     19 N          23.8370   25.9290   18.4380 N.am      1 GLY        -0.2664
     20 CA         22.9560   27.0070   18.6790 C.3       1 GLY         0.1201
     21 C          21.5890   26.7910   18.0520 C.2       1 GLY         0.2009
     22 O          20.8100   27.6860   18.2040 O.2       1 GLY        -0.3947
     23 N          21.2400   25.6930   17.3910 N.am      1 ASN        -0.2618
     24 CA         19.9000   25.5450   16.8260 C.3       1 ASN         0.1474
     25 C          19.1520   24.3620   17.4400 C.2       1 ASN         0.2046
     26 O          19.3000   23.2390   16.9740 O.2       1 ASN        -0.3943
     27 CB         19.9400   25.2540   15.3220 C.3       1 ASN         0.0773
     28 CG         18.5560   25.1280   14.7420 C.2       1 ASN         0.1780
     29 OD1        17.5940   24.4780   15.1750 O.2       1 ASN        -0.3970
     30 ND2        18.4010   25.8050   13.6250 N.am      1 ASN        -0.3007
     31 N          18.2890   24.6450   18.3830 N.am      1 FRD        -0.2748
     32 CA         17.3900   23.6910   18.9920 C.3       1 FRD         0.0911
     33 C          15.9580   23.9570   18.5820 C.3       1 FRD        -0.0062
     34 CB         17.5590   23.8150   20.5120 C.3       1 FRD         0.0089
     35 CG         19.0120   23.5670   20.8570 C.ar      1 FRD        -0.0406
     36 CD1        19.8350   24.6370   21.0900 C.ar      1 FRD        -0.0603
     37 CD2        19.4950   22.2770   20.9590 C.ar      1 FRD        -0.0603
     38 CE1        21.1600   24.4620   21.4230 C.ar      1 FRD        -0.0686
     39 CE2        20.8240   22.0870   21.2690 C.ar      1 FRD        -0.0686
     40 CZ         21.6470   23.1720   21.5100 C.ar      1 FRD        -0.0687
     41 N          15.5510   23.8760   17.2920 N.4       1 LEU         0.2479
     42 CA         14.5170   22.9570   16.8360 C.3       1 LEU         0.0671
     43 C          14.5140   21.5410   17.3610 C.2       1 LEU         0.2268
     44 O          15.4980   20.8240   17.2680 O.2       1 LEU        -0.3907
     45 CB         14.6780   22.7690   15.3250 C.3       1 LEU         0.0103
     46 CG         13.7030   21.6980   14.8080 C.3       1 LEU        -0.0394
     47 CD1        12.3870   22.3590   14.4790 C.3       1 LEU        -0.0623
     48 CD2        14.3450   20.9900   13.6420 C.3       1 LEU        -0.0623
     49 N          13.3760   21.0760   17.8560 N.am      1 GLN        -0.2609
     50 CA         13.2350   19.6720   18.2520 C.3       1 GLN         0.1331
     51 C          11.8350   19.2090   17.8520 C.2       1 GLN         0.2041
     52 O          10.8620   19.9180   18.0800 O.2       1 GLN        -0.3944
     53 CB         13.4810   19.4940   19.7430 C.3       1 GLN         0.0045
     54 CG         13.3450   18.0640   20.3170 C.3       1 GLN         0.0412
     55 CD         11.9250   17.7370   20.7380 C.2       1 GLN         0.1737
     56 OE1        11.1270   18.6090   21.0430 O.2       1 GLN        -0.3973
     57 NE2        11.5370   16.4750   20.6830 N.am      1 GLN        -0.3009
     58 N          11.7430   17.9640   17.3940 N.am      1 SER        -0.2616
     59 CA         10.4340   17.4130   17.0600 C.3       1 SER         0.1539
     60 C          10.1710   16.0170   17.6070 C.2       1 SER         0.2062
     61 O          11.0630   15.1750   17.6060 O.2       1 SER        -0.3943
     62 CB         10.3400   17.3410   15.5250 C.3       1 SER         0.0843
     63 OG         11.4790   16.6440   15.0330 O.3       1 SER        -0.3903
     64 N           8.9270   15.7880   18.0250 N.am      1 ARG        -0.2637
     65 CA          8.4120   14.4660   18.2970 C.3       1 ARG         0.1313
     66 C           8.5340   13.6050   17.0410 C.2       1 ARG         0.2064
     67 O           8.5080   14.1430   15.9340 O.2       1 ARG        -0.3942
     68 CB          6.9180   14.5230   18.6590 C.3       1 ARG        -0.0092
     69 CG          6.1320   14.8320   17.3870 C.3       1 ARG        -0.0156
     70 CD          4.7340   15.3780   17.5860 C.3       1 ARG         0.0627
     71 NE          4.5160   16.1410   18.8030 N.pl3     1 ARG        -0.2723
     72 CZ          3.8910   17.3170   18.7780 C.cat     1 ARG         0.2882
     73 NH1         3.7120   17.9790   19.9170 N.pl3     1 ARG        -0.2849
     74 NH2         3.4630   17.8080   17.6240 N.pl3     1 ARG        -0.2849
     75 N           8.6190   12.2850   17.1240 N.am      1 PRO        -0.2498
     76 CA          8.5440   11.4780   15.9150 C.3       1 PRO         0.1334
     77 C           7.2410   11.7630   15.1640 C.2       1 PRO         0.1994
     78 O           6.2970   12.2640   15.7900 O.2       1 PRO        -0.3947
     79 CB          8.4760   10.0250   16.3990 C.3       1 PRO        -0.0104
     80 CG          8.1660   10.1300   17.8530 C.3       1 PRO        -0.0281
     81 CD          8.7470   11.4300   18.3270 C.3       1 PRO         0.0369
     82 N           7.2400   11.4180   13.9520 N.am      1 NH2        -0.2990
     83 H1         30.7341   24.7298   18.6424 H         1 ARG         0.2015
     84 H2         29.5621   23.6400   18.2572 H         1 ARG         0.2015
     85 H3         29.5270   24.4062   19.7136 H         1 ARG         0.2015
     86 H4         29.2123   26.5117   18.6640 H         1 ARG         0.1098
     87 H5         28.3169   25.4925   16.1320 H         1 ARG         0.0347
     88 H6         29.9686   24.8528   16.4305 H         1 ARG         0.0347
     89 H7         30.9161   27.0084   16.3714 H         1 ARG         0.0302
     90 H8         29.3080   27.8038   16.4606 H         1 ARG         0.0302
     91 H9         28.7785   26.3133   14.3095 H         1 ARG         0.0689
     92 H10        30.5670   26.2529   14.1540 H         1 ARG         0.0689
     93 H11        29.3509   28.9242   14.6210 H         1 ARG         0.2642
     94 H12        30.9553   27.9153   11.0157 H         1 ARG         0.2615
     95 H13        30.6727   26.6231   12.2128 H         1 ARG         0.2615
     96 H14        29.6820   30.4834   13.2299 H         1 ARG         0.2615
     97 H15        30.3723   30.1770   11.6136 H         1 ARG         0.2615
     98 H16        25.2965   24.1892   17.5166 H         1 PRO         0.0802
     99 H17        25.1213   22.0592   18.3347 H         1 PRO         0.0313
    100 H18        24.1141   22.8217   19.6118 H         1 PRO         0.0313
    101 H19        26.5046   21.4566   19.9836 H         1 PRO         0.0287
    102 H20        25.7060   22.5581   21.1564 H         1 PRO         0.0287
    103 H21        27.4222   24.0001   20.9453 H         1 PRO         0.0524
    104 H22        28.1929   22.9247   19.7304 H         1 PRO         0.0524
    105 H23        23.7973   25.5479   17.5143 H         1 GLY         0.1881
    106 H24        23.3962   27.9234   18.2589 H         1 GLY         0.0763
    107 H25        22.8313   27.1249   19.7655 H         1 GLY         0.0763
    108 H26        21.9053   24.9550   17.2780 H         1 ASN         0.1885
    109 H27        19.3410   26.4744   17.0096 H         1 ASN         0.0826
    110 H28        20.4833   24.3122   15.1555 H         1 ASN         0.0551
    111 H29        20.4660   26.0756   14.8138 H         1 ASN         0.0551
    112 H30        17.5203   25.7935   13.1514 H         1 ASN         0.1814
    113 H31        19.1638   26.3313   13.2493 H         1 ASN         0.1814
    114 H32        18.2489   25.5907   18.7056 H         1 FRD         0.1859
    115 H33        17.6647   22.6743   18.6746 H         1 FRD         0.0632
    116 H34        15.7287   24.9807   18.9128 H         1 FRD         0.0839
    117 H35        15.3394   23.2425   19.1448 H         1 FRD         0.0839
    118 H36        16.9257   23.0710   21.0174 H         1 FRD         0.0450
    119 H37        17.2681   24.8251   20.8363 H         1 FRD         0.0450
    120 H38        19.4355   25.6416   21.0107 H         1 FRD         0.0557
    121 H39        18.8397   21.4286   20.7979 H         1 FRD         0.0557
    122 H40        21.8035   25.3137   21.6118 H         1 FRD         0.0599
    123 H41        21.2265   21.0820   21.3243 H         1 FRD         0.0599
    124 H42        22.6865   23.0084   21.7702 H         1 FRD         0.0559
    125 H43        16.3749   23.6531   16.7557 H         1 LEU         0.2036
    126 H44        15.2289   24.7987   17.0453 H         1 LEU         0.2036
    127 H45        13.5439   23.4145   17.0678 H         1 LEU         0.1099
    128 H46        15.7094   22.4547   15.1073 H         1 LEU         0.0348
    129 H47        14.4704   23.7226   14.8175 H         1 LEU         0.0348
    130 H48        13.5243   20.9577   15.6017 H         1 LEU         0.0299
    131 H49        11.6797   21.6029   14.1076 H         1 LEU         0.0232
    132 H50        12.5446   23.1249   13.7054 H         1 LEU         0.0232
    133 H51        11.9773   22.8310   15.3842 H         1 LEU         0.0232
    134 H52        15.2944   20.5381   13.9651 H         1 LEU         0.0232
    135 H53        14.5387   21.7127   12.8357 H         1 LEU         0.0232
    136 H54        13.6705   20.2026   13.2746 H         1 LEU         0.0232
    137 H55        12.5980   21.6954   17.9614 H         1 GLN         0.1885
    138 H56        13.9775   19.0707   17.7069 H         1 GLN         0.0801
    139 H57        12.7621   20.1339   20.2756 H         1 GLN         0.0337
    140 H58        14.5043   19.8387   19.9529 H         1 GLN         0.0337
    141 H59        14.0024   17.9725   21.1942 H         1 GLN         0.0504
    142 H60        13.6587   17.3439   19.5469 H         1 GLN         0.0504
    143 H61        10.6072   16.2255   20.9535 H         1 GLN         0.1814
    144 H62        12.1732   15.7694   20.3708 H         1 GLN         0.1814
    145 H63        12.5665   17.4084   17.2791 H         1 SER         0.1884
    146 H64         9.6607   18.0907   17.4508 H         1 SER         0.0823
    147 H65        10.3188   18.3582   15.1068 H         1 SER         0.0606
    148 H66         9.4240   16.8058   15.2344 H         1 SER         0.0606
    149 H67        11.4944   15.7672   15.3982 H         1 SER         0.2097
    150 H68         8.3189   16.5708   18.1572 H         1 ARG         0.1883
    151 H69         8.9806   14.0149   19.1235 H         1 ARG         0.0800
    152 H70         6.7452   15.3128   19.4049 H         1 ARG         0.0313
    153 H71         6.5968   13.5543   19.0694 H         1 ARG         0.0313
    154 H72         6.0500   13.9006   16.8076 H         1 ARG         0.0301
    155 H73         6.7038   15.5737   16.8100 H         1 ARG         0.0301
    156 H74         4.0378   14.5264   17.5934 H         1 ARG         0.0689
    157 H75         4.5036   16.0326   16.7325 H         1 ARG         0.0689
    158 H76         4.8509   15.7656   19.7018 H         1 ARG         0.2642
    159 H77         3.2304   18.8895   19.9133 H         1 ARG         0.2615
    160 H78         4.0549   17.5814   20.8031 H         1 ARG         0.2615
    161 H79         3.6116   17.2793   16.7526 H         1 ARG         0.2615
    162 H80         2.9817   18.7183   17.5984 H         1 ARG         0.2615
    163 H81         9.4152   11.6527   15.2665 H         1 PRO         0.0802
    164 H82         9.4393    9.5176   16.2426 H         1 PRO         0.0313
    165 H83         7.6824    9.4760   15.8710 H         1 PRO         0.0313
    166 H84         8.6210    9.2904   18.3989 H         1 PRO         0.0287
    167 H85         7.0773   10.1223   18.0097 H         1 PRO         0.0287
    168 H86         8.1726   11.8397   19.1709 H         1 PRO         0.0524
    169 H87         9.7999   11.3123   18.6229 H         1 PRO         0.0524
    170 H88         6.4269   11.5692   13.3898 H         1 NH2         0.1815
    171 H89         8.0523   10.9931   13.5524 H         1 NH2         0.1815
@<TRIPOS>BOND
     1    1    2 1  
     2    2    3 1  
     3    2    5 1  
     4    3    4 2  
     5    3   12 am 
     6    5    6 1  
     7    6    7 1  
     8    7    8 1  
     9    8    9 ar 
    10    9   10 ar 
    11    9   11 ar 
    12   12   13 1  
    13   12   18 1  
    14   13   14 1  
    15   13   16 1  
    16   14   15 2  
    17   14   19 am 
    18   16   17 1  
    19   17   18 1  
    20   19   20 1  
    21   20   21 1  
    22   21   22 2  
    23   21   23 am 
    24   23   24 1  
    25   24   25 1  
    26   24   27 1  
    27   25   26 2  
    28   25   31 am 
    29   27   28 1  
    30   28   29 2  
    31   28   30 am 
    32   31   32 1  
    33   32   33 1  
    34   32   34 1  
    35   33   41 1  
    36   34   35 1  
    37   35   36 ar 
    38   35   37 ar 
    39   36   38 ar 
    40   37   39 ar 
    41   38   40 ar 
    42   39   40 ar 
    43   41   42 1  
    44   42   43 1  
    45   42   45 1  
    46   43   44 2  
    47   43   49 am 
    48   45   46 1  
    49   46   47 1  
    50   46   48 1  
    51   49   50 1  
    52   50   51 1  
    53   50   53 1  
    54   51   52 2  
    55   51   58 am 
    56   53   54 1  
    57   54   55 1  
    58   55   56 2  
    59   55   57 am 
    60   58   59 1  
    61   59   60 1  
    62   59   62 1  
    63   60   61 2  
    64   60   64 am 
    65   62   63 1  
    66   64   65 1  
    67   65   66 1  
    68   65   68 1  
    69   66   67 2  
    70   66   75 am 
    71   68   69 1  
    72   69   70 1  
    73   70   71 1  
    74   71   72 ar 
    75   72   73 ar 
    76   72   74 ar 
    77   75   76 1  
    78   75   81 1  
    79   76   77 1  
    80   76   79 1  
    81   77   78 2  
    82   77   82 am 
    83   79   80 1  
    84   80   81 1  
    85    1   83 1  
    86    1   84 1  
    87    1   85 1  
    88    2   86 1  
    89    5   87 1  
    90    5   88 1  
    91    6   89 1  
    92    6   90 1  
    93    7   91 1  
    94    7   92 1  
    95    8   93 1  
    96   10   94 1  
    97   10   95 1  
    98   11   96 1  
    99   11   97 1  
   100   13   98 1  
   101   16   99 1  
   102   16  100 1  
   103   17  101 1  
   104   17  102 1  
   105   18  103 1  
   106   18  104 1  
   107   19  105 1  
   108   20  106 1  
   109   20  107 1  
   110   23  108 1  
   111   24  109 1  
   112   27  110 1  
   113   27  111 1  
   114   30  112 1  
   115   30  113 1  
   116   31  114 1  
   117   32  115 1  
   118   33  116 1  
   119   33  117 1  
   120   34  118 1  
   121   34  119 1  
   122   36  120 1  
   123   37  121 1  
   124   38  122 1  
   125   39  123 1  
   126   40  124 1  
   127   41  125 1  
   128   41  126 1  
   129   42  127 1  
   130   45  128 1  
   131   45  129 1  
   132   46  130 1  
   133   47  131 1  
   134   47  132 1  
   135   47  133 1  
   136   48  134 1  
   137   48  135 1  
   138   48  136 1  
   139   49  137 1  
   140   50  138 1  
   141   53  139 1  
   142   53  140 1  
   143   54  141 1  
   144   54  142 1  
   145   57  143 1  
   146   57  144 1  
   147   58  145 1  
   148   59  146 1  
   149   62  147 1  
   150   62  148 1  
   151   63  149 1  
   152   64  150 1  
   153   65  151 1  
   154   68  152 1  
   155   68  153 1  
   156   69  154 1  
   157   69  155 1  
   158   70  156 1  
   159   70  157 1  
   160   71  158 1  
   161   73  159 1  
   162   73  160 1  
   163   74  161 1  
   164   74  162 1  
   165   76  163 1  
   166   79  164 1  
   167   79  165 1  
   168   80  166 1  
   169   80  167 1  
   170   81  168 1  
   171   81  169 1  
   172   82  170 1  
   173   82  171 1  
@<TRIPOS>SUBSTRUCTURE
     1 ARG         1

