2l98_ligand
  -I-interpret- 

 29 30  0  0  0  0  0  0  0  0999 V2000
   12.7300   11.8610   -1.7970 C   0  0  0  0  0
   13.3170   10.7280   -2.3930 C   0  0  0  0  0
   12.8400   10.2530   -3.6240 C   0  0  0  0  0
   11.7720   10.9100   -4.2650 C   0  0  0  0  0
   11.1720   12.0350   -3.6750 C   0  0  0  0  0
   11.6570   12.5180   -2.4460 C   0  0  0  0  0
   10.0860   12.6830   -4.2500 C   0  0  0  0  0
    8.9780   13.1850   -3.5440 C   0  0  0  0  0
    7.8680   13.8500   -4.0490 C   0  0  0  0  0
    7.8860   14.5780   -5.2630 C   0  0  0  0  0
    6.7190   15.2540   -5.6950 C   0  0  0  0  0
    5.5600   15.1730   -4.8880 C   0  0  0  0  0
    5.5330   14.4450   -3.6770 C   0  0  0  0  0
    6.6960   13.7790   -3.2560 C   0  0  0  0  0
    4.4330   15.8130   -5.2900 O   0  0  0  0  0
   13.4000    9.1600   -4.2060 O   0  0  0  0  0
   13.1880   12.3230   -0.6100 O   0  0  0  0  0
   14.1435   10.2191   -1.8970 H   0  0  0  0  0
   11.4086   10.5434   -5.2250 H   0  0  0  0  0
   11.2055   13.4003   -1.9923 H   0  0  0  0  0
   10.0932   12.8124   -5.3323 H   0  0  0  0  0
    8.9921   13.0331   -2.4647 H   0  0  0  0  0
    8.7950   14.6181   -5.8632 H   0  0  0  0  0
    6.7140   15.8220   -6.6253 H   0  0  0  0  0
    4.6231   14.4009   -3.0784 H   0  0  0  0  0
    6.6968   13.2114   -2.3255 H   0  0  0  0  0
    3.7366   15.6676   -4.6454 H   0  0  0  0  0
   12.9540    8.9771   -5.0362 H   0  0  0  0  0
   12.6796   13.0950   -0.3507 H   0  0  0  0  0
  1  2  4  0  0  0
  1  6  4  0  0  0
  1 17  1  0  0  0
  2  3  4  0  0  0
  3  4  4  0  0  0
  3 16  1  0  0  0
  4  5  4  0  0  0
  5  6  4  0  0  0
  5  7  1  0  0  0
  7  8  2  0  0  0
  8  9  1  0  0  0
  9 10  4  0  0  0
  9 14  4  0  0  0
 10 11  4  0  0  0
 11 12  4  0  0  0
 12 13  4  0  0  0
 12 15  1  0  0  0
 13 14  4  0  0  0
  2 18  1  0  0  0
  4 19  1  0  0  0
  6 20  1  0  0  0
  7 21  1  0  0  0
  8 22  1  0  0  0
 10 23  1  0  0  0
 11 24  1  0  0  0
 13 25  1  0  0  0
 14 26  1  0  0  0
 15 27  1  0  0  0
 16 28  1  0  0  0
 17 29  1  0  0  0
M  END
$$$$
