3twr_ligand
  -I-interpret- 

205207  0  0  0  0  0  0  0  0999 V2000
  -27.2430  -17.4040   39.3500 N   0  3  0  0  0
  -27.3750  -17.2770   37.8990 C   0  0  0  0  0
  -27.0980  -18.5890   37.1770 C   0  0  0  0  0
  -26.0950  -19.2550   37.4320 O   0  0  0  0  0
  -26.4520  -16.1850   37.3550 C   0  0  0  0  0
  -26.4800  -15.9560   35.8440 C   0  0  0  0  0
  -27.8980  -15.8060   35.3410 C   0  0  0  0  0
  -25.6700  -14.7300   35.4880 C   0  0  0  0  0
  -27.9990  -18.9500   36.2720 N   0  0  0  0  0
  -27.8420  -20.1460   35.4620 C   0  0  0  0  0
  -26.6890  -19.9790   34.4780 C   0  0  0  0  0
  -26.6160  -18.9750   33.7670 O   0  0  0  0  0
  -29.1370  -20.4210   34.6870 C   0  0  0  0  0
  -29.0520  -21.5770   33.6980 C   0  0  0  0  0
  -28.9670  -22.9330   34.3800 C   0  0  0  0  0
  -29.8030  -23.2740   35.2190 O   0  0  0  0  0
  -27.9570  -23.7170   34.0160 N   0  0  0  0  0
  -25.7860  -20.9550   34.4380 N   0  0  0  0  0
  -24.8180  -21.0240   33.3490 C   0  0  0  0  0
  -25.5070  -21.6230   32.1250 C   0  0  0  0  0
  -25.7010  -22.8350   32.0440 O   0  0  0  0  0
  -23.6020  -21.8750   33.7280 C   0  0  0  0  0
  -22.5150  -21.9070   32.6430 C   0  0  0  0  0
  -21.2810  -22.7100   33.0580 C   0  0  0  0  0
  -20.2740  -22.7280   31.9920 N   0  0  0  0  0
  -20.1750  -23.6660   31.0560 C   0  0  0  0  0
  -19.2280  -23.5850   30.1290 N   0  0  0  0  0
  -21.0220  -24.6880   31.0340 N   0  0  0  0  0
  -25.8830  -20.7690   31.1790 N   0  0  0  0  0
  -26.5510  -21.2250   29.9610 C   0  0  0  0  0
  -25.5400  -21.8170   28.9830 C   0  0  0  0  0
  -24.3520  -21.4780   29.0310 O   0  0  0  0  0
  -27.3060  -20.0610   29.3110 C   0  0  0  0  0
  -28.3540  -19.6070   30.1470 O   0  0  0  0  0
  -25.9950  -22.7000   28.0820 N   0  0  0  0  0
  -25.0310  -23.3340   27.1740 C   0  0  0  0  0
  -24.5700  -22.4030   26.0620 C   0  0  0  0  0
  -25.2150  -21.4020   25.7670 O   0  0  0  0  0
  -25.8280  -24.4930   26.5810 C   0  0  0  0  0
  -27.2310  -24.0020   26.5920 C   0  0  0  0  0
  -27.3660  -23.1960   27.8630 C   0  0  0  0  0
  -23.4320  -22.7320   25.4470 N   0  0  0  0  0
  -22.9450  -21.9300   24.3220 C   0  0  0  0  0
  -23.8910  -22.0250   23.1360 C   0  0  0  0  0
  -24.5950  -23.0370   22.9920 O   0  0  0  0  0
  -21.6000  -22.5750   23.9690 C   0  0  0  0  0
  -21.5090  -23.8280   24.7270 C   0  0  0  0  0
  -22.5070  -23.8090   25.8360 C   0  0  0  0  0
  -23.9260  -20.9910   22.3050 N   0  0  0  0  0
  -24.7310  -21.0820   21.0940 C   0  0  0  0  0
  -24.1480  -22.1810   20.2180 C   0  0  0  0  0
  -22.9290  -22.2580   20.0280 O   0  0  0  0  0
  -24.7780  -19.7460   20.3640 C   0  0  0  0  0
  -25.7650  -18.7670   20.9980 C   0  0  0  0  0
  -26.8460  -19.2210   21.4490 O   0  0  0  0  0
  -25.4750  -17.5650   21.0420 O   0  0  0  0  0
  -25.0200  -23.0340   19.6910 N   0  0  0  0  0
  -24.5860  -24.1270   18.8410 C   0  0  0  0  0
  -25.3670  -25.3940   19.1230 C   0  0  0  0  0
  -26.2820  -25.4120   19.9610 O   0  0  0  0  0
  -25.0150  -26.4590   18.4080 N   0  0  0  0  0
  -25.5650  -27.7890   18.6500 C   0  0  0  0  0
  -24.6060  -28.7870   18.0270 C   0  0  0  0  0
  -23.7990  -28.4340   17.1600 O   0  0  0  0  0
  -26.9660  -27.9430   18.0540 C   0  0  0  0  0
  -27.0180  -27.7980   16.5350 C   0  0  0  0  0
  -28.4350  -27.6010   16.0160 C   0  0  0  0  0
  -29.1990  -26.7870   16.5510 O   0  0  0  0  0
  -28.8040  -28.3550   14.9760 N   0  0  0  0  0
  -24.6940  -30.0380   18.4600 N   0  0  0  0  0
  -23.7160  -31.0430   18.0420 C   0  0  0  0  0
  -24.0160  -31.6640   16.6740 C   0  0  0  0  0
  -23.0960  -31.9810   15.9180 O   0  0  0  0  0
  -23.6080  -32.1470   19.0960 C   0  0  0  0  0
  -22.6550  -33.1230   18.7140 O   0  0  0  0  0
  -25.2960  -31.8650   16.3710 N   0  0  0  0  0
  -25.6960  -32.4510   15.0920 C   0  0  0  0  0
  -26.3260  -31.4000   14.1900 C   0  0  0  0  0
  -27.2530  -30.6920   14.6080 O   0  0  0  0  0
  -26.6990  -33.5900   15.3030 C   0  0  0  0  0
  -26.0720  -34.9490   15.4710 C   0  0  0  0  0
  -24.7280  -35.0860   15.7750 C   0  0  0  0  0
  -26.8360  -36.0950   15.2950 C   0  0  0  0  0
  -24.1630  -36.3530   15.9080 C   0  0  0  0  0
  -26.2810  -37.3510   15.4320 C   0  0  0  0  0
  -24.9400  -37.4760   15.7370 C   0  0  0  0  0
  -25.8200  -31.3050   12.9600 N   0  0  0  0  0
  -26.3880  -30.4200   11.9430 C   0  0  0  0  0
  -27.8010  -30.8290   11.5450 C   0  0  0  0  0
  -28.5910  -29.9810   11.1280 O   0  0  0  0  0
  -25.4880  -30.3940   10.6970 C   0  0  0  0  0
  -24.4330  -29.2910   10.7070 C   0  0  0  0  0
  -23.3200  -29.5850    9.7080 C   0  0  0  0  0
  -22.5220  -30.7100   10.1850 N   0  0  0  0  0
  -21.7960  -31.5130    9.4200 C   0  0  0  0  0
  -21.1260  -32.5110    9.9900 N   0  0  0  0  0
  -21.7440  -31.3410    8.1040 N   0  0  0  0  0
  -28.1150  -32.1190   11.6550 N   0  0  0  0  0
  -29.4680  -32.6130   11.3360 C   0  0  0  0  0
  -29.4750  -34.1280   11.0510 C   0  0  0  0  0
  -29.0460  -34.8500   12.2150 O   0  0  0  0  0
  -29.8680  -31.7220   13.5680 N   0  0  0  0  0
  -30.4130  -32.3100   12.5040 C   0  0  0  0  0
  -31.6000  -32.6270   12.4380 O   0  0  0  0  0
  -27.8682  -18.1374   39.6842 H   0  0  0  0  0
  -26.2795  -17.6448   39.5828 H   0  0  0  0  0
  -27.4895  -16.5181   39.7915 H   0  0  0  0  0
  -28.4114  -16.9994   37.7067 H   0  0  0  0  0
  -25.4368  -16.5028   37.5927 H   0  0  0  0  0
  -26.7896  -15.2525   37.8072 H   0  0  0  0  0
  -26.0396  -16.8285   35.3615 H   0  0  0  0  0
  -28.3543  -14.9292   35.8005 H   0  0  0  0  0
  -27.8871  -15.6859   34.2577 H   0  0  0  0  0
  -28.4712  -16.6952   35.6035 H   0  0  0  0  0
  -25.6550  -14.6079   34.4050 H   0  0  0  0  0
  -26.1222  -13.8512   35.9478 H   0  0  0  0  0
  -24.6509  -14.8501   35.8555 H   0  0  0  0  0
  -28.8276  -18.3698   36.1409 H   0  0  0  0  0
  -27.6235  -20.9851   36.1225 H   0  0  0  0  0
  -29.3581  -19.5238   34.1089 H   0  0  0  0  0
  -29.8969  -20.6867   35.4219 H   0  0  0  0  0
  -28.1459  -21.4439   33.1070 H   0  0  0  0  0
  -29.9583  -21.5648   33.0925 H   0  0  0  0  0
  -27.8517  -24.6408   34.4354 H   0  0  0  0  0
  -27.2874  -23.3947   33.3173 H   0  0  0  0  0
  -25.7704  -21.6605   35.1745 H   0  0  0  0  0
  -24.4592  -20.0175   33.1339 H   0  0  0  0  0
  -23.9501  -22.8976   33.8735 H   0  0  0  0  0
  -23.1599  -21.4352   34.6220 H   0  0  0  0  0
  -22.1975  -20.8804   32.4602 H   0  0  0  0  0
  -22.9405  -22.3841   31.7602 H   0  0  0  0  0
  -21.5873  -23.7357   33.2634 H   0  0  0  0  0
  -20.8438  -22.2431   33.9406 H   0  0  0  0  0
  -19.5993  -21.9635   31.9672 H   0  0  0  0  0
  -19.1563  -24.3039   29.4090 H   0  0  0  0  0
  -18.5721  -22.8039   30.1368 H   0  0  0  0  0
  -21.7558  -24.7575   31.7391 H   0  0  0  0  0
  -25.7016  -19.7732   31.3053 H   0  0  0  0  0
  -27.2654  -22.0046   30.2256 H   0  0  0  0  0
  -27.7336  -20.4039   28.3688 H   0  0  0  0  0
  -26.6085  -19.2396   29.1469 H   0  0  0  0  0
  -28.8109  -18.8793   29.7189 H   0  0  0  0  0
  -24.1203  -23.6297   27.6948 H   0  0  0  0  0
  -25.7066  -25.4142   27.1508 H   0  0  0  0  0
  -25.4897  -24.7594   25.5797 H   0  0  0  0  0
  -27.9432  -24.8267   26.5642 H   0  0  0  0  0
  -27.4502  -23.3987   25.7110 H   0  0  0  0  0
  -28.0995  -22.3939   27.7810 H   0  0  0  0  0
  -27.7435  -23.7834   28.7000 H   0  0  0  0  0
  -22.8656  -20.8718   24.5710 H   0  0  0  0  0
  -20.7756  -21.9098   24.2257 H   0  0  0  0  0
  -21.5356  -22.7681   22.8982 H   0  0  0  0  0
  -20.5061  -23.9311   25.1412 H   0  0  0  0  0
  -21.7153  -24.6696   24.0657 H   0  0  0  0  0
  -23.0107  -24.7675   25.9614 H   0  0  0  0  0
  -22.0475  -23.6341   26.8088 H   0  0  0  0  0
  -23.3965  -20.1440   22.5113 H   0  0  0  0  0
  -25.7615  -21.3295   21.3489 H   0  0  0  0  0
  -25.1012  -19.9335   19.3401 H   0  0  0  0  0
  -23.7843  -19.3008   20.4132 H   0  0  0  0  0
  -26.8726  -20.1715   21.3166 H   0  0  0  0  0
  -26.0141  -22.9182   19.8879 H   0  0  0  0  0
  -23.5317  -24.3203   19.0387 H   0  0  0  0  0
  -24.7524  -23.8431   17.8019 H   0  0  0  0  0
  -24.3323  -26.3412   17.6594 H   0  0  0  0  0
  -25.6684  -27.9590   19.7217 H   0  0  0  0  0
  -27.5839  -27.1496   18.4746 H   0  0  0  0  0
  -27.3089  -28.9496   18.2933 H   0  0  0  0  0
  -26.6237  -28.7146   16.0962 H   0  0  0  0  0
  -26.4345  -26.9190   16.2611 H   0  0  0  0  0
  -29.7462  -28.2714   14.5942 H   0  0  0  0  0
  -28.1435  -29.0141   14.5640 H   0  0  0  0  0
  -25.4510  -30.3019   19.0906 H   0  0  0  0  0
  -22.7666  -30.5166   17.9445 H   0  0  0  0  0
  -24.5803  -32.6291   19.1980 H   0  0  0  0  0
  -23.2921  -31.7004   20.0388 H   0  0  0  0  0
  -22.6062  -33.8028   19.3901 H   0  0  0  0  0
  -26.0147  -31.6044   17.0462 H   0  0  0  0  0
  -24.7969  -32.8446   14.6178 H   0  0  0  0  0
  -27.3242  -33.6345   14.4113 H   0  0  0  0  0
  -27.2410  -33.3721   16.2232 H   0  0  0  0  0
  -24.1093  -34.1990   15.9109 H   0  0  0  0  0
  -27.8926  -36.0009   15.0442 H   0  0  0  0  0
  -23.1046  -36.4547   16.1477 H   0  0  0  0  0
  -26.8980  -38.2399   15.3001 H   0  0  0  0  0
  -24.4961  -38.4659   15.8425 H   0  0  0  0  0
  -25.0062  -31.8707   12.7191 H   0  0  0  0  0
  -26.4421  -29.4234   12.3811 H   0  0  0  0  0
  -26.1343  -30.2119    9.8383 H   0  0  0  0  0
  -24.9570  -31.3454   10.6650 H   0  0  0  0  0
  -23.9988  -29.2335   11.7051 H   0  0  0  0  0
  -24.9097  -28.3506   10.4304 H   0  0  0  0  0
  -22.6834  -28.7063    9.6046 H   0  0  0  0  0
  -23.7566  -29.8338    8.7408 H   0  0  0  0  0
  -22.5230  -30.8932   11.1884 H   0  0  0  0  0
  -20.5710  -33.1459    9.4162 H   0  0  0  0  0
  -21.1673  -32.6413   11.0008 H   0  0  0  0  0
  -22.2676  -30.5821    7.6678 H   0  0  0  0  0
  -27.4037  -32.7802   11.9669 H   0  0  0  0  0
  -29.8044  -32.1013   10.4343 H   0  0  0  0  0
  -28.7941  -34.3404   10.2268 H   0  0  0  0  0
  -30.4867  -34.4385   10.7898 H   0  0  0  0  0
  -29.0539  -35.7914   12.0272 H   0  0  0  0  0
  -30.4420  -31.5121   14.3846 H   0  0  0  0  0
  -28.8767  -31.4817   13.5660 H   0  0  0  0  0
  1  2  1  0  0  0
  2  3  1  0  0  0
  2  5  1  0  0  0
  3  4  2  0  0  0
  3  9  1  0  0  0
  5  6  1  0  0  0
  6  7  1  0  0  0
  6  8  1  0  0  0
  9 10  1  0  0  0
 10 11  1  0  0  0
 10 13  1  0  0  0
 11 12  2  0  0  0
 11 18  1  0  0  0
 13 14  1  0  0  0
 14 15  1  0  0  0
 15 16  2  0  0  0
 15 17  1  0  0  0
 18 19  1  0  0  0
 19 20  1  0  0  0
 19 22  1  0  0  0
 20 21  2  0  0  0
 20 29  1  0  0  0
 22 23  1  0  0  0
 23 24  1  0  0  0
 24 25  1  0  0  0
 25 26  1  0  0  0
 26 27  1  0  0  0
 26 28  2  0  0  0
 29 30  1  0  0  0
 30 31  1  0  0  0
 30 33  1  0  0  0
 31 32  2  0  0  0
 31 35  1  0  0  0
 33 34  1  0  0  0
 35 36  1  0  0  0
 35 41  1  0  0  0
 36 37  1  0  0  0
 36 39  1  0  0  0
 37 38  2  0  0  0
 37 42  1  0  0  0
 39 40  1  0  0  0
 40 41  1  0  0  0
 42 43  1  0  0  0
 42 48  1  0  0  0
 43 44  1  0  0  0
 43 46  1  0  0  0
 44 45  2  0  0  0
 44 49  1  0  0  0
 46 47  1  0  0  0
 47 48  1  0  0  0
 49 50  1  0  0  0
 50 51  1  0  0  0
 50 53  1  0  0  0
 51 52  2  0  0  0
 51 57  1  0  0  0
 53 54  1  0  0  0
 54 55  1  0  0  0
 54 56  2  0  0  0
 57 58  1  0  0  0
 58 59  1  0  0  0
 59 60  2  0  0  0
 59 61  1  0  0  0
 61 62  1  0  0  0
 62 63  1  0  0  0
 62 65  1  0  0  0
 63 64  2  0  0  0
 63 70  1  0  0  0
 65 66  1  0  0  0
 66 67  1  0  0  0
 67 68  2  0  0  0
 67 69  1  0  0  0
 70 71  1  0  0  0
 71 72  1  0  0  0
 71 74  1  0  0  0
 72 73  2  0  0  0
 72 76  1  0  0  0
 74 75  1  0  0  0
 76 77  1  0  0  0
 77 78  1  0  0  0
 77 80  1  0  0  0
 78 79  2  0  0  0
 78 87  1  0  0  0
 80 81  1  0  0  0
 81 82  4  0  0  0
 81 83  4  0  0  0
 82 84  4  0  0  0
 83 85  4  0  0  0
 84 86  4  0  0  0
 85 86  4  0  0  0
 87 88  1  0  0  0
 88 89  1  0  0  0
 88 91  1  0  0  0
 89 90  2  0  0  0
 89 98  1  0  0  0
 91 92  1  0  0  0
 92 93  1  0  0  0
 93 94  1  0  0  0
 94 95  1  0  0  0
 95 96  1  0  0  0
 95 97  2  0  0  0
 98 99  1  0  0  0
 99100  1  0  0  0
 99103  1  0  0  0
100101  1  0  0  0
103102  1  0  0  0
103104  2  0  0  0
  1105  1  0  0  0
  1106  1  0  0  0
  1107  1  0  0  0
  2108  1  0  0  0
  5109  1  0  0  0
  5110  1  0  0  0
  6111  1  0  0  0
  7112  1  0  0  0
  7113  1  0  0  0
  7114  1  0  0  0
  8115  1  0  0  0
  8116  1  0  0  0
  8117  1  0  0  0
  9118  1  0  0  0
 10119  1  0  0  0
 13120  1  0  0  0
 13121  1  0  0  0
 14122  1  0  0  0
 14123  1  0  0  0
 17124  1  0  0  0
 17125  1  0  0  0
 18126  1  0  0  0
 19127  1  0  0  0
 22128  1  0  0  0
 22129  1  0  0  0
 23130  1  0  0  0
 23131  1  0  0  0
 24132  1  0  0  0
 24133  1  0  0  0
 25134  1  0  0  0
 27135  1  0  0  0
 27136  1  0  0  0
 28137  1  0  0  0
 29138  1  0  0  0
 30139  1  0  0  0
 33140  1  0  0  0
 33141  1  0  0  0
 34142  1  0  0  0
 36143  1  0  0  0
 39144  1  0  0  0
 39145  1  0  0  0
 40146  1  0  0  0
 40147  1  0  0  0
 41148  1  0  0  0
 41149  1  0  0  0
 43150  1  0  0  0
 46151  1  0  0  0
 46152  1  0  0  0
 47153  1  0  0  0
 47154  1  0  0  0
 48155  1  0  0  0
 48156  1  0  0  0
 49157  1  0  0  0
 50158  1  0  0  0
 53159  1  0  0  0
 53160  1  0  0  0
 55161  1  0  0  0
 57162  1  0  0  0
 58163  1  0  0  0
 58164  1  0  0  0
 61165  1  0  0  0
 62166  1  0  0  0
 65167  1  0  0  0
 65168  1  0  0  0
 66169  1  0  0  0
 66170  1  0  0  0
 69171  1  0  0  0
 69172  1  0  0  0
 70173  1  0  0  0
 71174  1  0  0  0
 74175  1  0  0  0
 74176  1  0  0  0
 75177  1  0  0  0
 76178  1  0  0  0
 77179  1  0  0  0
 80180  1  0  0  0
 80181  1  0  0  0
 82182  1  0  0  0
 83183  1  0  0  0
 84184  1  0  0  0
 85185  1  0  0  0
 86186  1  0  0  0
 87187  1  0  0  0
 88188  1  0  0  0
 91189  1  0  0  0
 91190  1  0  0  0
 92191  1  0  0  0
 92192  1  0  0  0
 93193  1  0  0  0
 93194  1  0  0  0
 94195  1  0  0  0
 96196  1  0  0  0
 96197  1  0  0  0
 97198  1  0  0  0
 98199  1  0  0  0
 99200  1  0  0  0
100201  1  0  0  0
100202  1  0  0  0
101203  1  0  0  0
102204  1  0  0  0
102205  1  0  0  0
M  END
$$$$
