### 
### Created by X-TOOL on Mon Sep 10 21:13:06 2018
### 

@<TRIPOS>MOLECULE
3twr_ligand
  206   208     1     0     0
SMALL
GAST_HUCK


@<TRIPOS>ATOM
      1 N         -27.2430  -17.4040   39.3500 N.4       1 LEU         0.2379
      2 CA        -27.3750  -17.2770   37.8990 C.3       1 LEU         0.0652
      3 C         -27.0980  -18.5890   37.1770 C.2       1 LEU         0.2267
      4 O         -26.0950  -19.2550   37.4320 O.2       1 LEU        -0.3907
      5 CB        -26.4520  -16.1850   37.3550 C.3       1 LEU         0.0102
      6 CG        -26.4800  -15.9560   35.8440 C.3       1 LEU        -0.0394
      7 CD1       -27.8980  -15.8060   35.3410 C.3       1 LEU        -0.0623
      8 CD2       -25.6700  -14.7300   35.4880 C.3       1 LEU        -0.0623
      9 N         -27.9990  -18.9500   36.2720 N.am      1 GLN        -0.2609
     10 CA        -27.8420  -20.1460   35.4620 C.3       1 GLN         0.1331
     11 C         -26.6890  -19.9790   34.4780 C.2       1 GLN         0.2040
     12 O         -26.6160  -18.9750   33.7670 O.2       1 GLN        -0.3944
     13 CB        -29.1370  -20.4210   34.6870 C.3       1 GLN         0.0045
     14 CG        -29.0520  -21.5770   33.6980 C.3       1 GLN         0.0412
     15 CD        -28.9670  -22.9330   34.3800 C.2       1 GLN         0.1737
     16 OE1       -29.8030  -23.2740   35.2190 O.2       1 GLN        -0.3973
     17 NE2       -27.9570  -23.7170   34.0160 N.am      1 GLN        -0.3009
     18 N         -25.7860  -20.9550   34.4380 N.am      1 ARG        -0.2637
     19 CA        -24.8180  -21.0240   33.3490 C.3       1 ARG         0.1311
     20 C         -25.5070  -21.6230   32.1250 C.2       1 ARG         0.2040
     21 O         -25.7010  -22.8350   32.0440 O.2       1 ARG        -0.3944
     22 CB        -23.6020  -21.8750   33.7280 C.3       1 ARG        -0.0092
     23 CG        -22.5150  -21.9070   32.6430 C.3       1 ARG        -0.0156
     24 CD        -21.2810  -22.7100   33.0580 C.3       1 ARG         0.0627
     25 NE        -20.2740  -22.7280   31.9920 N.pl3     1 ARG        -0.2723
     26 CZ        -20.1750  -23.6660   31.0560 C.cat     1 ARG         0.2882
     27 NH1       -19.2280  -23.5850   30.1290 N.pl3     1 ARG        -0.2849
     28 NH2       -21.0220  -24.6880   31.0340 N.pl3     1 ARG        -0.2849
     29 N         -25.8830  -20.7690   31.1790 N.am      1 SER        -0.2616
     30 CA        -26.5510  -21.2250   29.9610 C.3       1 SER         0.1541
     31 C         -25.5400  -21.8170   28.9830 C.2       1 SER         0.2087
     32 O         -24.3520  -21.4780   29.0310 O.2       1 SER        -0.3941
     33 CB        -27.3060  -20.0610   29.3110 C.3       1 SER         0.0843
     34 OG        -28.3540  -19.6070   30.1470 O.3       1 SER        -0.3903
     35 N         -25.9950  -22.7000   28.0820 N.am      1 PRO        -0.2498
     36 CA        -25.0310  -23.3340   27.1740 C.3       1 PRO         0.1340
     37 C         -24.5700  -22.4030   26.0620 C.2       1 PRO         0.2066
     38 O         -25.2150  -21.4020   25.7670 O.2       1 PRO        -0.3942
     39 CB        -25.8280  -24.4930   26.5810 C.3       1 PRO        -0.0104
     40 CG        -27.2310  -24.0020   26.5920 C.3       1 PRO        -0.0281
     41 CD        -27.3660  -23.1960   27.8630 C.3       1 PRO         0.0369
     42 N         -23.4320  -22.7320   25.4470 N.am      1 PRO        -0.2498
     43 CA        -22.9450  -21.9300   24.3220 C.3       1 PRO         0.1338
     44 C         -23.8910  -22.0250   23.1360 C.2       1 PRO         0.2042
     45 O         -24.5950  -23.0370   22.9920 O.2       1 PRO        -0.3944
     46 CB        -21.6000  -22.5750   23.9690 C.3       1 PRO        -0.0104
     47 CG        -21.5090  -23.8280   24.7270 C.3       1 PRO        -0.0281
     48 CD        -22.5070  -23.8090   25.8360 C.3       1 PRO         0.0369
     49 N         -23.9260  -20.9910   22.3050 N.am      1 ASP        -0.2622
     50 CA        -24.7310  -21.0820   21.0940 C.3       1 ASP         0.1423
     51 C         -24.1480  -22.1810   20.2180 C.2       1 ASP         0.2054
     52 O         -22.9290  -22.2580   20.0280 O.2       1 ASP        -0.3943
     53 CB        -24.7780  -19.7460   20.3640 C.3       1 ASP         0.0406
     54 CG        -25.7650  -18.7670   20.9980 C.2       1 ASP         0.0393
     55 OD1       -26.8460  -19.2210   21.4490 O.co2     1 ASP        -0.5688
     56 OD2       -25.4750  -17.5650   21.0420 O.co2     1 ASP        -0.5688
     57 N         -25.0200  -23.0340   19.6910 N.am      1 GLY        -0.2663
     58 CA        -24.5860  -24.1270   18.8410 C.3       1 GLY         0.1201
     59 C         -25.3670  -25.3940   19.1230 C.2       1 GLY         0.2007
     60 O         -26.2820  -25.4120   19.9610 O.2       1 GLY        -0.3947
     61 N         -25.0150  -26.4590   18.4080 N.am      1 GLN        -0.2638
     62 CA        -25.5650  -27.7890   18.6500 C.3       1 GLN         0.1330
     63 C         -24.6060  -28.7870   18.0270 C.2       1 GLN         0.2041
     64 O         -23.7990  -28.4340   17.1600 O.2       1 GLN        -0.3944
     65 CB        -26.9660  -27.9430   18.0540 C.3       1 GLN         0.0045
     66 CG        -27.0180  -27.7980   16.5350 C.3       1 GLN         0.0412
     67 CD        -28.4350  -27.6010   16.0160 C.2       1 GLN         0.1737
     68 OE1       -29.1990  -26.7870   16.5510 O.2       1 GLN        -0.3973
     69 NE2       -28.8040  -28.3550   14.9760 N.am      1 GLN        -0.3009
     70 N         -24.6940  -30.0380   18.4600 N.am      1 SER        -0.2616
     71 CA        -23.7160  -31.0430   18.0420 C.3       1 SER         0.1539
     72 C         -24.0160  -31.6640   16.6740 C.2       1 SER         0.2063
     73 O         -23.0960  -31.9810   15.9180 O.2       1 SER        -0.3943
     74 CB        -23.6080  -32.1470   19.0960 C.3       1 SER         0.0843
     75 OG        -22.6550  -33.1230   18.7140 O.3       1 SER        -0.3903
     76 N         -25.2960  -31.8650   16.3710 N.am      1 PHE        -0.2619
     77 CA        -25.6960  -32.4510   15.0920 C.3       1 PHE         0.1404
     78 C         -26.3260  -31.4000   14.1900 C.2       1 PHE         0.2060
     79 O         -27.2530  -30.6920   14.6080 O.2       1 PHE        -0.3942
     80 CB        -26.6990  -33.5900   15.3030 C.3       1 PHE         0.0214
     81 CG        -26.0720  -34.9490   15.4710 C.ar      1 PHE        -0.0386
     82 CD1       -24.7280  -35.0860   15.7750 C.ar      1 PHE        -0.0601
     83 CD2       -26.8360  -36.0950   15.2950 C.ar      1 PHE        -0.0601
     84 CE1       -24.1630  -36.3530   15.9080 C.ar      1 PHE        -0.0686
     85 CE2       -26.2810  -37.3510   15.4320 C.ar      1 PHE        -0.0686
     86 CZ        -24.9400  -37.4760   15.7370 C.ar      1 PHE        -0.0687
     87 N         -25.8200  -31.3050   12.9600 N.am      1 ARG        -0.2636
     88 CA        -26.3880  -30.4200   11.9430 C.3       1 ARG         0.1311
     89 C         -27.8010  -30.8290   11.5450 C.2       1 ARG         0.2040
     90 O         -28.5910  -29.9810   11.1280 O.2       1 ARG        -0.3944
     91 CB        -25.4880  -30.3940   10.6970 C.3       1 ARG        -0.0092
     92 CG        -24.4330  -29.2910   10.7070 C.3       1 ARG        -0.0156
     93 CD        -23.3200  -29.5850    9.7080 C.3       1 ARG         0.0627
     94 NE        -22.5220  -30.7100   10.1850 N.pl3     1 ARG        -0.2723
     95 CZ        -21.7960  -31.5130    9.4200 C.cat     1 ARG         0.2882
     96 NH1       -21.1260  -32.5110    9.9900 N.pl3     1 ARG        -0.2849
     97 NH2       -21.7440  -31.3410    8.1040 N.pl3     1 ARG        -0.2849
     98 N         -28.1150  -32.1190   11.6550 N.am      1 SET        -0.2616
     99 CA        -29.4680  -32.6130   11.3360 C.3       1 SET         0.1536
    100 CB        -29.4750  -34.1280   11.0510 C.3       1 SET         0.0843
    101 OG        -29.0460  -34.8500   12.2150 O.3       1 SET        -0.3903
    102 NT        -29.8680  -31.7220   13.5680 N.am      1 SET        -0.2989
    103 C         -30.4130  -32.3100   12.5040 C.2       1 SET         0.2015
    104 O         -31.6000  -32.6270   12.4380 O.2       1 SET        -0.3947
    105 H         -27.8682  -18.1374   39.6842 H         1 LEU         0.2015
    106 H         -26.2795  -17.6448   39.5828 H         1 LEU         0.2015
    107 H         -27.4895  -16.5181   39.7915 H         1 LEU         0.2015
    108 H         -28.4114  -16.9994   37.7067 H         1 LEU         0.1098
    109 H         -25.4368  -16.5028   37.5927 H         1 LEU         0.0348
    110 H         -26.7896  -15.2525   37.8072 H         1 LEU         0.0348
    111 H         -26.0396  -16.8285   35.3615 H         1 LEU         0.0299
    112 H         -28.3543  -14.9292   35.8005 H         1 LEU         0.0232
    113 H         -27.8871  -15.6859   34.2577 H         1 LEU         0.0232
    114 H         -28.4712  -16.6952   35.6035 H         1 LEU         0.0232
    115 H         -25.6550  -14.6079   34.4050 H         1 LEU         0.0232
    116 H         -26.1222  -13.8512   35.9478 H         1 LEU         0.0232
    117 H         -24.6509  -14.8501   35.8555 H         1 LEU         0.0232
    118 H         -28.8276  -18.3698   36.1409 H         1 GLN         0.1885
    119 H         -27.6235  -20.9851   36.1225 H         1 GLN         0.0801
    120 H         -29.3581  -19.5238   34.1089 H         1 GLN         0.0337
    121 H         -29.8969  -20.6867   35.4219 H         1 GLN         0.0337
    122 H         -28.1459  -21.4439   33.1070 H         1 GLN         0.0504
    123 H         -29.9583  -21.5648   33.0925 H         1 GLN         0.0504
    124 H         -27.8517  -24.6408   34.4354 H         1 GLN         0.1814
    125 H         -27.2874  -23.3947   33.3173 H         1 GLN         0.1814
    126 H         -25.7704  -21.6605   35.1745 H         1 ARG         0.1883
    127 H         -24.4592  -20.0175   33.1339 H         1 ARG         0.0800
    128 H         -23.9501  -22.8976   33.8735 H         1 ARG         0.0313
    129 H         -23.1599  -21.4352   34.6220 H         1 ARG         0.0313
    130 H         -22.1975  -20.8804   32.4602 H         1 ARG         0.0301
    131 H         -22.9405  -22.3841   31.7602 H         1 ARG         0.0301
    132 H         -21.5873  -23.7357   33.2634 H         1 ARG         0.0689
    133 H         -20.8438  -22.2431   33.9406 H         1 ARG         0.0689
    134 H         -19.5993  -21.9635   31.9672 H         1 ARG         0.2642
    135 H         -18.5747  -22.8017   30.1344 H         1 ARG         0.2615
    136 H         -19.1537  -24.3061   29.4114 H         1 ARG         0.2615
    137 H         -21.7558  -24.7575   31.7391 H         1 ARG         0.2615
    138 H         -20.9390  -25.4037   30.3120 H         1 ARG         0.2615
    139 H         -25.7016  -19.7732   31.3053 H         1 SER         0.1884
    140 H         -27.2654  -22.0046   30.2256 H         1 SER         0.0823
    141 H         -27.7336  -20.4039   28.3688 H         1 SER         0.0606
    142 H         -26.6085  -19.2396   29.1469 H         1 SER         0.0606
    143 H         -27.9886  -19.3092   30.9833 H         1 SER         0.2097
    144 H         -24.1203  -23.6297   27.6948 H         1 PRO         0.0802
    145 H         -25.7066  -25.4142   27.1508 H         1 PRO         0.0313
    146 H         -25.4897  -24.7594   25.5797 H         1 PRO         0.0313
    147 H         -27.9432  -24.8267   26.5642 H         1 PRO         0.0287
    148 H         -27.4502  -23.3987   25.7110 H         1 PRO         0.0287
    149 H         -28.0995  -22.3939   27.7810 H         1 PRO         0.0524
    150 H         -27.7435  -23.7834   28.7000 H         1 PRO         0.0524
    151 H         -22.8656  -20.8718   24.5710 H         1 PRO         0.0802
    152 H         -20.7756  -21.9098   24.2257 H         1 PRO         0.0313
    153 H         -21.5356  -22.7681   22.8982 H         1 PRO         0.0313
    154 H         -20.5061  -23.9311   25.1412 H         1 PRO         0.0287
    155 H         -21.7153  -24.6696   24.0657 H         1 PRO         0.0287
    156 H         -23.0107  -24.7675   25.9614 H         1 PRO         0.0524
    157 H         -22.0475  -23.6341   26.8088 H         1 PRO         0.0524
    158 H         -23.3965  -20.1440   22.5113 H         1 ASP         0.1884
    159 H         -25.7615  -21.3295   21.3489 H         1 ASP         0.0819
    160 H         -25.1012  -19.9335   19.3401 H         1 ASP         0.0478
    161 H         -23.7843  -19.3008   20.4132 H         1 ASP         0.0478
    162 H         -26.0141  -22.9182   19.8879 H         1 GLY         0.1881
    163 H         -23.5317  -24.3203   19.0387 H         1 GLY         0.0763
    164 H         -24.7524  -23.8431   17.8019 H         1 GLY         0.0763
    165 H         -24.3323  -26.3412   17.6594 H         1 GLN         0.1883
    166 H         -25.6684  -27.9590   19.7217 H         1 GLN         0.0801
    167 H         -27.5839  -27.1496   18.4746 H         1 GLN         0.0337
    168 H         -27.3089  -28.9496   18.2933 H         1 GLN         0.0337
    169 H         -26.6237  -28.7146   16.0962 H         1 GLN         0.0504
    170 H         -26.4345  -26.9190   16.2611 H         1 GLN         0.0504
    171 H         -29.7462  -28.2714   14.5942 H         1 GLN         0.1814
    172 H         -28.1435  -29.0141   14.5640 H         1 GLN         0.1814
    173 H         -25.4510  -30.3019   19.0906 H         1 SER         0.1884
    174 H         -22.7666  -30.5166   17.9445 H         1 SER         0.0823
    175 H         -24.5803  -32.6291   19.1980 H         1 SER         0.0606
    176 H         -23.2921  -31.7004   20.0388 H         1 SER         0.0606
    177 H         -21.7954  -32.7073   18.6139 H         1 SER         0.2097
    178 H         -26.0147  -31.6044   17.0462 H         1 PHE         0.1885
    179 H         -24.7969  -32.8446   14.6178 H         1 PHE         0.0823
    180 H         -27.3242  -33.6345   14.4113 H         1 PHE         0.0474
    181 H         -27.2410  -33.3721   16.2232 H         1 PHE         0.0474
    182 H         -24.1093  -34.1990   15.9109 H         1 PHE         0.0557
    183 H         -27.8926  -36.0009   15.0442 H         1 PHE         0.0557
    184 H         -23.1046  -36.4547   16.1477 H         1 PHE         0.0599
    185 H         -26.8980  -38.2399   15.3001 H         1 PHE         0.0599
    186 H         -24.4961  -38.4659   15.8425 H         1 PHE         0.0559
    187 H         -25.0062  -31.8707   12.7191 H         1 ARG         0.1883
    188 H         -26.4421  -29.4234   12.3811 H         1 ARG         0.0800
    189 H         -26.1343  -30.2119    9.8383 H         1 ARG         0.0313
    190 H         -24.9570  -31.3454   10.6650 H         1 ARG         0.0313
    191 H         -23.9988  -29.2335   11.7051 H         1 ARG         0.0301
    192 H         -24.9097  -28.3506   10.4304 H         1 ARG         0.0301
    193 H         -22.6834  -28.7063    9.6046 H         1 ARG         0.0689
    194 H         -23.7566  -29.8338    8.7408 H         1 ARG         0.0689
    195 H         -22.5230  -30.8932   11.1884 H         1 ARG         0.2642
    196 H         -21.1763  -32.6480   10.9995 H         1 ARG         0.2615
    197 H         -20.5620  -33.1392    9.4175 H         1 ARG         0.2615
    198 H         -22.2676  -30.5821    7.6678 H         1 ARG         0.2615
    199 H         -21.1805  -31.9678    7.5296 H         1 ARG         0.2615
    200 H         -27.4037  -32.7802   11.9669 H         1 SET         0.1884
    201 H         -29.8044  -32.1013   10.4343 H         1 SET         0.0823
    202 H         -28.7941  -34.3404   10.2268 H         1 SET         0.0606
    203 H         -30.4867  -34.4385   10.7898 H         1 SET         0.0606
    204 H         -29.0539  -35.7914   12.0272 H         1 SET         0.2097
    205 H         -30.4420  -31.5121   14.3846 H         1 SET         0.1815
    206 H         -28.8767  -31.4817   13.5660 H         1 SET         0.1815
@<TRIPOS>BOND
     1    1    2 1  
     2    2    3 1  
     3    2    5 1  
     4    3    4 2  
     5    3    9 am 
     6    5    6 1  
     7    6    7 1  
     8    6    8 1  
     9    9   10 1  
    10   10   11 1  
    11   10   13 1  
    12   11   12 2  
    13   11   18 am 
    14   13   14 1  
    15   14   15 1  
    16   15   16 2  
    17   15   17 am 
    18   18   19 1  
    19   19   20 1  
    20   19   22 1  
    21   20   21 2  
    22   20   29 am 
    23   22   23 1  
    24   23   24 1  
    25   24   25 1  
    26   25   26 ar 
    27   26   27 ar 
    28   26   28 ar 
    29   29   30 1  
    30   30   31 1  
    31   30   33 1  
    32   31   32 2  
    33   31   35 am 
    34   33   34 1  
    35   35   36 1  
    36   35   41 1  
    37   36   37 1  
    38   36   39 1  
    39   37   38 2  
    40   37   42 am 
    41   39   40 1  
    42   40   41 1  
    43   42   43 1  
    44   42   48 1  
    45   43   44 1  
    46   43   46 1  
    47   44   45 2  
    48   44   49 am 
    49   46   47 1  
    50   47   48 1  
    51   49   50 1  
    52   50   51 1  
    53   50   53 1  
    54   51   52 2  
    55   51   57 am 
    56   53   54 1  
    57   54   55 ar 
    58   54   56 ar 
    59   57   58 1  
    60   58   59 1  
    61   59   60 2  
    62   59   61 am 
    63   61   62 1  
    64   62   63 1  
    65   62   65 1  
    66   63   64 2  
    67   63   70 am 
    68   65   66 1  
    69   66   67 1  
    70   67   68 2  
    71   67   69 am 
    72   70   71 1  
    73   71   72 1  
    74   71   74 1  
    75   72   73 2  
    76   72   76 am 
    77   74   75 1  
    78   76   77 1  
    79   77   78 1  
    80   77   80 1  
    81   78   79 2  
    82   78   87 am 
    83   80   81 1  
    84   81   82 ar 
    85   81   83 ar 
    86   82   84 ar 
    87   83   85 ar 
    88   84   86 ar 
    89   85   86 ar 
    90   87   88 1  
    91   88   89 1  
    92   88   91 1  
    93   89   90 2  
    94   89   98 am 
    95   91   92 1  
    96   92   93 1  
    97   93   94 1  
    98   94   95 ar 
    99   95   96 ar 
   100   95   97 ar 
   101   98   99 1  
   102   99  100 1  
   103   99  103 1  
   104  100  101 1  
   105  103  102 am 
   106  103  104 2  
   107    1  105 1  
   108    1  106 1  
   109    1  107 1  
   110    2  108 1  
   111    5  109 1  
   112    5  110 1  
   113    6  111 1  
   114    7  112 1  
   115    7  113 1  
   116    7  114 1  
   117    8  115 1  
   118    8  116 1  
   119    8  117 1  
   120    9  118 1  
   121   10  119 1  
   122   13  120 1  
   123   13  121 1  
   124   14  122 1  
   125   14  123 1  
   126   17  124 1  
   127   17  125 1  
   128   18  126 1  
   129   19  127 1  
   130   22  128 1  
   131   22  129 1  
   132   23  130 1  
   133   23  131 1  
   134   24  132 1  
   135   24  133 1  
   136   25  134 1  
   137   27  135 1  
   138   27  136 1  
   139   28  137 1  
   140   28  138 1  
   141   29  139 1  
   142   30  140 1  
   143   33  141 1  
   144   33  142 1  
   145   34  143 1  
   146   36  144 1  
   147   39  145 1  
   148   39  146 1  
   149   40  147 1  
   150   40  148 1  
   151   41  149 1  
   152   41  150 1  
   153   43  151 1  
   154   46  152 1  
   155   46  153 1  
   156   47  154 1  
   157   47  155 1  
   158   48  156 1  
   159   48  157 1  
   160   49  158 1  
   161   50  159 1  
   162   53  160 1  
   163   53  161 1  
   164   57  162 1  
   165   58  163 1  
   166   58  164 1  
   167   61  165 1  
   168   62  166 1  
   169   65  167 1  
   170   65  168 1  
   171   66  169 1  
   172   66  170 1  
   173   69  171 1  
   174   69  172 1  
   175   70  173 1  
   176   71  174 1  
   177   74  175 1  
   178   74  176 1  
   179   75  177 1  
   180   76  178 1  
   181   77  179 1  
   182   80  180 1  
   183   80  181 1  
   184   82  182 1  
   185   83  183 1  
   186   84  184 1  
   187   85  185 1  
   188   86  186 1  
   189   87  187 1  
   190   88  188 1  
   191   91  189 1  
   192   91  190 1  
   193   92  191 1  
   194   92  192 1  
   195   93  193 1  
   196   93  194 1  
   197   94  195 1  
   198   96  196 1  
   199   96  197 1  
   200   97  198 1  
   201   97  199 1  
   202   98  200 1  
   203   99  201 1  
   204  100  202 1  
   205  100  203 1  
   206  101  204 1  
   207  102  205 1  
   208  102  206 1  
@<TRIPOS>SUBSTRUCTURE
     1 LEU         1

