6s7z_ligand
  -I-interpret- 

 60 64  0  0  0  0  0  0  0  0999 V2000
  170.2990  -13.0180   31.4460 O   0  0  0  0  0
  172.0190   -7.0980   31.5860 C   0  0  0  0  0
  170.1330  -10.2200   32.0400 C   0  0  0  0  0
  165.9690  -10.4270   33.7710 O   0  0  0  0  0
  171.2410  -12.4050   31.9440 C   0  0  0  0  0
  172.4200  -15.4930   32.5620 N   0  0  0  0  0
  172.4820  -13.1270   32.4230 C   0  0  0  0  0
  172.6960  -14.4790   31.8160 C   0  0  0  0  0
  172.5620  -16.7270   32.0320 N   0  0  0  0  0
  172.9500  -17.0500   30.7740 C   0  0  0  0  0
  173.2850  -15.9230   29.9140 C   0  0  0  0  0
  173.6720  -16.1180   28.5910 C   0  0  0  0  0
  173.8860  -15.0180   27.7740 C   0  0  0  0  0
  165.9730  -11.7390   31.7040 N   0  0  0  0  0
  173.7200  -13.7300   28.2640 C   0  0  0  0  0
  173.3770  -13.5200   29.5930 C   0  0  0  0  0
  173.1580  -14.6190   30.4250 C   0  0  0  0  0
  166.1330  -10.2690   32.3610 S   0  0  0  0  0
  165.2740   -9.3790   31.6520 O   0  0  0  0  0
  166.1760  -11.8520   30.2520 C   0  0  0  0  0
  166.7800  -13.1950   29.9220 C   0  0  0  0  0
  166.0390  -14.3280   30.5790 C   0  0  0  0  0
  166.1640  -15.6200   30.0750 C   0  0  0  0  0
  165.5280  -16.6850   30.6880 C   0  0  0  0  0
  164.7610  -16.4730   31.8070 C   0  0  0  0  0
  164.6110  -15.1950   32.3110 C   0  0  0  0  0
  165.2390  -14.1080   31.7080 C   0  0  0  0  0
  165.0160  -12.7140   32.2590 C   0  0  0  0  0
  167.7820   -9.7510   32.0400 C   0  0  0  0  0
  168.8140  -10.6690   32.1430 C   0  0  0  0  0
  170.3800   -8.8420   31.8390 C   0  0  0  0  0
  171.7020   -8.4870   31.8020 O   0  0  0  0  0
  169.3290   -7.9620   31.6920 C   0  0  0  0  0
  168.0260   -8.4190   31.7850 C   0  0  0  0  0
  171.2530  -11.0710   32.1330 N   0  0  0  0  0
  172.9560  -18.2130   30.4010 O   0  0  0  0  0
  171.6101   -6.7781   30.6276 H   0  0  0  0  0
  171.5843   -6.4988   32.3861 H   0  0  0  0  0
  173.1015   -6.9701   31.5816 H   0  0  0  0  0
  172.3662  -13.2769   33.4964 H   0  0  0  0  0
  173.3357  -12.5129   32.1364 H   0  0  0  0  0
  172.3523  -17.5092   32.6522 H   0  0  0  0  0
  173.8057  -17.1268   28.2005 H   0  0  0  0  0
  174.1875  -15.1663   26.7371 H   0  0  0  0  0
  173.8600  -12.8767   27.6003 H   0  0  0  0  0
  173.2797  -12.5067   29.9827 H   0  0  0  0  0
  166.8506  -11.0627   29.9204 H   0  0  0  0  0
  165.2156  -11.7551   29.7457 H   0  0  0  0  0
  167.8069  -13.2042   30.2874 H   0  0  0  0  0
  166.7261  -13.3352   28.8424 H   0  0  0  0  0
  166.7705  -15.7946   29.1863 H   0  0  0  0  0
  165.6357  -17.6912   30.2830 H   0  0  0  0  0
  164.2701  -17.3132   32.2981 H   0  0  0  0  0
  163.9919  -15.0353   33.1938 H   0  0  0  0  0
  164.0098  -12.3968   31.9850 H   0  0  0  0  0
  165.1544  -12.7492   33.3396 H   0  0  0  0  0
  168.6003  -11.7259   32.3020 H   0  0  0  0  0
  169.5242   -6.9065   31.5026 H   0  0  0  0  0
  167.1941   -7.7264   31.6567 H   0  0  0  0  0
  172.1486  -10.6403   32.3629 H   0  0  0  0  0
  5  1  2  0  0  0
 32  2  1  0  0  0
  3 30  4  0  0  0
 31  3  4  0  0  0
  3 35  1  0  0  0
 18  4  2  0  0  0
  5  7  1  0  0  0
 35  5  1  0  0  0
  8  6  2  0  0  0
  6  9  1  0  0  0
  7  8  1  0  0  0
  8 17  1  0  0  0
  9 10  1  0  0  0
 11 10  1  0  0  0
 10 36  2  0  0  0
 11 12  4  0  0  0
 17 11  4  0  0  0
 12 13  4  0  0  0
 15 13  4  0  0  0
 18 14  1  0  0  0
 14 20  1  0  0  0
 14 28  1  0  0  0
 16 15  4  0  0  0
 17 16  4  0  0  0
 18 19  2  0  0  0
 29 18  1  0  0  0
 20 21  1  0  0  0
 21 22  1  0  0  0
 22 23  4  0  0  0
 27 22  4  0  0  0
 23 24  4  0  0  0
 25 24  4  0  0  0
 26 25  4  0  0  0
 27 26  4  0  0  0
 28 27  1  0  0  0
 30 29  4  0  0  0
 29 34  4  0  0  0
 31 32  1  0  0  0
 31 33  4  0  0  0
 33 34  4  0  0  0
  2 37  1  0  0  0
  2 38  1  0  0  0
  2 39  1  0  0  0
  7 40  1  0  0  0
  7 41  1  0  0  0
  9 42  1  0  0  0
 12 43  1  0  0  0
 13 44  1  0  0  0
 15 45  1  0  0  0
 16 46  1  0  0  0
 20 47  1  0  0  0
 20 48  1  0  0  0
 21 49  1  0  0  0
 21 50  1  0  0  0
 23 51  1  0  0  0
 24 52  1  0  0  0
 25 53  1  0  0  0
 26 54  1  0  0  0
 28 55  1  0  0  0
 28 56  1  0  0  0
 30 57  1  0  0  0
 33 58  1  0  0  0
 34 59  1  0  0  0
 35 60  1  0  0  0
M  END
$$$$
