4gj7_ligand
  -I-interpret- 

 72 74  0  0  0  0  0  0  0  0999 V2000
   70.3160    8.9600   47.5710 C   0  0  0  0  0
   68.9550    8.7690   47.5330 N   0  0  0  0  0
   68.4000    7.4850   47.0440 C   0  0  0  0  0
   71.0440   10.1920   48.0470 C   0  0  0  0  0
   68.8940    6.9310   45.6690 C   0  0  0  0  0
   71.1030   11.2980   47.1810 C   0  0  0  0  0
   71.8670   12.4330   47.5420 C   0  0  0  0  0
   67.0950    7.1180   44.0750 N   0  3  0  0  0
   68.3450    5.5090   45.3740 C   0  0  0  0  0
   71.1400    8.1810   47.0870 O   0  0  0  0  0
   72.6070   12.4150   48.7570 C   0  0  0  0  0
   71.7880   10.1600   49.2400 C   0  0  0  0  0
   69.2440    4.5720   44.4970 C   0  0  0  0  0
   68.0500    9.7260   48.1890 C   0  0  0  0  0
   72.5510   11.2770   49.6090 C   0  0  0  0  0
   68.3910    7.7410   44.4460 C   0  0  0  0  0
   66.9180    5.8670   44.8560 C   0  0  0  0  0
   71.9540   13.5640   46.7150 O   0  0  0  0  0
   68.5020    3.2660   44.1690 C   0  0  0  0  0
   73.4070   13.5280   49.0740 O   0  0  0  0  0
   69.7910   14.2850   45.6260 C   0  0  0  0  0
   69.7510   15.4380   43.4550 O   0  0  0  0  0
   71.2350   13.7310   45.4580 C   0  0  0  0  0
   69.0410   14.4960   44.2840 C   0  0  0  0  0
   67.1020   10.6540   47.3820 C   0  0  0  0  0
   67.6170    9.2560   49.6150 C   0  0  0  0  0
   67.6530    3.1640   43.0380 C   0  0  0  0  0
   68.6420    2.1550   45.0300 C   0  0  0  0  0
   74.0150   13.6940   50.3720 C   0  0  0  0  0
   69.8690   15.0360   42.0820 C   0  0  0  0  0
   66.9290    1.9850   42.7900 C   0  0  0  0  0
   67.9330    0.9670   44.7680 C   0  0  0  0  0
   67.0950    0.8750   43.6380 C   0  0  0  0  0
   67.3342    7.6694   46.9093 H   0  0  0  0  0
   68.7130    6.7426   47.7781 H   0  0  0  0  0
   69.9778    6.9735   45.7766 H   0  0  0  0  0
   70.5621   11.2812   46.2348 H   0  0  0  0  0
   67.0893    6.9043   43.0776 H   0  0  0  0  0
   66.3321    7.7628   44.2812 H   0  0  0  0  0
   68.3298    4.8386   46.2334 H   0  0  0  0  0
   71.7716    9.2731   49.8734 H   0  0  0  0  0
   70.1524    4.3337   45.0503 H   0  0  0  0  0
   69.4870    5.0844   43.5662 H   0  0  0  0  0
   68.7109   10.5832   48.3174 H   0  0  0  0  0
   73.1018   11.2735   50.5496 H   0  0  0  0  0
   69.1035    7.7099   43.6217 H   0  0  0  0  0
   68.2762    8.7987   44.6830 H   0  0  0  0  0
   66.4968    5.0670   44.2472 H   0  0  0  0  0
   66.2121    5.9992   45.6759 H   0  0  0  0  0
   69.8706   15.2582   46.1104 H   0  0  0  0  0
   69.2265   13.5517   46.2020 H   0  0  0  0  0
   71.1527   12.7460   44.9985 H   0  0  0  0  0
   71.7914   14.4527   44.8599 H   0  0  0  0  0
   68.0445   14.8858   44.4914 H   0  0  0  0  0
   68.9740   13.5422   43.7607 H   0  0  0  0  0
   66.1480   10.1501   47.2266 H   0  0  0  0  0
   66.9402   11.5777   47.9376 H   0  0  0  0  0
   67.5547   10.8833   46.4173 H   0  0  0  0  0
   67.4750   10.1264   50.2555 H   0  0  0  0  0
   66.6828    8.6989   49.5445 H   0  0  0  0  0
   68.3923    8.6160   50.0362 H   0  0  0  0  0
   67.5609    4.0079   42.3543 H   0  0  0  0  0
   69.2991    2.2173   45.8975 H   0  0  0  0  0
   73.2368   13.7307   51.1343 H   0  0  0  0  0
   74.6803   12.8537   50.5703 H   0  0  0  0  0
   74.5856   14.6226   50.3885 H   0  0  0  0  0
   70.4067   14.0895   42.0268 H   0  0  0  0  0
   68.8741   14.9157   41.6532 H   0  0  0  0  0
   70.4155   15.7986   41.5271 H   0  0  0  0  0
   66.2425    1.9311   41.9450 H   0  0  0  0  0
   68.0324    0.1155   45.4412 H   0  0  0  0  0
   66.5748   -0.0580   43.4210 H   0  0  0  0  0
  1  2  1  0  0  0
  1  4  1  0  0  0
  1 10  2  0  0  0
  2  3  1  0  0  0
  2 14  1  0  0  0
  3  5  1  0  0  0
  4  6  4  0  0  0
  4 12  4  0  0  0
  5  9  1  0  0  0
  5 16  1  0  0  0
  6  7  4  0  0  0
  7 11  4  0  0  0
  7 18  1  0  0  0
 16  8  1  0  0  0
  8 17  1  0  0  0
  9 13  1  0  0  0
  9 17  1  0  0  0
 11 15  4  0  0  0
 11 20  1  0  0  0
 12 15  4  0  0  0
 13 19  1  0  0  0
 14 25  1  0  0  0
 14 26  1  0  0  0
 18 23  1  0  0  0
 19 27  4  0  0  0
 19 28  4  0  0  0
 20 29  1  0  0  0
 23 21  1  0  0  0
 21 24  1  0  0  0
 24 22  1  0  0  0
 22 30  1  0  0  0
 27 31  4  0  0  0
 28 32  4  0  0  0
 31 33  4  0  0  0
 32 33  4  0  0  0
  3 34  1  0  0  0
  3 35  1  0  0  0
  5 36  1  0  0  0
  6 37  1  0  0  0
  8 38  1  0  0  0
  8 39  1  0  0  0
  9 40  1  0  0  0
 12 41  1  0  0  0
 13 42  1  0  0  0
 13 43  1  0  0  0
 14 44  1  0  0  0
 15 45  1  0  0  0
 16 46  1  0  0  0
 16 47  1  0  0  0
 17 48  1  0  0  0
 17 49  1  0  0  0
 21 50  1  0  0  0
 21 51  1  0  0  0
 23 52  1  0  0  0
 23 53  1  0  0  0
 24 54  1  0  0  0
 24 55  1  0  0  0
 25 56  1  0  0  0
 25 57  1  0  0  0
 25 58  1  0  0  0
 26 59  1  0  0  0
 26 60  1  0  0  0
 26 61  1  0  0  0
 27 62  1  0  0  0
 28 63  1  0  0  0
 29 64  1  0  0  0
 29 65  1  0  0  0
 29 66  1  0  0  0
 30 67  1  0  0  0
 30 68  1  0  0  0
 30 69  1  0  0  0
 31 70  1  0  0  0
 32 71  1  0  0  0
 33 72  1  0  0  0
M  END
$$$$
