1v1k_ligand
  -I-interpret- 

 57 59  0  0  0  0  0  0  0  0999 V2000
   13.6820   -8.5830   13.3310 C   0  0  0  0  0
   11.9190  -10.3240   14.4390 N   0  0  0  0  0
   12.6230   -9.1040   12.5640 C   0  0  0  0  0
   14.2580   -5.4090    9.3020 C   0  0  0  0  0
   13.2990   -5.2970   10.3030 C   0  0  0  0  0
   13.4090   -6.0450   11.4740 C   0  0  0  0  0
   14.4870   -6.9260   11.6460 C   0  0  0  0  0
   11.7200  -10.0030   13.1650 C   0  0  0  0  0
    9.5630  -11.5030   10.5110 C   0  0  0  0  0
   10.1720  -10.4300   11.1890 C   0  0  0  0  0
   15.4470   -7.0190   10.6380 C   0  0  0  0  0
   15.3400   -6.2760    9.4650 C   0  0  0  0  0
    9.1030  -11.3750    9.1970 C   0  0  0  0  0
    9.2860  -10.5320    6.1020 C   0  0  0  0  0
    9.8250   -9.0790    9.2400 C   0  0  0  0  0
    9.2580  -10.1480    8.5420 C   0  0  0  0  0
   10.2890   -9.2010   10.5380 C   0  0  0  0  0
   12.9250   -9.8250   15.1460 C   0  0  0  0  0
   13.7980   -8.9810   14.6210 N   0  0  0  0  0
   14.6340   -7.6940   12.8110 N   0  0  0  0  0
   12.4700   -5.9310   12.4440 F   0  0  0  0  0
   10.6150  -10.5950   12.5240 N   0  0  0  0  0
    8.7970   -9.8710    7.2750 O   0  0  0  0  0
   16.4170   -6.4150    8.3870 C   0  0  0  0  0
   16.7700   -5.1930    7.7780 F   0  0  0  0  0
   17.5840   -6.8690    9.0030 F   0  0  0  0  0
   16.0260   -7.3450    7.3990 F   0  0  0  0  0
    8.5310   -9.8690    4.9180 C   0  0  0  0  0
    7.8630  -10.8470    3.9230 C   0  0  0  0  0
    5.8170  -11.4900    5.0570 C   0  0  0  0  0
    6.6690  -12.7830    3.3390 C   0  0  0  0  0
    7.0890  -11.9730    4.4970 N   0  3  0  0  0
    7.5400   -8.9230    5.3700 O   0  0  0  0  0
   12.5032   -8.8159   11.5196 H   0  0  0  0  0
   14.1648   -4.8196    8.3898 H   0  0  0  0  0
   12.4554   -4.6195   10.1709 H   0  0  0  0  0
    9.4472  -12.4579   11.0236 H   0  0  0  0  0
   16.2981   -7.6868   10.7713 H   0  0  0  0  0
    8.6313  -12.2173    8.6909 H   0  0  0  0  0
    9.1080  -11.6066    6.1417 H   0  0  0  0  0
   10.3661  -10.4257    6.0008 H   0  0  0  0  0
    9.9050   -8.1120    8.7434 H   0  0  0  0  0
   10.7400   -8.3483   11.0454 H   0  0  0  0  0
   13.0353  -10.1191   16.1898 H   0  0  0  0  0
   15.5099   -7.5973   13.3247 H   0  0  0  0  0
   10.0586  -11.2280   13.0985 H   0  0  0  0  0
    9.3272   -9.3612    4.3736 H   0  0  0  0  0
    8.6794  -11.3037    3.3635 H   0  0  0  0  0
    7.1451  -10.2513    3.3592 H   0  0  0  0  0
    6.0204  -10.7621    5.8424 H   0  0  0  0  0
    5.2291  -11.0206    4.2682 H   0  0  0  0  0
    5.2625  -12.3307    5.4738 H   0  0  0  0  0
    6.0574  -12.1736    2.6737 H   0  0  0  0  0
    7.5512  -13.1342    2.8037 H   0  0  0  0  0
    6.0890  -13.6380    3.6865 H   0  0  0  0  0
    7.6477  -12.4528    5.2027 H   0  0  0  0  0
    7.0977   -8.5371    4.6104 H   0  0  0  0  0
  3  1  4  0  0  0
  1 19  4  0  0  0
  1 20  1  0  0  0
  8  2  4  0  0  0
  2 18  4  0  0  0
  8  3  4  0  0  0
  5  4  4  0  0  0
 12  4  4  0  0  0
  6  5  4  0  0  0
  7  6  4  0  0  0
  6 21  1  0  0  0
  7 11  4  0  0  0
 20  7  1  0  0  0
 22  8  1  0  0  0
  9 10  4  0  0  0
 13  9  4  0  0  0
 17 10  4  0  0  0
 10 22  1  0  0  0
 11 12  4  0  0  0
 12 24  1  0  0  0
 16 13  4  0  0  0
 23 14  1  0  0  0
 14 28  1  0  0  0
 16 15  4  0  0  0
 15 17  4  0  0  0
 16 23  1  0  0  0
 18 19  4  0  0  0
 24 25  1  0  0  0
 24 26  1  0  0  0
 24 27  1  0  0  0
 28 29  1  0  0  0
 28 33  1  0  0  0
 29 32  1  0  0  0
 32 30  1  0  0  0
 32 31  1  0  0  0
  3 34  1  0  0  0
  4 35  1  0  0  0
  5 36  1  0  0  0
  9 37  1  0  0  0
 11 38  1  0  0  0
 13 39  1  0  0  0
 14 40  1  0  0  0
 14 41  1  0  0  0
 15 42  1  0  0  0
 17 43  1  0  0  0
 18 44  1  0  0  0
 20 45  1  0  0  0
 22 46  1  0  0  0
 28 47  1  0  0  0
 29 48  1  0  0  0
 29 49  1  0  0  0
 30 50  1  0  0  0
 30 51  1  0  0  0
 30 52  1  0  0  0
 31 53  1  0  0  0
 31 54  1  0  0  0
 31 55  1  0  0  0
 32 56  1  0  0  0
 33 57  1  0  0  0
M  END
$$$$
