3ffg_ligand
  -I-interpret- 

 74 80  0  0  0  0  0  0  0  0999 V2000
   36.6140   33.2620   19.7820 C   0  0  0  0  0
   36.7670   27.7520   14.2930 C   0  0  0  0  0
   36.8410   34.3820   22.1520 C   0  0  0  0  0
   33.5320   28.7330   15.2920 C   0  0  0  0  0
   38.6590   28.2940   12.7470 C   0  0  0  0  0
   35.4040   31.4060   17.9210 C   0  0  0  0  0
   34.9070   28.7900   15.4800 C   0  0  0  0  0
   33.2850   27.8510   14.2150 C   0  0  0  0  0
   39.0680   29.0040   11.5300 C   0  0  0  0  0
   35.5640   29.5850   16.4270 C   0  0  0  0  0
   38.9780   30.1660    9.7490 C   0  0  0  0  0
   35.3750   32.8400   17.6210 C   0  0  0  0  0
   37.2660   28.4250   13.1240 C   0  0  0  0  0
   33.4070   30.7870   16.6210 C   0  0  0  0  0
   38.9910   36.0160   21.2350 C   0  0  0  0  0
   38.5640   36.1660   22.6180 C   0  0  0  0  0
   39.0800   26.8010   14.7210 C   0  0  0  0  0
   38.3730   35.0780   20.3080 C   0  0  0  0  0
   36.6350   31.8220   20.0710 C   0  0  0  0  0
   35.9800   33.7680   18.5530 C   0  0  0  0  0
   39.5910   27.4790   13.5410 C   0  0  0  0  0
   37.4750   35.3360   23.0790 C   0  0  0  0  0
   37.6730   26.9410   15.0880 C   0  0  0  0  0
   36.0280   30.8860   19.1390 C   0  0  0  0  0
   37.2610   34.2260   20.7580 C   0  0  0  0  0
   32.6270   29.5410   16.1960 C   0  0  0  0  0
   32.2770   34.3020   22.9970 C   0  0  0  0  0
   33.3870   33.5270   23.6680 C   0  0  0  0  0
   34.0580   35.3290   22.1250 C   0  0  0  0  0
   32.7100   34.8070   21.6280 C   0  0  0  0  0
   35.7070   33.5390   22.7290 C   0  0  0  0  0
   31.9730   27.5320   13.5760 C   0  0  0  0  0
   34.4610   27.3890   13.7880 N   0  0  0  0  0
   40.2860   28.9960   10.9840 N   0  0  0  0  0
   35.4420   27.9580   14.5440 N   0  0  0  0  0
   38.2450   29.7700   10.7730 N   0  0  0  0  0
   40.2260   29.6870    9.9430 N   0  0  0  0  0
   34.8290   30.5730   17.0010 N   0  0  0  0  0
   34.5210   34.3170   23.1170 N   0  3  0  0  0
   36.7510   29.4060   16.7070 O   0  0  0  0  0
   38.5810   30.8410    8.7980 O   0  0  0  0  0
   31.8980   35.9070   21.1980 O   0  0  0  0  0
   31.0540   27.4860   14.5030 F   0  0  0  0  0
   31.7570   28.4830   12.6760 F   0  0  0  0  0
   32.0940   26.3880   12.9400 F   0  0  0  0  0
   34.9039   33.2034   16.7077 H   0  0  0  0  0
   36.5945   29.0352   12.5200 H   0  0  0  0  0
   32.9081   31.1697   17.5114 H   0  0  0  0  0
   33.4194   31.4487   15.7549 H   0  0  0  0  0
   39.8128   36.6354   20.8756 H   0  0  0  0  0
   39.0492   36.8801   23.2834 H   0  0  0  0  0
   39.7452   26.1895   15.3306 H   0  0  0  0  0
   38.7339   35.0072   19.2819 H   0  0  0  0  0
   37.1053   31.4556   20.9835 H   0  0  0  0  0
   35.9663   34.8380   18.3456 H   0  0  0  0  0
   40.6379   27.3858   13.2521 H   0  0  0  0  0
   37.1240   35.4151   24.1079 H   0  0  0  0  0
   37.2966   26.4284   15.9732 H   0  0  0  0  0
   36.0373   29.8154   19.3435 H   0  0  0  0  0
   32.3338   28.9559   17.0677 H   0  0  0  0  0
   31.7126   29.8206   15.6728 H   0  0  0  0  0
   32.0242   35.1594   23.6208 H   0  0  0  0  0
   31.4189   33.6420   22.8696 H   0  0  0  0  0
   33.4097   32.4556   23.4690 H   0  0  0  0  0
   33.3343   33.4606   24.7547 H   0  0  0  0  0
   33.9684   36.3199   22.5702 H   0  0  0  0  0
   34.7703   35.4503   21.3089 H   0  0  0  0  0
   32.6822   34.1059   20.7939 H   0  0  0  0  0
   36.0876   33.0586   23.6304 H   0  0  0  0  0
   35.3956   32.8407   21.9521 H   0  0  0  0  0
   37.2666   29.9932   10.9558 H   0  0  0  0  0
   41.0156   29.8653    9.3223 H   0  0  0  0  0
   34.8945   34.8518   23.9011 H   0  0  0  0  0
   32.1939   36.2032   20.3341 H   0  0  0  0  0
  1 19  4  0  0  0
  1 20  4  0  0  0
 25  1  1  0  0  0
  2 13  4  0  0  0
  2 23  4  0  0  0
 35  2  1  0  0  0
  3 22  4  0  0  0
  3 25  4  0  0  0
 31  3  1  0  0  0
  7  4  4  0  0  0
  4  8  4  0  0  0
 26  4  1  0  0  0
  5  9  1  0  0  0
 13  5  4  0  0  0
  5 21  4  0  0  0
 12  6  4  0  0  0
 24  6  4  0  0  0
  6 38  1  0  0  0
 10  7  1  0  0  0
  7 35  4  0  0  0
  8 32  1  0  0  0
  8 33  4  0  0  0
  9 34  2  0  0  0
  9 36  1  0  0  0
 38 10  1  0  0  0
 10 40  2  0  0  0
 36 11  1  0  0  0
 11 37  1  0  0  0
 11 41  2  0  0  0
 20 12  4  0  0  0
 14 26  1  0  0  0
 38 14  1  0  0  0
 16 15  4  0  0  0
 18 15  4  0  0  0
 22 16  4  0  0  0
 17 21  4  0  0  0
 23 17  4  0  0  0
 25 18  4  0  0  0
 19 24  4  0  0  0
 28 27  1  0  0  0
 30 27  1  0  0  0
 39 28  1  0  0  0
 29 30  1  0  0  0
 39 29  1  0  0  0
 30 42  1  0  0  0
 31 39  1  0  0  0
 32 43  1  0  0  0
 32 44  1  0  0  0
 32 45  1  0  0  0
 33 35  4  0  0  0
 34 37  1  0  0  0
 12 46  1  0  0  0
 13 47  1  0  0  0
 14 48  1  0  0  0
 14 49  1  0  0  0
 15 50  1  0  0  0
 16 51  1  0  0  0
 17 52  1  0  0  0
 18 53  1  0  0  0
 19 54  1  0  0  0
 20 55  1  0  0  0
 21 56  1  0  0  0
 22 57  1  0  0  0
 23 58  1  0  0  0
 24 59  1  0  0  0
 26 60  1  0  0  0
 26 61  1  0  0  0
 27 62  1  0  0  0
 27 63  1  0  0  0
 28 64  1  0  0  0
 28 65  1  0  0  0
 29 66  1  0  0  0
 29 67  1  0  0  0
 30 68  1  0  0  0
 31 69  1  0  0  0
 31 70  1  0  0  0
 36 71  1  0  0  0
 37 72  1  0  0  0
 39 73  1  0  0  0
 42 74  1  0  0  0
M  END
$$$$
