5tmp_ligand
  -I-interpret- 

 86 90  0  0  0  0  0  0  0  0999 V2000
   24.8300  100.6090   17.6250 N   0  0  0  0  0
   25.8020   99.7770   18.1640 C   0  0  0  0  0
   25.7460   99.3870   19.3310 O   0  0  0  0  0
   26.7930   99.3400   17.2530 N   0  0  0  0  0
   26.6890   99.4790   15.8470 C   0  0  0  0  0
   27.4850   98.9250   15.0980 O   0  0  0  0  0
   25.6490  100.3330   15.3660 C   0  0  0  0  0
   24.7850  100.8990   16.2530 C   0  0  0  0  0
   25.5690  100.6330   13.8470 C   0  0  0  0  0
   20.5790  102.5880   17.7280 C   0  0  0  0  0
   21.2390  103.3060   16.7350 O   0  0  0  0  0
   21.7040  101.9290   18.4960 C   0  0  0  0  0
   22.5950  101.1600   17.6420 O   0  0  0  0  0
   22.5490  102.7390   19.4510 C   0  0  0  0  0
   23.9110  102.3080   19.0590 C   0  0  0  0  0
   23.7320  100.9700   18.4870 C   0  0  0  0  0
   22.3430  102.2420   20.8140 N   0  0  0  0  0
   22.7990  102.9190   21.7370 N   0  0  0  0  0
   23.1510  103.4250   22.6750 N   0  0  0  0  0
   20.5170  104.1380   15.6090 P   0  0  0  0  0
   19.5160  103.3130   14.8790 O   0  0  0  0  0
   21.3720  105.0780   14.8310 O   0  0  0  0  0
   19.8240  104.9620   16.6090 O   0  0  0  0  0
   18.6590  105.9450   16.6280 P   0  0  0  0  0
   19.0540  107.0480   17.5400 O   0  0  0  0  0
   17.3590  105.2070   16.7690 O   0  0  0  0  0
   18.6140  106.5790   15.1800 O   0  0  0  0  0
   17.8820  107.7370   14.5000 P   0  0  0  0  0
   17.8190  107.5040   13.0530 O   0  0  0  0  0
   16.6530  107.9870   15.3210 O   0  0  0  0  0
   18.8420  108.9310   14.7940 O   0  0  0  0  0
   18.8090  110.4860   14.6860 P   0  0  0  0  0
   17.3960  110.8900   14.7580 O   0  0  0  0  0
   19.5840  110.7240   13.4640 O   0  0  0  0  0
   19.5140  111.1720   15.9470 O   0  0  0  0  0
   19.6130  112.6570   16.6440 P   0  0  0  0  0
   20.6360  112.5660   17.6960 O   0  0  0  0  0
   19.7390  113.7020   15.5920 O   0  0  0  0  0
   18.1990  112.9170   17.3640 O   0  0  0  0  0
   17.8250  112.2260   18.5350 C   0  0  0  0  0
   16.8740  112.9690   19.4230 C   0  0  0  0  0
   17.5200  114.0150   20.1710 O   0  0  0  0  0
   15.6490  113.6140   18.6280 C   0  0  0  0  0
   14.4870  113.5780   19.4780 O   0  0  0  0  0
   16.1420  115.0450   18.4360 C   0  0  0  0  0
   15.1160  116.0470   18.1960 O   0  0  0  0  0
   16.9690  115.2780   19.7200 C   0  0  0  0  0
   18.0260  116.2850   19.4850 N   0  0  0  0  0
   19.0670  116.3270   18.5740 C   0  0  0  0  0
   19.6880  117.4820   18.5530 N   0  0  0  0  0
   19.1400  118.1440   19.6700 C   0  0  0  0  0
   19.3950  119.4100   20.2710 C   0  0  0  0  0
   20.3650  120.2290   19.8350 N   0  0  0  0  0
   18.5690  119.8030   21.2910 N   0  0  0  0  0
   17.5680  118.9980   21.6550 C   0  0  0  0  0
   17.1790  117.8580   21.0830 N   0  0  0  0  0
   18.0120  117.5000   20.0920 C   0  0  0  0  0
   27.6315   98.8990   17.6310 H   0  0  0  0  0
   24.0348  101.5994   15.8858 H   0  0  0  0  0
   24.5926  100.3299   13.4690 H   0  0  0  0  0
   25.7086  101.7012   13.6811 H   0  0  0  0  0
   26.3497  100.0781   13.3267 H   0  0  0  0  0
   19.9584  103.2234   18.3599 H   0  0  0  0  0
   19.8723  101.8650   17.3205 H   0  0  0  0  0
   21.0978  101.3026   19.1504 H   0  0  0  0  0
   22.3475  103.8098   19.4204 H   0  0  0  0  0
   24.3642  102.9963   18.3456 H   0  0  0  0  0
   24.5930  102.2973   19.9092 H   0  0  0  0  0
   23.6471  100.2034   19.2572 H   0  0  0  0  0
   21.9650  105.5389   15.4289 H   0  0  0  0  0
   17.2973  104.5363   16.0850 H   0  0  0  0  0
   16.9033  108.1152   16.2389 H   0  0  0  0  0
   17.0429  110.6625   15.6212 H   0  0  0  0  0
   18.9999  113.6324   14.9833 H   0  0  0  0  0
   18.7355  112.0622   19.1115 H   0  0  0  0  0
   17.3173  111.3152   18.2177 H   0  0  0  0  0
   16.4954  112.2089   20.1064 H   0  0  0  0  0
   15.3742  113.1209   17.6956 H   0  0  0  0  0
   13.7402  113.9630   19.0136 H   0  0  0  0  0
   16.7153  115.1589   17.5160 H   0  0  0  0  0
   14.6473  115.8357   17.3853 H   0  0  0  0  0
   16.3226  115.6718   20.5043 H   0  0  0  0  0
   19.3428  115.4855   17.9384 H   0  0  0  0  0
   20.9502  119.9521   19.0468 H   0  0  0  0  0
   20.5169  121.1282   20.2919 H   0  0  0  0  0
   16.9974  119.3119   22.5291 H   0  0  0  0  0
  1 16  1  0  0  0
  1  8  1  0  0  0
  1  2  1  0  0  0
  2  4  1  0  0  0
  2  3  2  0  0  0
  4  5  1  0  0  0
  5  7  1  0  0  0
  5  6  2  0  0  0
  7  9  1  0  0  0
  7  8  2  0  0  0
 16 15  1  0  0  0
 16 13  1  0  0  0
 13 12  1  0  0  0
 12 14  1  0  0  0
 12 10  1  0  0  0
 10 11  1  0  0  0
 11 20  1  0  0  0
 20 23  1  0  0  0
 20 22  1  0  0  0
 20 21  2  0  0  0
 23 24  1  0  0  0
 24 27  1  0  0  0
 24 26  1  0  0  0
 24 25  2  0  0  0
 27 28  1  0  0  0
 28 31  1  0  0  0
 28 30  1  0  0  0
 28 29  2  0  0  0
 31 32  1  0  0  0
 32 35  1  0  0  0
 32 34  2  0  0  0
 32 33  1  0  0  0
 35 36  1  0  0  0
 36 39  1  0  0  0
 36 38  1  0  0  0
 36 37  2  0  0  0
 39 40  1  0  0  0
 40 41  1  0  0  0
 41 43  1  0  0  0
 41 42  1  0  0  0
 42 47  1  0  0  0
 47 48  1  0  0  0
 47 45  1  0  0  0
 45 46  1  0  0  0
 45 43  1  0  0  0
 43 44  1  0  0  0
 48 57  4  0  0  0
 48 49  4  0  0  0
 49 50  4  0  0  0
 50 51  4  0  0  0
 51 57  4  0  0  0
 51 52  4  0  0  0
 52 54  4  0  0  0
 52 53  1  0  0  0
 54 55  4  0  0  0
 55 56  4  0  0  0
 56 57  4  0  0  0
 14 17  1  0  0  0
 14 15  1  0  0  0
 17 18  2  0  0  0
 18 19  3  0  0  0
  4 58  1  0  0  0
  8 59  1  0  0  0
  9 60  1  0  0  0
  9 61  1  0  0  0
  9 62  1  0  0  0
 10 63  1  0  0  0
 10 64  1  0  0  0
 12 65  1  0  0  0
 14 66  1  0  0  0
 15 67  1  0  0  0
 15 68  1  0  0  0
 16 69  1  0  0  0
 22 70  1  0  0  0
 26 71  1  0  0  0
 30 72  1  0  0  0
 33 73  1  0  0  0
 38 74  1  0  0  0
 40 75  1  0  0  0
 40 76  1  0  0  0
 41 77  1  0  0  0
 43 78  1  0  0  0
 44 79  1  0  0  0
 45 80  1  0  0  0
 46 81  1  0  0  0
 47 82  1  0  0  0
 49 83  1  0  0  0
 53 84  1  0  0  0
 53 85  1  0  0  0
 55 86  1  0  0  0
M  END
$$$$
