1ing_ligand
  -I-interpret- 

 30 30  0  0  0  0  0  0  0  0999 V2000
   49.1170   23.6840  -20.5200 C   0  0  0  0  0
   49.0720   23.8560  -19.2830 O   0  0  0  0  0
   49.9160   24.3120  -21.2490 O   0  0  0  0  0
   48.2720   22.7390  -21.1080 C   0  0  0  0  0
   48.0070   22.7710  -22.4760 C   0  0  0  0  0
   47.1870   21.8180  -23.0800 C   0  0  0  0  0
   46.8880   21.9360  -24.4280 N   0  0  0  0  0
   46.2500   23.0170  -24.8760 C   0  0  0  0  0
   45.3990   23.6120  -24.2160 O   0  0  0  0  0
   46.5820   23.4910  -26.2740 C   0  0  0  0  0
   45.8390   24.6660  -26.5730 O   0  0  0  0  0
   46.6210   20.8020  -22.2960 C   0  0  0  0  0
   45.8390   19.8040  -22.8530 N   0  0  0  0  0
   46.3160   18.9890  -23.7950 C   0  0  0  0  0
   47.4860   19.0580  -24.1850 O   0  0  0  0  0
   45.4180   17.9120  -24.3710 C   0  0  0  0  0
   46.8820   20.7720  -20.9330 C   0  0  0  0  0
   47.6990   21.7270  -20.3470 C   0  0  0  0  0
   49.7958   24.0403  -22.1619 H   0  0  0  0  0
   48.4500   23.5576  -23.0868 H   0  0  0  0  0
   47.1560   21.1960  -25.0769 H   0  0  0  0  0
   46.3253   22.7102  -26.9899 H   0  0  0  0  0
   47.6474   23.7126  -26.3360 H   0  0  0  0  0
   46.0537   24.9618  -27.4607 H   0  0  0  0  0
   44.8764   19.6896  -22.5357 H   0  0  0  0  0
   45.3425   18.0426  -25.4505 H   0  0  0  0  0
   45.8412   16.9319  -24.1510 H   0  0  0  0  0
   44.4269   17.9898  -23.9241 H   0  0  0  0  0
   46.4399   19.9892  -20.3166 H   0  0  0  0  0
   47.8944   21.6834  -19.2755 H   0  0  0  0  0
  4  1  1  0  0  0
  1  3  1  0  0  0
  1  2  2  0  0  0
  4 18  4  0  0  0
  4  5  4  0  0  0
  5  6  4  0  0  0
  6 12  4  0  0  0
  6  7  1  0  0  0
  7  8  1  0  0  0
  8 10  1  0  0  0
  8  9  2  0  0  0
 10 11  1  0  0  0
 12 17  4  0  0  0
 12 13  1  0  0  0
 13 14  1  0  0  0
 14 16  1  0  0  0
 14 15  2  0  0  0
 17 18  4  0  0  0
  3 19  1  0  0  0
  5 20  1  0  0  0
  7 21  1  0  0  0
 10 22  1  0  0  0
 10 23  1  0  0  0
 11 24  1  0  0  0
 13 25  1  0  0  0
 16 26  1  0  0  0
 16 27  1  0  0  0
 16 28  1  0  0  0
 17 29  1  0  0  0
 18 30  1  0  0  0
M  END
$$$$
