6pgp_ligand
  -I-interpret- 

 69 73  0  0  0  0  0  0  0  0999 V2000
    5.9070    0.2710  -12.9140 C   0  0  0  0  0
    4.4840   -0.1810  -13.2180 C   0  0  0  0  0
    4.4360   -1.0110  -14.5160 C   0  0  0  0  0
    3.5980    1.0760  -13.3310 C   0  0  0  0  0
    3.8440    2.0600  -14.2990 C   0  0  0  0  0
    3.0300    3.1850  -14.3650 C   0  0  0  0  0
    1.9780    3.3590  -13.4730 C   0  0  0  0  0
    1.7390    2.3850  -12.5070 C   0  0  0  0  0
    2.5470    1.2520  -12.4410 C   0  0  0  0  0
    2.2560    0.3080  -11.4330 N   0  0  0  0  0
    2.7130    0.4800  -10.1130 C   0  0  0  0  0
    3.5010    1.5830   -9.7760 C   0  0  0  0  0
    1.4610   -0.7890  -11.7460 C   0  0  0  0  0
    1.0600   -0.9280  -12.9050 O   0  0  0  0  0
    1.1470   -1.6900  -10.8040 N   0  0  0  0  0
    1.5640   -1.5690   -9.5280 C   0  0  0  0  0
    1.1810   -2.5930   -8.6520 N   0  0  0  0  0
    2.0940   -3.0130   -7.5790 C   0  0  0  0  0
    2.0610   -4.5140   -7.3550 C   0  0  0  0  0
   -0.0370   -3.3850   -8.9530 C   0  0  0  0  0
   -0.4790   -4.2560   -7.7880 C   0  0  0  0  0
    0.6590   -4.9850   -7.1690 N   0  0  0  0  0
    0.4370   -6.0740   -6.4330 C   0  0  0  0  0
    1.3800   -6.6800   -5.9240 O   0  0  0  0  0
   -0.9890   -6.5900   -6.2410 C   0  0  0  0  0
   -1.1630   -7.9090   -6.9920 C   0  0  0  0  0
    2.3630   -0.4690   -9.1520 C   0  0  0  0  0
    2.8290   -0.2810   -7.8550 C   0  0  0  0  0
    3.6110    0.8290   -7.5210 C   0  0  0  0  0
    4.1360    0.9940   -5.8890 Cl  0  0  0  0  0
    3.9660    1.7810   -8.4820 C   0  0  0  0  0
    4.7690    2.9100   -8.2210 C   0  0  0  0  0
    6.1290    2.7630   -7.8960 C   0  0  0  0  0
    6.6920    1.5450   -7.7870 F   0  0  0  0  0
    6.9270    3.8830   -7.6500 C   0  0  0  0  0
    6.3940    5.1600   -7.7510 C   0  0  0  0  0
    5.0520    5.3220   -8.0860 C   0  0  0  0  0
    4.2520    4.2040   -8.3290 C   0  0  0  0  0
    2.9510    4.3900   -8.6600 O   0  0  0  0  0
    6.2634    0.9119  -13.7204 H   0  0  0  0  0
    5.9181    0.8254  -11.9756 H   0  0  0  0  0
    6.5539   -0.6022  -12.8293 H   0  0  0  0  0
    4.1168   -0.8226  -12.4170 H   0  0  0  0  0
    3.4095   -1.3229  -14.7085 H   0  0  0  0  0
    4.7946   -0.4041  -15.3473 H   0  0  0  0  0
    5.0701   -1.8909  -14.4068 H   0  0  0  0  0
    4.6718    1.9431  -14.9984 H   0  0  0  0  0
    3.2192    3.9413  -15.1268 H   0  0  0  0  0
    1.3481    4.2468  -13.5291 H   0  0  0  0  0
    0.9180    2.5093  -11.8009 H   0  0  0  0  0
    3.7579    2.3075  -10.5488 H   0  0  0  0  0
    1.7809   -2.5248   -6.6561 H   0  0  0  0  0
    3.1077   -2.7348   -7.8672 H   0  0  0  0  0
    2.6352   -4.7505   -6.4592 H   0  0  0  0  0
    2.4883   -5.0109   -8.2260 H   0  0  0  0  0
    0.1920   -4.0421   -9.7919 H   0  0  0  0  0
   -0.8439   -2.6852   -9.1705 H   0  0  0  0  0
   -1.1887   -4.9923   -8.1651 H   0  0  0  0  0
   -0.9206   -3.6096   -7.0296 H   0  0  0  0  0
   -1.6949   -5.8562   -6.6301 H   0  0  0  0  0
   -1.1758   -6.7507   -5.1792 H   0  0  0  0  0
   -0.9753   -7.7486   -8.0537 H   0  0  0  0  0
   -0.4566   -8.6427   -6.6036 H   0  0  0  0  0
   -2.1808   -8.2735   -6.8526 H   0  0  0  0  0
    2.5802   -1.0118   -7.0855 H   0  0  0  0  0
    7.9743    3.7529   -7.3772 H   0  0  0  0  0
    7.0224    6.0319   -7.5691 H   0  0  0  0  0
    4.6259    6.3226   -8.1585 H   0  0  0  0  0
    2.7611    5.3305   -8.6907 H   0  0  0  0  0
  1  2  1  0  0  0
  2  3  1  0  0  0
  2  4  1  0  0  0
  4  5  4  0  0  0
  4  9  4  0  0  0
  5  6  4  0  0  0
  6  7  4  0  0  0
  7  8  4  0  0  0
  8  9  4  0  0  0
  9 10  1  0  0  0
 10 11  1  0  0  0
 10 13  1  0  0  0
 11 12  4  0  0  0
 11 27  4  0  0  0
 12 31  4  0  0  0
 13 14  2  0  0  0
 13 15  1  0  0  0
 15 16  2  0  0  0
 16 17  1  0  0  0
 16 27  1  0  0  0
 17 18  1  0  0  0
 17 20  1  0  0  0
 18 19  1  0  0  0
 19 22  1  0  0  0
 20 21  1  0  0  0
 21 22  1  0  0  0
 22 23  1  0  0  0
 23 24  2  0  0  0
 23 25  1  0  0  0
 25 26  1  0  0  0
 27 28  4  0  0  0
 28 29  4  0  0  0
 29 30  1  0  0  0
 29 31  4  0  0  0
 31 32  1  0  0  0
 32 33  4  0  0  0
 32 38  4  0  0  0
 33 34  1  0  0  0
 33 35  4  0  0  0
 35 36  4  0  0  0
 36 37  4  0  0  0
 37 38  4  0  0  0
 38 39  1  0  0  0
  1 40  1  0  0  0
  1 41  1  0  0  0
  1 42  1  0  0  0
  2 43  1  0  0  0
  3 44  1  0  0  0
  3 45  1  0  0  0
  3 46  1  0  0  0
  5 47  1  0  0  0
  6 48  1  0  0  0
  7 49  1  0  0  0
  8 50  1  0  0  0
 12 51  1  0  0  0
 18 52  1  0  0  0
 18 53  1  0  0  0
 19 54  1  0  0  0
 19 55  1  0  0  0
 20 56  1  0  0  0
 20 57  1  0  0  0
 21 58  1  0  0  0
 21 59  1  0  0  0
 25 60  1  0  0  0
 25 61  1  0  0  0
 26 62  1  0  0  0
 26 63  1  0  0  0
 26 64  1  0  0  0
 28 65  1  0  0  0
 35 66  1  0  0  0
 36 67  1  0  0  0
 37 68  1  0  0  0
 39 69  1  0  0  0
M  END
$$$$
