1str_ligand
  -I-interpret- 

 95 96  0  0  0  0  0  0  0  0999 V2000
   17.6770   -2.2200   21.3980 C   0  0  0  0  0
   16.7060   -1.5320   21.7330 O   0  0  0  0  0
   17.5430   -3.7360   21.3210 C   0  0  0  0  0
   18.8400   -1.6640   21.0510 N   0  0  0  0  0
   18.9840   -0.2160   21.0570 C   0  0  0  0  0
   20.2410    0.4240   20.4650 C   0  0  0  0  0
   21.4250    0.1810   20.7530 O   0  0  0  0  0
   18.8880    0.3650   22.4510 C   0  0  0  0  0
   20.3070   -0.4020   23.2490 S   0  0  0  0  0
   19.8680    1.1490   19.4410 N   0  0  0  0  0
   20.7680    2.0060   18.7240 C   0  0  0  0  0
   19.7310    3.1570   18.6150 C   0  0  0  0  0
   18.5170    2.8830   18.4750 O   0  0  0  0  0
   21.2080    1.4720   17.3320 C   0  0  0  0  0
   22.0630    2.5630   16.6530 C   0  0  0  0  0
   21.4950    3.6170   16.0740 N   0  0  0  0  0
   23.4140    2.7350   16.8090 C   0  0  0  0  0
   22.4940    4.4550   15.8840 C   0  0  0  0  0
   23.6170    3.9270   16.3180 N   0  0  0  0  0
   20.0620    4.4660   18.7680 N   0  0  0  0  0
   19.0800    5.5310   18.7020 C   0  0  0  0  0
   18.3700    5.6830   17.3740 C   0  0  0  0  0
   17.2620    6.1990   17.3390 O   0  0  0  0  0
   19.8470    6.7740   19.0540 C   0  0  0  0  0
   21.1280    6.3430   19.6490 C   0  0  0  0  0
   21.3990    5.0270   19.0270 C   0  0  0  0  0
   18.9820    5.2420   16.2650 N   0  0  0  0  0
   18.4180    5.4150   14.9380 C   0  0  0  0  0
   17.0130    4.9100   14.7310 C   0  0  0  0  0
   16.2540    5.5840   14.0350 O   0  0  0  0  0
   19.3160    4.7700   13.9030 C   0  0  0  0  0
   18.9000    5.2390   12.4940 C   0  0  0  0  0
   19.9080    4.8800   11.4390 C   0  0  0  0  0
   21.1010    5.1020   11.6670 O   0  0  0  0  0
   19.4790    4.2930   10.3160 N   0  0  0  0  0
   16.6090    3.7520   15.2060 N   0  0  0  0  0
   15.2460    3.4060   14.9540 C   0  0  0  0  0
   14.8340    2.7290   16.1970 C   0  0  0  0  0
   15.6210    2.0070   16.8170 O   0  0  0  0  0
   15.1010    2.4780   13.7640 C   0  0  0  0  0
   15.0710    3.2400   12.4320 C   0  0  0  0  0
   14.1440    3.9800   12.0700 O   0  0  0  0  0
   16.0970    3.0280   11.6250 N   0  0  0  0  0
   13.5900    3.1180   16.4820 N   0  0  0  0  0
   12.7310    2.7450   17.6060 C   0  0  0  0  0
   13.4530    2.6730   18.9510 C   0  0  0  0  0
   14.2680    3.5530   19.2580 O   0  0  0  0  0
   11.9820    1.3940   17.1650 C   0  0  0  0  0
   10.9010    1.2270   18.0920 O   0  0  0  0  0
   12.8820    0.1320   17.1110 C   0  0  0  0  0
   13.2140    1.6980   19.8240 N   0  0  0  0  0
   17.2675   -4.1254   22.3011 H   0  0  0  0  0
   16.7716   -3.9949   20.5958 H   0  0  0  0  0
   18.4945   -4.1683   21.0112 H   0  0  0  0  0
   19.6273   -2.2539   20.7818 H   0  0  0  0  0
   18.1557    0.0262   20.3911 H   0  0  0  0  0
   17.9402    0.1585   22.9482 H   0  0  0  0  0
   18.9072    1.4546   22.4746 H   0  0  0  0  0
   20.3777    0.0070   24.5126 H   0  0  0  0  0
   18.8947    1.1027   19.1395 H   0  0  0  0  0
   21.7426    2.1983   19.1727 H   0  0  0  0  0
   20.3339    1.2438   16.7221 H   0  0  0  0  0
   21.7868    0.5553   17.4454 H   0  0  0  0  0
   24.1407    2.0451   17.2381 H   0  0  0  0  0
   22.4025    5.4428   15.4324 H   0  0  0  0  0
   18.2593    5.3102   19.3845 H   0  0  0  0  0
   19.2835    7.3862   19.7581 H   0  0  0  0  0
   20.0214    7.3817   18.1661 H   0  0  0  0  0
   21.0735    6.2787   20.7357 H   0  0  0  0  0
   21.9285    7.0580   19.4594 H   0  0  0  0  0
   21.9968    4.3831   19.6721 H   0  0  0  0  0
   21.9902    5.1173   18.1157 H   0  0  0  0  0
   19.8794    4.7661   16.3573 H   0  0  0  0  0
   18.3575    6.4973   14.8236 H   0  0  0  0  0
   19.2220    3.6859   13.9666 H   0  0  0  0  0
   20.3503    5.0584   14.0903 H   0  0  0  0  0
   18.8128    6.3253   12.5162 H   0  0  0  0  0
   17.9620    4.7446   12.2412 H   0  0  0  0  0
   20.1489    4.0074    9.6018 H   0  0  0  0  0
   18.4820    4.1311   10.1739 H   0  0  0  0  0
   17.2339    3.1354   15.7253 H   0  0  0  0  0
   14.6382    4.2766   14.7076 H   0  0  0  0  0
   14.1587    1.9400   13.8673 H   0  0  0  0  0
   15.9604    1.8076   13.7510 H   0  0  0  0  0
   16.1245    3.4726   10.7074 H   0  0  0  0  0
   16.8608    2.4198   11.9201 H   0  0  0  0  0
   13.1766    3.7724   15.8178 H   0  0  0  0  0
   11.9984    3.5267   17.8069 H   0  0  0  0  0
   11.6418    1.4977   16.1346 H   0  0  0  0  0
   10.4148    0.4283   17.8744 H   0  0  0  0  0
   13.6867    0.2917   16.3934 H   0  0  0  0  0
   13.3053   -0.0534   18.0982 H   0  0  0  0  0
   12.2843   -0.7261   16.8036 H   0  0  0  0  0
   13.6978    1.6875   20.7219 H   0  0  0  0  0
   12.5470    0.9609   19.5954 H   0  0  0  0  0
  1  2  2  0  0  0
  1  3  1  0  0  0
  6  5  1  0  0  0
  5  8  1  0  0  0
  5  4  1  0  0  0
  8  9  1  0  0  0
  6  7  2  0  0  0
 12 11  1  0  0  0
 11 14  1  0  0  0
 11 10  1  0  0  0
 14 15  1  0  0  0
 15 17  4  0  0  0
 15 16  4  0  0  0
 16 18  4  0  0  0
 18 19  4  0  0  0
 17 19  4  0  0  0
 12 13  2  0  0  0
 21 20  1  0  0  0
 21 24  1  0  0  0
 22 21  1  0  0  0
 22 23  2  0  0  0
 24 25  1  0  0  0
 25 26  1  0  0  0
 20 26  1  0  0  0
 29 28  1  0  0  0
 28 31  1  0  0  0
 28 27  1  0  0  0
 31 32  1  0  0  0
 32 33  1  0  0  0
 33 34  2  0  0  0
 33 35  1  0  0  0
 29 30  2  0  0  0
 38 37  1  0  0  0
 37 40  1  0  0  0
 37 36  1  0  0  0
 40 41  1  0  0  0
 41 42  2  0  0  0
 41 43  1  0  0  0
 38 39  2  0  0  0
 45 46  1  0  0  0
 45 48  1  0  0  0
 44 45  1  0  0  0
 48 49  1  0  0  0
 48 50  1  0  0  0
 46 47  2  0  0  0
  4  1  1  0  0  0
 10  6  1  0  0  0
 20 12  1  0  0  0
 27 22  1  0  0  0
 36 29  1  0  0  0
 44 38  1  0  0  0
 46 51  1  0  0  0
  3 52  1  0  0  0
  3 53  1  0  0  0
  3 54  1  0  0  0
  4 55  1  0  0  0
  5 56  1  0  0  0
  8 57  1  0  0  0
  8 58  1  0  0  0
  9 59  1  0  0  0
 10 60  1  0  0  0
 11 61  1  0  0  0
 14 62  1  0  0  0
 14 63  1  0  0  0
 17 64  1  0  0  0
 18 65  1  0  0  0
 21 66  1  0  0  0
 24 67  1  0  0  0
 24 68  1  0  0  0
 25 69  1  0  0  0
 25 70  1  0  0  0
 26 71  1  0  0  0
 26 72  1  0  0  0
 27 73  1  0  0  0
 28 74  1  0  0  0
 31 75  1  0  0  0
 31 76  1  0  0  0
 32 77  1  0  0  0
 32 78  1  0  0  0
 35 79  1  0  0  0
 35 80  1  0  0  0
 36 81  1  0  0  0
 37 82  1  0  0  0
 40 83  1  0  0  0
 40 84  1  0  0  0
 43 85  1  0  0  0
 43 86  1  0  0  0
 44 87  1  0  0  0
 45 88  1  0  0  0
 48 89  1  0  0  0
 49 90  1  0  0  0
 50 91  1  0  0  0
 50 92  1  0  0  0
 50 93  1  0  0  0
 51 94  1  0  0  0
 51 95  1  0  0  0
M  END
$$$$
