5uis_ligand
  -I-interpret- 

 48 50  0  0  0  0  0  0  0  0999 V2000
   18.8800    5.6420    3.7520 C   0  0  0  0  0
   19.3870    5.4860    2.4340 C   0  0  0  0  0
   18.0780    6.9510    5.6280 C   0  0  0  0  0
   18.9460    3.2190    4.0020 C   0  0  0  0  0
   18.3390   10.1200    2.6100 C   0  0  0  0  0
   19.5630   10.1050    1.6980 C   0  0  0  0  0
   18.5710    6.8990    4.3440 C   0  0  0  0  0
   18.5740    9.3480    3.8920 C   0  0  0  0  0
   22.1550    4.5520   -0.6380 C   0  0  0  0  0
   20.9080    5.1060   -0.0290 C   0  0  0  0  0
   19.8080    5.3220   -1.0180 C   0  0  0  0  0
   20.4440    4.0330    0.8210 O   0  0  0  0  0
   19.7180    4.2440    1.9720 C   0  0  0  0  0
   17.9230    5.7590    6.3170 C   0  0  0  0  0
   18.1980    4.5580    5.8340 N   0  0  0  0  0
   18.6720    4.4920    4.5480 C   0  0  0  0  0
   19.4470    3.0880    2.7280 C   0  0  0  0  0
   19.7160    1.6770    2.2900 C   0  0  0  0  0
   19.1900    0.7400    2.9010 O   0  0  0  0  0
   20.4350    1.4750    1.1800 N   0  0  0  0  0
   18.7900    7.9670    3.5040 O   0  0  0  0  0
   20.7510   10.6120    2.4620 C   0  0  0  0  0
   20.9590    9.7440    3.6300 N   0  3  0  0  0
   19.8450    9.8220    4.5760 C   0  0  0  0  0
   19.5118    6.3576    1.7914 H   0  0  0  0  0
   17.8169    7.9032    6.0898 H   0  0  0  0  0
   18.7576    2.3268    4.5992 H   0  0  0  0  0
   17.5122    9.6504    2.0771 H   0  0  0  0  0
   18.1227   11.1558    2.8717 H   0  0  0  0  0
   19.3836   10.7436    0.8331 H   0  0  0  0  0
   19.7535    9.0875    1.3568 H   0  0  0  0  0
   17.7288    9.4807    4.5674 H   0  0  0  0  0
   21.9357    3.5891   -1.0994 H   0  0  0  0  0
   22.5262    5.2430   -1.3949 H   0  0  0  0  0
   22.9095    4.4212    0.1377 H   0  0  0  0  0
   21.1275    6.0622    0.4459 H   0  0  0  0  0
   20.1403    6.0257   -1.7812 H   0  0  0  0  0
   19.5499    4.3719   -1.4857 H   0  0  0  0  0
   18.9345    5.7254   -0.5057 H   0  0  0  0  0
   17.5446    5.8149    7.3377 H   0  0  0  0  0
   20.5600    0.5295    0.8183 H   0  0  0  0  0
   20.8582    2.2665    0.6954 H   0  0  0  0  0
   20.5746   11.6374    2.7870 H   0  0  0  0  0
   21.6360   10.5985    1.8259 H   0  0  0  0  0
   21.8060   10.0506    4.1085 H   0  0  0  0  0
   21.0327    8.7808    3.3026 H   0  0  0  0  0
   20.0533    9.1897    5.4391 H   0  0  0  0  0
   19.7189   10.8525    4.9082 H   0  0  0  0  0
  2  1  4  0  0  0
  1  7  4  0  0  0
  1 16  4  0  0  0
 13  2  4  0  0  0
  7  3  4  0  0  0
  3 14  4  0  0  0
 16  4  4  0  0  0
  4 17  4  0  0  0
  5  6  1  0  0  0
  8  5  1  0  0  0
  6 22  1  0  0  0
  7 21  1  0  0  0
 21  8  1  0  0  0
  8 24  1  0  0  0
 10  9  1  0  0  0
 10 11  1  0  0  0
 12 10  1  0  0  0
 12 13  1  0  0  0
 13 17  4  0  0  0
 14 15  4  0  0  0
 15 16  4  0  0  0
 17 18  1  0  0  0
 18 19  2  0  0  0
 18 20  1  0  0  0
 22 23  1  0  0  0
 23 24  1  0  0  0
  2 25  1  0  0  0
  3 26  1  0  0  0
  4 27  1  0  0  0
  5 28  1  0  0  0
  5 29  1  0  0  0
  6 30  1  0  0  0
  6 31  1  0  0  0
  8 32  1  0  0  0
  9 33  1  0  0  0
  9 34  1  0  0  0
  9 35  1  0  0  0
 10 36  1  0  0  0
 11 37  1  0  0  0
 11 38  1  0  0  0
 11 39  1  0  0  0
 14 40  1  0  0  0
 20 41  1  0  0  0
 20 42  1  0  0  0
 22 43  1  0  0  0
 22 44  1  0  0  0
 23 45  1  0  0  0
 23 46  1  0  0  0
 24 47  1  0  0  0
 24 48  1  0  0  0
M  END
$$$$
