4a6s_ligand
  -I-interpret- 

 40 42  0  0  0  0  0  0  0  0999 V2000
   13.6040   15.0270   67.2280 C   0  0  0  0  0
   13.8860   15.1620   65.8200 O   0  0  0  0  0
   13.2460   16.6800   67.9720 S   0  0  0  0  0
   12.3860   14.1540   67.2590 C   0  0  0  0  0
   11.9220   14.0320   68.5930 O   0  0  0  0  0
   12.8210   12.7760   66.7370 C   0  0  0  0  0
   11.6700   11.9540   66.8610 O   0  0  0  0  0
   13.2930   12.8730   65.2840 C   0  0  0  0  0
   12.1530   13.1410   64.4550 O   0  0  0  0  0
   14.3530   13.9840   65.1440 C   0  0  0  0  0
   14.7730   18.3620   69.2040 C   0  0  0  0  0
   15.7550   15.3480   63.7350 O   0  0  0  0  0
   14.6070   14.4570   63.7160 C   0  0  0  0  0
   16.0120   18.8910   69.5790 C   0  0  0  0  0
   14.7050   17.2410   68.3540 C   0  0  0  0  0
   15.8780   16.5940   67.9130 C   0  0  0  0  0
   17.1240   17.0760   68.2910 C   0  0  0  0  0
   17.2100   18.2790   69.1510 C   0  0  0  0  0
   18.4660   18.7900   69.5590 C   0  0  0  0  0
   19.6160   18.1260   69.1140 C   0  0  0  0  0
   19.5280   17.0070   68.2720 C   0  0  0  0  0
   18.3000   16.4530   67.8610 C   0  0  0  0  0
   14.4362   14.6105   67.7955 H   0  0  0  0  0
   11.5830   14.5725   66.6523 H   0  0  0  0  0
   11.6510   14.8943   68.9165 H   0  0  0  0  0
   13.6626   12.3675   67.2964 H   0  0  0  0  0
   11.4030   11.9161   67.7823 H   0  0  0  0  0
   13.7543   11.9359   64.9724 H   0  0  0  0  0
   11.5095   12.4364   64.5602 H   0  0  0  0  0
   15.2644   13.5427   65.5474 H   0  0  0  0  0
   13.8547   18.8198   69.5716 H   0  0  0  0  0
   15.9327   15.6581   62.8440 H   0  0  0  0  0
   13.7313   14.9796   63.3312 H   0  0  0  0  0
   14.8032   13.6041   63.0663 H   0  0  0  0  0
   16.0530   19.7817   70.2059 H   0  0  0  0  0
   15.8062   15.7138   67.2741 H   0  0  0  0  0
   18.5354   19.6704   70.1978 H   0  0  0  0  0
   20.5965   18.4847   69.4272 H   0  0  0  0  0
   20.4510   16.5460   67.9204 H   0  0  0  0  0
   18.2672   15.5665   67.2276 H   0  0  0  0  0
  1  2  1  0  0  0
  3  1  1  0  0  0
  1  4  1  0  0  0
  2 10  1  0  0  0
 15  3  1  0  0  0
  4  5  1  0  0  0
  4  6  1  0  0  0
  6  7  1  0  0  0
  6  8  1  0  0  0
  8  9  1  0  0  0
 10  8  1  0  0  0
 10 13  1  0  0  0
 11 14  4  0  0  0
 11 15  4  0  0  0
 13 12  1  0  0  0
 14 18  4  0  0  0
 15 16  4  0  0  0
 16 17  4  0  0  0
 17 18  4  0  0  0
 17 22  4  0  0  0
 18 19  4  0  0  0
 19 20  4  0  0  0
 20 21  4  0  0  0
 21 22  4  0  0  0
  1 23  1  0  0  0
  4 24  1  0  0  0
  5 25  1  0  0  0
  6 26  1  0  0  0
  7 27  1  0  0  0
  8 28  1  0  0  0
  9 29  1  0  0  0
 10 30  1  0  0  0
 11 31  1  0  0  0
 12 32  1  0  0  0
 13 33  1  0  0  0
 13 34  1  0  0  0
 14 35  1  0  0  0
 16 36  1  0  0  0
 19 37  1  0  0  0
 20 38  1  0  0  0
 21 39  1  0  0  0
 22 40  1  0  0  0
M  END
$$$$
