3fty_ligand
  -I-interpret- 

 27 28  0  0  0  0  0  0  0  0999 V2000
   23.8930    1.7210    1.1220 N   0  0  0  0  0
   23.7380    1.4650    2.4410 C   0  0  0  0  0
   22.9250    2.2560    3.1830 N   0  0  0  0  0
   22.7220    2.0690    4.4920 C   0  0  0  0  0
   23.3660    1.0310    5.1340 C   0  0  0  0  0
   24.1990    0.2040    4.3920 C   0  0  0  0  0
   24.4110    0.4010    3.0310 C   0  0  0  0  0
   25.2760   -0.4310    2.3280 O   0  0  0  0  0
   25.3510   -0.4470    0.8890 C   0  0  0  0  0
   26.6530   -0.0240    0.2150 C   0  0  0  0  0
   27.8790   -0.0240    0.8770 C   0  0  0  0  0
   29.0440    0.3650    0.1980 C   0  0  0  0  0
   29.0150    0.7410   -1.1460 C   0  0  0  0  0
   27.7930    0.7250   -1.8140 C   0  0  0  0  0
   26.6260    0.3480   -1.1390 C   0  0  0  0  0
   23.4000    2.5042    0.6931 H   0  0  0  0  0
   24.5029    1.1308    0.5562 H   0  0  0  0  0
   22.0549    2.7296    5.0457 H   0  0  0  0  0
   23.2237    0.8637    6.2016 H   0  0  0  0  0
   24.7019   -0.6245    4.8908 H   0  0  0  0  0
   24.6125    0.2841    0.5599 H   0  0  0  0  0
   25.2162   -1.4923    0.6111 H   0  0  0  0  0
   27.9333   -0.3263    1.9228 H   0  0  0  0  0
   29.9938    0.3737    0.7327 H   0  0  0  0  0
   29.9279    1.0403   -1.6609 H   0  0  0  0  0
   27.7452    1.0069   -2.8658 H   0  0  0  0  0
   25.6770    0.3431   -1.6752 H   0  0  0  0  0
  1  2  1  0  0  0
  2  3  4  0  0  0
  2  7  4  0  0  0
  3  4  4  0  0  0
  4  5  4  0  0  0
  5  6  4  0  0  0
  6  7  4  0  0  0
  7  8  1  0  0  0
  8  9  1  0  0  0
  9 10  1  0  0  0
 10 11  4  0  0  0
 10 15  4  0  0  0
 11 12  4  0  0  0
 12 13  4  0  0  0
 13 14  4  0  0  0
 14 15  4  0  0  0
  1 16  1  0  0  0
  1 17  1  0  0  0
  4 18  1  0  0  0
  5 19  1  0  0  0
  6 20  1  0  0  0
  9 21  1  0  0  0
  9 22  1  0  0  0
 11 23  1  0  0  0
 12 24  1  0  0  0
 13 25  1  0  0  0
 14 26  1  0  0  0
 15 27  1  0  0  0
M  END
$$$$
