5hrw_ligand
  -I-interpret- 

 28 30  0  0  0  0  0  0  0  0999 V2000
   14.8500   -9.5440   -7.7270 C   0  0  0  0  0
   14.2900   -9.5950   -9.0090 C   0  0  0  0  0
   14.5330   -8.6220   -9.9920 C   0  0  0  0  0
   13.9360   -8.6570  -11.2670 C   0  0  0  0  0
   13.0490   -9.6780  -11.5620 C   0  0  0  0  0
   12.7710  -10.6580  -10.6010 C   0  0  0  0  0
   13.3900  -10.6340   -9.3300 C   0  0  0  0  0
   13.1110  -11.6470   -8.3910 C   0  0  0  0  0
   12.3560  -12.6010   -8.6070 O   0  0  0  0  0
   13.6780  -11.5820   -7.1450 O   0  0  0  0  0
   14.5300  -10.5040   -6.8300 C   0  0  0  0  0
   15.1960  -10.2880   -5.6850 N   0  0  0  0  0
   15.8560   -9.2610   -5.8050 N   0  0  0  0  0
   15.7140   -8.7680   -7.0270 C   0  0  0  0  0
   16.4060   -7.4920   -7.4600 C   0  0  0  0  0
   17.2240   -7.0090   -6.2750 C   0  0  0  0  0
   17.9500   -5.6880   -6.6290 C   0  0  0  0  0
   15.2137   -7.8036   -9.7578 H   0  0  0  0  0
   14.1684   -7.8931  -12.0090 H   0  0  0  0  0
   12.5683   -9.7191  -12.5394 H   0  0  0  0  0
   12.0646  -11.4538  -10.8371 H   0  0  0  0  0
   15.6767   -6.7391   -7.7587 H   0  0  0  0  0
   17.0462   -7.6734   -8.3233 H   0  0  0  0  0
   17.9654   -7.7665   -6.0209 H   0  0  0  0  0
   16.5586   -6.8348   -5.4295 H   0  0  0  0  0
   18.6140   -5.8558   -7.4769 H   0  0  0  0  0
   17.2129   -4.9279   -6.8879 H   0  0  0  0  0
   18.5324   -5.3536   -5.7704 H   0  0  0  0  0
  1  2  1  0  0  0
  1 11  4  0  0  0
  1 14  4  0  0  0
  2  3  4  0  0  0
  2  7  4  0  0  0
  3  4  4  0  0  0
  4  5  4  0  0  0
  5  6  4  0  0  0
  6  7  4  0  0  0
  7  8  1  0  0  0
  8  9  2  0  0  0
  8 10  1  0  0  0
 10 11  1  0  0  0
 11 12  4  0  0  0
 12 13  4  0  0  0
 13 14  4  0  0  0
 14 15  1  0  0  0
 15 16  1  0  0  0
 16 17  1  0  0  0
  3 18  1  0  0  0
  4 19  1  0  0  0
  5 20  1  0  0  0
  6 21  1  0  0  0
 15 22  1  0  0  0
 15 23  1  0  0  0
 16 24  1  0  0  0
 16 25  1  0  0  0
 17 26  1  0  0  0
 17 27  1  0  0  0
 17 28  1  0  0  0
M  END
$$$$
