3gsg_ligand
  -I-interpret- 

 32 34  0  0  0  0  0  0  0  0999 V2000
  -37.2770    6.1430   15.9900 O   0  0  0  0  0
  -36.3210    5.8560   15.2920 C   0  0  0  0  0
  -35.0090    5.8450   15.6430 N   0  0  0  0  0
  -34.2350    5.2290   16.7580 C   0  0  0  0  0
  -34.4000    5.4670   18.2430 C   0  0  0  0  0
  -33.3780    5.5760   18.9750 O   0  0  0  0  0
  -35.5320    5.4500   18.7300 O   0  0  0  0  0
  -34.3730    3.7320   16.6000 C   0  0  0  0  0
  -36.4310    5.4170   13.8310 C   0  0  0  0  0
  -35.0410    5.7500   13.4180 C   0  0  0  0  0
  -34.3160    6.2860   14.6160 C   0  0  0  0  0
  -33.2810    6.9480   14.6100 O   0  0  0  0  0
  -37.1510    6.0870   12.6390 C   0  0  0  0  0
  -36.7240    5.2720   11.3820 C   0  0  0  0  0
  -35.1820    5.5380   11.1370 C   0  0  0  0  0
  -36.3300    7.3240   12.2990 C   0  0  0  0  0
  -34.9810    6.6250   12.1960 C   0  0  0  0  0
  -33.3045    5.7717   16.5913 H   0  0  0  0  0
  -32.5905    5.5710   18.4260 H   0  0  0  0  0
  -33.5976    3.2335   17.1817 H   0  0  0  0  0
  -35.3543    3.4192   16.9568 H   0  0  0  0  0
  -34.2662    3.4676   15.5480 H   0  0  0  0  0
  -36.9703    4.4744   13.9245 H   0  0  0  0  0
  -34.5240    4.8498   13.0856 H   0  0  0  0  0
  -38.2128    6.2070   12.8539 H   0  0  0  0  0
  -37.3052    5.5819   10.5135 H   0  0  0  0  0
  -36.9053    4.2088   11.5396 H   0  0  0  0  0
  -34.9108    5.8192   10.1194 H   0  0  0  0  0
  -34.5351    4.6659   11.2319 H   0  0  0  0  0
  -36.3897    8.1493   13.0085 H   0  0  0  0  0
  -36.6483    7.8843   11.4199 H   0  0  0  0  0
  -34.1331    7.2930   12.0450 H   0  0  0  0  0
  1  2  2  0  0  0
  2  3  1  0  0  0
  2  9  1  0  0  0
  3  4  1  0  0  0
  3 11  1  0  0  0
  4  5  1  0  0  0
  4  8  1  0  0  0
  5  6  1  0  0  0
  5  7  2  0  0  0
  9 10  1  0  0  0
  9 13  1  0  0  0
 10 11  1  0  0  0
 10 17  1  0  0  0
 11 12  2  0  0  0
 13 14  1  0  0  0
 13 16  1  0  0  0
 14 15  1  0  0  0
 15 17  1  0  0  0
 16 17  1  0  0  0
  4 18  1  0  0  0
  6 19  1  0  0  0
  8 20  1  0  0  0
  8 21  1  0  0  0
  8 22  1  0  0  0
  9 23  1  0  0  0
 10 24  1  0  0  0
 13 25  1  0  0  0
 14 26  1  0  0  0
 14 27  1  0  0  0
 15 28  1  0  0  0
 15 29  1  0  0  0
 16 30  1  0  0  0
 16 31  1  0  0  0
 17 32  1  0  0  0
M  END
$$$$
