1t7j_ligand
  -I-interpret- 

 70 72  0  0  0  0  0  0  0  0999 V2000
    2.0070    2.8160   10.6350 C   0  0  0  0  0
    0.8200    1.0250   11.7420 C   0  0  0  0  0
    3.8250    0.0930   12.5250 C   0  0  0  0  0
    2.1690    1.3590   11.0980 C   0  0  0  0  0
    5.6950   -0.3110   14.1440 C   0  0  0  0  0
    5.1670   -0.6860   15.6050 C   0  0  0  0  0
    7.0620    0.5200   13.9940 C   0  0  0  0  0
    7.3880    0.7970   12.5500 C   0  0  0  0  0
    6.9640    2.0730   11.9750 C   0  0  0  0  0
    8.0970   -0.1760   11.7170 C   0  0  0  0  0
    7.2260    2.4040   10.5840 C   0  0  0  0  0
    8.3640    0.1660   10.3110 C   0  0  0  0  0
    7.9270    1.4630    9.7350 C   0  0  0  0  0
    5.7570   -1.8560   16.5500 C   0  0  0  0  0
    4.5660   -4.2700   16.2250 C   0  0  0  0  0
    3.1960   -3.7610   15.8200 C   0  0  0  0  0
    8.3160   -4.4280   15.8090 C   0  0  0  0  0
    9.5320   -3.6980   16.1420 C   0  0  0  0  0
   10.5500   -4.3460   16.9460 C   0  0  0  0  0
   10.3240   -5.7010   17.3960 C   0  0  0  0  0
    9.1400   -6.4040   17.0650 C   0  0  0  0  0
    8.1380   -5.7630   16.2730 C   0  0  0  0  0
    2.5440   -2.8560   16.8570 C   0  0  0  0  0
    3.1160   -3.1640   14.3910 C   0  0  0  0  0
   -0.0280    2.2940   11.6190 C   0  0  0  0  0
    4.6550    0.4610   13.4810 N   0  0  0  0  0
    5.8650   -3.3370   16.2110 N   0  0  0  0  0
   11.2170   -6.3030   18.1240 N   0  0  0  0  0
    3.1840    1.2650   12.1090 O   0  0  0  0  0
    3.6390   -0.9900   12.1130 O   0  0  0  0  0
    5.2800    0.4390   16.4090 O   0  0  0  0  0
    7.6060   -2.5810   14.2350 O   0  0  0  0  0
    6.6400   -4.7840   14.0200 O   0  0  0  0  0
    0.8200    3.3650   11.2580 O   0  0  0  0  0
    7.0350   -3.7360   14.9110 S   0  0  0  0  0
    1.9099    2.8538    9.5500 H   0  0  0  0  0
    2.8824    3.3982   10.9230 H   0  0  0  0  0
    0.9410    0.7290   12.7840 H   0  0  0  0  0
    0.3426    0.1800   11.2458 H   0  0  0  0  0
    2.4471    0.6973   10.2777 H   0  0  0  0  0
    5.9272   -1.2825   13.7077 H   0  0  0  0  0
    4.2016   -1.0852   15.2941 H   0  0  0  0  0
    7.8721   -0.0701   14.4225 H   0  0  0  0  0
    6.9433    1.4734   14.5089 H   0  0  0  0  0
    6.4395    2.7924   12.6039 H   0  0  0  0  0
    8.4198   -1.1321   12.1290 H   0  0  0  0  0
    6.8948    3.3606   10.1798 H   0  0  0  0  0
    8.8934   -0.5473    9.6793 H   0  0  0  0  0
    8.1303    1.7027    8.6913 H   0  0  0  0  0
    5.0280   -1.8703   17.3602 H   0  0  0  0  0
    6.8068   -1.5712   16.6200 H   0  0  0  0  0
    4.7885   -5.0251   15.4711 H   0  0  0  0  0
    4.4428   -4.5166   17.2796 H   0  0  0  0  0
    2.5970   -4.6709   15.7826 H   0  0  0  0  0
    9.6750   -2.6761   15.7907 H   0  0  0  0  0
   11.4690   -3.8209   17.2063 H   0  0  0  0  0
    8.9940   -7.4269   17.4119 H   0  0  0  0  0
    7.2253   -6.3028   16.0206 H   0  0  0  0  0
    2.4225   -3.4045   17.7910 H   0  0  0  0  0
    3.1764   -1.9844   17.0257 H   0  0  0  0  0
    1.5681   -2.5337   16.4939 H   0  0  0  0  0
    3.7999   -2.3189   14.3129 H   0  0  0  0  0
    3.3944   -3.9268   13.6638 H   0  0  0  0  0
    2.0976   -2.8282   14.1954 H   0  0  0  0  0
   -0.5163    2.5094   12.5694 H   0  0  0  0  0
   -0.7975    2.1557   10.8595 H   0  0  0  0  0
    4.5536    1.4240   13.8015 H   0  0  0  0  0
   12.0782   -5.8192   18.3783 H   0  0  0  0  0
   11.0565   -7.2591   18.4410 H   0  0  0  0  0
    4.9506    1.2052   15.9335 H   0  0  0  0  0
  4  1  1  0  0  0
  1 34  1  0  0  0
  4  2  1  0  0  0
  2 25  1  0  0  0
 26  3  1  0  0  0
  3 29  1  0  0  0
  3 30  2  0  0  0
 29  4  1  0  0  0
  6  5  1  0  0  0
  5  7  1  0  0  0
  5 26  1  0  0  0
 14  6  1  0  0  0
  6 31  1  0  0  0
  7  8  1  0  0  0
  8  9  4  0  0  0
  8 10  4  0  0  0
  9 11  4  0  0  0
 10 12  4  0  0  0
 11 13  4  0  0  0
 12 13  4  0  0  0
 27 14  1  0  0  0
 15 16  1  0  0  0
 27 15  1  0  0  0
 16 23  1  0  0  0
 16 24  1  0  0  0
 17 18  4  0  0  0
 17 22  4  0  0  0
 35 17  1  0  0  0
 18 19  4  0  0  0
 19 20  4  0  0  0
 21 20  4  0  0  0
 20 28  1  0  0  0
 22 21  4  0  0  0
 25 34  1  0  0  0
 27 35  1  0  0  0
 35 32  2  0  0  0
 35 33  2  0  0  0
  1 36  1  0  0  0
  1 37  1  0  0  0
  2 38  1  0  0  0
  2 39  1  0  0  0
  4 40  1  0  0  0
  5 41  1  0  0  0
  6 42  1  0  0  0
  7 43  1  0  0  0
  7 44  1  0  0  0
  9 45  1  0  0  0
 10 46  1  0  0  0
 11 47  1  0  0  0
 12 48  1  0  0  0
 13 49  1  0  0  0
 14 50  1  0  0  0
 14 51  1  0  0  0
 15 52  1  0  0  0
 15 53  1  0  0  0
 16 54  1  0  0  0
 18 55  1  0  0  0
 19 56  1  0  0  0
 21 57  1  0  0  0
 22 58  1  0  0  0
 23 59  1  0  0  0
 23 60  1  0  0  0
 23 61  1  0  0  0
 24 62  1  0  0  0
 24 63  1  0  0  0
 24 64  1  0  0  0
 25 65  1  0  0  0
 25 66  1  0  0  0
 26 67  1  0  0  0
 28 68  1  0  0  0
 28 69  1  0  0  0
 31 70  1  0  0  0
M  END
$$$$
