### 
### Created by X-TOOL on Mon Sep 10 21:13:25 2018
### 

@<TRIPOS>MOLECULE
4wph_ligand
  168   168     1     0     0
SMALL
GAST_HUCK


@<TRIPOS>ATOM
      1 N          48.8160   -3.0350  -45.9850 N.4       1 PRO         0.2461
      2 CA         48.0040   -2.1460  -45.1730 C.3       1 PRO         0.0670
      3 C          47.7950   -2.6820  -43.7570 C.2       1 PRO         0.2268
      4 O          47.7650   -3.9030  -43.5580 O.2       1 PRO        -0.3907
      5 CB         46.6830   -2.1430  -45.9240 C.3       1 PRO         0.0127
      6 CG         46.5700   -3.5260  -46.4540 C.3       1 PRO        -0.0053
      7 CD         47.9770   -4.0380  -46.6640 C.3       1 PRO        -0.0313
      8 N          47.6310   -1.7770  -42.7920 N.am      1 ARG        -0.2610
      9 CA         47.5890   -2.1540  -41.3700 C.3       1 ARG         0.1312
     10 C          46.4550   -1.5180  -40.5360 C.2       1 ARG         0.2039
     11 O          45.8970   -0.4780  -40.8980 O.2       1 ARG        -0.3944
     12 CB         48.9370   -1.8190  -40.7200 C.3       1 ARG        -0.0092
     13 CG         50.1300   -2.5340  -41.3340 C.3       1 ARG        -0.0156
     14 CD         50.2190   -3.9880  -40.9010 C.3       1 ARG         0.0627
     15 NE         50.7860   -4.8240  -41.9610 N.pl3     1 ARG        -0.2723
     16 CZ         51.5890   -5.8740  -41.7800 C.cat     1 ARG         0.2882
     17 NH1        51.9700   -6.2560  -40.5650 N.pl3     1 ARG        -0.2849
     18 NH2        52.0320   -6.5450  -42.8370 N.pl3     1 ARG        -0.2849
     19 N          46.1300   -2.1630  -39.4150 N.am      1 LYS        -0.2637
     20 CA         45.2330   -1.5770  -38.4200 C.3       1 LYS         0.1310
     21 C          46.0190   -0.6690  -37.5160 C.2       1 LYS         0.2039
     22 O          47.2170   -0.8580  -37.3260 O.2       1 LYS        -0.3944
     23 CB         44.6110   -2.6330  -37.5230 C.3       1 LYS        -0.0122
     24 CG         43.8680   -3.7440  -38.2280 C.3       1 LYS        -0.0440
     25 CD         43.2870   -4.6740  -37.1790 C.3       1 LYS        -0.0124
     26 CE         43.4380   -6.1320  -37.5540 C.3       1 LYS        -0.0354
     27 NZ         43.8910   -6.9230  -36.3760 N.4       1 LYS         0.2185
     28 N          45.3340    0.2970  -36.9250 N.am      1 CYS        -0.2629
     29 CA         45.9350    1.1270  -35.9000 C.3       1 CYS         0.1396
     30 C          45.9780    0.3170  -34.6170 C.2       1 CYS         0.2047
     31 O          45.2760   -0.6840  -34.4860 O.2       1 CYS        -0.3944
     32 CB         45.1320    2.4090  -35.7320 C.3       1 CYS         0.0311
     33 SG         44.8770    3.2170  -37.3300 S.3       1 CYS        -0.1735
     34 N          46.8340    0.7210  -33.6890 N.am      1 ALA        -0.2640
     35 CA         46.9600    0.0180  -32.4200 C.3       1 ALA         0.1282
     36 C          46.0630    0.6390  -31.3660 C.2       1 ALA         0.2036
     37 O          45.7220   -0.0140  -30.3980 O.2       1 ALA        -0.3944
     38 CB         48.4070    0.0250  -31.9540 C.3       1 ALA        -0.0244
     39 N          45.6800    1.8980  -31.5560 N.am      1 ARG        -0.2637
     40 CA         44.8700    2.6110  -30.5700 C.3       1 ARG         0.1311
     41 C          44.1150    3.8170  -31.1830 C.2       1 ARG         0.2039
     42 O          44.6000    4.4430  -32.1240 O.2       1 ARG        -0.3944
     43 CB         45.7660    3.0500  -29.3960 C.3       1 ARG        -0.0092
     44 CG         45.0540    3.9690  -28.4230 C.3       1 ARG        -0.0156
     45 CD         45.7140    4.1230  -27.0630 C.3       1 ARG         0.0627
     46 NE         44.8010    4.8540  -26.1750 N.pl3     1 ARG        -0.2723
     47 CZ         45.1090    5.3620  -24.9830 C.cat     1 ARG         0.2882
     48 NH1        46.3360    5.2400  -24.4840 N.pl3     1 ARG        -0.2849
     49 NH2        44.1720    6.0030  -24.2830 N.pl3     1 ARG        -0.2849
     50 N          42.9330    4.1260  -30.6460 N.am      1 LYS        -0.2637
     51 CA         42.1470    5.3020  -31.0770 C.3       1 LYS         0.1310
     52 C          42.6700    6.5360  -30.3680 C.2       1 LYS         0.2040
     53 O          43.2580    6.4180  -29.2990 O.2       1 LYS        -0.3944
     54 CB         40.6550    5.1450  -30.7470 C.3       1 LYS        -0.0122
     55 CG         40.0230    3.8360  -31.2150 C.3       1 LYS        -0.0440
     56 CD         39.8960    3.7210  -32.7290 C.3       1 LYS        -0.0124
     57 CE         39.2130    2.4220  -33.1100 C.3       1 LYS        -0.0354
     58 NZ         38.6190    2.4470  -34.4710 N.4       1 LYS         0.2185
     59 N          42.4510    7.7170  -30.9490 N.am      1 THR        -0.2613
     60 CA         43.0320    8.9570  -30.4170 C.3       1 THR         0.1564
     61 C          42.1660   10.2100  -30.6540 C.2       1 THR         0.2059
     62 O          42.6990   11.2970  -30.8470 O.2       1 THR        -0.3943
     63 CB         44.4450    9.2340  -31.0100 C.3       1 THR         0.0924
     64 OG1        44.3120    9.6230  -32.3760 O.3       1 THR        -0.3874
     65 CG2        45.3830    8.0180  -30.9320 C.3       1 THR        -0.0346
     66 N          40.8440   10.0730  -30.6140 N.am      1 ARG        -0.2694
     67 CA         39.9520   11.2370  -30.7320 C.3       1 ARG         0.0945
     68 C          38.5370   10.8910  -30.3110 C.2       1 ARG         0.0601
     69 O          37.9880   11.5080  -29.4130 O.co2     1 ARG        -0.5666
     70 CB         39.9300   11.7680  -32.1670 C.3       1 ARG        -0.0148
     71 CG         39.4600   10.7480  -33.1960 C.3       1 ARG        -0.0162
     72 CD         39.5420   11.2770  -34.6230 C.3       1 ARG         0.0627
     73 NE         40.6740   10.7480  -35.3960 N.pl3     1 ARG        -0.2723
     74 CZ         40.9020   11.0280  -36.6820 C.cat     1 ARG         0.2882
     75 NH1        40.0890   11.8410  -37.3550 N.pl3     1 ARG        -0.2849
     76 NH2        41.9430   10.4930  -37.3070 N.pl3     1 ARG        -0.2849
     77 OXT        37.9270    9.9910  -30.8640 O.co2     1 ARG        -0.5666
     78 H1         49.4815   -3.5072  -45.3932 H         1 PRO         0.2035
     79 H2         49.3079   -2.4925  -46.6777 H         1 PRO         0.2035
     80 H3         48.4453   -1.1396  -45.1252 H         1 PRO         0.1099
     81 H4         46.7006   -1.4100  -46.7440 H         1 PRO         0.0347
     82 H5         45.8477   -1.9144  -45.2457 H         1 PRO         0.0347
     83 H6         46.0240   -3.5207  -47.4089 H         1 PRO         0.0320
     84 H7         46.0400   -4.1646  -45.7321 H         1 PRO         0.0320
     85 H8         48.1056   -5.0309  -46.2084 H         1 PRO         0.0814
     86 H9         48.2193   -4.0921  -47.7356 H         1 PRO         0.0814
     87 H10        47.5336   -0.8136  -43.0417 H         1 ARG         0.1884
     88 H11        47.4460   -3.2439  -41.3301 H         1 ARG         0.0800
     89 H12        48.8827   -2.0934  -39.6562 H         1 ARG         0.0313
     90 H13        49.1022   -0.7353  -40.8112 H         1 ARG         0.0313
     91 H14        51.0499   -2.0163  -41.0246 H         1 ARG         0.0301
     92 H15        50.0389   -2.4966  -42.4296 H         1 ARG         0.0301
     93 H16        49.2098   -4.3523  -40.6584 H         1 ARG         0.0689
     94 H17        50.8584   -4.0579  -40.0087 H         1 ARG         0.0689
     95 H18        50.5436   -4.5800  -42.9319 H         1 ARG         0.2642
     96 H19        52.5906   -7.0703  -40.4521 H         1 ARG         0.2615
     97 H20        51.6446   -5.7377  -39.7365 H         1 ARG         0.2615
     98 H21        51.7454   -6.2608  -43.7846 H         1 ARG         0.2615
     99 H22        52.6622   -7.3496  -42.7092 H         1 ARG         0.2615
    100 H23        46.5104   -3.0730  -39.2502 H         1 LYS         0.1883
    101 H24        44.4416   -1.0125  -38.9348 H         1 LYS         0.0800
    102 H25        43.9026   -2.1284  -36.8496 H         1 LYS         0.0312
    103 H26        45.4177   -3.0899  -36.9310 H         1 LYS         0.0312
    104 H27        44.5607   -4.3014  -38.8756 H         1 LYS         0.0269
    105 H28        43.0570   -3.3196  -38.8380 H         1 LYS         0.0269
    106 H29        42.2169   -4.4487  -37.0608 H         1 LYS         0.0317
    107 H30        43.8062   -4.4990  -36.2252 H         1 LYS         0.0317
    108 H31        44.1801   -6.2245  -38.3606 H         1 LYS         0.0813
    109 H32        42.4690   -6.5200  -37.9010 H         1 LYS         0.0813
    110 H33        43.9877   -7.8914  -36.6386 H         1 LYS         0.1994
    111 H34        43.2119   -6.8419  -35.6355 H         1 LYS         0.1994
    112 H35        44.7800   -6.5711  -36.0567 H         1 LYS         0.1994
    113 H36        44.3834    0.4573  -37.1908 H         1 CYS         0.1884
    114 H37        46.9615    1.3900  -36.1952 H         1 CYS         0.0808
    115 H38        45.6779    3.0923  -35.0649 H         1 CYS         0.0422
    116 H39        44.1544    2.1675  -35.2894 H         1 CYS         0.0422
    117 H40        44.3442    4.0623  -37.1966 H         1 CYS         0.1019
    118 H41        47.4041    1.5238  -33.8637 H         1 ALA         0.1883
    119 H42        46.6472   -1.0259  -32.5696 H         1 ALA         0.0797
    120 H43        48.4861   -0.5090  -30.9956 H         1 ALA         0.0277
    121 H44        48.7454    1.0636  -31.8241 H         1 ALA         0.0277
    122 H45        49.0365   -0.4746  -32.7051 H         1 ALA         0.0277
    123 H46        45.9530    2.3691  -32.3948 H         1 ARG         0.1883
    124 H47        44.1157    1.9107  -30.1820 H         1 ARG         0.0800
    125 H48        46.6417    3.5782  -29.8010 H         1 ARG         0.0313
    126 H49        46.0977    2.1528  -28.8529 H         1 ARG         0.0313
    127 H50        44.0399    3.5736  -28.2642 H         1 ARG         0.0301
    128 H51        44.9909    4.9660  -28.8834 H         1 ARG         0.0301
    129 H52        46.6543    4.6838  -27.1695 H         1 ARG         0.0689
    130 H53        45.9253    3.1299  -26.6398 H         1 ARG         0.0689
    131 H54        43.8340    4.9859  -26.5041 H         1 ARG         0.2642
    132 H55        46.5584    5.6385  -23.5606 H         1 ARG         0.2615
    133 H56        47.0637    4.7471  -25.0210 H         1 ARG         0.2615
    134 H57        43.2203    6.1003  -24.6648 H         1 ARG         0.2615
    135 H58        44.4001    6.4007  -23.3607 H         1 ARG         0.2615
    136 H59        42.5647    3.5397  -29.9244 H         1 LYS         0.1883
    137 H60        42.2613    5.4267  -32.1639 H         1 LYS         0.0800
    138 H61        40.1116    5.9749  -31.2223 H         1 LYS         0.0312
    139 H62        40.5389    5.2083  -29.6550 H         1 LYS         0.0312
    140 H63        39.0173    3.7600  -30.7759 H         1 LYS         0.0269
    141 H64        40.6443    3.0027  -30.8549 H         1 LYS         0.0269
    142 H65        40.8994    3.7474  -33.1790 H         1 LYS         0.0317
    143 H66        39.3021    4.5661  -33.1072 H         1 LYS         0.0317
    144 H67        38.4118    2.2227  -32.3832 H         1 LYS         0.0813
    145 H68        39.9558    1.6118  -33.0683 H         1 LYS         0.0813
    146 H69        38.1823    1.5591  -34.6634 H         1 LYS         0.1994
    147 H70        39.3432    2.6195  -35.1506 H         1 LYS         0.1994
    148 H71        37.9283    3.1793  -34.5228 H         1 LYS         0.1994
    149 H72        41.8771    7.7591  -31.7669 H         1 THR         0.1884
    150 H73        43.1360    8.8224  -29.3302 H         1 THR         0.0826
    151 H74        44.9006   10.0591  -30.4430 H         1 THR         0.0639
    152 H75        43.8922    8.9241  -32.8637 H         1 THR         0.2101
    153 H76        46.3595    8.2798  -31.3655 H         1 THR         0.0257
    154 H77        44.9449    7.1803  -31.4944 H         1 THR         0.0257
    155 H78        45.5157    7.7241  -29.8803 H         1 THR         0.0257
    156 H79        40.4485    9.1614  -30.5016 H         1 ARG         0.1875
    157 H80        40.3312   12.0291  -30.0697 H         1 ARG         0.0726
    158 H81        40.9487   12.0853  -32.4344 H         1 ARG         0.0307
    159 H82        39.2540   12.6349  -32.2051 H         1 ARG         0.0307
    160 H83        38.4150   10.4828  -32.9778 H         1 ARG         0.0301
    161 H84        40.0905    9.8502  -33.1160 H         1 ARG         0.0301
    162 H85        39.6349   12.3722  -34.5804 H         1 ARG         0.0689
    163 H86        38.6119   11.0079  -35.1449 H         1 ARG         0.0689
    164 H87        41.3344   10.1207  -34.9152 H         1 ARG         0.2642
    165 H88        40.2746   12.0498  -38.3464 H         1 ARG         0.2615
    166 H89        39.2749   12.2607  -36.8839 H         1 ARG         0.2615
    167 H90        42.5802    9.8626  -36.7995 H         1 ARG         0.2615
    168 H91        42.1140   10.7081  -38.2997 H         1 ARG         0.2615
@<TRIPOS>BOND
     1    1    2 1  
     2    1    7 1  
     3    2    3 1  
     4    2    5 1  
     5    3    4 2  
     6    3    8 am 
     7    5    6 1  
     8    6    7 1  
     9    8    9 1  
    10    9   10 1  
    11    9   12 1  
    12   10   11 2  
    13   10   19 am 
    14   12   13 1  
    15   13   14 1  
    16   14   15 1  
    17   15   16 ar 
    18   16   17 ar 
    19   16   18 ar 
    20   19   20 1  
    21   20   21 1  
    22   20   23 1  
    23   21   22 2  
    24   21   28 am 
    25   23   24 1  
    26   24   25 1  
    27   25   26 1  
    28   26   27 1  
    29   28   29 1  
    30   29   30 1  
    31   29   32 1  
    32   30   31 2  
    33   30   34 am 
    34   32   33 1  
    35   34   35 1  
    36   35   36 1  
    37   35   38 1  
    38   36   37 2  
    39   36   39 am 
    40   39   40 1  
    41   40   41 1  
    42   40   43 1  
    43   41   42 2  
    44   41   50 am 
    45   43   44 1  
    46   44   45 1  
    47   45   46 1  
    48   46   47 ar 
    49   47   48 ar 
    50   47   49 ar 
    51   50   51 1  
    52   51   52 1  
    53   51   54 1  
    54   52   53 2  
    55   52   59 am 
    56   54   55 1  
    57   55   56 1  
    58   56   57 1  
    59   57   58 1  
    60   59   60 1  
    61   60   61 1  
    62   60   63 1  
    63   61   62 2  
    64   61   66 am 
    65   63   64 1  
    66   63   65 1  
    67   66   67 1  
    68   67   68 1  
    69   67   70 1  
    70   68   69 ar 
    71   68   77 ar 
    72   70   71 1  
    73   71   72 1  
    74   72   73 1  
    75   73   74 ar 
    76   74   75 ar 
    77   74   76 ar 
    78    1   78 1  
    79    1   79 1  
    80    2   80 1  
    81    5   81 1  
    82    5   82 1  
    83    6   83 1  
    84    6   84 1  
    85    7   85 1  
    86    7   86 1  
    87    8   87 1  
    88    9   88 1  
    89   12   89 1  
    90   12   90 1  
    91   13   91 1  
    92   13   92 1  
    93   14   93 1  
    94   14   94 1  
    95   15   95 1  
    96   17   96 1  
    97   17   97 1  
    98   18   98 1  
    99   18   99 1  
   100   19  100 1  
   101   20  101 1  
   102   23  102 1  
   103   23  103 1  
   104   24  104 1  
   105   24  105 1  
   106   25  106 1  
   107   25  107 1  
   108   26  108 1  
   109   26  109 1  
   110   27  110 1  
   111   27  111 1  
   112   27  112 1  
   113   28  113 1  
   114   29  114 1  
   115   32  115 1  
   116   32  116 1  
   117   33  117 1  
   118   34  118 1  
   119   35  119 1  
   120   38  120 1  
   121   38  121 1  
   122   38  122 1  
   123   39  123 1  
   124   40  124 1  
   125   43  125 1  
   126   43  126 1  
   127   44  127 1  
   128   44  128 1  
   129   45  129 1  
   130   45  130 1  
   131   46  131 1  
   132   48  132 1  
   133   48  133 1  
   134   49  134 1  
   135   49  135 1  
   136   50  136 1  
   137   51  137 1  
   138   54  138 1  
   139   54  139 1  
   140   55  140 1  
   141   55  141 1  
   142   56  142 1  
   143   56  143 1  
   144   57  144 1  
   145   57  145 1  
   146   58  146 1  
   147   58  147 1  
   148   58  148 1  
   149   59  149 1  
   150   60  150 1  
   151   63  151 1  
   152   64  152 1  
   153   65  153 1  
   154   65  154 1  
   155   65  155 1  
   156   66  156 1  
   157   67  157 1  
   158   70  158 1  
   159   70  159 1  
   160   71  160 1  
   161   71  161 1  
   162   72  162 1  
   163   72  163 1  
   164   73  164 1  
   165   75  165 1  
   166   75  166 1  
   167   76  167 1  
   168   76  168 1  
@<TRIPOS>SUBSTRUCTURE
     1 PRO         1

