4wph_ligand
  -I-interpret- 

166166  0  0  0  0  0  0  0  0999 V2000
   48.8160   -3.0350  -45.9850 N   0  3  0  0  0
   48.0040   -2.1460  -45.1730 C   0  0  0  0  0
   47.7950   -2.6820  -43.7570 C   0  0  0  0  0
   47.7650   -3.9030  -43.5580 O   0  0  0  0  0
   46.6830   -2.1430  -45.9240 C   0  0  0  0  0
   46.5700   -3.5260  -46.4540 C   0  0  0  0  0
   47.9770   -4.0380  -46.6640 C   0  0  0  0  0
   47.6310   -1.7770  -42.7920 N   0  0  0  0  0
   47.5890   -2.1540  -41.3700 C   0  0  0  0  0
   46.4550   -1.5180  -40.5360 C   0  0  0  0  0
   45.8970   -0.4780  -40.8980 O   0  0  0  0  0
   48.9370   -1.8190  -40.7200 C   0  0  0  0  0
   50.1300   -2.5340  -41.3340 C   0  0  0  0  0
   50.2190   -3.9880  -40.9010 C   0  0  0  0  0
   50.7860   -4.8240  -41.9610 N   0  0  0  0  0
   51.5890   -5.8740  -41.7800 C   0  0  0  0  0
   51.9700   -6.2560  -40.5650 N   0  0  0  0  0
   52.0320   -6.5450  -42.8370 N   0  0  0  0  0
   46.1300   -2.1630  -39.4150 N   0  0  0  0  0
   45.2330   -1.5770  -38.4200 C   0  0  0  0  0
   46.0190   -0.6690  -37.5160 C   0  0  0  0  0
   47.2170   -0.8580  -37.3260 O   0  0  0  0  0
   44.6110   -2.6330  -37.5230 C   0  0  0  0  0
   43.8680   -3.7440  -38.2280 C   0  0  0  0  0
   43.2870   -4.6740  -37.1790 C   0  0  0  0  0
   43.4380   -6.1320  -37.5540 C   0  0  0  0  0
   43.8910   -6.9230  -36.3760 N   0  3  0  0  0
   45.3340    0.2970  -36.9250 N   0  0  0  0  0
   45.9350    1.1270  -35.9000 C   0  0  0  0  0
   45.9780    0.3170  -34.6170 C   0  0  0  0  0
   45.2760   -0.6840  -34.4860 O   0  0  0  0  0
   45.1320    2.4090  -35.7320 C   0  0  0  0  0
   44.8770    3.2170  -37.3300 S   0  0  0  0  0
   46.8340    0.7210  -33.6890 N   0  0  0  0  0
   46.9600    0.0180  -32.4200 C   0  0  0  0  0
   46.0630    0.6390  -31.3660 C   0  0  0  0  0
   45.7220   -0.0140  -30.3980 O   0  0  0  0  0
   48.4070    0.0250  -31.9540 C   0  0  0  0  0
   45.6800    1.8980  -31.5560 N   0  0  0  0  0
   44.8700    2.6110  -30.5700 C   0  0  0  0  0
   44.1150    3.8170  -31.1830 C   0  0  0  0  0
   44.6000    4.4430  -32.1240 O   0  0  0  0  0
   45.7660    3.0500  -29.3960 C   0  0  0  0  0
   45.0540    3.9690  -28.4230 C   0  0  0  0  0
   45.7140    4.1230  -27.0630 C   0  0  0  0  0
   44.8010    4.8540  -26.1750 N   0  0  0  0  0
   45.1090    5.3620  -24.9830 C   0  0  0  0  0
   46.3360    5.2400  -24.4840 N   0  0  0  0  0
   44.1720    6.0030  -24.2830 N   0  0  0  0  0
   42.9330    4.1260  -30.6460 N   0  0  0  0  0
   42.1470    5.3020  -31.0770 C   0  0  0  0  0
   42.6700    6.5360  -30.3680 C   0  0  0  0  0
   43.2580    6.4180  -29.2990 O   0  0  0  0  0
   40.6550    5.1450  -30.7470 C   0  0  0  0  0
   40.0230    3.8360  -31.2150 C   0  0  0  0  0
   39.8960    3.7210  -32.7290 C   0  0  0  0  0
   39.2130    2.4220  -33.1100 C   0  0  0  0  0
   38.6190    2.4470  -34.4710 N   0  3  0  0  0
   42.4510    7.7170  -30.9490 N   0  0  0  0  0
   43.0320    8.9570  -30.4170 C   0  0  0  0  0
   42.1660   10.2100  -30.6540 C   0  0  0  0  0
   42.6990   11.2970  -30.8470 O   0  0  0  0  0
   44.4450    9.2340  -31.0100 C   0  0  0  0  0
   44.3120    9.6230  -32.3760 O   0  0  0  0  0
   45.3830    8.0180  -30.9320 C   0  0  0  0  0
   40.8440   10.0730  -30.6140 N   0  0  0  0  0
   39.9520   11.2370  -30.7320 C   0  0  0  0  0
   38.5370   10.8910  -30.3110 C   0  0  0  0  0
   37.9880   11.5080  -29.4130 O   0  0  0  0  0
   39.9300   11.7680  -32.1670 C   0  0  0  0  0
   39.4600   10.7480  -33.1960 C   0  0  0  0  0
   39.5420   11.2770  -34.6230 C   0  0  0  0  0
   40.6740   10.7480  -35.3960 N   0  0  0  0  0
   40.9020   11.0280  -36.6820 C   0  0  0  0  0
   40.0890   11.8410  -37.3550 N   0  0  0  0  0
   41.9430   10.4930  -37.3070 N   0  0  0  0  0
   37.9270    9.9910  -30.8640 O   0  0  0  0  0
   49.4801   -3.5178  -45.3798 H   0  0  0  0  0
   49.3030   -2.4823  -46.6905 H   0  0  0  0  0
   48.4604   -1.1647  -45.0434 H   0  0  0  0  0
   46.6583   -1.3934  -46.7149 H   0  0  0  0  0
   45.8431   -1.8756  -45.2828 H   0  0  0  0  0
   46.0136   -3.5346  -47.3912 H   0  0  0  0  0
   46.0291   -4.1632  -45.7543 H   0  0  0  0  0
   48.1196   -5.0413  -46.2625 H   0  0  0  0  0
   48.2281   -4.1458  -47.7192 H   0  0  0  0  0
   47.5317   -0.7943  -43.0467 H   0  0  0  0  0
   47.3797   -3.2237  -41.3671 H   0  0  0  0  0
   48.8764   -2.1370  -39.6792 H   0  0  0  0  0
   49.1004   -0.7503  -40.8586 H   0  0  0  0  0
   51.0355   -2.0267  -41.0010 H   0  0  0  0  0
   50.0160   -2.5110  -42.4178 H   0  0  0  0  0
   49.2141   -4.3457  -40.6766 H   0  0  0  0  0
   50.8656   -4.0508  -40.0258 H   0  0  0  0  0
   50.5459   -4.5824  -42.9224 H   0  0  0  0  0
   52.5945   -7.0548  -40.4540 H   0  0  0  0  0
   51.6379   -5.7503  -39.7438 H   0  0  0  0  0
   51.7579   -6.2561  -43.7760 H   0  0  0  0  0
   46.5180   -3.0912  -39.2469 H   0  0  0  0  0
   44.4532   -1.0491  -38.9689 H   0  0  0  0  0
   43.8765   -2.1167  -36.9050 H   0  0  0  0  0
   45.4351   -3.1058  -36.9887 H   0  0  0  0  0
   44.5490   -4.2940  -38.8775 H   0  0  0  0  0
   43.0684   -3.3274  -38.8405 H   0  0  0  0  0
   42.2226   -4.4574  -37.0885 H   0  0  0  0  0
   43.8253   -4.5082  -36.2458 H   0  0  0  0  0
   44.1785   -6.2207  -38.3489 H   0  0  0  0  0
   42.4748   -6.5148  -37.8913 H   0  0  0  0  0
   43.9884   -7.9026  -36.6429 H   0  0  0  0  0
   44.7905   -6.5660  -36.0538 H   0  0  0  0  0
   43.2031   -6.8401  -35.6274 H   0  0  0  0  0
   44.3644    0.4605  -37.1961 H   0  0  0  0  0
   46.9482    1.4197  -36.1754 H   0  0  0  0  0
   45.6817    3.0862  -35.0783 H   0  0  0  0  0
   44.1609    2.1630  -35.3024 H   0  0  0  0  0
   44.1740    4.3322  -37.1540 H   0  0  0  0  0
   47.4155    1.5399  -33.8672 H   0  0  0  0  0
   46.6445   -1.0146  -32.5696 H   0  0  0  0  0
   49.0297   -0.4702  -32.6991 H   0  0  0  0  0
   48.7411    1.0546  -31.8257 H   0  0  0  0  0
   48.4841   -0.5044  -31.0043 H   0  0  0  0  0
   45.9585    2.3785  -32.4115 H   0  0  0  0  0
   44.1020    1.9292  -30.2049 H   0  0  0  0  0
   46.6140    3.5956  -29.8099 H   0  0  0  0  0
   46.0638    2.1542  -28.8511 H   0  0  0  0  0
   44.0730    3.5292  -28.2431 H   0  0  0  0  0
   45.0496    4.9591  -28.8789 H   0  0  0  0  0
   46.6491    4.6735  -27.1661 H   0  0  0  0  0
   45.9300    3.1404  -26.6435 H   0  0  0  0  0
   43.8433    4.9846  -26.5009 H   0  0  0  0  0
   47.0566    4.7519  -25.0158 H   0  0  0  0  0
   44.3979    6.3969  -23.3696 H   0  0  0  0  0
   43.2296    6.0994  -24.6610 H   0  0  0  0  0
   42.5573    3.5280  -29.9100 H   0  0  0  0  0
   42.2522    5.3948  -32.1579 H   0  0  0  0  0
   40.1324    5.9490  -31.2653 H   0  0  0  0  0
   40.5700    5.1640  -29.6605 H   0  0  0  0  0
   39.0158    3.7949  -30.8003 H   0  0  0  0  0
   40.6700    3.0250  -30.8806 H   0  0  0  0  0
   40.8929    3.7383  -33.1694 H   0  0  0  0  0
   39.2992    4.5552  -33.0978 H   0  0  0  0  0
   38.4027    2.2556  -32.4002 H   0  0  0  0  0
   39.9683    1.6362  -33.0948 H   0  0  0  0  0
   38.1775    1.5481  -34.6645 H   0  0  0  0  0
   37.9203    3.1884  -34.5222 H   0  0  0  0  0
   39.3527    2.6216  -35.1577 H   0  0  0  0  0
   41.8657    7.7599  -31.7832 H   0  0  0  0  0
   43.0918    8.7813  -29.3429 H   0  0  0  0  0
   44.8904   10.0276  -30.4101 H   0  0  0  0  0
   45.1816    9.7946  -32.7448 H   0  0  0  0  0
   45.5136    7.7278  -29.8895 H   0  0  0  0  0
   44.9478    7.1887  -31.4896 H   0  0  0  0  0
   46.3502    8.2786  -31.3618 H   0  0  0  0  0
   40.4406    9.1432  -30.4993 H   0  0  0  0  0
   40.3431   12.0075  -30.0675 H   0  0  0  0  0
   38.5853   12.1799  -29.0763 H   0  0  0  0  0
   40.9524   12.0425  -32.4266 H   0  0  0  0  0
   39.2282   12.6016  -32.1932 H   0  0  0  0  0
   38.4169   10.5131  -32.9841 H   0  0  0  0  0
   40.1081    9.8746  -33.1237 H   0  0  0  0  0
   39.6725   12.3573  -34.5590 H   0  0  0  0  0
   38.6304   10.9675  -35.1341 H   0  0  0  0  0
   41.3280   10.1268  -34.9198 H   0  0  0  0  0
   40.2707   12.0449  -38.3377 H   0  0  0  0  0
   39.2848   12.2595  -36.8875 H   0  0  0  0  0
   42.5719    9.8659  -36.8054 H   0  0  0  0  0
  1  2  1  0  0  0
  1  7  1  0  0  0
  2  3  1  0  0  0
  2  5  1  0  0  0
  3  4  2  0  0  0
  3  8  1  0  0  0
  5  6  1  0  0  0
  6  7  1  0  0  0
  8  9  1  0  0  0
  9 10  1  0  0  0
  9 12  1  0  0  0
 10 11  2  0  0  0
 10 19  1  0  0  0
 12 13  1  0  0  0
 13 14  1  0  0  0
 14 15  1  0  0  0
 15 16  1  0  0  0
 16 17  1  0  0  0
 16 18  2  0  0  0
 19 20  1  0  0  0
 20 21  1  0  0  0
 20 23  1  0  0  0
 21 22  2  0  0  0
 21 28  1  0  0  0
 23 24  1  0  0  0
 24 25  1  0  0  0
 25 26  1  0  0  0
 26 27  1  0  0  0
 28 29  1  0  0  0
 29 30  1  0  0  0
 29 32  1  0  0  0
 30 31  2  0  0  0
 30 34  1  0  0  0
 32 33  1  0  0  0
 34 35  1  0  0  0
 35 36  1  0  0  0
 35 38  1  0  0  0
 36 37  2  0  0  0
 36 39  1  0  0  0
 39 40  1  0  0  0
 40 41  1  0  0  0
 40 43  1  0  0  0
 41 42  2  0  0  0
 41 50  1  0  0  0
 43 44  1  0  0  0
 44 45  1  0  0  0
 45 46  1  0  0  0
 46 47  1  0  0  0
 47 48  2  0  0  0
 47 49  1  0  0  0
 50 51  1  0  0  0
 51 52  1  0  0  0
 51 54  1  0  0  0
 52 53  2  0  0  0
 52 59  1  0  0  0
 54 55  1  0  0  0
 55 56  1  0  0  0
 56 57  1  0  0  0
 57 58  1  0  0  0
 59 60  1  0  0  0
 60 61  1  0  0  0
 60 63  1  0  0  0
 61 62  2  0  0  0
 61 66  1  0  0  0
 63 64  1  0  0  0
 63 65  1  0  0  0
 66 67  1  0  0  0
 67 68  1  0  0  0
 67 70  1  0  0  0
 68 69  1  0  0  0
 68 77  2  0  0  0
 70 71  1  0  0  0
 71 72  1  0  0  0
 72 73  1  0  0  0
 73 74  1  0  0  0
 74 75  1  0  0  0
 74 76  2  0  0  0
  1 78  1  0  0  0
  1 79  1  0  0  0
  2 80  1  0  0  0
  5 81  1  0  0  0
  5 82  1  0  0  0
  6 83  1  0  0  0
  6 84  1  0  0  0
  7 85  1  0  0  0
  7 86  1  0  0  0
  8 87  1  0  0  0
  9 88  1  0  0  0
 12 89  1  0  0  0
 12 90  1  0  0  0
 13 91  1  0  0  0
 13 92  1  0  0  0
 14 93  1  0  0  0
 14 94  1  0  0  0
 15 95  1  0  0  0
 17 96  1  0  0  0
 17 97  1  0  0  0
 18 98  1  0  0  0
 19 99  1  0  0  0
 20100  1  0  0  0
 23101  1  0  0  0
 23102  1  0  0  0
 24103  1  0  0  0
 24104  1  0  0  0
 25105  1  0  0  0
 25106  1  0  0  0
 26107  1  0  0  0
 26108  1  0  0  0
 27109  1  0  0  0
 27110  1  0  0  0
 27111  1  0  0  0
 28112  1  0  0  0
 29113  1  0  0  0
 32114  1  0  0  0
 32115  1  0  0  0
 33116  1  0  0  0
 34117  1  0  0  0
 35118  1  0  0  0
 38119  1  0  0  0
 38120  1  0  0  0
 38121  1  0  0  0
 39122  1  0  0  0
 40123  1  0  0  0
 43124  1  0  0  0
 43125  1  0  0  0
 44126  1  0  0  0
 44127  1  0  0  0
 45128  1  0  0  0
 45129  1  0  0  0
 46130  1  0  0  0
 48131  1  0  0  0
 49132  1  0  0  0
 49133  1  0  0  0
 50134  1  0  0  0
 51135  1  0  0  0
 54136  1  0  0  0
 54137  1  0  0  0
 55138  1  0  0  0
 55139  1  0  0  0
 56140  1  0  0  0
 56141  1  0  0  0
 57142  1  0  0  0
 57143  1  0  0  0
 58144  1  0  0  0
 58145  1  0  0  0
 58146  1  0  0  0
 59147  1  0  0  0
 60148  1  0  0  0
 63149  1  0  0  0
 64150  1  0  0  0
 65151  1  0  0  0
 65152  1  0  0  0
 65153  1  0  0  0
 66154  1  0  0  0
 67155  1  0  0  0
 69156  1  0  0  0
 70157  1  0  0  0
 70158  1  0  0  0
 71159  1  0  0  0
 71160  1  0  0  0
 72161  1  0  0  0
 72162  1  0  0  0
 73163  1  0  0  0
 75164  1  0  0  0
 75165  1  0  0  0
 76166  1  0  0  0
M  END
$$$$
