1sqo_ligand
  -I-interpret- 

 33 35  0  0  0  0  0  0  0  0999 V2000
   22.8480   15.6040   33.4860 C   0  0  0  0  0
   21.5630   15.6150   32.9250 C   0  0  0  0  0
   20.6830   16.7430   33.1310 C   0  0  0  0  0
   21.1830   17.8310   33.9200 C   0  0  0  0  0
   22.4840   17.8600   34.4720 C   0  0  0  0  0
   23.3140   16.7200   34.2580 C   0  0  0  0  0
   19.3950   16.7020   32.5920 C   0  0  0  0  0
   18.5190   17.7660   32.9440 C   0  0  0  0  0
   18.9390   18.8490   33.7780 C   0  0  0  0  0
   20.2510   18.9260   34.2320 C   0  0  0  0  0
   23.0230   18.9790   35.1990 N   0  0  0  0  0
   23.5730   18.9350   36.4770 C   0  0  0  0  0
   23.5420   17.8270   37.2840 N   0  0  0  0  0
   24.0180   17.7620   38.5550 C   0  0  0  0  0
   24.6230   18.9260   39.1790 C   0  0  0  0  0
   24.5650   20.0600   38.2700 C   0  0  0  0  0
   24.1230   20.0870   37.0400 N   0  0  0  0  0
   18.1090   19.8910   34.1900 C   0  0  0  0  0
   16.8030   19.7790   34.1600 N   0  0  0  0  0
   18.5430   21.0900   34.6510 N   0  0  0  0  0
   23.4973   14.7417   33.3346 H   0  0  0  0  0
   21.2253   14.7669   32.3293 H   0  0  0  0  0
   24.3159   16.6963   34.6867 H   0  0  0  0  0
   19.0766   15.8938   31.9335 H   0  0  0  0  0
   17.4965   17.7555   32.5665 H   0  0  0  0  0
   20.5848   19.7866   34.8117 H   0  0  0  0  0
   22.9999   19.8873   34.7355 H   0  0  0  0  0
   23.9452   16.8277   39.1116 H   0  0  0  0  0
   25.0558   18.9465   40.1792 H   0  0  0  0  0
   24.9367   21.0060   38.6638 H   0  0  0  0  0
   16.3727   18.9152   33.8299 H   0  0  0  0  0
   17.8694   21.8017   34.9342 H   0  0  0  0  0
   19.5431   21.2803   34.7146 H   0  0  0  0  0
  1  2  4  0  0  0
  1  6  4  0  0  0
  2  3  4  0  0  0
  3  4  4  0  0  0
  3  7  4  0  0  0
  4  5  4  0  0  0
  4 10  4  0  0  0
  5  6  4  0  0  0
  5 11  1  0  0  0
  7  8  4  0  0  0
  8  9  4  0  0  0
  9 10  4  0  0  0
  9 18  1  0  0  0
 11 12  1  0  0  0
 12 13  4  0  0  0
 12 17  4  0  0  0
 13 14  4  0  0  0
 14 15  4  0  0  0
 15 16  4  0  0  0
 16 17  4  0  0  0
 18 19  2  0  0  0
 18 20  1  0  0  0
  1 21  1  0  0  0
  2 22  1  0  0  0
  6 23  1  0  0  0
  7 24  1  0  0  0
  8 25  1  0  0  0
 10 26  1  0  0  0
 11 27  1  0  0  0
 14 28  1  0  0  0
 15 29  1  0  0  0
 16 30  1  0  0  0
 19 31  1  0  0  0
 20 32  1  0  0  0
 20 33  1  0  0  0
M  END
$$$$
