3pfp_ligand
  -I-interpret- 

 35 34  0  0  0  0  0  0  0  0999 V2000
   11.4420   88.4610   -7.7320 C   0  0  0  0  0
   10.3360   88.2410   -8.7870 C   0  0  0  0  0
    9.4710   89.5010   -8.8770 C   0  0  0  0  0
    8.4440   89.5110   -7.7370 C   0  0  0  0  0
    7.1270   88.8450   -8.1630 C   0  0  0  0  0
    6.1040   88.8870   -7.0320 C   0  0  0  0  0
    4.8000   88.2150   -7.4950 C   0  0  0  0  0
   11.0950   88.5110   -6.5160 O   0  0  0  0  0
   12.6230   88.5130   -8.1810 O   0  0  0  0  0
   10.9980   87.9850  -10.0260 O   0  0  0  0  0
    3.9330   88.0610   -6.3730 O   0  0  0  0  0
   10.3130   87.6260  -11.4320 P   0  0  0  0  0
   11.1830   86.6790  -12.1910 O   0  0  0  0  0
    8.8350   87.0790  -11.2300 O   0  0  0  0  0
   10.1810   88.9920  -12.2150 O   0  0  0  0  0
    2.3560   87.7410   -6.6010 P   0  0  0  0  0
    2.1390   86.7470   -7.6680 O   0  0  0  0  0
    1.6280   89.1300   -6.9360 O   0  0  0  0  0
    1.7780   87.3120   -5.1800 O   0  0  0  0  0
    9.6836   87.4068   -8.5288 H   0  0  0  0  0
    8.9475   89.5105   -9.8330 H   0  0  0  0  0
   10.1082   90.3815   -8.7949 H   0  0  0  0  0
    8.2367   90.5465   -7.4670 H   0  0  0  0  0
    8.8563   88.9552   -6.8949 H   0  0  0  0  0
    7.3269   87.8038   -8.4160 H   0  0  0  0  0
    6.7235   89.3836   -9.0204 H   0  0  0  0  0
    5.9027   89.9238   -6.7625 H   0  0  0  0  0
    6.4984   88.3564   -6.1654 H   0  0  0  0  0
    5.0224   87.2381   -7.9244 H   0  0  0  0  0
    4.3162   88.8334   -8.2511 H   0  0  0  0  0
   10.1389   88.4507   -6.4545 H   0  0  0  0  0
    8.3208   87.7237  -10.7385 H   0  0  0  0  0
    9.6201   89.5917  -11.7177 H   0  0  0  0  0
    1.7881   89.7538   -6.2240 H   0  0  0  0  0
    1.9564   88.0055   -4.5406 H   0  0  0  0  0
  1  2  1  0  0  0
  1  8  1  0  0  0
  1  9  2  0  0  0
  2  3  1  0  0  0
  2 10  1  0  0  0
  3  4  1  0  0  0
  4  5  1  0  0  0
  5  6  1  0  0  0
  6  7  1  0  0  0
  7 11  1  0  0  0
 10 12  1  0  0  0
 11 16  1  0  0  0
 12 13  2  0  0  0
 12 14  1  0  0  0
 12 15  1  0  0  0
 16 17  2  0  0  0
 16 18  1  0  0  0
 16 19  1  0  0  0
  2 20  1  0  0  0
  3 21  1  0  0  0
  3 22  1  0  0  0
  4 23  1  0  0  0
  4 24  1  0  0  0
  5 25  1  0  0  0
  5 26  1  0  0  0
  6 27  1  0  0  0
  6 28  1  0  0  0
  7 29  1  0  0  0
  7 30  1  0  0  0
  8 31  1  0  0  0
 14 32  1  0  0  0
 15 33  1  0  0  0
 18 34  1  0  0  0
 19 35  1  0  0  0
M  END
$$$$
