3zlq_ligand
  -I-interpret- 

 48 50  0  0  0  0  0  0  0  0999 V2000
    3.9690  -24.1610   15.7570 C   0  0  0  0  0
    4.6600  -25.2650   16.6170 C   0  0  0  0  0
    2.5310  -24.1490   15.9220 O   0  0  0  0  0
    2.0350  -24.6660   17.0920 C   0  0  0  0  0
    2.7510  -25.1440   18.0750 N   0  0  0  0  0
    4.2230  -25.2100   18.0900 C   0  0  0  0  0
    4.8380  -23.9650   18.7130 C   0  0  0  0  0
    3.9890  -22.9280   18.9110 C   0  0  0  0  0
    4.4530  -21.7610   19.4530 C   0  0  0  0  0
    5.7910  -21.6230   19.7640 C   0  0  0  0  0
    6.6720  -22.6650   19.5320 C   0  0  0  0  0
    6.1830  -23.8380   19.0140 C   0  0  0  0  0
    7.0310  -24.8760   18.7830 F   0  0  0  0  0
    0.6890  -24.6870   17.1950 N   0  0  0  0  0
    4.7160  -26.4610   18.8330 C   0  0  0  0  0
    3.4960  -20.7780   19.6230 N   0  0  0  0  0
    3.9080  -19.6150   20.0650 C   0  0  0  0  0
    2.9280  -18.5500   20.1940 C   0  0  0  0  0
    5.0650  -19.4470   20.2630 O   0  0  0  0  0
    1.6490  -18.9340   20.2130 N   0  0  0  0  0
    0.6790  -18.0750   20.3080 C   0  0  0  0  0
    1.0250  -16.7270   20.3880 C   0  0  0  0  0
    2.3290  -16.2970   20.3510 C   0  0  0  0  0
    3.3430  -17.2300   20.2440 C   0  0  0  0  0
    0.0420  -15.8290   20.4320 O   0  0  0  0  0
    4.3070  -26.5660   16.2630 F   0  0  0  0  0
    6.0310  -24.9890   16.4810 F   0  0  0  0  0
   -1.1980  -16.2370   19.8920 C   0  0  0  0  0
   -2.2520  -16.4410   20.9700 C   0  0  0  0  0
    4.1855  -24.3666   14.7087 H   0  0  0  0  0
    4.3527  -23.1934   16.0804 H   0  0  0  0  0
    2.2541  -25.4977   18.8926 H   0  0  0  0  0
    2.9379  -23.0235   18.6388 H   0  0  0  0  0
    6.1550  -20.6898   20.1939 H   0  0  0  0  0
    7.7331  -22.5561   19.7563 H   0  0  0  0  0
    0.2474  -25.0716   18.0301 H   0  0  0  0  0
    5.8020  -26.5201   18.7614 H   0  0  0  0  0
    4.4225  -26.3989   19.8809 H   0  0  0  0  0
    4.2720  -27.3484   18.3820 H   0  0  0  0  0
    2.5127  -20.9502   19.4137 H   0  0  0  0  0
   -0.3628  -18.3952   20.3245 H   0  0  0  0  0
    2.5611  -15.2334   20.4053 H   0  0  0  0  0
    4.3947  -16.9468   20.2020 H   0  0  0  0  0
   -1.0491  -17.1865   19.3779 H   0  0  0  0  0
   -1.5485  -15.4561   19.2171 H   0  0  0  0  0
   -1.9145  -17.2094   21.6656 H   0  0  0  0  0
   -2.4063  -15.5052   21.5072 H   0  0  0  0  0
   -3.1877  -16.7541   20.5068 H   0  0  0  0  0
  1  2  1  0  0  0
  1  3  1  0  0  0
  2  6  1  0  0  0
  2 26  1  0  0  0
  2 27  1  0  0  0
  3  4  1  0  0  0
  4  5  1  0  0  0
  4 14  2  0  0  0
  5  6  1  0  0  0
  6  7  1  0  0  0
  6 15  1  0  0  0
  7  8  4  0  0  0
  7 12  4  0  0  0
  8  9  4  0  0  0
  9 10  4  0  0  0
  9 16  1  0  0  0
 10 11  4  0  0  0
 11 12  4  0  0  0
 12 13  1  0  0  0
 16 17  1  0  0  0
 17 18  1  0  0  0
 17 19  2  0  0  0
 18 20  4  0  0  0
 18 24  4  0  0  0
 20 21  4  0  0  0
 21 22  4  0  0  0
 22 23  4  0  0  0
 22 25  1  0  0  0
 23 24  4  0  0  0
 25 28  1  0  0  0
 28 29  1  0  0  0
  1 30  1  0  0  0
  1 31  1  0  0  0
  5 32  1  0  0  0
  8 33  1  0  0  0
 10 34  1  0  0  0
 11 35  1  0  0  0
 14 36  1  0  0  0
 15 37  1  0  0  0
 15 38  1  0  0  0
 15 39  1  0  0  0
 16 40  1  0  0  0
 21 41  1  0  0  0
 23 42  1  0  0  0
 24 43  1  0  0  0
 28 44  1  0  0  0
 28 45  1  0  0  0
 29 46  1  0  0  0
 29 47  1  0  0  0
 29 48  1  0  0  0
M  END
$$$$
