4hyf_ligand
  -I-interpret- 

 53 57  0  0  0  0  0  0  0  0999 V2000
  -13.4920   66.7210   16.2410 Cl  0  0  0  0  0
  -14.0070   69.3450   16.3350 C   0  0  0  0  0
  -14.8450   70.4940   16.6490 C   0  0  0  0  0
  -16.1140   70.2990   17.2320 C   0  0  0  0  0
  -16.5610   69.0300   17.5020 C   0  0  0  0  0
  -15.7320   67.9010   17.1900 C   0  0  0  0  0
  -14.4590   68.0860   16.6060 C   0  0  0  0  0
  -16.2080   66.5160   17.4800 N   0  0  0  0  0
  -16.6210   65.5700   16.5530 C   0  0  0  0  0
  -16.9710   64.4440   17.2260 N   0  0  0  0  0
  -16.7740   64.6530   18.5620 N   0  0  0  0  0
  -16.3090   65.9040   18.7380 C   0  0  0  0  0
  -15.9800   66.5110   20.0780 C   0  0  0  0  0
  -16.4030   65.9100   21.1840 C   0  0  0  0  0
  -16.2410   66.5870   22.4970 C   0  0  0  0  0
  -16.5550   66.0940   23.7120 N   0  0  0  0  0
  -16.2420   67.0490   24.6540 N   0  0  0  0  0
  -15.7400   68.1110   24.0130 C   0  0  0  0  0
  -15.2570   69.4070   24.6330 C   0  0  0  0  0
  -15.0710   69.5070   25.9950 C   0  0  0  0  0
  -14.6200   70.7310   26.5500 C   0  0  0  0  0
  -14.3630   71.8200   25.7260 C   0  0  0  0  0
  -14.5440   71.7200   24.3810 C   0  0  0  0  0
  -14.9970   70.4980   23.8150 C   0  0  0  0  0
  -13.8860   73.1100   26.3140 C   0  0  0  0  0
  -13.5270   74.0850   26.7580 N   0  0  0  0  0
  -15.7350   67.8360   22.6700 O   0  0  0  0  0
  -16.7190   65.7260   15.0110 C   0  0  0  0  0
  -17.6010   66.6180   14.5170 C   0  0  0  0  0
  -17.7120   66.7600   13.1090 C   0  0  0  0  0
  -16.9210   65.9720   12.3150 C   0  0  0  0  0
  -16.0570   65.0770   12.8700 C   0  0  0  0  0
  -15.9630   64.9630   14.2090 N   0  0  0  0  0
  -17.0470   66.1190   10.5480 S   0  0  0  0  0
  -18.3820   66.6000   10.1600 O   0  0  0  0  0
  -17.0260   64.8500    9.9510 O   0  0  0  0  0
  -15.7660   67.1630    9.8560 C   0  0  0  0  0
  -13.0243   69.4897   15.8861 H   0  0  0  0  0
  -14.4920   71.5025   16.4338 H   0  0  0  0  0
  -16.7414   71.1583   17.4688 H   0  0  0  0  0
  -17.5424   68.8801   17.9519 H   0  0  0  0  0
  -15.4014   67.4328   20.1384 H   0  0  0  0  0
  -16.8667   64.9251   21.1291 H   0  0  0  0  0
  -15.2692   68.6514   26.6405 H   0  0  0  0  0
  -14.4743   70.8182   27.6267 H   0  0  0  0  0
  -14.3416   72.5768   23.7383 H   0  0  0  0  0
  -15.1405   70.4171   22.7375 H   0  0  0  0  0
  -18.2171   67.2187   15.1861 H   0  0  0  0  0
  -18.4074   67.4763   12.6715 H   0  0  0  0  0
  -15.4387   64.4500   12.2276 H   0  0  0  0  0
  -15.8401   67.1544    8.7686 H   0  0  0  0  0
  -15.8923   68.1819   10.2220 H   0  0  0  0  0
  -14.7890   66.7856   10.1579 H   0  0  0  0  0
  7  1  1  0  0  0
  2  3  4  0  0  0
  2  7  4  0  0  0
  3  4  4  0  0  0
  4  5  4  0  0  0
  5  6  4  0  0  0
  6  7  4  0  0  0
  6  8  1  0  0  0
  8  9  4  0  0  0
  8 12  4  0  0  0
  9 10  4  0  0  0
  9 28  1  0  0  0
 10 11  4  0  0  0
 11 12  4  0  0  0
 12 13  1  0  0  0
 13 14  2  0  0  0
 14 15  1  0  0  0
 15 16  4  0  0  0
 15 27  4  0  0  0
 16 17  4  0  0  0
 17 18  4  0  0  0
 18 19  1  0  0  0
 18 27  4  0  0  0
 19 20  4  0  0  0
 19 24  4  0  0  0
 20 21  4  0  0  0
 21 22  4  0  0  0
 22 23  4  0  0  0
 22 25  1  0  0  0
 23 24  4  0  0  0
 25 26  3  0  0  0
 28 29  4  0  0  0
 28 33  4  0  0  0
 29 30  4  0  0  0
 30 31  4  0  0  0
 31 32  4  0  0  0
 31 34  1  0  0  0
 32 33  4  0  0  0
 34 35  2  0  0  0
 34 36  2  0  0  0
 34 37  1  0  0  0
  2 38  1  0  0  0
  3 39  1  0  0  0
  4 40  1  0  0  0
  5 41  1  0  0  0
 13 42  1  0  0  0
 14 43  1  0  0  0
 20 44  1  0  0  0
 21 45  1  0  0  0
 23 46  1  0  0  0
 24 47  1  0  0  0
 29 48  1  0  0  0
 30 49  1  0  0  0
 32 50  1  0  0  0
 37 51  1  0  0  0
 37 52  1  0  0  0
 37 53  1  0  0  0
M  END
$$$$
