1lst_ligand
  -I-interpret- 

 26 25  0  0  0  0  0  0  0  0999 V2000
   18.6630   58.2310   45.7710 N   0  3  0  0  0
   18.7290   57.4460   46.9820 C   0  0  0  0  0
   18.1410   58.2870   48.1410 C   0  0  0  0  0
   18.0400   57.7970   49.2670 O   0  0  0  0  0
   20.1830   57.0870   47.2580 C   0  0  0  0  0
   21.1600   58.2480   47.2380 C   0  0  0  0  0
   22.4420   57.7740   47.8560 C   0  0  0  0  0
   23.5210   58.8140   47.6670 C   0  0  0  0  0
   24.7560   58.4420   48.3590 N   0  3  0  0  0
   17.7910   59.4530   47.9000 O   0  0  0  0  0
   17.6917   58.4760   45.5786 H   0  0  0  0  0
   19.2127   59.0821   45.8886 H   0  0  0  0  0
   19.0381   57.6872   44.9939 H   0  0  0  0  0
   18.1557   56.5243   46.8827 H   0  0  0  0  0
   20.4911   56.4094   46.4618 H   0  0  0  0  0
   20.2139   56.6738   48.2662 H   0  0  0  0  0
   20.7579   59.0925   47.7978 H   0  0  0  0  0
   21.3323   58.5819   46.2148 H   0  0  0  0  0
   22.7503   56.8455   47.3755 H   0  0  0  0  0
   22.2866   57.6076   48.9220 H   0  0  0  0  0
   23.1656   59.7577   48.0807 H   0  0  0  0  0
   23.7354   58.8978   46.6016 H   0  0  0  0  0
   25.4593   59.1654   48.2093 H   0  0  0  0  0
   24.5699   58.3484   49.3575 H   0  0  0  0  0
   25.0964   57.5538   47.9907 H   0  0  0  0  0
   17.9472   59.6477   46.9730 H   0  0  0  0  0
  1  2  1  0  0  0
  2  3  1  0  0  0
  2  5  1  0  0  0
  3  4  2  0  0  0
  3 10  1  0  0  0
  5  6  1  0  0  0
  6  7  1  0  0  0
  7  8  1  0  0  0
  8  9  1  0  0  0
  1 11  1  0  0  0
  1 12  1  0  0  0
  1 13  1  0  0  0
  2 14  1  0  0  0
  5 15  1  0  0  0
  5 16  1  0  0  0
  6 17  1  0  0  0
  6 18  1  0  0  0
  7 19  1  0  0  0
  7 20  1  0  0  0
  8 21  1  0  0  0
  8 22  1  0  0  0
  9 23  1  0  0  0
  9 24  1  0  0  0
  9 25  1  0  0  0
 10 26  1  0  0  0
M  END
$$$$
