2v85_ligand
  -I-interpret- 

198197  0  0  0  0  0  0  0  0999 V2000
  -34.5580   20.9420   34.5050 N   0  3  0  0  0
  -35.2380   20.3350   33.3210 C   0  0  0  0  0
  -35.5660   18.8660   33.5670 C   0  0  0  0  0
  -34.8370   18.1670   34.2610 O   0  0  0  0  0
  -34.3480   20.4700   32.0810 C   0  0  0  0  0
  -45.2340   19.3220   34.6340 C   0  0  0  0  0
  -43.8140   19.0210   34.8140 N   0  0  0  0  0
  -43.1060   18.4350   33.8770 C   0  0  0  0  0
  -43.6670   18.0860   32.7060 N   0  0  0  0  0
  -41.8020   18.1740   34.0820 N   0  0  0  0  0
  -40.9040   17.5180   33.1030 C   0  0  0  0  0
  -39.4700   17.7040   33.5390 C   0  0  0  0  0
  -38.5460   16.8430   32.6990 C   0  0  0  0  0
  -37.0970   17.0180   33.1400 C   0  0  0  0  0
  -36.1960   16.1400   32.2870 C   0  0  0  0  0
  -35.9110   16.4650   31.1460 O   0  0  0  0  0
  -36.6810   18.4130   32.9990 N   0  0  0  0  0
  -35.7580   15.0190   32.8540 N   0  0  0  0  0
  -34.8750   14.1070   32.1340 C   0  0  0  0  0
  -35.2070   12.6450   32.4060 C   0  0  0  0  0
  -36.0050   12.3350   33.2740 O   0  0  0  0  0
  -33.4030   14.3160   32.5500 C   0  0  0  0  0
  -33.2630   14.0080   33.9440 O   0  0  0  0  0
  -32.9620   15.7550   32.3070 C   0  0  0  0  0
  -34.5570   11.7650   31.6470 N   0  0  0  0  0
  -34.7030   10.3180   31.7800 C   0  0  0  0  0
  -35.5460    9.7390   30.6400 C   0  0  0  0  0
  -36.9940   10.1800   30.6290 C   0  0  0  0  0
  -37.7490    9.5070   29.4980 C   0  0  0  0  0
  -39.2100    9.9570   29.4550 C   0  0  0  0  0
  -40.0290    9.3310   28.3580 N   0  3  0  0  0
  -33.3190    9.6780   31.7320 C   0  0  0  0  0
  -32.4580   10.1150   30.9880 O   0  0  0  0  0
  -40.1080    7.8410   28.5570 C   0  0  0  0  0
  -41.4060    9.9230   28.4880 C   0  0  0  0  0
  -39.4790    9.6120   26.9900 C   0  0  0  0  0
  -33.1300    8.6320   32.5310 N   0  0  0  0  0
  -31.8650    7.9020   32.5940 C   0  0  0  0  0
  -30.6790    8.7860   32.9540 C   0  0  0  0  0
  -29.6190    8.6590   32.3730 O   0  0  0  0  0
  -31.5850    7.2070   31.2550 C   0  0  0  0  0
  -32.6910    6.2720   30.7840 C   0  0  0  0  0
  -32.9820    5.1690   31.7790 C   0  0  0  0  0
  -32.0800    4.5000   32.2500 O   0  0  0  0  0
  -34.2580    4.9710   32.0900 N   0  0  0  0  0
  -30.8670    9.6930   33.9040 N   0  0  0  0  0
  -29.7740   10.5630   34.3240 C   0  0  0  0  0
  -29.3970   10.2410   35.7590 C   0  0  0  0  0
  -28.6080   10.9320   36.3700 O   0  0  0  0  0
  -30.1390   12.0590   34.2190 C   0  0  0  0  0
  -31.4300   12.2800   34.7910 O   0  0  0  0  0
  -30.1330   12.5120   32.7700 C   0  0  0  0  0
  -29.9850    9.1730   36.2850 N   0  0  0  0  0
  -29.6940    8.7510   37.6400 C   0  0  0  0  0
  -28.5020    7.8120   37.6240 C   0  0  0  0  0
  -28.4200    6.8770   36.8490 O   0  0  0  0  0
  -30.9000    8.0660   38.2640 C   0  0  0  0  0
  -27.5800    8.1130   38.5160 N   0  0  0  0  0
  -26.3410    7.3910   38.7090 C   0  0  0  0  0
  -26.6680    5.9760   39.2760 C   0  0  0  0  0
  -27.3180    5.8750   40.2990 O   0  0  0  0  0
  -25.5230    8.2770   39.6640 C   0  0  0  0  0
  -26.1880    9.7160   39.8850 C   0  0  0  0  0
  -25.9040   10.7770   38.7590 C   0  0  0  0  0
  -27.0620   11.5780   38.3010 N   0  0  0  0  0
  -27.4790   12.7410   38.8160 C   0  0  0  0  0
  -26.8500   13.2980   39.8420 N   0  0  0  0  0
  -28.5280   13.3650   38.2830 N   0  0  0  0  0
  -26.2480    4.8960   38.5930 N   0  0  0  0  0
  -26.5320    3.5120   39.0500 C   0  0  0  0  0
  -25.6510    3.0520   40.2100 C   0  0  0  0  0
  -24.4590    3.2960   40.2320 O   0  0  0  0  0
  -26.4160    2.4870   37.8900 C   0  0  0  0  0
  -26.3380    0.9920   38.3410 C   0  0  0  0  0
  -26.4860   -0.0430   37.1900 C   0  0  0  0  0
  -26.1640   -1.4760   37.6740 C   0  0  0  0  0
  -26.7130   -2.5950   36.8370 N   0  3  0  0  0
  -26.2650    2.3500   41.1560 N   0  0  0  0  0
  -25.5720    1.8710   42.3490 C   0  0  0  0  0
  -24.5210    0.7760   42.1960 C   0  0  0  0  0
  -24.7460   -0.2610   41.6140 O   0  0  0  0  0
  -26.5910    1.4330   43.3980 C   0  0  0  0  0
  -23.3750    1.0720   42.7820 N   0  0  0  0  0
  -22.2090    0.2320   42.8590 C   0  0  0  0  0
  -21.0260    1.1520   42.8970 C   0  0  0  0  0
  -20.3440    1.4800   41.9070 O   0  0  0  0  0
  -22.1290   -0.7480   41.7440 C   0  0  0  0  0
  -20.9640    1.6150   44.1310 N   0  0  0  0  0
  -20.0290    2.5260   44.6950 C   0  0  0  0  0
  -20.3720    2.1970   46.1470 C   0  0  0  0  0
  -21.5590    1.8860   46.4310 O   0  0  0  0  0
  -19.4740    2.2500   47.0190 O   0  0  0  0  0
  -35.1572   20.8476   35.3251 H   0  0  0  0  0
  -33.6739   20.4613   34.6713 H   0  0  0  0  0
  -34.3804   21.9300   34.3241 H   0  0  0  0  0
  -36.1736   20.8694   33.1564 H   0  0  0  0  0
  -33.4226   19.9156   32.2374 H   0  0  0  0  0
  -34.8718   20.0678   31.2138 H   0  0  0  0  0
  -34.1187   21.5222   31.9128 H   0  0  0  0  0
  -45.3575   19.9881   33.7801 H   0  0  0  0  0
  -45.7807   18.3959   34.4561 H   0  0  0  0  0
  -45.6183   19.8055   35.5321 H   0  0  0  0  0
  -43.3612   19.2736   35.6924 H   0  0  0  0  0
  -43.1052   17.6297   31.9873 H   0  0  0  0  0
  -41.4015   18.4485   34.9790 H   0  0  0  0  0
  -41.0474   17.9652   32.1194 H   0  0  0  0  0
  -41.1349   16.4540   33.0517 H   0  0  0  0  0
  -39.3759   17.4104   34.5845 H   0  0  0  0  0
  -39.1932   18.7506   33.4118 H   0  0  0  0  0
  -38.6355   17.1445   31.6554 H   0  0  0  0  0
  -38.8284   15.7976   32.8237 H   0  0  0  0  0
  -37.0161   16.7287   34.1878 H   0  0  0  0  0
  -37.2582   19.0528   32.4533 H   0  0  0  0  0
  -36.0438   14.7934   33.8068 H   0  0  0  0  0
  -35.0215   14.3306   31.0773 H   0  0  0  0  0
  -32.7754   13.6583   31.9486 H   0  0  0  0  0
  -32.3492   14.1362   34.2087 H   0  0  0  0  0
  -33.0619   15.9903   31.2474 H   0  0  0  0  0
  -33.5887   16.4292   32.8908 H   0  0  0  0  0
  -31.9213   15.8707   32.6097 H   0  0  0  0  0
  -33.9218   12.1214   30.9329 H   0  0  0  0  0
  -35.2015   10.1071   32.7261 H   0  0  0  0  0
  -35.5472    8.6565   30.7674 H   0  0  0  0  0
  -35.1020   10.0919   29.7092 H   0  0  0  0  0
  -37.0331   11.2599   30.4861 H   0  0  0  0  0
  -37.4552    9.9011   31.5764 H   0  0  0  0  0
  -37.7239    8.4292   29.6589 H   0  0  0  0  0
  -37.2752    9.7806   28.5553 H   0  0  0  0  0
  -39.2057   11.0318   29.2738 H   0  0  0  0  0
  -39.6626    9.6562   30.3999 H   0  0  0  0  0
  -39.1030    7.4195   28.5388 H   0  0  0  0  0
  -40.5751    7.6284   29.5186 H   0  0  0  0  0
  -40.7029    7.4000   27.7572 H   0  0  0  0  0
  -41.8115    9.6841   29.4712 H   0  0  0  0  0
  -41.3474   11.0051   28.3709 H   0  0  0  0  0
  -42.0532    9.5072   27.7158 H   0  0  0  0  0
  -39.4617   10.6887   26.8209 H   0  0  0  0  0
  -38.4663    9.2153   26.9184 H   0  0  0  0  0
  -40.1111    9.1353   26.2407 H   0  0  0  0  0
  -33.9005    8.3260   33.1252 H   0  0  0  0  0
  -31.9778    7.1666   33.3906 H   0  0  0  0  0
  -30.6909    6.5990   31.3925 H   0  0  0  0  0
  -31.4886    7.9905   30.5034 H   0  0  0  0  0
  -32.3646    5.8075   29.8535 H   0  0  0  0  0
  -33.5995    6.8616   30.6609 H   0  0  0  0  0
  -34.5143    4.2345   32.7475 H   0  0  0  0  0
  -34.9816    5.5554   31.6714 H   0  0  0  0  0
  -31.7828    9.7826   34.3440 H   0  0  0  0  0
  -28.9345   10.3800   33.6532 H   0  0  0  0  0
  -29.3947   12.6387   34.7649 H   0  0  0  0  0
  -31.6534   13.2112   34.7238 H   0  0  0  0  0
  -29.1398   12.3604   32.3474 H   0  0  0  0  0
  -30.8620   11.9303   32.2058 H   0  0  0  0  0
  -30.3930   13.5694   32.7201 H   0  0  0  0  0
  -30.6523    8.6412   35.7261 H   0  0  0  0  0
  -29.4592    9.6277   38.2436 H   0  0  0  0  0
  -31.7402    8.7601   38.2846 H   0  0  0  0  0
  -31.1652    7.1900   37.6721 H   0  0  0  0  0
  -30.6559    7.7587   39.2809 H   0  0  0  0  0
  -27.7533    8.9182   39.1177 H   0  0  0  0  0
  -25.7694    7.2119   37.7983 H   0  0  0  0  0
  -24.5372    8.4260   39.2234 H   0  0  0  0  0
  -25.4763    7.7759   40.6308 H   0  0  0  0  0
  -25.7590   10.1172   40.8032 H   0  0  0  0  0
  -27.2666    9.5596   39.8975 H   0  0  0  0  0
  -25.5642   10.2127   37.8906 H   0  0  0  0  0
  -25.1946   11.4868   39.1843 H   0  0  0  0  0
  -27.5951   11.2066   37.5147 H   0  0  0  0  0
  -26.0355   12.8398   40.2506 H   0  0  0  0  0
  -28.8375   14.2590   38.6643 H   0  0  0  0  0
  -29.0219   12.9489   37.4935 H   0  0  0  0  0
  -25.7170    5.0322   37.7329 H   0  0  0  0  0
  -27.5600    3.5479   39.4106 H   0  0  0  0  0
  -25.4869    2.7078   37.3645 H   0  0  0  0  0
  -27.3180    2.5887   37.2866 H   0  0  0  0  0
  -27.1681    0.8241   39.0271 H   0  0  0  0  0
  -25.3497    0.8432   38.7761 H   0  0  0  0  0
  -25.7862    0.2196   36.3966 H   0  0  0  0  0
  -27.5165   -0.0210   36.8354 H   0  0  0  0  0
  -26.6236   -1.5765   38.6573 H   0  0  0  0  0
  -25.0789   -1.5731   37.6396 H   0  0  0  0  0
  -26.4414   -3.4889   37.2463 H   0  0  0  0  0
  -27.7304   -2.5283   36.8074 H   0  0  0  0  0
  -26.3389   -2.5253   35.8907 H   0  0  0  0  0
  -27.2565    2.1378   41.0451 H   0  0  0  0  0
  -24.9885    2.7427   42.6453 H   0  0  0  0  0
  -27.2239    2.2797   43.6636 H   0  0  0  0  0
  -27.2069    0.6307   42.9916 H   0  0  0  0  0
  -26.0672    1.0769   44.2851 H   0  0  0  0  0
  -23.3098    1.9886   43.2247 H   0  0  0  0  0
  -22.2467   -0.3876   43.7550 H   0  0  0  0  0
  -23.0069   -1.3937   41.7659 H   0  0  0  0  0
  -22.0928   -0.2139   40.7945 H   0  0  0  0  0
  -21.2289   -1.3523   41.8570 H   0  0  0  0  0
  -21.6846    1.2730   44.7668 H   0  0  0  0  0
  -20.1097    3.5697   44.3914 H   0  0  0  0  0
  -18.9870    2.4153   44.3950 H   0  0  0  0  0
  -22.0924    1.9015   45.6329 H   0  0  0  0  0
  2  1  1  0  0  0
  3  2  1  0  0  0
  2  5  1  0  0  0
  3  4  2  0  0  0
 17  3  1  0  0  0
  7  6  1  0  0  0
  8  7  1  0  0  0
  8  9  2  0  0  0
 10  8  1  0  0  0
 11 10  1  0  0  0
 12 11  1  0  0  0
 13 12  1  0  0  0
 14 13  1  0  0  0
 14 15  1  0  0  0
 14 17  1  0  0  0
 15 16  2  0  0  0
 15 18  1  0  0  0
 18 19  1  0  0  0
 19 20  1  0  0  0
 19 22  1  0  0  0
 20 21  2  0  0  0
 20 25  1  0  0  0
 22 23  1  0  0  0
 22 24  1  0  0  0
 25 26  1  0  0  0
 26 27  1  0  0  0
 26 32  1  0  0  0
 27 28  1  0  0  0
 28 29  1  0  0  0
 29 30  1  0  0  0
 30 31  1  0  0  0
 31 34  1  0  0  0
 31 35  1  0  0  0
 31 36  1  0  0  0
 32 33  2  0  0  0
 32 37  1  0  0  0
 37 38  1  0  0  0
 38 39  1  0  0  0
 38 41  1  0  0  0
 39 40  2  0  0  0
 39 46  1  0  0  0
 41 42  1  0  0  0
 42 43  1  0  0  0
 43 44  2  0  0  0
 43 45  1  0  0  0
 46 47  1  0  0  0
 47 48  1  0  0  0
 47 50  1  0  0  0
 48 49  2  0  0  0
 48 53  1  0  0  0
 50 51  1  0  0  0
 50 52  1  0  0  0
 53 54  1  0  0  0
 54 55  1  0  0  0
 54 57  1  0  0  0
 55 56  2  0  0  0
 55 58  1  0  0  0
 58 59  1  0  0  0
 59 60  1  0  0  0
 59 62  1  0  0  0
 60 61  2  0  0  0
 60 69  1  0  0  0
 62 63  1  0  0  0
 63 64  1  0  0  0
 64 65  1  0  0  0
 65 66  1  0  0  0
 66 67  2  0  0  0
 66 68  1  0  0  0
 69 70  1  0  0  0
 70 71  1  0  0  0
 70 73  1  0  0  0
 71 72  2  0  0  0
 71 78  1  0  0  0
 73 74  1  0  0  0
 74 75  1  0  0  0
 75 76  1  0  0  0
 76 77  1  0  0  0
 78 79  1  0  0  0
 79 80  1  0  0  0
 79 82  1  0  0  0
 80 81  2  0  0  0
 80 83  1  0  0  0
 83 84  1  0  0  0
 84 85  1  0  0  0
 84 87  1  0  0  0
 85 86  2  0  0  0
 85 88  1  0  0  0
 88 89  1  0  0  0
 89 90  1  0  0  0
 90 91  1  0  0  0
 90 92  2  0  0  0
  1 93  1  0  0  0
  1 94  1  0  0  0
  1 95  1  0  0  0
  2 96  1  0  0  0
  5 97  1  0  0  0
  5 98  1  0  0  0
  5 99  1  0  0  0
  6100  1  0  0  0
  6101  1  0  0  0
  6102  1  0  0  0
  7103  1  0  0  0
  9104  1  0  0  0
 10105  1  0  0  0
 11106  1  0  0  0
 11107  1  0  0  0
 12108  1  0  0  0
 12109  1  0  0  0
 13110  1  0  0  0
 13111  1  0  0  0
 14112  1  0  0  0
 17113  1  0  0  0
 18114  1  0  0  0
 19115  1  0  0  0
 22116  1  0  0  0
 23117  1  0  0  0
 24118  1  0  0  0
 24119  1  0  0  0
 24120  1  0  0  0
 25121  1  0  0  0
 26122  1  0  0  0
 27123  1  0  0  0
 27124  1  0  0  0
 28125  1  0  0  0
 28126  1  0  0  0
 29127  1  0  0  0
 29128  1  0  0  0
 30129  1  0  0  0
 30130  1  0  0  0
 34131  1  0  0  0
 34132  1  0  0  0
 34133  1  0  0  0
 35134  1  0  0  0
 35135  1  0  0  0
 35136  1  0  0  0
 36137  1  0  0  0
 36138  1  0  0  0
 36139  1  0  0  0
 37140  1  0  0  0
 38141  1  0  0  0
 41142  1  0  0  0
 41143  1  0  0  0
 42144  1  0  0  0
 42145  1  0  0  0
 45146  1  0  0  0
 45147  1  0  0  0
 46148  1  0  0  0
 47149  1  0  0  0
 50150  1  0  0  0
 51151  1  0  0  0
 52152  1  0  0  0
 52153  1  0  0  0
 52154  1  0  0  0
 53155  1  0  0  0
 54156  1  0  0  0
 57157  1  0  0  0
 57158  1  0  0  0
 57159  1  0  0  0
 58160  1  0  0  0
 59161  1  0  0  0
 62162  1  0  0  0
 62163  1  0  0  0
 63164  1  0  0  0
 63165  1  0  0  0
 64166  1  0  0  0
 64167  1  0  0  0
 65168  1  0  0  0
 67169  1  0  0  0
 68170  1  0  0  0
 68171  1  0  0  0
 69172  1  0  0  0
 70173  1  0  0  0
 73174  1  0  0  0
 73175  1  0  0  0
 74176  1  0  0  0
 74177  1  0  0  0
 75178  1  0  0  0
 75179  1  0  0  0
 76180  1  0  0  0
 76181  1  0  0  0
 77182  1  0  0  0
 77183  1  0  0  0
 77184  1  0  0  0
 78185  1  0  0  0
 79186  1  0  0  0
 82187  1  0  0  0
 82188  1  0  0  0
 82189  1  0  0  0
 83190  1  0  0  0
 84191  1  0  0  0
 87192  1  0  0  0
 87193  1  0  0  0
 87194  1  0  0  0
 88195  1  0  0  0
 89196  1  0  0  0
 89197  1  0  0  0
 91198  1  0  0  0
M  END
$$$$
