### 
### Created by X-TOOL on Mon Sep 10 21:12:55 2018
### 

@<TRIPOS>MOLECULE
2v85_ligand
  199   198     1     0     0
SMALL
GAST_HUCK


@<TRIPOS>ATOM
      1 N         -34.5580   20.9420   34.5050 N.4       1 ALA         0.2377
      2 CA        -35.2380   20.3350   33.3210 C.3       1 ALA         0.0621
      3 C         -35.5660   18.8660   33.5670 C.2       1 ALA         0.2264
      4 O         -34.8370   18.1670   34.2610 O.2       1 ALA        -0.3907
      5 CB        -34.3480   20.4700   32.0810 C.3       1 ALA        -0.0040
      6 CAA       -45.2340   19.3220   34.6340 C.3       1 NMM         0.0514
      7 NH2       -43.8140   19.0210   34.8140 N.pl3     1 NMM        -0.2749
      8 CZ        -43.1060   18.4350   33.8770 C.cat     1 NMM         0.2901
      9 NH1       -43.6670   18.0860   32.7060 N.pl3     1 NMM        -0.2848
     10 NE        -41.8020   18.1740   34.0820 N.pl3     1 NMM        -0.2722
     11 CD        -40.9040   17.5180   33.1030 C.3       1 NMM         0.0627
     12 CG        -39.4700   17.7040   33.5390 C.3       1 NMM        -0.0156
     13 CB        -38.5460   16.8430   32.6990 C.3       1 NMM        -0.0092
     14 CA        -37.0970   17.0180   33.1400 C.3       1 NMM         0.1312
     15 C         -36.1960   16.1400   32.2870 C.2       1 NMM         0.2040
     16 O         -35.9110   16.4650   31.1460 O.2       1 NMM        -0.3944
     17 N         -36.6810   18.4130   32.9990 N.am      1 NMM        -0.2610
     18 N         -35.7580   15.0190   32.8540 N.am      1 THR        -0.2613
     19 CA        -34.8750   14.1070   32.1340 C.3       1 THR         0.1565
     20 C         -35.2070   12.6450   32.4060 C.2       1 THR         0.2065
     21 O         -36.0050   12.3350   33.2740 O.2       1 THR        -0.3943
     22 CB        -33.4030   14.3160   32.5500 C.3       1 THR         0.0924
     23 OG1       -33.2630   14.0080   33.9440 O.3       1 THR        -0.3874
     24 CG2       -32.9620   15.7550   32.3070 C.3       1 THR        -0.0346
     25 N         -34.5570   11.7650   31.6470 N.am      1 M3L        -0.2637
     26 CA        -34.7030   10.3180   31.7800 C.3       1 M3L         0.1310
     27 CB        -35.5460    9.7390   30.6400 C.3       1 M3L        -0.0122
     28 CG        -36.9940   10.1800   30.6290 C.3       1 M3L        -0.0440
     29 CD        -37.7490    9.5070   29.4980 C.3       1 M3L        -0.0123
     30 CE        -39.2100    9.9570   29.4550 C.3       1 M3L        -0.0309
     31 NZ        -40.0290    9.3310   28.3580 N.4       1 M3L         0.2369
     32 C         -33.3190    9.6780   31.7320 C.2       1 M3L         0.2039
     33 O         -32.4580   10.1150   30.9880 O.2       1 M3L        -0.3944
     34 CM1       -40.1080    7.8410   28.5570 C.3       1 M3L        -0.0418
     35 CM2       -41.4060    9.9230   28.4880 C.3       1 M3L        -0.0418
     36 CM3       -39.4790    9.6120   26.9900 C.3       1 M3L        -0.0418
     37 N         -33.1300    8.6320   32.5310 N.am      1 GLN        -0.2636
     38 CA        -31.8650    7.9020   32.5940 C.3       1 GLN         0.1330
     39 C         -30.6790    8.7860   32.9540 C.2       1 GLN         0.2041
     40 O         -29.6190    8.6590   32.3730 O.2       1 GLN        -0.3944
     41 CB        -31.5850    7.2070   31.2550 C.3       1 GLN         0.0045
     42 CG        -32.6910    6.2720   30.7840 C.3       1 GLN         0.0412
     43 CD        -32.9820    5.1690   31.7790 C.2       1 GLN         0.1737
     44 OE1       -32.0800    4.5000   32.2500 O.2       1 GLN        -0.3973
     45 NE2       -34.2580    4.9710   32.0900 N.am      1 GLN        -0.3009
     46 N         -30.8670    9.6930   33.9040 N.am      1 THR        -0.2613
     47 CA        -29.7740   10.5630   34.3240 C.3       1 THR         0.1565
     48 C         -29.3970   10.2410   35.7590 C.2       1 THR         0.2065
     49 O         -28.6080   10.9320   36.3700 O.2       1 THR        -0.3943
     50 CB        -30.1390   12.0590   34.2190 C.3       1 THR         0.0924
     51 OG1       -31.4300   12.2800   34.7910 O.3       1 THR        -0.3874
     52 CG2       -30.1330   12.5120   32.7700 C.3       1 THR        -0.0346
     53 N         -29.9850    9.1730   36.2850 N.am      1 ALA        -0.2639
     54 CA        -29.6940    8.7510   37.6400 C.3       1 ALA         0.1282
     55 C         -28.5020    7.8120   37.6240 C.2       1 ALA         0.2036
     56 O         -28.4200    6.8770   36.8490 O.2       1 ALA        -0.3944
     57 CB        -30.9000    8.0660   38.2640 C.3       1 ALA        -0.0244
     58 N         -27.5800    8.1130   38.5160 N.am      1 ARG        -0.2637
     59 CA        -26.3410    7.3910   38.7090 C.3       1 ARG         0.1311
     60 C         -26.6680    5.9760   39.2760 C.2       1 ARG         0.2039
     61 O         -27.3180    5.8750   40.2990 O.2       1 ARG        -0.3944
     62 CB        -25.5230    8.2770   39.6640 C.3       1 ARG        -0.0092
     63 CG        -26.1880    9.7160   39.8850 C.3       1 ARG        -0.0156
     64 CD        -25.9040   10.7770   38.7590 C.3       1 ARG         0.0627
     65 NE        -27.0620   11.5780   38.3010 N.pl3     1 ARG        -0.2723
     66 CZ        -27.4790   12.7410   38.8160 C.cat     1 ARG         0.2882
     67 NH1       -26.8500   13.2980   39.8420 N.pl3     1 ARG        -0.2849
     68 NH2       -28.5280   13.3650   38.2830 N.pl3     1 ARG        -0.2849
     69 N         -26.2480    4.8960   38.5930 N.am      1 LYS        -0.2637
     70 CA        -26.5320    3.5120   39.0500 C.3       1 LYS         0.1310
     71 C         -25.6510    3.0520   40.2100 C.2       1 LYS         0.2039
     72 O         -24.4590    3.2960   40.2320 O.2       1 LYS        -0.3944
     73 CB        -26.4160    2.4870   37.8900 C.3       1 LYS        -0.0122
     74 CG        -26.3380    0.9920   38.3410 C.3       1 LYS        -0.0440
     75 CD        -26.4860   -0.0430   37.1900 C.3       1 LYS        -0.0124
     76 CE        -26.1640   -1.4760   37.6740 C.3       1 LYS        -0.0354
     77 NZ        -26.7130   -2.5950   36.8370 N.4       1 LYS         0.2185
     78 N         -26.2650    2.3500   41.1560 N.am      1 ALA        -0.2640
     79 CA        -25.5720    1.8710   42.3490 C.3       1 ALA         0.1282
     80 C         -24.5210    0.7760   42.1960 C.2       1 ALA         0.2036
     81 O         -24.7460   -0.2610   41.6140 O.2       1 ALA        -0.3944
     82 CB        -26.5910    1.4330   43.3980 C.3       1 ALA        -0.0244
     83 N         -23.3750    1.0720   42.7820 N.am      1 ALA        -0.2640
     84 CA        -22.2090    0.2320   42.8590 C.3       1 ALA         0.1281
     85 C         -21.0260    1.1520   42.8970 C.2       1 ALA         0.2029
     86 O         -20.3440    1.4800   41.9070 O.2       1 ALA        -0.3944
     87 CB        -22.1290   -0.7480   41.7440 C.3       1 ALA        -0.0244
     88 N         -20.9640    1.6150   44.1310 N.am      1 GLY        -0.2722
     89 CA        -20.0290    2.5260   44.6950 C.3       1 GLY         0.0833
     90 C         -20.3720    2.1970   46.1470 C.2       1 GLY         0.0570
     91 O         -21.5590    1.8860   46.4310 O.co2     1 GLY        -0.5669
     92 OXT       -19.4740    2.2500   47.0190 O.co2     1 GLY        -0.5669
     93 H1        -34.3535   21.9106   34.3150 H         1 ALA         0.2015
     94 H2        -33.6994   20.4473   34.6896 H         1 ALA         0.2015
     95 H3        -35.1624   20.8777   35.3091 H         1 ALA         0.2015
     96 H4        -36.1781   20.8775   33.1423 H         1 ALA         0.1095
     97 H5        -34.8557   20.0210   31.2146 H         1 ALA         0.0310
     98 H6        -33.3939   19.9513   32.2562 H         1 ALA         0.0310
     99 H7        -34.1555   21.5346   31.8819 H         1 ALA         0.0310
    100 H8        -45.6230   19.8100   35.5398 H         1 NMM         0.0652
    101 H9        -45.7869   18.3882   34.4544 H         1 NMM         0.0652
    102 H10       -45.3600   19.9943   33.7725 H         1 NMM         0.0652
    103 H11       -43.3568   19.2761   35.7010 H         1 NMM         0.2639
    104 H12       -43.0993   17.6267   31.9796 H         1 NMM         0.2615
    105 H13       -44.6645   18.2779   32.5353 H         1 NMM         0.2615
    106 H14       -41.3976   18.4512   34.9878 H         1 NMM         0.2642
    107 H15       -41.0482   17.9709   32.1110 H         1 NMM         0.0689
    108 H16       -41.1366   16.4440   33.0531 H         1 NMM         0.0689
    109 H17       -39.3723   17.4160   34.5961 H         1 NMM         0.0301
    110 H18       -39.1889   18.7607   33.4194 H         1 NMM         0.0301
    111 H19       -38.6399   17.1364   31.6430 H         1 NMM         0.0313
    112 H20       -38.8331   15.7873   32.8132 H         1 NMM         0.0313
    113 H21       -37.0042   16.7192   34.1945 H         1 NMM         0.0800
    114 H22       -37.2469   19.0403   32.4640 H         1 NMM         0.1884
    115 H23       -36.0382   14.7979   33.7881 H         1 THR         0.1884
    116 H24       -34.9802   14.3048   31.0571 H         1 THR         0.0826
    117 H25       -32.7644   13.6416   31.9606 H         1 THR         0.0639
    118 H26       -33.8245   14.5819   34.4519 H         1 THR         0.2101
    119 H27       -31.9118   15.8731   32.6121 H         1 THR         0.0257
    120 H28       -33.5936   16.4365   32.8957 H         1 THR         0.0257
    121 H29       -33.0623   15.9937   31.2379 H         1 THR         0.0257
    122 H30       -33.9342   12.1144   30.9469 H         1 M3L         0.1883
    123 H31       -35.1858   10.0892   32.7415 H         1 M3L         0.0800
    124 H32       -35.5237    8.6423   30.7218 H         1 M3L         0.0312
    125 H33       -35.0886   10.0451   29.6876 H         1 M3L         0.0312
    126 H34       -37.0386   11.2708   30.4945 H         1 M3L         0.0269
    127 H35       -37.4616    9.9092   31.5871 H         1 M3L         0.0269
    128 H36       -37.7146    8.4172   29.6437 H         1 M3L         0.0317
    129 H37       -37.2672    9.7647   28.5433 H         1 M3L         0.0317
    130 H38       -39.2285   11.0481   29.3163 H         1 M3L         0.0815
    131 H39       -39.6756    9.7018   30.4183 H         1 M3L         0.0815
    132 H40       -40.7082    7.3947   27.7504 H         1 M3L         0.0778
    133 H41       -40.5793    7.6251   29.5272 H         1 M3L         0.0778
    134 H42       -39.0943    7.4144   28.5387 H         1 M3L         0.0778
    135 H43       -41.3520   11.0121   28.3431 H         1 M3L         0.0778
    136 H44       -41.8055    9.7057   29.4896 H         1 M3L         0.0778
    137 H45       -42.0672    9.4841   27.7263 H         1 M3L         0.0778
    138 H46       -38.4727    9.1763   26.9028 H         1 M3L         0.0778
    139 H47       -39.4225   10.6994   26.8337 H         1 M3L         0.0778
    140 H48       -40.1386    9.1662   26.2309 H         1 M3L         0.0778
    141 H49       -33.8854    8.3320   33.1136 H         1 GLN         0.1883
    142 H50       -31.9620    7.1319   33.3735 H         1 GLN         0.0801
    143 H51       -30.6606    6.6200   31.3595 H         1 GLN         0.0337
    144 H52       -31.4420    7.9830   30.4886 H         1 GLN         0.0337
    145 H53       -32.3848    5.8155   29.8312 H         1 GLN         0.0504
    146 H54       -33.6082    6.8597   30.6310 H         1 GLN         0.0504
    147 H55       -34.5085    4.2555   32.7421 H         1 GLN         0.1814
    148 H56       -34.9682    5.5375   31.6720 H         1 GLN         0.1814
    149 H57       -31.7649    9.7809   34.3354 H         1 THR         0.1884
    150 H58       -28.9079   10.3703   33.6739 H         1 THR         0.0826
    151 H59       -29.3947   12.6462   34.7769 H         1 THR         0.0639
    152 H60       -31.6510   13.2015   34.7245 H         1 THR         0.2101
    153 H61       -30.3953   13.5790   32.7184 H         1 THR         0.0257
    154 H62       -30.8683   11.9257   32.1995 H         1 THR         0.0257
    155 H63       -29.1311   12.3596   32.3423 H         1 THR         0.0257
    156 H64       -30.6392    8.6516   35.7371 H         1 ALA         0.1883
    157 H65       -29.4429    9.6367   38.2421 H         1 ALA         0.0797
    158 H66       -30.6549    7.7554   39.2904 H         1 ALA         0.0277
    159 H67       -31.1687    7.1816   37.6676 H         1 ALA         0.0277
    160 H68       -31.7487    8.7655   38.2854 H         1 ALA         0.0277
    161 H69       -27.7499    8.9024   39.1059 H         1 ARG         0.1883
    162 H70       -25.8027    7.2771   37.7565 H         1 ARG         0.0800
    163 H71       -24.5163    8.4145   39.2425 H         1 ARG         0.0313
    164 H72       -25.4469    7.7703   40.6373 H         1 ARG         0.0313
    165 H73       -25.8094   10.1213   40.8349 H         1 ARG         0.0301
    166 H74       -27.2772    9.5785   39.9532 H         1 ARG         0.0301
    167 H75       -25.5028   10.2400   37.8868 H         1 ARG         0.0689
    168 H76       -25.1446   11.4751   39.1410 H         1 ARG         0.0689
    169 H77       -27.6003   11.2029   37.5070 H         1 ARG         0.2642
    170 H78       -27.1840   14.1934   40.2263 H         1 ARG         0.2615
    171 H79       -26.0275   12.8353   40.2546 H         1 ARG         0.2615
    172 H80       -29.0267   12.9448   37.4858 H         1 ARG         0.2615
    173 H81       -28.8405   14.2678   38.6680 H         1 ARG         0.2615
    174 H82       -25.7274    5.0295   37.7497 H         1 LYS         0.1883
    175 H83       -27.5733    3.5013   39.4044 H         1 LYS         0.0800
    176 H84       -25.5059    2.7196   37.3176 H         1 LYS         0.0312
    177 H85       -27.2968    2.6031   37.2414 H         1 LYS         0.0312
    178 H86       -27.1423    0.8115   39.0694 H         1 LYS         0.0269
    179 H87       -25.3629    0.8303   38.8238 H         1 LYS         0.0269
    180 H88       -25.7942    0.2241   36.3775 H         1 LYS         0.0317
    181 H89       -27.5198   -0.0159   36.8152 H         1 LYS         0.0317
    182 H90       -26.5696   -1.5865   38.6905 H         1 LYS         0.0813
    183 H91       -25.0696   -1.5832   37.7022 H         1 LYS         0.0813
    184 H92       -26.4452   -3.4790   37.2406 H         1 LYS         0.1994
    185 H93       -26.3439   -2.5272   35.9015 H         1 LYS         0.1994
    186 H94       -27.7185   -2.5302   36.8071 H         1 LYS         0.1994
    187 H95       -27.2371    2.1420   41.0473 H         1 ALA         0.1883
    188 H96       -25.0372    2.7443   42.7506 H         1 ALA         0.0797
    189 H97       -26.0635    1.0734   44.2938 H         1 ALA         0.0277
    190 H98       -27.2132    0.6233   42.9891 H         1 ALA         0.0277
    191 H99       -27.2304    2.2867   43.6670 H         1 ALA         0.0277
    192 H100      -23.3110    1.9706   43.2161 H         1 ALA         0.1883
    193 H101      -22.2457   -0.3377   43.7993 H         1 ALA         0.0797
    194 H102      -21.2210   -1.3585   41.8569 H         1 ALA         0.0277
    195 H103      -22.0923   -0.2103   40.7851 H         1 ALA         0.0277
    196 H104      -23.0144   -1.4004   41.7650 H         1 ALA         0.0277
    197 H105      -21.6705    1.2797   44.7543 H         1 GLY         0.1873
    198 H106      -20.2396    3.5731   44.4321 H         1 GLY         0.0689
    199 H107      -18.9873    2.2854   44.4362 H         1 GLY         0.0689
@<TRIPOS>BOND
     1    2    1 1  
     2    3    2 1  
     3    2    5 1  
     4    3    4 2  
     5   17    3 am 
     6    7    6 1  
     7    8    7 ar 
     8    8    9 ar 
     9   10    8 ar 
    10   11   10 1  
    11   12   11 1  
    12   13   12 1  
    13   14   13 1  
    14   14   15 1  
    15   14   17 1  
    16   15   16 2  
    17   15   18 am 
    18   18   19 1  
    19   19   20 1  
    20   19   22 1  
    21   20   21 2  
    22   20   25 am 
    23   22   23 1  
    24   22   24 1  
    25   25   26 1  
    26   26   27 1  
    27   26   32 1  
    28   27   28 1  
    29   28   29 1  
    30   29   30 1  
    31   30   31 1  
    32   31   34 1  
    33   31   35 1  
    34   31   36 1  
    35   32   33 2  
    36   32   37 am 
    37   37   38 1  
    38   38   39 1  
    39   38   41 1  
    40   39   40 2  
    41   39   46 am 
    42   41   42 1  
    43   42   43 1  
    44   43   44 2  
    45   43   45 am 
    46   46   47 1  
    47   47   48 1  
    48   47   50 1  
    49   48   49 2  
    50   48   53 am 
    51   50   51 1  
    52   50   52 1  
    53   53   54 1  
    54   54   55 1  
    55   54   57 1  
    56   55   56 2  
    57   55   58 am 
    58   58   59 1  
    59   59   60 1  
    60   59   62 1  
    61   60   61 2  
    62   60   69 am 
    63   62   63 1  
    64   63   64 1  
    65   64   65 1  
    66   65   66 ar 
    67   66   67 ar 
    68   66   68 ar 
    69   69   70 1  
    70   70   71 1  
    71   70   73 1  
    72   71   72 2  
    73   71   78 am 
    74   73   74 1  
    75   74   75 1  
    76   75   76 1  
    77   76   77 1  
    78   78   79 1  
    79   79   80 1  
    80   79   82 1  
    81   80   81 2  
    82   80   83 am 
    83   83   84 1  
    84   84   85 1  
    85   84   87 1  
    86   85   86 2  
    87   85   88 am 
    88   88   89 1  
    89   89   90 1  
    90   90   91 ar 
    91   90   92 ar 
    92    1   93 1  
    93    1   94 1  
    94    1   95 1  
    95    2   96 1  
    96    5   97 1  
    97    5   98 1  
    98    5   99 1  
    99    6  100 1  
   100    6  101 1  
   101    6  102 1  
   102    7  103 1  
   103    9  104 1  
   104    9  105 1  
   105   10  106 1  
   106   11  107 1  
   107   11  108 1  
   108   12  109 1  
   109   12  110 1  
   110   13  111 1  
   111   13  112 1  
   112   14  113 1  
   113   17  114 1  
   114   18  115 1  
   115   19  116 1  
   116   22  117 1  
   117   23  118 1  
   118   24  119 1  
   119   24  120 1  
   120   24  121 1  
   121   25  122 1  
   122   26  123 1  
   123   27  124 1  
   124   27  125 1  
   125   28  126 1  
   126   28  127 1  
   127   29  128 1  
   128   29  129 1  
   129   30  130 1  
   130   30  131 1  
   131   34  132 1  
   132   34  133 1  
   133   34  134 1  
   134   35  135 1  
   135   35  136 1  
   136   35  137 1  
   137   36  138 1  
   138   36  139 1  
   139   36  140 1  
   140   37  141 1  
   141   38  142 1  
   142   41  143 1  
   143   41  144 1  
   144   42  145 1  
   145   42  146 1  
   146   45  147 1  
   147   45  148 1  
   148   46  149 1  
   149   47  150 1  
   150   50  151 1  
   151   51  152 1  
   152   52  153 1  
   153   52  154 1  
   154   52  155 1  
   155   53  156 1  
   156   54  157 1  
   157   57  158 1  
   158   57  159 1  
   159   57  160 1  
   160   58  161 1  
   161   59  162 1  
   162   62  163 1  
   163   62  164 1  
   164   63  165 1  
   165   63  166 1  
   166   64  167 1  
   167   64  168 1  
   168   65  169 1  
   169   67  170 1  
   170   67  171 1  
   171   68  172 1  
   172   68  173 1  
   173   69  174 1  
   174   70  175 1  
   175   73  176 1  
   176   73  177 1  
   177   74  178 1  
   178   74  179 1  
   179   75  180 1  
   180   75  181 1  
   181   76  182 1  
   182   76  183 1  
   183   77  184 1  
   184   77  185 1  
   185   77  186 1  
   186   78  187 1  
   187   79  188 1  
   188   82  189 1  
   189   82  190 1  
   190   82  191 1  
   191   83  192 1  
   192   84  193 1  
   193   87  194 1  
   194   87  195 1  
   195   87  196 1  
   196   88  197 1  
   197   89  198 1  
   198   89  199 1  
@<TRIPOS>SUBSTRUCTURE
     1 ALA         1

