5jxq_ligand
  -I-interpret- 

 45 48  0  0  0  0  0  0  0  0999 V2000
  108.6260   19.6780   20.5880 C   0  0  0  0  0
  107.0640   19.2030   18.8010 C   0  0  0  0  0
  106.0940   18.8140   19.7210 C   0  0  0  0  0
  106.3970   18.8730   21.0790 C   0  0  0  0  0
  107.6530   19.3030   21.4990 C   0  0  0  0  0
  108.3270   19.6350   19.2330 C   0  0  0  0  0
  107.9210   19.3690   22.9550 C   0  0  0  0  0
  105.4780   18.5050   22.0050 N   0  0  0  0  0
  105.7320   18.5930   23.3270 C   0  0  0  0  0
  104.7650   18.2450   24.2020 N   0  0  0  0  0
  106.9260   19.0230   23.7880 N   0  0  0  0  0
  109.0730   19.9550   18.1440 N   0  0  0  0  0
  107.0360   19.2760   17.4480 N   0  0  0  0  0
  108.2580   19.7260   17.1060 C   0  0  0  0  0
  108.6580   19.9400   15.8290 N   0  0  0  0  0
  107.6950   20.0590   14.7320 C   0  0  0  0  0
  109.0210   19.7530   23.4170 O   0  0  0  0  0
  108.2530   20.9210   13.5940 C   0  0  0  0  0
  106.4500   20.5210    9.6550 C   0  0  0  0  0
  105.8400   20.3110    8.2690 C   0  0  0  0  0
  106.1320   21.3600    7.1950 C   0  0  0  0  0
  105.5580   20.9590    5.9240 O   0  0  0  0  0
  106.0930   21.5770   10.4950 C   0  0  0  0  0
  106.6750   21.7050   11.7610 C   0  0  0  0  0
  107.6030   20.7720   12.2230 C   0  0  0  0  0
  107.9550   19.7190   11.3850 C   0  0  0  0  0
  107.3730   19.5910   10.1250 C   0  0  0  0  0
  109.6096   20.0013   20.9288 H   0  0  0  0  0
  105.1160   18.4698   19.3847 H   0  0  0  0  0
  104.5724   18.1530   21.6947 H   0  0  0  0  0
  104.9384   18.3076   25.2052 H   0  0  0  0  0
  109.6545   20.0202   15.6268 H   0  0  0  0  0
  106.7899   20.5312   15.1139 H   0  0  0  0  0
  107.4866   19.0624   14.3429 H   0  0  0  0  0
  109.2889   20.6070   13.4658 H   0  0  0  0  0
  108.0786   21.9545   13.8931 H   0  0  0  0  0
  104.7607   20.3405    8.4187 H   0  0  0  0  0
  106.2762   19.3841    7.8966 H   0  0  0  0  0
  107.2115   21.4590    7.0807 H   0  0  0  0  0
  105.6918   22.3098    7.4986 H   0  0  0  0  0
  105.7502   21.6274    5.2622 H   0  0  0  0  0
  105.3554   22.3073   10.1623 H   0  0  0  0  0
  106.3988   22.5469   12.3959 H   0  0  0  0  0
  108.6922   18.9878   11.7165 H   0  0  0  0  0
  107.6463   18.7449    9.4945 H   0  0  0  0  0
  1  5  4  0  0  0
  6  1  4  0  0  0
  2  3  4  0  0  0
  2  6  4  0  0  0
 13  2  4  0  0  0
  3  4  4  0  0  0
  4  5  4  0  0  0
  4  8  1  0  0  0
  5  7  1  0  0  0
 12  6  4  0  0  0
  7 11  1  0  0  0
  7 17  2  0  0  0
  8  9  1  0  0  0
  9 10  2  0  0  0
  9 11  4  0  0  0
 14 12  4  0  0  0
 14 13  4  0  0  0
 15 14  1  0  0  0
 16 15  1  0  0  0
 18 16  1  0  0  0
 25 18  1  0  0  0
 19 20  1  0  0  0
 23 19  4  0  0  0
 19 27  4  0  0  0
 20 21  1  0  0  0
 21 22  1  0  0  0
 24 23  4  0  0  0
 24 25  4  0  0  0
 25 26  4  0  0  0
 26 27  4  0  0  0
  1 28  1  0  0  0
  3 29  1  0  0  0
  8 30  1  0  0  0
 10 31  1  0  0  0
 15 32  1  0  0  0
 16 33  1  0  0  0
 16 34  1  0  0  0
 18 35  1  0  0  0
 18 36  1  0  0  0
 20 37  1  0  0  0
 20 38  1  0  0  0
 21 39  1  0  0  0
 21 40  1  0  0  0
 22 41  1  0  0  0
 23 42  1  0  0  0
 24 43  1  0  0  0
 26 44  1  0  0  0
 27 45  1  0  0  0
M  END
$$$$
