6m8b_ligand
  -I-interpret- 

 33 35  0  0  0  0  0  0  0  0999 V2000
    7.3430   24.7500   22.0190 C   0  0  0  0  0
    6.3810   25.7420   21.9050 C   0  0  0  0  0
    5.8690   26.3850   23.1230 C   0  0  0  0  0
    6.4080   25.9390   24.4200 C   0  0  0  0  0
    7.3670   24.9420   24.4510 C   0  0  0  0  0
    7.8200   24.3560   23.2700 C   0  0  0  0  0
    4.8490   27.4580   23.0990 C   0  0  0  0  0
    4.4160   28.0290   24.3860 C   0  0  0  0  0
    5.0230   27.5180   25.6530 C   0  0  0  0  0
    4.6720   27.9930   27.0230 C   0  0  0  0  0
    4.0460   29.2190   27.2890 C   0  0  0  0  0
    3.7440   29.5840   28.5990 C   0  0  0  0  0
    4.0510   28.7350   29.6510 C   0  0  0  0  0
    4.6690   27.5140   29.4000 C   0  0  0  0  0
    4.9690   27.1410   28.0960 C   0  0  0  0  0
    5.9620   26.5130   25.5800 O   0  0  0  0  0
    4.3470   27.8560   22.0290 O   0  0  0  0  0
    3.7540   29.0950   30.9270 O   0  0  0  0  0
    3.4940   29.0110   24.3360 O   0  0  0  0  0
    8.7690   23.3850   23.3330 O   0  0  0  0  0
    5.8920   26.1210   20.7080 O   0  0  0  0  0
    7.7317   24.2717   21.1200 H   0  0  0  0  0
    7.7719   24.6118   25.4076 H   0  0  0  0  0
    4.1493   28.0444   25.4427 H   0  0  0  0  0
    4.4875   28.4377   25.4176 H   0  0  0  0  0
    3.7945   29.8895   26.4672 H   0  0  0  0  0
    3.2638   30.5421   28.7979 H   0  0  0  0  0
    4.9180   26.8495   30.2274 H   0  0  0  0  0
    5.4398   26.1766   27.9052 H   0  0  0  0  0
    4.0311   28.3990   31.5274 H   0  0  0  0  0
    3.2907   29.3032   25.2276 H   0  0  0  0  0
    8.9972   23.2212   24.2510 H   0  0  0  0  0
    5.2408   26.8149   20.8348 H   0  0  0  0  0
  1  2  4  0  0  0
  1  6  4  0  0  0
  2  3  4  0  0  0
  2 21  1  0  0  0
  3  4  4  0  0  0
  3  7  1  0  0  0
  4  5  4  0  0  0
  4 16  1  0  0  0
  5  6  4  0  0  0
  6 20  1  0  0  0
  7  8  1  0  0  0
  7 17  2  0  0  0
  8  9  1  0  0  0
  8 19  1  0  0  0
  9 10  1  0  0  0
  9 16  1  0  0  0
 10 11  4  0  0  0
 10 15  4  0  0  0
 11 12  4  0  0  0
 12 13  4  0  0  0
 13 14  4  0  0  0
 13 18  1  0  0  0
 14 15  4  0  0  0
  1 22  1  0  0  0
  5 23  1  0  0  0
  8 24  1  0  0  0
  9 25  1  0  0  0
 11 26  1  0  0  0
 12 27  1  0  0  0
 14 28  1  0  0  0
 15 29  1  0  0  0
 18 30  1  0  0  0
 19 31  1  0  0  0
 20 32  1  0  0  0
 21 33  1  0  0  0
M  END
$$$$
