4bb9_ligand
  -I-interpret- 

 29 29  0  0  0  0  0  0  0  0999 V2000
   50.6400   31.4180   15.6160 C   0  0  0  0  0
   49.2680   31.2540   14.9520 C   0  0  0  0  0
   48.1950   31.7850   15.8920 C   0  0  0  0  0
   46.8130   31.5870   15.3030 C   0  0  0  0  0
   46.5700   30.1030   15.0980 C   0  0  0  0  0
   47.6610   29.6080   14.0850 C   0  0  0  0  0
   50.6800   30.6200   16.7980 O   0  0  0  0  0
   49.2630   31.9930   13.7380 O   0  0  0  0  0
   48.4020   33.1590   16.2250 O   0  0  0  0  0
   45.8050   32.0310   16.2650 O   0  0  0  0  0
   46.6830   29.3320   16.3310 O   0  0  0  0  0
   48.9880   29.8660   14.7110 O   0  0  0  0  0
   51.9560   30.7580   17.7460 P   0  0  0  0  0
   51.7970   29.6020   18.7390 O   0  0  0  0  0
   51.9440   32.1350   18.4600 O   0  0  0  0  0
   53.2200   30.7000   16.8480 O   0  0  0  0  0
   50.8023   32.4649   15.8726 H   0  0  0  0  0
   51.4227   31.0974   14.9284 H   0  0  0  0  0
   48.2693   31.2096   16.8148 H   0  0  0  0  0
   46.7488   32.1443   14.3685 H   0  0  0  0  0
   45.5532   29.9573   14.7332 H   0  0  0  0  0
   47.5736   30.1370   13.1360 H   0  0  0  0  0
   47.5355   28.5464   13.8722 H   0  0  0  0  0
   49.4522   32.9153   13.9254 H   0  0  0  0  0
   49.2805   33.2682   16.5964 H   0  0  0  0  0
   45.9148   32.9701   16.4314 H   0  0  0  0  0
   46.0177   29.6301   16.9556 H   0  0  0  0  0
   52.0455   32.8328   17.8086 H   0  0  0  0  0
   53.2312   31.4615   16.2636 H   0  0  0  0  0
  1  2  1  0  0  0
  1  7  1  0  0  0
  2  3  1  0  0  0
  2  8  1  0  0  0
  2 12  1  0  0  0
  3  4  1  0  0  0
  3  9  1  0  0  0
  4  5  1  0  0  0
  4 10  1  0  0  0
  5  6  1  0  0  0
  5 11  1  0  0  0
  6 12  1  0  0  0
  7 13  1  0  0  0
 13 14  2  0  0  0
 13 15  1  0  0  0
 13 16  1  0  0  0
  1 17  1  0  0  0
  1 18  1  0  0  0
  3 19  1  0  0  0
  4 20  1  0  0  0
  5 21  1  0  0  0
  6 22  1  0  0  0
  6 23  1  0  0  0
  8 24  1  0  0  0
  9 25  1  0  0  0
 10 26  1  0  0  0
 11 27  1  0  0  0
 15 28  1  0  0  0
 16 29  1  0  0  0
M  END
$$$$
