### 
### Created by X-TOOL on Mon Sep 10 21:13:10 2018
### 

@<TRIPOS>MOLECULE
3qn7_ligand
  243   246     1     0     0
SMALL
GAST_HUCK


@<TRIPOS>ATOM
      1 N         -49.2430   18.7480   -0.3500 N.4       1 ALA         0.2377
      2 CA        -49.2040   19.8910   -1.3080 C.3       1 ALA         0.0621
      3 C         -48.9630   21.2220   -0.5820 C.2       1 ALA         0.2264
      4 O         -48.4410   22.1750   -1.1760 O.2       1 ALA        -0.3907
      5 CB        -50.4990   19.9470   -2.1440 C.3       1 ALA        -0.0040
      6 N         -49.3150   21.2560    0.7090 N.am      1 CYS        -0.2602
      7 CA        -49.3820   22.4950    1.5250 C.3       1 CYS         0.1401
      8 C         -50.2280   23.6180    0.8980 C.2       1 CYS         0.2048
      9 O         -51.3300   23.3670    0.3870 O.2       1 CYS        -0.3944
     10 CB        -47.9900   23.0010    1.9180 C.3       1 CYS         0.0361
     11 SG        -47.2400   22.1000    3.2800 S.3       1 CYS        -0.1425
     12 N         -49.7230   24.8500    0.9760 N.am      1 SER        -0.2615
     13 CA        -50.3380   26.0120    0.3270 C.3       1 SER         0.1539
     14 C         -49.2530   26.7960   -0.4250 C.2       1 SER         0.2062
     15 O         -49.5160   27.8370   -1.0560 O.2       1 SER        -0.3943
     16 CB        -51.0440   26.9090    1.3700 C.3       1 SER         0.0843
     17 OG        -50.1440   27.4410    2.3380 O.3       1 SER        -0.3903
     18 N         -48.0410   26.2490   -0.4070 N.am      1 ARG        -0.2637
     19 CA        -46.8820   27.0950   -0.3570 C.3       1 ARG         0.1311
     20 C         -46.2000   27.5870   -1.6370 C.2       1 ARG         0.2040
     21 O         -46.4620   27.1370   -2.7700 O.2       1 ARG        -0.3944
     22 CB        -45.8730   26.5430    0.6550 C.3       1 ARG        -0.0092
     23 CG        -45.9430   27.2870    1.9900 C.3       1 ARG        -0.0156
     24 CD        -46.3670   26.3810    3.1430 C.3       1 ARG         0.0627
     25 NE        -45.3660   25.3460    3.4000 N.pl3     1 ARG        -0.2723
     26 CZ        -44.9380   24.9780    4.6080 C.cat     1 ARG         0.2882
     27 NH1       -45.4060   25.5690    5.7010 N.pl3     1 ARG        -0.2849
     28 NH2       -44.0120   24.0300    4.7270 N.pl3     1 ARG        -0.2849
     29 N         -45.3560   28.5800   -1.3800 N.am      1 TYR        -0.2621
     30 CA        -44.4780   29.2350   -2.3270 C.3       1 TYR         0.1390
     31 C         -43.0920   28.6970   -2.0100 C.2       1 TYR         0.2057
     32 O         -42.0740   29.3480   -2.2570 O.2       1 TYR        -0.3942
     33 CB        -44.4970   30.7470   -2.0570 C.3       1 TYR         0.0163
     34 CG        -45.8690   31.3780   -2.1380 C.ar      1 TYR        -0.0493
     35 CD1       -46.2650   32.0740   -3.2790 C.ar      1 TYR        -0.0685
     36 CD2       -46.7780   31.2720   -1.0800 C.ar      1 TYR        -0.0685
     37 CE1       -47.5120   32.6420   -3.3790 C.ar      1 TYR        -0.0398
     38 CE2       -48.0520   31.8440   -1.1760 C.ar      1 TYR        -0.0398
     39 CZ        -48.4000   32.5320   -2.3270 C.ar      1 TYR         0.0805
     40 OH        -49.6430   33.1140   -2.4420 O.3       1 TYR        -0.3376
     41 N         -43.0770   27.4980   -1.4350 N.am      1 GLU        -0.2635
     42 CA        -41.8580   26.8910   -0.9500 C.3       1 GLU         0.1325
     43 C         -41.0580   26.3510   -2.1380 C.2       1 GLU         0.2040
     44 O         -41.5770   25.6170   -2.9940 O.2       1 GLU        -0.3944
     45 CB        -42.1660   25.7710    0.0550 C.3       1 GLU        -0.0008
     46 CG        -40.9450   24.9280    0.5690 C.3       1 GLU         0.0044
     47 CD        -41.2980   24.1220    1.8470 C.2       1 GLU         0.0350
     48 OE1       -41.8850   24.7220    2.7820 O.co2     1 GLU        -0.5690
     49 OE2       -40.9950   22.8990    1.9280 O.co2     1 GLU        -0.5690
     50 N         -39.7830   26.7180   -2.1290 N.am      1 VAL        -0.2635
     51 CA        -38.8160   26.2120   -3.0720 C.3       1 VAL         0.1333
     52 C         -38.5750   24.7130   -2.8570 C.2       1 VAL         0.2042
     53 O         -38.2970   24.2760   -1.7080 O.2       1 VAL        -0.3944
     54 CB        -37.4900   27.0180   -2.9670 C.3       1 VAL        -0.0063
     55 CG1       -36.4620   26.4460   -3.9000 C.3       1 VAL        -0.0584
     56 CG2       -37.7100   28.4650   -3.2410 C.3       1 VAL        -0.0584
     57 N         -38.6460   23.9300   -3.9470 N.am      1 ASP        -0.2622
     58 CA        -38.1980   22.5240   -3.9790 C.3       1 ASP         0.1423
     59 C         -38.6900   21.8040   -2.6770 C.2       1 ASP         0.2056
     60 O         -37.9090   21.2810   -1.8560 O.2       1 ASP        -0.3943
     61 CB        -36.6600   22.4470   -4.1150 C.3       1 ASP         0.0406
     62 CG        -36.1110   21.0090   -4.2200 C.2       1 ASP         0.0393
     63 OD1       -36.8400   20.0500   -4.6070 O.co2     1 ASP        -0.5688
     64 OD2       -34.8980   20.8290   -3.9640 O.co2     1 ASP        -0.5688
     65 N         -40.0040   21.8050   -2.5040 N.am      1 CYS        -0.2628
     66 CA        -40.6020   21.3200   -1.2750 C.3       1 CYS         0.1400
     67 C         -40.3560   19.8540   -0.9390 C.2       1 CYS         0.2047
     68 O         -40.5370   19.4700    0.2230 O.2       1 CYS        -0.3944
     69 CB        -42.0830   21.6450   -1.3310 C.3       1 CYS         0.0361
     70 SG        -42.8880   20.4980   -2.4620 S.3       1 CYS        -0.1425
     71 N         -39.9850   19.0060   -1.9190 N.am      1 ARG        -0.2637
     72 CA        -39.5360   17.6340   -1.6180 C.3       1 ARG         0.1311
     73 C         -38.0300   17.3680   -1.8120 C.2       1 ARG         0.2037
     74 O         -37.6310   16.2090   -2.0220 O.2       1 ARG        -0.3944
     75 CB        -40.3070   16.5750   -2.3800 C.3       1 ARG        -0.0092
     76 CG        -41.8330   16.5640   -2.1360 C.3       1 ARG        -0.0156
     77 CD        -42.5660   15.5280   -3.0620 C.3       1 ARG         0.0627
     78 NE        -44.0070   15.6140   -2.7780 N.pl3     1 ARG        -0.2723
     79 CZ        -44.6050   14.9460   -1.7910 C.cat     1 ARG         0.2882
     80 NH1       -43.9310   14.0770   -1.0410 N.pl3     1 ARG        -0.2849
     81 NH2       -45.8800   15.1240   -1.5760 N.pl3     1 ARG        -0.2849
     82 N         -37.2210   18.4240   -1.7470 N.am      1 GLY        -0.2664
     83 CA        -35.7400   18.2980   -1.8320 C.3       1 GLY         0.1201
     84 C         -35.0980   17.8940   -0.5310 C.2       1 GLY         0.2007
     85 O         -35.7610   17.9550    0.4980 O.2       1 GLY        -0.3947
     86 N         -33.8050   17.5100   -0.5520 N.am      1 ARG        -0.2640
     87 CA        -33.0370   17.2190    0.6820 C.3       1 ARG         0.1311
     88 C         -33.1320   18.3750    1.6560 C.2       1 ARG         0.2037
     89 O         -32.8400   19.4890    1.2960 O.2       1 ARG        -0.3944
     90 CB        -31.5700   16.8490    0.3720 C.3       1 ARG        -0.0092
     91 CG        -30.8870   17.6310   -0.7100 C.3       1 ARG        -0.0156
     92 CD        -29.5960   16.9270   -1.1710 C.3       1 ARG         0.0627
     93 NE        -28.8340   16.3060   -0.0730 N.pl3     1 ARG        -0.2723
     94 CZ        -27.5820   15.8620   -0.2060 C.cat     1 ARG         0.2882
     95 NH1       -26.9740   15.9660   -1.3870 N.pl3     1 ARG        -0.2849
     96 NH2       -26.9430   15.2930    0.8270 N.pl3     1 ARG        -0.2849
     97 N         -33.6000   18.1670    2.8790 N.am      1 GLY        -0.2664
     98 CA        -34.1310   19.3620    3.5590 C.3       1 GLY         0.1201
     99 C         -34.6690   19.3020    4.9550 C.2       1 GLY         0.2008
    100 O         -33.9340   18.9190    5.8570 O.2       1 GLY        -0.3947
    101 N         -35.9520   19.6030    5.1920 N.am      1 SER        -0.2618
    102 CA        -37.0810   19.7230    4.2440 C.3       1 SER         0.1539
    103 C         -38.1170   18.7220    4.6730 C.2       1 SER         0.2062
    104 O         -37.8610   17.5140    4.6580 O.2       1 SER        -0.3943
    105 CB        -36.7250   19.4700    2.7820 C.3       1 SER         0.0843
    106 OG        -37.9040   19.1400    2.0270 O.3       1 SER        -0.3903
    107 N         -39.2910   19.2330    5.0240 N.am      1 ALA        -0.2639
    108 CA        -40.4060   18.4260    5.5300 C.3       1 ALA         0.1282
    109 C         -40.7190   17.1470    4.7180 C.2       1 ALA         0.2031
    110 O         -40.8330   16.0760    5.3000 O.2       1 ALA        -0.3944
    111 CB        -41.6620   19.2990    5.7000 C.3       1 ALA        -0.0244
    112 N         -40.8270   17.2450    3.3890 N.am      1 CYS        -0.2687
    113 CA        -41.1820   16.0730    2.5640 C.3       1 CYS         0.1034
    114 C         -40.0350   15.5080    1.7280 C.2       1 CYS         0.0609
    115 O         -40.2428   14.5717    0.9109 O.co2     1 CYS        -0.5666
    116 CB        -42.3800   16.3790    1.6720 C.3       1 CYS         0.0306
    117 SG        -43.7520   17.0830    2.5740 S.3       1 CYS        -0.1431
    118 C1        -44.8110   20.2300   -0.5930 C.ar      1 ZBR        -0.0466
    119 C2        -44.6780   18.8630   -0.3580 C.ar      1 ZBR        -0.0645
    120 C3        -44.8450   18.3580    0.9320 C.ar      1 ZBR        -0.0466
    121 C4        -45.1370   19.2320    1.9920 C.ar      1 ZBR        -0.0645
    122 C5        -45.2660   20.6010    1.7610 C.ar      1 ZBR        -0.0466
    123 C6        -45.1020   21.1060    0.4590 C.ar      1 ZBR        -0.0645
    124 C7        -44.6210   20.7630   -2.0340 C.3       1 ZBR         0.0245
    125 C8        -44.7320   16.9820    1.1510 C.3       1 ZBR         0.0245
    126 C9        -45.5660   21.5280    2.9560 C.3       1 ZBR         0.0245
    127 O         -38.8743   15.9811    1.8563 O.co2     1 CYS        -0.5666
    128 H1        -49.4023   17.8909   -0.8560 H         1 ALA         0.2015
    129 H2        -49.9889   18.8904    0.3129 H         1 ALA         0.2015
    130 H3        -48.3642   18.6904    0.1403 H         1 ALA         0.2015
    131 H4        -48.3624   19.7256   -1.9967 H         1 ALA         0.1095
    132 H5        -50.4483   20.7956   -2.8421 H         1 ALA         0.0310
    133 H6        -51.3625   20.0740   -1.4745 H         1 ALA         0.0310
    134 H7        -50.6097   19.0114   -2.7117 H         1 ALA         0.0310
    135 H8        -49.5480   20.3908    1.1529 H         1 CYS         0.1885
    136 H9        -49.8895   22.2152    2.4599 H         1 CYS         0.0808
    137 H10       -48.0761   24.0583    2.2090 H         1 CYS         0.0426
    138 H11       -47.3307   22.9143    1.0418 H         1 CYS         0.0426
    139 H12       -48.8842   24.9879    1.5027 H         1 SER         0.1884
    140 H13       -51.0884   25.6605   -0.3964 H         1 SER         0.0823
    141 H14       -51.8064   26.3105    1.8901 H         1 SER         0.0606
    142 H15       -51.5294   27.7445    0.8444 H         1 SER         0.0606
    143 H16       -50.6255   27.9823    2.9527 H         1 SER         0.2097
    144 H17       -47.9375   25.2546   -0.4282 H         1 ARG         0.1883
    145 H18       -47.2638   28.0234    0.0927 H         1 ARG         0.0800
    146 H19       -44.8593   26.6487    0.2412 H         1 ARG         0.0313
    147 H20       -46.0889   25.4785    0.8288 H         1 ARG         0.0313
    148 H21       -46.6711   28.1065    1.8993 H         1 ARG         0.0301
    149 H22       -44.9496   27.7023    2.2148 H         1 ARG         0.0301
    150 H23       -47.3228   25.8999    2.8881 H         1 ARG         0.0689
    151 H24       -46.4936   26.9904    4.0500 H         1 ARG         0.0689
    152 H25       -44.9604   24.8642    2.5849 H         1 ARG         0.2642
    153 H26       -45.0684   25.2768    6.6292 H         1 ARG         0.2615
    154 H27       -46.1067   26.3197    5.6207 H         1 ARG         0.2615
    155 H28       -43.6410   23.5641    3.8867 H         1 ARG         0.2615
    156 H29       -43.6661   23.7621    5.6595 H         1 ARG         0.2615
    157 H30       -45.3237   28.9088   -0.4361 H         1 TYR         0.1885
    158 H31       -44.7688   29.0195   -3.3657 H         1 TYR         0.0821
    159 H32       -43.8485   31.2372   -2.7980 H         1 TYR         0.0453
    160 H33       -44.0971   30.9214   -1.0472 H         1 TYR         0.0453
    161 H34       -45.5724   32.1694   -4.1074 H         1 TYR         0.0530
    162 H35       -46.4934   30.7424   -0.1780 H         1 TYR         0.0530
    163 H36       -47.7975   33.1739   -4.2793 H         1 TYR         0.0525
    164 H37       -48.7582   31.7497   -0.3590 H         1 TYR         0.0525
    165 H38       -49.7144   33.5412   -3.2876 H         1 TYR         0.2458
    166 H39       -43.9381   26.9995   -1.3347 H         1 GLU         0.1883
    167 H40       -41.2588   27.6599   -0.4404 H         1 GLU         0.0801
    168 H41       -42.8713   25.0769   -0.4254 H         1 GLU         0.0330
    169 H42       -42.6449   26.2322    0.9313 H         1 GLU         0.0330
    170 H43       -40.1124   25.6098    0.7968 H         1 GLU         0.0433
    171 H44       -40.6389   24.2265   -0.2210 H         1 GLU         0.0433
    172 H45       -39.4792   27.3741   -1.4382 H         1 VAL         0.1883
    173 H46       -39.2203   26.3491   -4.0858 H         1 VAL         0.0802
    174 H47       -37.1120   26.9215   -1.9385 H         1 VAL         0.0343
    175 H48       -35.5296   27.0237   -3.8169 H         1 VAL         0.0234
    176 H49       -36.8350   26.4987   -4.9335 H         1 VAL         0.0234
    177 H50       -36.2681   25.3966   -3.6332 H         1 VAL         0.0234
    178 H51       -38.4658   28.8591   -2.5456 H         1 VAL         0.0234
    179 H52       -38.0614   28.5930   -4.2754 H         1 VAL         0.0234
    180 H53       -36.7654   29.0119   -3.1043 H         1 VAL         0.0234
    181 H54       -39.0244   24.3228   -4.7852 H         1 ASP         0.1884
    182 H55       -38.6492   22.0264   -4.8501 H         1 ASP         0.0819
    183 H56       -36.2102   22.9254   -3.2325 H         1 ASP         0.0478
    184 H57       -36.3648   22.9970   -5.0207 H         1 ASP         0.0478
    185 H58       -40.5945   22.1468   -3.2351 H         1 CYS         0.1884
    186 H59       -40.1600   21.9006   -0.4519 H         1 CYS         0.0808
    187 H60       -42.2218   22.6757   -1.6893 H         1 CYS         0.0426
    188 H61       -42.5218   21.5434   -0.3274 H         1 CYS         0.0426
    189 H62       -40.0149   19.3138   -2.8700 H         1 ARG         0.1883
    190 H63       -39.7467   17.4807   -0.5493 H         1 ARG         0.0800
    191 H64       -39.9096   15.5911   -2.0902 H         1 ARG         0.0313
    192 H65       -40.1360   16.7375   -3.4544 H         1 ARG         0.0313
    193 H66       -42.2331   17.5683   -2.3394 H         1 ARG         0.0301
    194 H67       -42.0234   16.2992   -1.0855 H         1 ARG         0.0301
    195 H68       -42.2023   14.5120   -2.8486 H         1 ARG         0.0689
    196 H69       -42.3774   15.7707   -4.1182 H         1 ARG         0.0689
    197 H70       -44.5853   16.2233   -3.3740 H         1 ARG         0.2642
    198 H71       -44.4104   13.5705   -0.2830 H         1 ARG         0.2615
    199 H72       -42.9301   13.9111   -1.2186 H         1 ARG         0.2615
    200 H73       -46.4106   15.7941   -2.1508 H         1 ARG         0.2615
    201 H74       -46.3556   14.5944   -0.8315 H         1 ARG         0.2615
    202 H75       -37.6224   19.3333   -1.6373 H         1 GLY         0.1881
    203 H76       -35.3245   19.2692   -2.1389 H         1 GLY         0.0763
    204 H77       -35.4977   17.5393   -2.5907 H         1 GLY         0.0763
    205 H78       -33.3461   17.4179   -1.4357 H         1 ARG         0.1883
    206 H79       -33.5002   16.3439    1.1611 H         1 ARG         0.0800
    207 H80       -31.5494   15.7889    0.0792 H         1 ARG         0.0313
    208 H81       -30.9903   16.9853    1.2969 H         1 ARG         0.0313
    209 H82       -30.6341   18.6304   -0.3263 H         1 ARG         0.0301
    210 H83       -31.5688   17.7292   -1.5676 H         1 ARG         0.0301
    211 H84       -28.9519   17.6706   -1.6631 H         1 ARG         0.0689
    212 H85       -29.8673   16.1421   -1.8924 H         1 ARG         0.0689
    213 H86       -29.2912   16.2095    0.8449 H         1 ARG         0.2642
    214 H87       -26.0082   15.6267   -1.5007 H         1 ARG         0.2615
    215 H88       -27.4698   16.3857   -2.1863 H         1 ARG         0.2615
    216 H89       -27.4114   15.2117    1.7407 H         1 ARG         0.2615
    217 H90       -25.9839   14.9373    0.7065 H         1 ARG         0.2615
    218 H91       -33.5932   17.2642    3.3091 H         1 GLY         0.1881
    219 H92       -34.9501   19.7378    2.9283 H         1 GLY         0.0763
    220 H93       -33.3132   20.0974    3.5746 H         1 GLY         0.0763
    221 H94       -36.1805   19.7714    6.1509 H         1 SER         0.1884
    222 H95       -37.4939   20.7395    4.3224 H         1 SER         0.0823
    223 H96       -36.0113   18.6351    2.7223 H         1 SER         0.0606
    224 H97       -36.2659   20.3757    2.3591 H         1 SER         0.0606
    225 H98       -37.6653   18.9858    1.1205 H         1 SER         0.2097
    226 H99       -39.4219   20.2207    4.9388 H         1 ALA         0.1883
    227 H100      -40.1103   18.0858    6.5334 H         1 ALA         0.0797
    228 H101      -42.4892   18.6813    6.0797 H         1 ALA         0.0277
    229 H102      -41.9429   19.7306    4.7280 H         1 ALA         0.0277
    230 H103      -41.4517   20.1090    6.4139 H         1 ALA         0.0277
    231 H104      -40.6646   18.1268    2.9463 H         1 CYS         0.1876
    232 H105      -41.4849   15.2788    3.2622 H         1 CYS         0.0734
    233 H106      -42.7135   15.4440    1.1983 H         1 CYS         0.0419
    234 H107      -42.0669   17.0922    0.8953 H         1 CYS         0.0419
    235 H108      -44.4449   18.1922   -1.1770 H         1 CYS         0.0439
    236 H109      -45.2627   18.8402    2.9949 H         1 CYS         0.0439
    237 H110      -45.2005   22.1690    0.2709 H         1 CYS         0.0439
    238 H111      -45.2716   20.2133   -2.7301 H         1 CYS         0.0536
    239 H112      -44.8620   21.8354   -2.0761 H         1 CYS         0.0536
    240 H113      -45.7042   16.5038    1.3412 H         1 CYS         0.0536
    241 H114      -44.2238   16.4636    0.3246 H         1 CYS         0.0536
    242 H115      -45.2372   20.9924    3.8588 H         1 CYS         0.0536
    243 H116      -44.9482   22.4276    2.8179 H         1 CYS         0.0536
@<TRIPOS>BOND
     1    2    1 1  
     2    3    2 1  
     3    2    5 1  
     4    3    4 2  
     5    6    3 am 
     6    7    6 1  
     7    8    7 1  
     8    7   10 1  
     9    8    9 2  
    10   12    8 am 
    11   10   11 1  
    12   11  126 1  
    13   13   12 1  
    14   14   13 1  
    15   13   16 1  
    16   14   15 2  
    17   18   14 am 
    18   16   17 1  
    19   19   18 1  
    20   20   19 1  
    21   19   22 1  
    22   20   21 2  
    23   29   20 am 
    24   22   23 1  
    25   23   24 1  
    26   24   25 1  
    27   25   26 ar 
    28   26   27 ar 
    29   26   28 ar 
    30   30   29 1  
    31   31   30 1  
    32   30   33 1  
    33   31   32 2  
    34   41   31 am 
    35   33   34 1  
    36   34   35 ar 
    37   34   36 ar 
    38   35   37 ar 
    39   36   38 ar 
    40   37   39 ar 
    41   38   39 ar 
    42   39   40 1  
    43   42   41 1  
    44   43   42 1  
    45   42   45 1  
    46   43   44 2  
    47   50   43 am 
    48   45   46 1  
    49   46   47 1  
    50   47   48 ar 
    51   47   49 ar 
    52   51   50 1  
    53   52   51 1  
    54   51   54 1  
    55   52   53 2  
    56   57   52 am 
    57   54   55 1  
    58   54   56 1  
    59   58   57 1  
    60   59   58 1  
    61   58   61 1  
    62   59   60 2  
    63   65   59 am 
    64   61   62 1  
    65   62   63 ar 
    66   62   64 ar 
    67   66   65 1  
    68   66   67 1  
    69   69   66 1  
    70   67   68 2  
    71   67   71 am 
    72   70   69 1  
    73  124   70 1  
    74   71   72 1  
    75   72   73 1  
    76   72   75 1  
    77   73   74 2  
    78   73   82 am 
    79   75   76 1  
    80   76   77 1  
    81   77   78 1  
    82   78   79 ar 
    83   79   80 ar 
    84   79   81 ar 
    85   82   83 1  
    86   83   84 1  
    87   84   85 2  
    88   84   86 am 
    89   86   87 1  
    90   87   88 1  
    91   87   90 1  
    92   88   89 2  
    93   88   97 am 
    94   90   91 1  
    95   91   92 1  
    96   92   93 1  
    97   93   94 ar 
    98   94   95 ar 
    99   94   96 ar 
   100   97   98 1  
   101   98   99 1  
   102   99  100 2  
   103   99  101 am 
   104  101  102 1  
   105  102  103 1  
   106  102  105 1  
   107  103  104 2  
   108  103  107 am 
   109  105  106 1  
   110  107  108 1  
   111  108  109 1  
   112  108  111 1  
   113  109  110 2  
   114  109  112 am 
   115  112  113 1  
   116  113  114 1  
   117  113  116 1  
   118  114  115 ar 
   119  116  117 1  
   120  117  125 1  
   121  118  119 ar 
   122  118  123 ar 
   123  118  124 1  
   124  119  120 ar 
   125  120  121 ar 
   126  120  125 1  
   127  121  122 ar 
   128  122  123 ar 
   129  122  126 1  
   130  114  127 ar 
   131    1  128 1  
   132    1  129 1  
   133    1  130 1  
   134    2  131 1  
   135    5  132 1  
   136    5  133 1  
   137    5  134 1  
   138    6  135 1  
   139    7  136 1  
   140   10  137 1  
   141   10  138 1  
   142   12  139 1  
   143   13  140 1  
   144   16  141 1  
   145   16  142 1  
   146   17  143 1  
   147   18  144 1  
   148   19  145 1  
   149   22  146 1  
   150   22  147 1  
   151   23  148 1  
   152   23  149 1  
   153   24  150 1  
   154   24  151 1  
   155   25  152 1  
   156   27  153 1  
   157   27  154 1  
   158   28  155 1  
   159   28  156 1  
   160   29  157 1  
   161   30  158 1  
   162   33  159 1  
   163   33  160 1  
   164   35  161 1  
   165   36  162 1  
   166   37  163 1  
   167   38  164 1  
   168   40  165 1  
   169   41  166 1  
   170   42  167 1  
   171   45  168 1  
   172   45  169 1  
   173   46  170 1  
   174   46  171 1  
   175   50  172 1  
   176   51  173 1  
   177   54  174 1  
   178   55  175 1  
   179   55  176 1  
   180   55  177 1  
   181   56  178 1  
   182   56  179 1  
   183   56  180 1  
   184   57  181 1  
   185   58  182 1  
   186   61  183 1  
   187   61  184 1  
   188   65  185 1  
   189   66  186 1  
   190   69  187 1  
   191   69  188 1  
   192   71  189 1  
   193   72  190 1  
   194   75  191 1  
   195   75  192 1  
   196   76  193 1  
   197   76  194 1  
   198   77  195 1  
   199   77  196 1  
   200   78  197 1  
   201   80  198 1  
   202   80  199 1  
   203   81  200 1  
   204   81  201 1  
   205   82  202 1  
   206   83  203 1  
   207   83  204 1  
   208   86  205 1  
   209   87  206 1  
   210   90  207 1  
   211   90  208 1  
   212   91  209 1  
   213   91  210 1  
   214   92  211 1  
   215   92  212 1  
   216   93  213 1  
   217   95  214 1  
   218   95  215 1  
   219   96  216 1  
   220   96  217 1  
   221   97  218 1  
   222   98  219 1  
   223   98  220 1  
   224  101  221 1  
   225  102  222 1  
   226  105  223 1  
   227  105  224 1  
   228  106  225 1  
   229  107  226 1  
   230  108  227 1  
   231  111  228 1  
   232  111  229 1  
   233  111  230 1  
   234  112  231 1  
   235  113  232 1  
   236  116  233 1  
   237  116  234 1  
   238  119  235 1  
   239  121  236 1  
   240  123  237 1  
   241  124  238 1  
   242  124  239 1  
   243  125  240 1  
   244  125  241 1  
   245  126  242 1  
   246  126  243 1  
@<TRIPOS>SUBSTRUCTURE
     1 ALA         1

