3qn7_ligand
  -I-interpret- 

243246  0  0  0  0  0  0  0  0999 V2000
  -49.2430   18.7480   -0.3500 N   0  3  0  0  0
  -49.2040   19.8910   -1.3080 C   0  0  0  0  0
  -48.9630   21.2220   -0.5820 C   0  0  0  0  0
  -48.4410   22.1750   -1.1760 O   0  0  0  0  0
  -50.4990   19.9470   -2.1440 C   0  0  0  0  0
  -49.3150   21.2560    0.7090 N   0  0  0  0  0
  -49.3820   22.4950    1.5250 C   0  0  0  0  0
  -50.2280   23.6180    0.8980 C   0  0  0  0  0
  -51.3300   23.3670    0.3870 O   0  0  0  0  0
  -47.9900   23.0010    1.9180 C   0  0  0  0  0
  -47.2400   22.1000    3.2800 S   0  0  0  0  0
  -49.7230   24.8500    0.9760 N   0  0  0  0  0
  -50.3380   26.0120    0.3270 C   0  0  0  0  0
  -49.2530   26.7960   -0.4250 C   0  0  0  0  0
  -49.5160   27.8370   -1.0560 O   0  0  0  0  0
  -51.0440   26.9090    1.3700 C   0  0  0  0  0
  -50.1440   27.4410    2.3380 O   0  0  0  0  0
  -48.0410   26.2490   -0.4070 N   0  0  0  0  0
  -46.8820   27.0950   -0.3570 C   0  0  0  0  0
  -46.2000   27.5870   -1.6370 C   0  0  0  0  0
  -46.4620   27.1370   -2.7700 O   0  0  0  0  0
  -45.8730   26.5430    0.6550 C   0  0  0  0  0
  -45.9430   27.2870    1.9900 C   0  0  0  0  0
  -46.3670   26.3810    3.1430 C   0  0  0  0  0
  -45.3660   25.3460    3.4000 N   0  0  0  0  0
  -44.9380   24.9780    4.6080 C   0  0  0  0  0
  -45.4060   25.5690    5.7010 N   0  0  0  0  0
  -44.0120   24.0300    4.7270 N   0  0  0  0  0
  -45.3560   28.5800   -1.3800 N   0  0  0  0  0
  -44.4780   29.2350   -2.3270 C   0  0  0  0  0
  -43.0920   28.6970   -2.0100 C   0  0  0  0  0
  -42.0740   29.3480   -2.2570 O   0  0  0  0  0
  -44.4970   30.7470   -2.0570 C   0  0  0  0  0
  -45.8690   31.3780   -2.1380 C   0  0  0  0  0
  -46.2650   32.0740   -3.2790 C   0  0  0  0  0
  -46.7780   31.2720   -1.0800 C   0  0  0  0  0
  -47.5120   32.6420   -3.3790 C   0  0  0  0  0
  -48.0520   31.8440   -1.1760 C   0  0  0  0  0
  -48.4000   32.5320   -2.3270 C   0  0  0  0  0
  -49.6430   33.1140   -2.4420 O   0  0  0  0  0
  -43.0770   27.4980   -1.4350 N   0  0  0  0  0
  -41.8580   26.8910   -0.9500 C   0  0  0  0  0
  -41.0580   26.3510   -2.1380 C   0  0  0  0  0
  -41.5770   25.6170   -2.9940 O   0  0  0  0  0
  -42.1660   25.7710    0.0550 C   0  0  0  0  0
  -40.9450   24.9280    0.5690 C   0  0  0  0  0
  -41.2980   24.1220    1.8470 C   0  0  0  0  0
  -41.8850   24.7220    2.7820 O   0  0  0  0  0
  -40.9950   22.8990    1.9280 O   0  0  0  0  0
  -39.7830   26.7180   -2.1290 N   0  0  0  0  0
  -38.8160   26.2120   -3.0720 C   0  0  0  0  0
  -38.5750   24.7130   -2.8570 C   0  0  0  0  0
  -38.2970   24.2760   -1.7080 O   0  0  0  0  0
  -37.4900   27.0180   -2.9670 C   0  0  0  0  0
  -36.4620   26.4460   -3.9000 C   0  0  0  0  0
  -37.7100   28.4650   -3.2410 C   0  0  0  0  0
  -38.6460   23.9300   -3.9470 N   0  0  0  0  0
  -38.1980   22.5240   -3.9790 C   0  0  0  0  0
  -38.6900   21.8040   -2.6770 C   0  0  0  0  0
  -37.9090   21.2810   -1.8560 O   0  0  0  0  0
  -36.6600   22.4470   -4.1150 C   0  0  0  0  0
  -36.1110   21.0090   -4.2200 C   0  0  0  0  0
  -36.8400   20.0500   -4.6070 O   0  0  0  0  0
  -34.8980   20.8290   -3.9640 O   0  0  0  0  0
  -40.0040   21.8050   -2.5040 N   0  0  0  0  0
  -40.6020   21.3200   -1.2750 C   0  0  0  0  0
  -40.3560   19.8540   -0.9390 C   0  0  0  0  0
  -40.5370   19.4700    0.2230 O   0  0  0  0  0
  -42.0830   21.6450   -1.3310 C   0  0  0  0  0
  -42.8880   20.4980   -2.4620 S   0  0  0  0  0
  -39.9850   19.0060   -1.9190 N   0  0  0  0  0
  -39.5360   17.6340   -1.6180 C   0  0  0  0  0
  -38.0300   17.3680   -1.8120 C   0  0  0  0  0
  -37.6310   16.2090   -2.0220 O   0  0  0  0  0
  -40.3070   16.5750   -2.3800 C   0  0  0  0  0
  -41.8330   16.5640   -2.1360 C   0  0  0  0  0
  -42.5660   15.5280   -3.0620 C   0  0  0  0  0
  -44.0070   15.6140   -2.7780 N   0  0  0  0  0
  -44.6050   14.9460   -1.7910 C   0  0  0  0  0
  -43.9310   14.0770   -1.0410 N   0  0  0  0  0
  -45.8800   15.1240   -1.5760 N   0  0  0  0  0
  -37.2210   18.4240   -1.7470 N   0  0  0  0  0
  -35.7400   18.2980   -1.8320 C   0  0  0  0  0
  -35.0980   17.8940   -0.5310 C   0  0  0  0  0
  -35.7610   17.9550    0.4980 O   0  0  0  0  0
  -33.8050   17.5100   -0.5520 N   0  0  0  0  0
  -33.0370   17.2190    0.6820 C   0  0  0  0  0
  -33.1320   18.3750    1.6560 C   0  0  0  0  0
  -32.8400   19.4890    1.2960 O   0  0  0  0  0
  -31.5700   16.8490    0.3720 C   0  0  0  0  0
  -30.8870   17.6310   -0.7100 C   0  0  0  0  0
  -29.5960   16.9270   -1.1710 C   0  0  0  0  0
  -28.8340   16.3060   -0.0730 N   0  0  0  0  0
  -27.5820   15.8620   -0.2060 C   0  0  0  0  0
  -26.9740   15.9660   -1.3870 N   0  0  0  0  0
  -26.9430   15.2930    0.8270 N   0  0  0  0  0
  -33.6000   18.1670    2.8790 N   0  0  0  0  0
  -34.1310   19.3620    3.5590 C   0  0  0  0  0
  -34.6690   19.3020    4.9550 C   0  0  0  0  0
  -33.9340   18.9190    5.8570 O   0  0  0  0  0
  -35.9520   19.6030    5.1920 N   0  0  0  0  0
  -37.0810   19.7230    4.2440 C   0  0  0  0  0
  -38.1170   18.7220    4.6730 C   0  0  0  0  0
  -37.8610   17.5140    4.6580 O   0  0  0  0  0
  -36.7250   19.4700    2.7820 C   0  0  0  0  0
  -37.9040   19.1400    2.0270 O   0  0  0  0  0
  -39.2910   19.2330    5.0240 N   0  0  0  0  0
  -40.4060   18.4260    5.5300 C   0  0  0  0  0
  -40.7190   17.1470    4.7180 C   0  0  0  0  0
  -40.8330   16.0760    5.3000 O   0  0  0  0  0
  -41.6620   19.2990    5.7000 C   0  0  0  0  0
  -40.8270   17.2450    3.3890 N   0  0  0  0  0
  -41.1820   16.0730    2.5640 C   0  0  0  0  0
  -40.0350   15.5080    1.7280 C   0  0  0  0  0
  -40.2428   14.5717    0.9109 O   0  0  0  0  0
  -42.3800   16.3790    1.6720 C   0  0  0  0  0
  -43.7520   17.0830    2.5740 S   0  0  0  0  0
  -44.8110   20.2300   -0.5930 C   0  0  0  0  0
  -44.6780   18.8630   -0.3580 C   0  0  0  0  0
  -44.8450   18.3580    0.9320 C   0  0  0  0  0
  -45.1370   19.2320    1.9920 C   0  0  0  0  0
  -45.2660   20.6010    1.7610 C   0  0  0  0  0
  -45.1020   21.1060    0.4590 C   0  0  0  0  0
  -44.6210   20.7630   -2.0340 C   0  0  0  0  0
  -44.7320   16.9820    1.1510 C   0  0  0  0  0
  -45.5660   21.5280    2.9560 C   0  0  0  0  0
  -38.8743   15.9811    1.8563 O   0  0  0  0  0
  -48.3787   18.7300    0.1913 H   0  0  0  0  0
  -50.0376   18.8606    0.2796 H   0  0  0  0  0
  -49.3393   17.8747   -0.8682 H   0  0  0  0  0
  -48.3658   19.7288   -1.9857 H   0  0  0  0  0
  -51.3456   20.1470   -1.4872 H   0  0  0  0  0
  -50.4171   20.7417   -2.8856 H   0  0  0  0  0
  -50.6462   18.9918   -2.6479 H   0  0  0  0  0
  -49.5527   20.3735    1.1618 H   0  0  0  0  0
  -49.9067   22.2023    2.4345 H   0  0  0  0  0
  -48.1019   24.0366    2.2390 H   0  0  0  0  0
  -47.3429   22.8718    1.0504 H   0  0  0  0  0
  -48.8674   24.9906    1.5132 H   0  0  0  0  0
  -51.0944   25.6751   -0.3818 H   0  0  0  0  0
  -51.7771   26.2972    1.8957 H   0  0  0  0  0
  -51.4971   27.7462    0.8390 H   0  0  0  0  0
  -50.6305   27.9879    2.9591 H   0  0  0  0  0
  -47.9354   25.2347   -0.4286 H   0  0  0  0  0
  -47.3276   28.0385   -0.0417 H   0  0  0  0  0
  -44.8713   26.6695    0.2442 H   0  0  0  0  0
  -46.1069   25.4937    0.8347 H   0  0  0  0  0
  -46.6853   28.0795    1.8947 H   0  0  0  0  0
  -44.9478   27.6716    2.2131 H   0  0  0  0  0
  -47.3067   25.8970    2.8770 H   0  0  0  0  0
  -46.4760   26.9894    4.0408 H   0  0  0  0  0
  -44.9644   24.8689    2.5929 H   0  0  0  0  0
  -46.0999   26.3124    5.6215 H   0  0  0  0  0
  -43.6695   23.7647    5.6504 H   0  0  0  0  0
  -43.6446   23.5686    3.8948 H   0  0  0  0  0
  -45.3230   28.9154   -0.4173 H   0  0  0  0  0
  -44.7701   29.0575   -3.3620 H   0  0  0  0  0
  -43.8825   31.2171   -2.8248 H   0  0  0  0  0
  -44.1361   30.8951   -1.0392 H   0  0  0  0  0
  -45.5685   32.1699   -4.1120 H   0  0  0  0  0
  -46.4918   30.7394   -0.1731 H   0  0  0  0  0
  -47.7991   33.1769   -4.2843 H   0  0  0  0  0
  -48.7621   31.7492   -0.3545 H   0  0  0  0  0
  -50.1449   32.9553   -1.6392 H   0  0  0  0  0
  -43.9553   26.9895   -1.3327 H   0  0  0  0  0
  -41.2655   27.6437   -0.4300 H   0  0  0  0  0
  -42.8160   25.0694   -0.4678 H   0  0  0  0  0
  -42.5821   26.2630    0.9341 H   0  0  0  0  0
  -40.1326   25.6136    0.8100 H   0  0  0  0  0
  -40.6618   24.2234   -0.2130 H   0  0  0  0  0
  -40.5555   22.6252    1.1196 H   0  0  0  0  0
  -39.4731   27.3872   -1.4244 H   0  0  0  0  0
  -39.2127   26.3389   -4.0793 H   0  0  0  0  0
  -37.1205   26.9330   -1.9451 H   0  0  0  0  0
  -36.2708   25.4062   -3.6346 H   0  0  0  0  0
  -36.8329   26.4988   -4.9236 H   0  0  0  0  0
  -35.5387   27.0192   -3.8167 H   0  0  0  0  0
  -38.1101   28.5861   -4.2476 H   0  0  0  0  0
  -38.4180   28.8671   -2.5164 H   0  0  0  0  0
  -36.7623   28.9972   -3.1588 H   0  0  0  0  0
  -39.0320   24.3307   -4.8019 H   0  0  0  0  0
  -38.6261   22.0212   -4.8462 H   0  0  0  0  0
  -36.2331   22.8914   -3.2159 H   0  0  0  0  0
  -36.3904   22.9642   -5.0358 H   0  0  0  0  0
  -37.7335   20.3683   -4.7550 H   0  0  0  0  0
  -40.6064   22.1536   -3.2497 H   0  0  0  0  0
  -40.1033   21.8323   -0.4522 H   0  0  0  0  0
  -42.2233   22.6677   -1.6809 H   0  0  0  0  0
  -42.5194   21.5500   -0.3367 H   0  0  0  0  0
  -40.0155   19.3199   -2.8890 H   0  0  0  0  0
  -39.7457   17.5584   -0.5510 H   0  0  0  0  0
  -39.9300   15.6102   -2.0406 H   0  0  0  0  0
  -40.1622   16.7858   -3.4396 H   0  0  0  0  0
  -42.2222   17.5574   -2.3590 H   0  0  0  0  0
  -42.0115   16.2816   -1.0985 H   0  0  0  0  0
  -42.2007   14.5199   -2.8662 H   0  0  0  0  0
  -42.3723   15.7536   -4.1107 H   0  0  0  0  0
  -44.5797   16.2174   -3.3682 H   0  0  0  0  0
  -44.4112   13.5575   -0.3062 H   0  0  0  0  0
  -42.9343   13.9307   -1.2011 H   0  0  0  0  0
  -46.4105   15.7698   -2.1607 H   0  0  0  0  0
  -37.6304   19.3515   -1.6351 H   0  0  0  0  0
  -35.3424   19.2755   -2.1048 H   0  0  0  0  0
  -35.5180   17.5206   -2.5631 H   0  0  0  0  0
  -33.3369   17.4161   -1.4534 H   0  0  0  0  0
  -33.4849   16.3453    1.1554 H   0  0  0  0  0
  -31.5896   15.8155    0.0262 H   0  0  0  0  0
  -31.0114   17.0529    1.2855 H   0  0  0  0  0
  -30.6278   18.6150   -0.3192 H   0  0  0  0  0
  -31.5629   17.7134   -1.5612 H   0  0  0  0  0
  -28.9560   17.6844   -1.6236 H   0  0  0  0  0
  -29.8864   16.1309   -1.8566 H   0  0  0  0  0
  -29.2868   16.2104    0.8360 H   0  0  0  0  0
  -27.4650   16.3817   -2.1785 H   0  0  0  0  0
  -25.9932   14.9408    0.7077 H   0  0  0  0  0
  -27.4069   15.2125    1.7318 H   0  0  0  0  0
  -33.5931   17.2462    3.3177 H   0  0  0  0  0
  -34.9995   19.6350    2.9596 H   0  0  0  0  0
  -33.2635   20.0164    3.6450 H   0  0  0  0  0
  -36.1850   19.7748    6.1700 H   0  0  0  0  0
  -37.4286   20.7555    4.2800 H   0  0  0  0  0
  -36.0242   18.6370    2.7269 H   0  0  0  0  0
  -36.2780   20.3724    2.3648 H   0  0  0  0  0
  -37.6628   18.9841    1.1110 H   0  0  0  0  0
  -39.4245   20.2405    4.9371 H   0  0  0  0  0
  -40.0763   18.0545    6.5002 H   0  0  0  0  0
  -41.4523   20.1012    6.4075 H   0  0  0  0  0
  -41.9392   19.7261    4.7362 H   0  0  0  0  0
  -42.4809   18.6858    6.0762 H   0  0  0  0  0
  -40.6614   18.1445    2.9374 H   0  0  0  0  0
  -41.4387   15.2927    3.2805 H   0  0  0  0  0
  -42.7164   15.4407    1.2311 H   0  0  0  0  0
  -42.0629   17.1066    0.9249 H   0  0  0  0  0
  -44.4436   18.1885   -1.1815 H   0  0  0  0  0
  -45.2634   18.8380    3.0004 H   0  0  0  0  0
  -45.2011   22.1749    0.2699 H   0  0  0  0  0
  -45.2769   20.2408   -2.7305 H   0  0  0  0  0
  -44.8780   21.8206   -2.0936 H   0  0  0  0  0
  -45.6679   16.4320    1.2494 H   0  0  0  0  0
  -44.3252   16.3955    0.3272 H   0  0  0  0  0
  -45.3172   20.9251    3.8293 H   0  0  0  0  0
  -45.0123   22.4396    2.7311 H   0  0  0  0  0
  -38.8862   16.6815    2.5127 H   0  0  0  0  0
  2  1  1  0  0  0
  3  2  1  0  0  0
  2  5  1  0  0  0
  3  4  2  0  0  0
  6  3  1  0  0  0
  7  6  1  0  0  0
  8  7  1  0  0  0
  7 10  1  0  0  0
  8  9  2  0  0  0
 12  8  1  0  0  0
 10 11  1  0  0  0
 11126  1  0  0  0
 13 12  1  0  0  0
 14 13  1  0  0  0
 13 16  1  0  0  0
 14 15  2  0  0  0
 18 14  1  0  0  0
 16 17  1  0  0  0
 19 18  1  0  0  0
 20 19  1  0  0  0
 19 22  1  0  0  0
 20 21  2  0  0  0
 29 20  1  0  0  0
 22 23  1  0  0  0
 23 24  1  0  0  0
 24 25  1  0  0  0
 25 26  1  0  0  0
 26 27  2  0  0  0
 26 28  1  0  0  0
 30 29  1  0  0  0
 31 30  1  0  0  0
 30 33  1  0  0  0
 31 32  2  0  0  0
 41 31  1  0  0  0
 33 34  1  0  0  0
 34 35  4  0  0  0
 34 36  4  0  0  0
 35 37  4  0  0  0
 36 38  4  0  0  0
 37 39  4  0  0  0
 38 39  4  0  0  0
 39 40  1  0  0  0
 42 41  1  0  0  0
 43 42  1  0  0  0
 42 45  1  0  0  0
 43 44  2  0  0  0
 50 43  1  0  0  0
 45 46  1  0  0  0
 46 47  1  0  0  0
 47 48  2  0  0  0
 47 49  1  0  0  0
 51 50  1  0  0  0
 52 51  1  0  0  0
 51 54  1  0  0  0
 52 53  2  0  0  0
 57 52  1  0  0  0
 54 55  1  0  0  0
 54 56  1  0  0  0
 58 57  1  0  0  0
 59 58  1  0  0  0
 58 61  1  0  0  0
 59 60  2  0  0  0
 65 59  1  0  0  0
 61 62  1  0  0  0
 62 63  1  0  0  0
 62 64  2  0  0  0
 66 65  1  0  0  0
 66 67  1  0  0  0
 69 66  1  0  0  0
 67 68  2  0  0  0
 67 71  1  0  0  0
 70 69  1  0  0  0
124 70  1  0  0  0
 71 72  1  0  0  0
 72 73  1  0  0  0
 72 75  1  0  0  0
 73 74  2  0  0  0
 73 82  1  0  0  0
 75 76  1  0  0  0
 76 77  1  0  0  0
 77 78  1  0  0  0
 78 79  1  0  0  0
 79 80  1  0  0  0
 79 81  2  0  0  0
 82 83  1  0  0  0
 83 84  1  0  0  0
 84 85  2  0  0  0
 84 86  1  0  0  0
 86 87  1  0  0  0
 87 88  1  0  0  0
 87 90  1  0  0  0
 88 89  2  0  0  0
 88 97  1  0  0  0
 90 91  1  0  0  0
 91 92  1  0  0  0
 92 93  1  0  0  0
 93 94  1  0  0  0
 94 95  2  0  0  0
 94 96  1  0  0  0
 97 98  1  0  0  0
 98 99  1  0  0  0
 99100  2  0  0  0
 99101  1  0  0  0
101102  1  0  0  0
102103  1  0  0  0
102105  1  0  0  0
103104  2  0  0  0
103107  1  0  0  0
105106  1  0  0  0
107108  1  0  0  0
108109  1  0  0  0
108111  1  0  0  0
109110  2  0  0  0
109112  1  0  0  0
112113  1  0  0  0
113114  1  0  0  0
113116  1  0  0  0
114115  2  0  0  0
116117  1  0  0  0
117125  1  0  0  0
118119  4  0  0  0
118123  4  0  0  0
118124  1  0  0  0
119120  4  0  0  0
120121  4  0  0  0
120125  1  0  0  0
121122  4  0  0  0
122123  4  0  0  0
122126  1  0  0  0
114127  1  0  0  0
  1128  1  0  0  0
  1129  1  0  0  0
  1130  1  0  0  0
  2131  1  0  0  0
  5132  1  0  0  0
  5133  1  0  0  0
  5134  1  0  0  0
  6135  1  0  0  0
  7136  1  0  0  0
 10137  1  0  0  0
 10138  1  0  0  0
 12139  1  0  0  0
 13140  1  0  0  0
 16141  1  0  0  0
 16142  1  0  0  0
 17143  1  0  0  0
 18144  1  0  0  0
 19145  1  0  0  0
 22146  1  0  0  0
 22147  1  0  0  0
 23148  1  0  0  0
 23149  1  0  0  0
 24150  1  0  0  0
 24151  1  0  0  0
 25152  1  0  0  0
 27153  1  0  0  0
 28154  1  0  0  0
 28155  1  0  0  0
 29156  1  0  0  0
 30157  1  0  0  0
 33158  1  0  0  0
 33159  1  0  0  0
 35160  1  0  0  0
 36161  1  0  0  0
 37162  1  0  0  0
 38163  1  0  0  0
 40164  1  0  0  0
 41165  1  0  0  0
 42166  1  0  0  0
 45167  1  0  0  0
 45168  1  0  0  0
 46169  1  0  0  0
 46170  1  0  0  0
 49171  1  0  0  0
 50172  1  0  0  0
 51173  1  0  0  0
 54174  1  0  0  0
 55175  1  0  0  0
 55176  1  0  0  0
 55177  1  0  0  0
 56178  1  0  0  0
 56179  1  0  0  0
 56180  1  0  0  0
 57181  1  0  0  0
 58182  1  0  0  0
 61183  1  0  0  0
 61184  1  0  0  0
 63185  1  0  0  0
 65186  1  0  0  0
 66187  1  0  0  0
 69188  1  0  0  0
 69189  1  0  0  0
 71190  1  0  0  0
 72191  1  0  0  0
 75192  1  0  0  0
 75193  1  0  0  0
 76194  1  0  0  0
 76195  1  0  0  0
 77196  1  0  0  0
 77197  1  0  0  0
 78198  1  0  0  0
 80199  1  0  0  0
 80200  1  0  0  0
 81201  1  0  0  0
 82202  1  0  0  0
 83203  1  0  0  0
 83204  1  0  0  0
 86205  1  0  0  0
 87206  1  0  0  0
 90207  1  0  0  0
 90208  1  0  0  0
 91209  1  0  0  0
 91210  1  0  0  0
 92211  1  0  0  0
 92212  1  0  0  0
 93213  1  0  0  0
 95214  1  0  0  0
 96215  1  0  0  0
 96216  1  0  0  0
 97217  1  0  0  0
 98218  1  0  0  0
 98219  1  0  0  0
101220  1  0  0  0
102221  1  0  0  0
105222  1  0  0  0
105223  1  0  0  0
106224  1  0  0  0
107225  1  0  0  0
108226  1  0  0  0
111227  1  0  0  0
111228  1  0  0  0
111229  1  0  0  0
112230  1  0  0  0
113231  1  0  0  0
116232  1  0  0  0
116233  1  0  0  0
119234  1  0  0  0
121235  1  0  0  0
123236  1  0  0  0
124237  1  0  0  0
124238  1  0  0  0
125239  1  0  0  0
125240  1  0  0  0
126241  1  0  0  0
126242  1  0  0  0
127243  1  0  0  0
M  END
$$$$
