6f6i_ligand
  -I-interpret- 

 45 48  0  0  0  0  0  0  0  0999 V2000
  -46.0900   18.1670  -10.0610 F   0  0  0  0  0
  -46.2350   16.5480   -8.2870 C   0  0  0  0  0
  -44.1320   17.5090   -8.9330 C   0  0  0  0  0
  -46.8700   12.1750   -8.0690 C   0  0  0  0  0
  -45.5930   15.7980   -7.3150 C   0  0  0  0  0
  -43.4900   16.7550   -7.9650 C   0  0  0  0  0
  -47.9640   11.6600   -8.7490 C   0  0  0  0  0
  -45.6860   12.4070  -10.1550 C   0  0  0  0  0
  -41.9460   14.9360   -4.1630 C   0  0  0  0  0
  -42.7870   15.7820   -5.1230 C   0  0  0  0  0
  -42.0810   12.9930   -5.6860 C   0  0  0  0  0
  -48.3640   11.2460  -12.3730 C   0  0  0  0  0
  -44.1100   12.7780   -7.1020 C   0  0  0  0  0
  -41.1670   13.8870   -4.9060 N   0  3  0  0  0
  -44.4950   13.0830   -8.4100 O   0  0  0  0  0
  -48.8670   11.0320  -11.0780 O   0  0  0  0  0
  -47.0210   11.6370  -12.2160 O   0  0  0  0  0
  -45.5050   17.4040   -9.0940 C   0  0  0  0  0
  -45.7340   12.5460   -8.7770 C   0  0  0  0  0
  -44.2200   15.8980   -7.1560 C   0  0  0  0  0
  -47.9200   11.5180  -10.1460 C   0  0  0  0  0
  -46.7930   11.8860  -10.8410 C   0  0  0  0  0
  -43.0110   13.7640   -6.6330 C   0  0  0  0  0
  -43.6900   14.9620   -6.0050 C   0  0  0  0  0
  -47.3141   16.4642   -8.4163 H   0  0  0  0  0
  -43.5584   18.1844   -9.5677 H   0  0  0  0  0
  -46.9017   12.2879   -6.9853 H   0  0  0  0  0
  -46.1682   15.1289   -6.6750 H   0  0  0  0  0
  -42.4103   16.8354   -7.8391 H   0  0  0  0  0
  -48.8579   11.3654   -8.1993 H   0  0  0  0  0
  -44.7914   12.7014  -10.7037 H   0  0  0  0  0
  -42.6140   14.4405   -3.4585 H   0  0  0  0  0
  -41.2443   15.5900   -3.6454 H   0  0  0  0  0
  -42.0997   16.3262   -5.7707 H   0  0  0  0  0
  -43.4191   16.4338   -4.5200 H   0  0  0  0  0
  -42.7056   12.4542   -4.9735 H   0  0  0  0  0
  -41.4612   12.3337   -6.2937 H   0  0  0  0  0
  -48.9370   12.0129  -12.8942 H   0  0  0  0  0
  -48.4409   10.3423  -12.9776 H   0  0  0  0  0
  -43.7185   11.7612   -7.0701 H   0  0  0  0  0
  -44.9744   12.8631   -6.4435 H   0  0  0  0  0
  -40.6530   13.3211   -4.2308 H   0  0  0  0  0
  -40.5299   14.3499   -5.5542 H   0  0  0  0  0
  -42.3958   14.1508   -7.4454 H   0  0  0  0  0
  -44.4902   14.5717   -5.3762 H   0  0  0  0  0
 18  1  1  0  0  0
  5  2  4  0  0  0
  2 18  4  0  0  0
  6  3  4  0  0  0
  3 18  4  0  0  0
  4  7  4  0  0  0
 19  4  4  0  0  0
 20  5  4  0  0  0
 20  6  4  0  0  0
  7 21  4  0  0  0
 19  8  4  0  0  0
  8 22  4  0  0  0
 10  9  1  0  0  0
  9 14  1  0  0  0
 24 10  1  0  0  0
 14 11  1  0  0  0
 11 23  1  0  0  0
 12 16  1  0  0  0
 17 12  1  0  0  0
 13 15  1  0  0  0
 23 13  1  0  0  0
 15 19  1  0  0  0
 21 16  1  0  0  0
 22 17  1  0  0  0
 20 24  1  0  0  0
 21 22  4  0  0  0
 23 24  1  0  0  0
  2 25  1  0  0  0
  3 26  1  0  0  0
  4 27  1  0  0  0
  5 28  1  0  0  0
  6 29  1  0  0  0
  7 30  1  0  0  0
  8 31  1  0  0  0
  9 32  1  0  0  0
  9 33  1  0  0  0
 10 34  1  0  0  0
 10 35  1  0  0  0
 11 36  1  0  0  0
 11 37  1  0  0  0
 12 38  1  0  0  0
 12 39  1  0  0  0
 13 40  1  0  0  0
 13 41  1  0  0  0
 14 42  1  0  0  0
 14 43  1  0  0  0
 23 44  1  0  0  0
 24 45  1  0  0  0
M  END
$$$$
