4ai8_ligand
  -I-interpret- 

 24 23  0  0  0  0  0  0  0  0999 V2000
   17.9010   24.4170   27.7210 O   0  0  0  0  0
   18.0340   24.9420   28.8430 C   0  0  0  0  0
   17.1220   25.3240   29.5850 O   0  0  0  0  0
   19.3640   25.6400   29.1560 C   0  0  0  0  0
   20.4010   24.7400   28.5030 C   0  0  0  0  0
   21.7030   25.5500   28.5180 C   0  0  0  0  0
   21.7870   26.6790   28.9400 O   0  0  0  0  0
   22.7330   24.8630   28.0050 N   0  0  0  0  0
   23.7060   25.4240   27.9990 N   0  3  0  0  0
   24.5390   24.5780   28.8650 C   0  0  0  0  0
   24.0980   25.5210   26.5790 C   0  0  0  0  0
   18.7668   24.2157   27.3585 H   0  0  0  0  0
   19.5305   25.7601   30.2265 H   0  0  0  0  0
   19.3990   26.6610   28.7760 H   0  0  0  0  0
   20.1116   24.4627   27.4894 H   0  0  0  0  0
   20.5083   23.7963   29.0378 H   0  0  0  0  0
   22.6411   23.9112   27.6500 H   0  0  0  0  0
   23.7382   26.3821   28.3475 H   0  0  0  0  0
   24.0846   24.5137   29.8537 H   0  0  0  0  0
   24.6140   23.5803   28.4326 H   0  0  0  0  0
   25.5341   25.0148   28.9488 H   0  0  0  0  0
   24.2135   24.5189   26.1660 H   0  0  0  0  0
   23.3262   26.0564   26.0261 H   0  0  0  0  0
   25.0427   26.0590   26.5001 H   0  0  0  0  0
  1  2  1  0  0  0
  2  3  2  0  0  0
  2  4  1  0  0  0
  4  5  1  0  0  0
  5  6  1  0  0  0
  6  7  2  0  0  0
  6  8  1  0  0  0
  8  9  1  0  0  0
  9 10  1  0  0  0
  9 11  1  0  0  0
  1 12  1  0  0  0
  4 13  1  0  0  0
  4 14  1  0  0  0
  5 15  1  0  0  0
  5 16  1  0  0  0
  8 17  1  0  0  0
  9 18  1  0  0  0
 10 19  1  0  0  0
 10 20  1  0  0  0
 10 21  1  0  0  0
 11 22  1  0  0  0
 11 23  1  0  0  0
 11 24  1  0  0  0
M  END
$$$$
