### 
### Created by X-TOOL on Mon Sep 10 21:12:50 2018
### 

@<TRIPOS>MOLECULE
1jws_ligand
  227   228     1     0     0
SMALL
GAST_HUCK


@<TRIPOS>ATOM
      1 N         -17.3320   37.1360   20.9390 N.4       1 PRO         0.2461
      2 CA        -17.4920   38.5250   20.4470 C.3       1 PRO         0.0670
      3 C         -18.2330   38.5170   19.1190 C.2       1 PRO         0.2268
      4 O         -17.8960   37.7400   18.2210 O.2       1 PRO        -0.3907
      5 CB        -16.0920   39.0990   20.3000 C.3       1 PRO         0.0127
      6 CG        -15.3540   38.3240   21.3800 C.3       1 PRO        -0.0053
      7 CD        -15.9190   36.8910   21.2750 C.3       1 PRO        -0.0313
      8 N         -19.2310   39.3920   18.9960 N.am      1 LYS        -0.2610
      9 CA        -20.0380   39.4440   17.7860 C.3       1 LYS         0.1311
     10 C         -20.0460   40.7670   17.0120 C.2       1 LYS         0.2040
     11 O         -20.3880   41.8210   17.5520 O.2       1 LYS        -0.3944
     12 CB        -21.4770   39.0660   18.1260 C.3       1 LYS        -0.0122
     13 CG        -22.3230   38.7480   16.9080 C.3       1 LYS        -0.0440
     14 CD        -22.7530   37.2730   16.9120 C.3       1 LYS        -0.0124
     15 CE        -23.0200   36.7640   15.4850 C.3       1 LYS        -0.0354
     16 NZ        -23.6240   35.3750   15.4970 N.4       1 LYS         0.2185
     17 N         -19.6820   40.6920   15.7340 N.am      1 TYR        -0.2621
     18 CA        -19.6750   41.8640   14.8690 C.3       1 TYR         0.1390
     19 C         -21.1110   42.2650   14.6100 C.2       1 TYR         0.2057
     20 O         -21.9680   41.4170   14.3900 O.2       1 TYR        -0.3942
     21 CB        -18.9870   41.5540   13.5370 C.3       1 TYR         0.0163
     22 CG        -17.4890   41.7640   13.5550 C.ar      1 TYR        -0.0493
     23 CD1       -16.9460   43.0390   13.6890 C.ar      1 TYR        -0.0685
     24 CD2       -16.6090   40.6880   13.4410 C.ar      1 TYR        -0.0685
     25 CE1       -15.5660   43.2410   13.7100 C.ar      1 TYR        -0.0398
     26 CE2       -15.2190   40.8810   13.4590 C.ar      1 TYR        -0.0398
     27 CZ        -14.7090   42.1590   13.5950 C.ar      1 TYR         0.0805
     28 OH        -13.3490   42.3600   13.6340 O.3       1 TYR        -0.3376
     29 N         -21.3780   43.5600   14.6390 N.am      1 VAL        -0.2633
     30 CA        -22.7270   44.0420   14.4020 C.3       1 VAL         0.1333
     31 C         -22.7650   44.9090   13.1630 C.2       1 VAL         0.2041
     32 O         -21.8110   45.6270   12.8740 O.2       1 VAL        -0.3944
     33 CB        -23.2260   44.8630   15.5790 C.3       1 VAL        -0.0063
     34 CG1       -24.6550   45.2600   15.3430 C.3       1 VAL        -0.0584
     35 CG2       -23.0970   44.0580   16.8630 C.3       1 VAL        -0.0584
     36 N         -23.8670   44.8510   12.4290 N.am      1 LYS        -0.2637
     37 CA        -23.9860   45.6480   11.2120 C.3       1 LYS         0.1310
     38 C         -24.8780   46.8630   11.3840 C.2       1 LYS         0.2039
     39 O         -25.6310   46.9660   12.3510 O.2       1 LYS        -0.3944
     40 CB        -24.5730   44.8070   10.0760 C.3       1 LYS        -0.0122
     41 CG        -26.0660   44.6160   10.1770 C.3       1 LYS        -0.0440
     42 CD        -26.6350   44.1290    8.8750 C.3       1 LYS        -0.0124
     43 CE        -28.1500   44.2150    8.8780 C.3       1 LYS        -0.0354
     44 NZ        -28.7520   43.2950    9.8640 N.4       1 LYS         0.2185
     45 N         -24.7880   47.7790   10.4280 N.am      1 GLN        -0.2636
     46 CA        -25.6420   48.9630   10.4150 C.3       1 GLN         0.1330
     47 C         -26.7010   48.5940    9.4030 C.2       1 GLN         0.2042
     48 O         -26.3790   48.0340    8.3630 O.2       1 GLN        -0.3944
     49 CB        -24.8850   50.1940    9.9280 C.3       1 GLN         0.0045
     50 CG        -24.2260   51.0170   11.0270 C.3       1 GLN         0.0412
     51 CD        -25.2350   51.5720   12.0230 C.2       1 GLN         0.1737
     52 OE1       -25.7460   50.8460   12.8790 O.2       1 GLN        -0.3973
     53 NE2       -25.5370   52.8650   11.9060 N.am      1 GLN        -0.3009
     54 N         -27.9630   48.8710    9.6990 N.am      1 ASN        -0.2616
     55 CA        -29.0120   48.5290    8.7480 C.3       1 ASN         0.1476
     56 C         -29.0790   49.5770    7.6460 C.2       1 ASN         0.2063
     57 O         -28.9060   50.7680    7.9050 O.2       1 ASN        -0.3942
     58 CB        -30.3670   48.4290    9.4470 C.3       1 ASN         0.0773
     59 CG        -30.3230   47.5430   10.6730 C.2       1 ASN         0.1780
     60 OD1       -29.5560   46.5820   10.7340 O.2       1 ASN        -0.3970
     61 ND2       -31.1570   47.8550   11.6560 N.am      1 ASN        -0.3007
     62 N         -29.3100   49.1290    6.4150 N.am      1 THR        -0.2612
     63 CA        -29.4100   50.0510    5.2900 C.3       1 THR         0.1565
     64 C         -30.7890   50.7100    5.2830 C.2       1 THR         0.2065
     65 O         -31.8190   50.0570    5.4800 O.2       1 THR        -0.3943
     66 CB        -29.1720   49.3380    3.9250 C.3       1 THR         0.0924
     67 OG1       -30.0300   48.2050    3.8170 O.3       1 THR        -0.3874
     68 CG2       -27.7590   48.8500    3.8150 C.3       1 THR        -0.0346
     69 N         -30.7960   52.0170    5.0820 N.am      1 LEU        -0.2636
     70 CA        -32.0400   52.7610    5.0440 C.3       1 LEU         0.1312
     71 C         -32.5920   52.7620    3.6350 C.2       1 LEU         0.2039
     72 O         -31.8490   52.6910    2.6630 O.2       1 LEU        -0.3944
     73 CB        -31.7970   54.2040    5.4880 C.3       1 LEU        -0.0101
     74 CG        -31.3700   54.3670    6.9450 C.3       1 LEU        -0.0425
     75 CD1       -30.9750   55.8110    7.2040 C.3       1 LEU        -0.0625
     76 CD2       -32.5140   53.9330    7.8530 C.3       1 LEU        -0.0625
     77 N         -33.9050   52.8330    3.5260 N.am      1 LYS        -0.2637
     78 CA        -34.5320   52.8900    2.2120 C.3       1 LYS         0.1310
     79 C         -34.5710   54.3550    1.7470 C.2       1 LYS         0.2039
     80 O         -34.8510   55.2600    2.5350 O.2       1 LYS        -0.3944
     81 CB        -35.9590   52.3480    2.2700 C.3       1 LYS        -0.0122
     82 CG        -36.5830   52.0320    0.9060 C.3       1 LYS        -0.0440
     83 CD        -38.0440   51.5580    1.0910 C.3       1 LYS        -0.0124
     84 CE        -38.2390   50.6700    2.3810 C.3       1 LYS        -0.0354
     85 NZ        -37.8830   51.3310    3.7220 N.4       1 LYS         0.2185
     86 N         -34.2870   54.5640    0.4660 N.am      1 LEU        -0.2637
     87 CA        -34.2870   55.8920   -0.1040 C.3       1 LEU         0.1312
     88 C         -35.6830   56.5040   -0.1500 C.2       1 LEU         0.2039
     89 O         -36.6970   55.8060   -0.0470 O.2       1 LEU        -0.3944
     90 CB        -33.6970   55.8620   -1.5100 C.3       1 LEU        -0.0101
     91 CG        -32.2160   55.5010   -1.6240 C.3       1 LEU        -0.0425
     92 CD1       -31.7440   55.7200   -3.0600 C.3       1 LEU        -0.0625
     93 CD2       -31.3990   56.3600   -0.6770 C.3       1 LEU        -0.0625
     94 N         -35.7100   57.8250   -0.2980 N.am      1 ALA        -0.2640
     95 CA        -36.9470   58.5850   -0.3740 C.3       1 ALA         0.1282
     96 C         -37.6580   58.2570   -1.6680 C.2       1 ALA         0.2031
     97 O         -37.0530   58.2570   -2.7400 O.2       1 ALA        -0.3944
     98 CB        -36.6470   60.0810   -0.3140 C.3       1 ALA        -0.0244
     99 N         -38.9520   57.9910   -1.5520 N.am      1 THR        -0.2670
    100 CA        -39.7810   57.6570   -2.6990 C.3       1 THR         0.1198
    101 C         -40.9570   58.6190   -2.8460 C.2       1 THR         0.0626
    102 O         -41.1100   59.1820   -3.9540 O.co2     1 THR        -0.5665
    103 CB        -40.3370   56.2330   -2.5730 C.3       1 THR         0.0869
    104 OG1       -39.2620   55.2930   -2.6870 O.3       1 THR        -0.3880
    105 CG2       -41.3750   55.9690   -3.6580 C.3       1 THR        -0.0352
    106 OXT       -41.7160   58.7800   -1.8580 O.co2     1 THR        -0.5665
    107 H1        -17.6231   36.4903   20.2218 H         1 PRO         0.2035
    108 H2        -17.9001   37.0036   21.7610 H         1 PRO         0.2035
    109 H3        -18.0629   39.1203   21.1748 H         1 PRO         0.1099
    110 H4        -16.0753   40.1814   20.4950 H         1 PRO         0.0347
    111 H5        -15.6751   38.8997   19.3018 H         1 PRO         0.0347
    112 H6        -15.5566   38.7509   22.3733 H         1 PRO         0.0320
    113 H7        -14.2702   38.3302   21.1924 H         1 PRO         0.0320
    114 H8        -15.4138   36.3205   20.4817 H         1 PRO         0.0814
    115 H9        -15.8237   36.3541   22.2303 H         1 PRO         0.0814
    116 H10       -19.4283   40.0225   19.7467 H         1 LYS         0.1884
    117 H11       -19.6330   38.6814   17.1046 H         1 LYS         0.0800
    118 H12       -21.9407   39.9073   18.6619 H         1 LYS         0.0312
    119 H13       -21.4595   38.1806   18.7785 H         1 LYS         0.0312
    120 H14       -21.7372   38.9503   15.9992 H         1 LYS         0.0269
    121 H15       -23.2198   39.3850   16.9155 H         1 LYS         0.0269
    122 H16       -23.6723   37.1695   17.5070 H         1 LYS         0.0317
    123 H17       -21.9534   36.6680   17.3643 H         1 LYS         0.0317
    124 H18       -22.0699   36.7362   14.9314 H         1 LYS         0.0813
    125 H19       -23.7163   37.4525   14.9839 H         1 LYS         0.0813
    126 H20       -23.7865   35.0711   14.5497 H         1 LYS         0.1994
    127 H21       -24.4981   35.3930   15.9986 H         1 LYS         0.1994
    128 H22       -22.9894   34.7365   15.9505 H         1 LYS         0.1994
    129 H23       -19.4060   39.8076   15.3576 H         1 TYR         0.1885
    130 H24       -19.1428   42.6865   15.3693 H         1 TYR         0.0821
    131 H25       -19.4186   42.2073   12.7644 H         1 TYR         0.0453
    132 H26       -19.1859   40.5028   13.2813 H         1 TYR         0.0453
    133 H27       -17.6090   43.8919   13.7788 H         1 TYR         0.0530
    134 H28       -17.0058   39.6846   13.3366 H         1 TYR         0.0530
    135 H29       -15.1652   44.2426   13.8161 H         1 TYR         0.0525
    136 H30       -14.5494   40.0335   13.3669 H         1 TYR         0.0525
    137 H31       -13.1698   43.2880   13.7301 H         1 TYR         0.2458
    138 H32       -20.6442   44.2131   14.8258 H         1 VAL         0.1883
    139 H33       -23.3912   43.1769   14.2594 H         1 VAL         0.0802
    140 H34       -22.6137   45.7725   15.6676 H         1 VAL         0.0343
    141 H35       -25.0159   45.8544   16.1953 H         1 VAL         0.0234
    142 H36       -25.2739   44.3568   15.2376 H         1 VAL         0.0234
    143 H37       -24.7219   45.8597   14.4233 H         1 VAL         0.0234
    144 H38       -22.0443   43.7782   17.0161 H         1 VAL         0.0234
    145 H39       -23.7111   43.1484   16.7888 H         1 VAL         0.0234
    146 H40       -23.4423   44.6652   17.7127 H         1 VAL         0.0234
    147 H41       -24.6212   44.2578   12.7106 H         1 LYS         0.1883
    148 H42       -22.9794   45.9878   10.9270 H         1 LYS         0.0800
    149 H43       -24.0937   43.8171   10.0923 H         1 LYS         0.0312
    150 H44       -24.3499   45.3068    9.1218 H         1 LYS         0.0312
    151 H45       -26.5348   45.5763   10.4378 H         1 LYS         0.0269
    152 H46       -26.2819   43.8772   10.9628 H         1 LYS         0.0269
    153 H47       -26.3344   43.0823    8.7201 H         1 LYS         0.0317
    154 H48       -26.2411   44.7487    8.0560 H         1 LYS         0.0317
    155 H49       -28.5229   43.9559    7.8761 H         1 LYS         0.0813
    156 H50       -28.4472   45.2449    9.1249 H         1 LYS         0.0813
    157 H51       -29.7558   43.3818    9.8353 H         1 LYS         0.1994
    158 H52       -28.4209   43.5282   10.7871 H         1 LYS         0.1994
    159 H53       -28.4902   42.3471    9.6427 H         1 LYS         0.1994
    160 H54       -24.1172   47.6549    9.6968 H         1 GLN         0.1883
    161 H55       -26.0748   49.1555   11.4078 H         1 GLN         0.0801
    162 H56       -25.5949   50.8429    9.3941 H         1 GLN         0.0337
    163 H57       -24.0999   49.8600    9.2337 H         1 GLN         0.0337
    164 H58       -23.6881   51.8575   10.5642 H         1 GLN         0.0504
    165 H59       -23.5122   50.3776   11.5670 H         1 GLN         0.0504
    166 H60       -26.1938   53.2838   12.5331 H         1 GLN         0.1814
    167 H61       -25.1068   53.4162   11.1911 H         1 GLN         0.1814
    168 H62       -28.1928   49.3107   10.5672 H         1 ASN         0.1885
    169 H63       -28.7744   47.5539    8.2977 H         1 ASN         0.0826
    170 H64       -31.0996   48.0148    8.7387 H         1 ASN         0.0551
    171 H65       -30.6818   49.4379    9.7521 H         1 ASN         0.0551
    172 H66       -31.1731   47.3055   12.4914 H         1 ASN         0.1814
    173 H67       -31.7697   48.6397   11.5618 H         1 ASN         0.1814
    174 H68       -29.4165   48.1470    6.2591 H         1 THR         0.1884
    175 H69       -28.6438   50.8306    5.4127 H         1 THR         0.0826
    176 H70       -29.3824   50.0438    3.1080 H         1 THR         0.0639
    177 H71       -29.8807   47.7745    2.9835 H         1 THR         0.2101
    178 H72       -27.6177   48.3517    2.8446 H         1 THR         0.0257
    179 H73       -27.5531   48.1368    4.6267 H         1 THR         0.0257
    180 H74       -27.0692   49.7033    3.8929 H         1 THR         0.0257
    181 H75       -29.9297   52.4999    4.9542 H         1 LEU         0.1883
    182 H76       -32.7666   52.2881    5.7211 H         1 LEU         0.0800
    183 H77       -32.7297   54.7682    5.3405 H         1 LEU         0.0315
    184 H78       -31.0069   54.6286    4.8512 H         1 LEU         0.0315
    185 H79       -30.4996   53.7232    7.1396 H         1 LEU         0.0298
    186 H80       -30.6681   55.9244    8.2542 H         1 LEU         0.0232
    187 H81       -31.8331   56.4682    6.9998 H         1 LEU         0.0232
    188 H82       -30.1377   56.0859    6.5457 H         1 LEU         0.0232
    189 H83       -32.7742   52.8857    7.6398 H         1 LEU         0.0232
    190 H84       -33.3900   54.5728    7.6705 H         1 LEU         0.0232
    191 H85       -32.2038   54.0271    8.9041 H         1 LEU         0.0232
    192 H86       -34.4726   52.8478    4.3492 H         1 LYS         0.1883
    193 H87       -33.9442   52.2908    1.5011 H         1 LYS         0.0800
    194 H88       -36.5899   53.0982    2.7692 H         1 LYS         0.0312
    195 H89       -35.9496   51.4226    2.8645 H         1 LYS         0.0312
    196 H90       -36.0017   51.2380    0.4144 H         1 LYS         0.0269
    197 H91       -36.5698   52.9369    0.2807 H         1 LYS         0.0269
    198 H92       -38.3363   50.9675    0.2102 H         1 LYS         0.0317
    199 H93       -38.6931   52.4424    1.1715 H         1 LYS         0.0317
    200 H94       -37.6088   49.7752    2.2705 H         1 LYS         0.0813
    201 H95       -39.2965   50.3705    2.4252 H         1 LYS         0.0813
    202 H96       -38.0448   50.6774    4.4721 H         1 LYS         0.1994
    203 H97       -38.4587   52.1473    3.8576 H         1 LYS         0.1994
    204 H98       -36.9121   51.6018    3.7159 H         1 LYS         0.1994
    205 H99       -34.0677   53.7827   -0.1184 H         1 LEU         0.1883
    206 H100      -33.6536   56.5324    0.5274 H         1 LEU         0.0800
    207 H101      -33.8315   56.8613   -1.9496 H         1 LEU         0.0315
    208 H102      -34.2661   55.1244   -2.0949 H         1 LEU         0.0315
    209 H103      -32.0811   54.4425   -1.3569 H         1 LEU         0.0298
    210 H104      -30.6782   55.4596   -3.1394 H         1 LEU         0.0232
    211 H105      -31.8850   56.7756   -3.3354 H         1 LEU         0.0232
    212 H106      -32.3288   55.0825   -3.7395 H         1 LEU         0.0232
    213 H107      -31.7437   56.1978    0.3549 H         1 LEU         0.0232
    214 H108      -31.5242   57.4200   -0.9430 H         1 LEU         0.0232
    215 H109      -30.3369   56.0850   -0.7563 H         1 LEU         0.0232
    216 H110      -34.8417   58.3172   -0.3597 H         1 ALA         0.1883
    217 H111      -37.5923   58.3124    0.4741 H         1 ALA         0.0797
    218 H112      -37.5888   60.6464   -0.3722 H         1 ALA         0.0277
    219 H113      -35.9995   60.3593   -1.1585 H         1 ALA         0.0277
    220 H114      -36.1367   60.3150    0.6320 H         1 ALA         0.0277
    221 H115      -39.3719   58.0211   -0.6449 H         1 THR         0.1876
    222 H116      -39.1585   57.7185   -3.6038 H         1 THR         0.0752
    223 H117      -40.8133   56.1192   -1.5880 H         1 THR         0.0632
    224 H118      -39.6049   54.4105   -2.6091 H         1 THR         0.2100
    225 H119      -41.7627   54.9450   -3.5531 H         1 THR         0.0256
    226 H120      -40.9087   56.0849   -4.6475 H         1 THR         0.0256
    227 H121      -42.2025   56.6866   -3.5562 H         1 THR         0.0256
@<TRIPOS>BOND
     1    1    2 1  
     2    1    7 1  
     3    2    3 1  
     4    2    5 1  
     5    3    4 2  
     6    3    8 am 
     7    5    6 1  
     8    6    7 1  
     9    8    9 1  
    10    9   10 1  
    11    9   12 1  
    12   10   11 2  
    13   10   17 am 
    14   12   13 1  
    15   13   14 1  
    16   14   15 1  
    17   15   16 1  
    18   17   18 1  
    19   18   19 1  
    20   18   21 1  
    21   19   20 2  
    22   19   29 am 
    23   21   22 1  
    24   22   23 ar 
    25   22   24 ar 
    26   23   25 ar 
    27   24   26 ar 
    28   25   27 ar 
    29   26   27 ar 
    30   27   28 1  
    31   29   30 1  
    32   30   31 1  
    33   30   33 1  
    34   31   32 2  
    35   31   36 am 
    36   33   34 1  
    37   33   35 1  
    38   36   37 1  
    39   37   38 1  
    40   37   40 1  
    41   38   39 2  
    42   38   45 am 
    43   40   41 1  
    44   41   42 1  
    45   42   43 1  
    46   43   44 1  
    47   45   46 1  
    48   46   47 1  
    49   46   49 1  
    50   47   48 2  
    51   47   54 am 
    52   49   50 1  
    53   50   51 1  
    54   51   52 2  
    55   51   53 am 
    56   54   55 1  
    57   55   56 1  
    58   55   58 1  
    59   56   57 2  
    60   56   62 am 
    61   58   59 1  
    62   59   60 2  
    63   59   61 am 
    64   62   63 1  
    65   63   64 1  
    66   63   66 1  
    67   64   65 2  
    68   64   69 am 
    69   66   67 1  
    70   66   68 1  
    71   69   70 1  
    72   70   71 1  
    73   70   73 1  
    74   71   72 2  
    75   71   77 am 
    76   73   74 1  
    77   74   75 1  
    78   74   76 1  
    79   77   78 1  
    80   78   79 1  
    81   78   81 1  
    82   79   80 2  
    83   79   86 am 
    84   81   82 1  
    85   82   83 1  
    86   83   84 1  
    87   84   85 1  
    88   86   87 1  
    89   87   88 1  
    90   87   90 1  
    91   88   89 2  
    92   88   94 am 
    93   90   91 1  
    94   91   92 1  
    95   91   93 1  
    96   94   95 1  
    97   95   96 1  
    98   95   98 1  
    99   96   97 2  
   100   96   99 am 
   101   99  100 1  
   102  100  101 1  
   103  100  103 1  
   104  101  102 ar 
   105  101  106 ar 
   106  103  104 1  
   107  103  105 1  
   108    1  107 1  
   109    1  108 1  
   110    2  109 1  
   111    5  110 1  
   112    5  111 1  
   113    6  112 1  
   114    6  113 1  
   115    7  114 1  
   116    7  115 1  
   117    8  116 1  
   118    9  117 1  
   119   12  118 1  
   120   12  119 1  
   121   13  120 1  
   122   13  121 1  
   123   14  122 1  
   124   14  123 1  
   125   15  124 1  
   126   15  125 1  
   127   16  126 1  
   128   16  127 1  
   129   16  128 1  
   130   17  129 1  
   131   18  130 1  
   132   21  131 1  
   133   21  132 1  
   134   23  133 1  
   135   24  134 1  
   136   25  135 1  
   137   26  136 1  
   138   28  137 1  
   139   29  138 1  
   140   30  139 1  
   141   33  140 1  
   142   34  141 1  
   143   34  142 1  
   144   34  143 1  
   145   35  144 1  
   146   35  145 1  
   147   35  146 1  
   148   36  147 1  
   149   37  148 1  
   150   40  149 1  
   151   40  150 1  
   152   41  151 1  
   153   41  152 1  
   154   42  153 1  
   155   42  154 1  
   156   43  155 1  
   157   43  156 1  
   158   44  157 1  
   159   44  158 1  
   160   44  159 1  
   161   45  160 1  
   162   46  161 1  
   163   49  162 1  
   164   49  163 1  
   165   50  164 1  
   166   50  165 1  
   167   53  166 1  
   168   53  167 1  
   169   54  168 1  
   170   55  169 1  
   171   58  170 1  
   172   58  171 1  
   173   61  172 1  
   174   61  173 1  
   175   62  174 1  
   176   63  175 1  
   177   66  176 1  
   178   67  177 1  
   179   68  178 1  
   180   68  179 1  
   181   68  180 1  
   182   69  181 1  
   183   70  182 1  
   184   73  183 1  
   185   73  184 1  
   186   74  185 1  
   187   75  186 1  
   188   75  187 1  
   189   75  188 1  
   190   76  189 1  
   191   76  190 1  
   192   76  191 1  
   193   77  192 1  
   194   78  193 1  
   195   81  194 1  
   196   81  195 1  
   197   82  196 1  
   198   82  197 1  
   199   83  198 1  
   200   83  199 1  
   201   84  200 1  
   202   84  201 1  
   203   85  202 1  
   204   85  203 1  
   205   85  204 1  
   206   86  205 1  
   207   87  206 1  
   208   90  207 1  
   209   90  208 1  
   210   91  209 1  
   211   92  210 1  
   212   92  211 1  
   213   92  212 1  
   214   93  213 1  
   215   93  214 1  
   216   93  215 1  
   217   94  216 1  
   218   95  217 1  
   219   98  218 1  
   220   98  219 1  
   221   98  220 1  
   222   99  221 1  
   223  100  222 1  
   224  103  223 1  
   225  104  224 1  
   226  105  225 1  
   227  105  226 1  
   228  105  227 1  
@<TRIPOS>SUBSTRUCTURE
     1 PRO         1

