1jws_ligand
  -I-interpret- 

228229  0  0  0  0  0  0  0  0999 V2000
  -17.3320   37.1360   20.9390 N   0  3  0  0  0
  -17.4920   38.5250   20.4470 C   0  0  0  0  0
  -18.2330   38.5170   19.1190 C   0  0  0  0  0
  -17.8960   37.7400   18.2210 O   0  0  0  0  0
  -16.0920   39.0990   20.3000 C   0  0  0  0  0
  -15.3540   38.3240   21.3800 C   0  0  0  0  0
  -15.9190   36.8910   21.2750 C   0  0  0  0  0
  -19.2310   39.3920   18.9960 N   0  0  0  0  0
  -20.0380   39.4440   17.7860 C   0  0  0  0  0
  -20.0460   40.7670   17.0120 C   0  0  0  0  0
  -20.3880   41.8210   17.5520 O   0  0  0  0  0
  -21.4770   39.0660   18.1260 C   0  0  0  0  0
  -22.3230   38.7480   16.9080 C   0  0  0  0  0
  -22.7530   37.2730   16.9120 C   0  0  0  0  0
  -23.0200   36.7640   15.4850 C   0  0  0  0  0
  -23.6240   35.3750   15.4970 N   0  3  0  0  0
  -19.6820   40.6920   15.7340 N   0  0  0  0  0
  -19.6750   41.8640   14.8690 C   0  0  0  0  0
  -21.1110   42.2650   14.6100 C   0  0  0  0  0
  -21.9680   41.4170   14.3900 O   0  0  0  0  0
  -18.9870   41.5540   13.5370 C   0  0  0  0  0
  -17.4890   41.7640   13.5550 C   0  0  0  0  0
  -16.9460   43.0390   13.6890 C   0  0  0  0  0
  -16.6090   40.6880   13.4410 C   0  0  0  0  0
  -15.5660   43.2410   13.7100 C   0  0  0  0  0
  -15.2190   40.8810   13.4590 C   0  0  0  0  0
  -14.7090   42.1590   13.5950 C   0  0  0  0  0
  -13.3490   42.3600   13.6340 O   0  0  0  0  0
  -21.3780   43.5600   14.6390 N   0  0  0  0  0
  -22.7270   44.0420   14.4020 C   0  0  0  0  0
  -22.7650   44.9090   13.1630 C   0  0  0  0  0
  -21.8110   45.6270   12.8740 O   0  0  0  0  0
  -23.2260   44.8630   15.5790 C   0  0  0  0  0
  -24.6550   45.2600   15.3430 C   0  0  0  0  0
  -23.0970   44.0580   16.8630 C   0  0  0  0  0
  -23.8670   44.8510   12.4290 N   0  0  0  0  0
  -23.9860   45.6480   11.2120 C   0  0  0  0  0
  -24.8780   46.8630   11.3840 C   0  0  0  0  0
  -25.6310   46.9660   12.3510 O   0  0  0  0  0
  -24.5730   44.8070   10.0760 C   0  0  0  0  0
  -26.0660   44.6160   10.1770 C   0  0  0  0  0
  -26.6350   44.1290    8.8750 C   0  0  0  0  0
  -28.1500   44.2150    8.8780 C   0  0  0  0  0
  -28.7520   43.2950    9.8640 N   0  3  0  0  0
  -24.7880   47.7790   10.4280 N   0  0  0  0  0
  -25.6420   48.9630   10.4150 C   0  0  0  0  0
  -26.7010   48.5940    9.4030 C   0  0  0  0  0
  -26.3790   48.0340    8.3630 O   0  0  0  0  0
  -24.8850   50.1940    9.9280 C   0  0  0  0  0
  -24.2260   51.0170   11.0270 C   0  0  0  0  0
  -25.2350   51.5720   12.0230 C   0  0  0  0  0
  -25.7460   50.8460   12.8790 O   0  0  0  0  0
  -25.5370   52.8650   11.9060 N   0  0  0  0  0
  -27.9630   48.8710    9.6990 N   0  0  0  0  0
  -29.0120   48.5290    8.7480 C   0  0  0  0  0
  -29.0790   49.5770    7.6460 C   0  0  0  0  0
  -28.9060   50.7680    7.9050 O   0  0  0  0  0
  -30.3670   48.4290    9.4470 C   0  0  0  0  0
  -30.3230   47.5430   10.6730 C   0  0  0  0  0
  -29.5560   46.5820   10.7340 O   0  0  0  0  0
  -31.1570   47.8550   11.6560 N   0  0  0  0  0
  -29.3100   49.1290    6.4150 N   0  0  0  0  0
  -29.4100   50.0510    5.2900 C   0  0  0  0  0
  -30.7890   50.7100    5.2830 C   0  0  0  0  0
  -31.8190   50.0570    5.4800 O   0  0  0  0  0
  -29.1720   49.3380    3.9250 C   0  0  0  0  0
  -30.0300   48.2050    3.8170 O   0  0  0  0  0
  -27.7590   48.8500    3.8150 C   0  0  0  0  0
  -30.7960   52.0170    5.0820 N   0  0  0  0  0
  -32.0400   52.7610    5.0440 C   0  0  0  0  0
  -32.5920   52.7620    3.6350 C   0  0  0  0  0
  -31.8490   52.6910    2.6630 O   0  0  0  0  0
  -31.7970   54.2040    5.4880 C   0  0  0  0  0
  -31.3700   54.3670    6.9450 C   0  0  0  0  0
  -30.9750   55.8110    7.2040 C   0  0  0  0  0
  -32.5140   53.9330    7.8530 C   0  0  0  0  0
  -33.9050   52.8330    3.5260 N   0  0  0  0  0
  -34.5320   52.8900    2.2120 C   0  0  0  0  0
  -34.5710   54.3550    1.7470 C   0  0  0  0  0
  -34.8510   55.2600    2.5350 O   0  0  0  0  0
  -35.9590   52.3480    2.2700 C   0  0  0  0  0
  -36.5830   52.0320    0.9060 C   0  0  0  0  0
  -38.0440   51.5580    1.0910 C   0  0  0  0  0
  -38.2390   50.6700    2.3810 C   0  0  0  0  0
  -37.8830   51.3310    3.7220 N   0  3  0  0  0
  -34.2870   54.5640    0.4660 N   0  0  0  0  0
  -34.2870   55.8920   -0.1040 C   0  0  0  0  0
  -35.6830   56.5040   -0.1500 C   0  0  0  0  0
  -36.6970   55.8060   -0.0470 O   0  0  0  0  0
  -33.6970   55.8620   -1.5100 C   0  0  0  0  0
  -32.2160   55.5010   -1.6240 C   0  0  0  0  0
  -31.7440   55.7200   -3.0600 C   0  0  0  0  0
  -31.3990   56.3600   -0.6770 C   0  0  0  0  0
  -35.7100   57.8250   -0.2980 N   0  0  0  0  0
  -36.9470   58.5850   -0.3740 C   0  0  0  0  0
  -37.6580   58.2570   -1.6680 C   0  0  0  0  0
  -37.0530   58.2570   -2.7400 O   0  0  0  0  0
  -36.6470   60.0810   -0.3140 C   0  0  0  0  0
  -38.9520   57.9910   -1.5520 N   0  0  0  0  0
  -39.7810   57.6570   -2.6990 C   0  0  0  0  0
  -40.9570   58.6190   -2.8460 C   0  0  0  0  0
  -41.1100   59.1820   -3.9540 O   0  0  0  0  0
  -40.3370   56.2330   -2.5730 C   0  0  0  0  0
  -39.2620   55.2930   -2.6870 O   0  0  0  0  0
  -41.3750   55.9690   -3.6580 C   0  0  0  0  0
  -41.7160   58.7800   -1.8580 O   0  0  0  0  0
  -17.6259   36.4830   20.2126 H   0  0  0  0  0
  -17.9065   37.0028   21.7713 H   0  0  0  0  0
  -18.0767   39.1347   21.1358 H   0  0  0  0  0
  -16.0416   40.1815   20.4177 H   0  0  0  0  0
  -15.6676   38.9837   19.3026 H   0  0  0  0  0
  -15.5065   38.7536   22.3701 H   0  0  0  0  0
  -14.2736   38.3505   21.2383 H   0  0  0  0  0
  -15.4019   36.2787   20.5362 H   0  0  0  0  0
  -15.7893   36.3103   22.1883 H   0  0  0  0  0
  -19.4322   40.0351   19.7618 H   0  0  0  0  0
  -19.5561   38.7343   17.1136 H   0  0  0  0  0
  -21.9311   39.9216   18.6259 H   0  0  0  0  0
  -21.4427   38.1690   18.7443 H   0  0  0  0  0
  -21.7339   38.9398   16.0112 H   0  0  0  0  0
  -23.2151   39.3741   16.9266 H   0  0  0  0  0
  -23.6723   37.1814   17.4905 H   0  0  0  0  0
  -21.9496   36.6788   17.3474 H   0  0  0  0  0
  -22.0718   36.7243   14.9488 H   0  0  0  0  0
  -23.7227   37.4426   15.0015 H   0  0  0  0  0
  -23.7879   35.0685   14.5380 H   0  0  0  0  0
  -22.9810   34.7299   15.9561 H   0  0  0  0  0
  -24.5084   35.3945   16.0049 H   0  0  0  0  0
  -19.4005   39.7899   15.3501 H   0  0  0  0  0
  -19.1267   42.6708   15.3554 H   0  0  0  0  0
  -19.4002   42.2354   12.7933 H   0  0  0  0  0
  -19.1633   40.5006   13.3194 H   0  0  0  0  0
  -17.6127   43.8966   13.7793 H   0  0  0  0  0
  -17.0080   39.6791   13.3360 H   0  0  0  0  0
  -15.1629   44.2481   13.8167 H   0  0  0  0  0
  -14.5457   40.0288   13.3664 H   0  0  0  0  0
  -12.8993   41.5169   13.5419 H   0  0  0  0  0
  -20.6295   44.2262   14.8296 H   0  0  0  0  0
  -23.3685   43.1708   14.2695 H   0  0  0  0  0
  -22.6227   45.7655   15.6772 H   0  0  0  0  0
  -24.7199   45.8541   14.4314 H   0  0  0  0  0
  -25.2671   44.3642   15.2387 H   0  0  0  0  0
  -25.0115   45.8489   16.1881 H   0  0  0  0  0
  -23.6911   43.1478   16.7809 H   0  0  0  0  0
  -22.0508   43.7973   17.0233 H   0  0  0  0  0
  -23.4569   44.6540   17.7017 H   0  0  0  0  0
  -24.6363   44.2460   12.7162 H   0  0  0  0  0
  -22.9751   45.9827   10.9793 H   0  0  0  0  0
  -24.1126   43.8204   10.1276 H   0  0  0  0  0
  -24.3727   45.3327    9.1424 H   0  0  0  0  0
  -26.5254   45.5733   10.4234 H   0  0  0  0  0
  -26.2725   43.8741   10.9484 H   0  0  0  0  0
  -26.3440   43.0881    8.7336 H   0  0  0  0  0
  -26.2507   44.7547    8.0694 H   0  0  0  0  0
  -28.5100   43.9374    7.8873 H   0  0  0  0  0
  -28.4339   45.2334    9.1431 H   0  0  0  0  0
  -29.7677   43.3836    9.8340 H   0  0  0  0  0
  -28.4864   42.3362    9.6390 H   0  0  0  0  0
  -28.4162   43.5319   10.7975 H   0  0  0  0  0
  -24.1038   47.6524    9.6822 H   0  0  0  0  0
  -26.0257   49.2133   11.4041 H   0  0  0  0  0
  -25.6148   50.8420    9.4427 H   0  0  0  0  0
  -24.0857   49.8368    9.2786 H   0  0  0  0  0
  -23.7177   51.8594   10.5579 H   0  0  0  0  0
  -23.5403   50.3663   11.5696 H   0  0  0  0  0
  -26.2146   53.2898   12.5391 H   0  0  0  0  0
  -25.0905   53.4296   11.1833 H   0  0  0  0  0
  -28.1974   49.3195   10.5846 H   0  0  0  0  0
  -28.7738   47.5592    8.3111 H   0  0  0  0  0
  -31.0770   47.9943    8.7434 H   0  0  0  0  0
  -30.6553   49.4305    9.7662 H   0  0  0  0  0
  -31.1796   47.2894   12.5045 H   0  0  0  0  0
  -31.7758   48.6606   11.5635 H   0  0  0  0  0
  -29.4186   48.1273    6.2560 H   0  0  0  0  0
  -28.6317   50.8039    5.4145 H   0  0  0  0  0
  -29.3766   50.0595    3.1340 H   0  0  0  0  0
  -29.8791   47.7699    2.9747 H   0  0  0  0  0
  -27.0766   49.6964    3.8923 H   0  0  0  0  0
  -27.5563   48.1435    4.6199 H   0  0  0  0  0
  -27.6202   48.3565    2.8531 H   0  0  0  0  0
  -29.9124   52.5095    4.9516 H   0  0  0  0  0
  -32.7548   52.2883    5.7176 H   0  0  0  0  0
  -32.7443   54.7315    5.3766 H   0  0  0  0  0
  -30.9813   54.5887    4.8759 H   0  0  0  0  0
  -30.5044   53.7391    7.1559 H   0  0  0  0  0
  -30.1454   56.0821    6.5511 H   0  0  0  0  0
  -31.8261   56.4611    7.0012 H   0  0  0  0  0
  -30.6712   55.9221    8.2449 H   0  0  0  0  0
  -33.3883   54.5533    7.6555 H   0  0  0  0  0
  -32.7560   52.8885    7.6564 H   0  0  0  0  0
  -32.2132   54.0478    8.8944 H   0  0  0  0  0
  -34.4839   52.8481    4.3657 H   0  0  0  0  0
  -33.9548   52.2804    1.5168 H   0  0  0  0  0
  -36.5736   53.1236    2.7269 H   0  0  0  0  0
  -35.9189   51.4104    2.8244 H   0  0  0  0  0
  -36.0079   51.2425    0.4223 H   0  0  0  0  0
  -36.5725   52.9308    0.2894 H   0  0  0  0  0
  -38.3111   50.9524    0.2249 H   0  0  0  0  0
  -38.6716   52.4429    1.1964 H   0  0  0  0  0
  -37.5628   49.8222    2.2712 H   0  0  0  0  0
  -39.3024   50.4357    2.4306 H   0  0  0  0  0
  -38.0471   50.6688    4.4803 H   0  0  0  0  0
  -36.9004   51.6046    3.7146 H   0  0  0  0  0
  -38.4661   52.1568    3.8580 H   0  0  0  0  0
  -34.0634   53.7671   -0.1301 H   0  0  0  0  0
  -33.6725   56.5166    0.5443 H   0  0  0  0  0
  -33.7898   56.8768   -1.8968 H   0  0  0  0  0
  -34.2386   55.0831   -2.0468 H   0  0  0  0  0
  -32.0815   54.4530   -1.3564 H   0  0  0  0  0
  -32.3242   55.0879   -3.7322 H   0  0  0  0  0
  -31.8842   56.7663   -3.3316 H   0  0  0  0  0
  -30.6879   55.4616   -3.1374 H   0  0  0  0  0
  -31.5337   57.4107   -0.9337 H   0  0  0  0  0
  -31.7330   56.1890    0.3464 H   0  0  0  0  0
  -30.3454   56.0952   -0.7657 H   0  0  0  0  0
  -34.8243   58.3270   -0.3610 H   0  0  0  0  0
  -37.5844   58.3199    0.4696 H   0  0  0  0  0
  -36.1414   60.3115    0.6237 H   0  0  0  0  0
  -36.0053   60.3555   -1.1513 H   0  0  0  0  0
  -37.5809   60.6401   -0.3717 H   0  0  0  0  0
  -39.3803   58.0217   -0.6268 H   0  0  0  0  0
  -39.1420   57.7347   -3.5786 H   0  0  0  0  0
  -40.8178   56.1228   -1.6010 H   0  0  0  0  0
  -39.6085   54.4012   -2.6083 H   0  0  0  0  0
  -42.1943   56.6807   -3.5561 H   0  0  0  0  0
  -40.9118   56.0842   -4.6379 H   0  0  0  0  0
  -41.7584   54.9541   -3.5530 H   0  0  0  0  0
  -41.4005   58.2483   -1.1236 H   0  0  0  0  0
  1  2  1  0  0  0
  1  7  1  0  0  0
  2  3  1  0  0  0
  2  5  1  0  0  0
  3  4  2  0  0  0
  3  8  1  0  0  0
  5  6  1  0  0  0
  6  7  1  0  0  0
  8  9  1  0  0  0
  9 10  1  0  0  0
  9 12  1  0  0  0
 10 11  2  0  0  0
 10 17  1  0  0  0
 12 13  1  0  0  0
 13 14  1  0  0  0
 14 15  1  0  0  0
 15 16  1  0  0  0
 17 18  1  0  0  0
 18 19  1  0  0  0
 18 21  1  0  0  0
 19 20  2  0  0  0
 19 29  1  0  0  0
 21 22  1  0  0  0
 22 23  4  0  0  0
 22 24  4  0  0  0
 23 25  4  0  0  0
 24 26  4  0  0  0
 25 27  4  0  0  0
 26 27  4  0  0  0
 27 28  1  0  0  0
 29 30  1  0  0  0
 30 31  1  0  0  0
 30 33  1  0  0  0
 31 32  2  0  0  0
 31 36  1  0  0  0
 33 34  1  0  0  0
 33 35  1  0  0  0
 36 37  1  0  0  0
 37 38  1  0  0  0
 37 40  1  0  0  0
 38 39  2  0  0  0
 38 45  1  0  0  0
 40 41  1  0  0  0
 41 42  1  0  0  0
 42 43  1  0  0  0
 43 44  1  0  0  0
 45 46  1  0  0  0
 46 47  1  0  0  0
 46 49  1  0  0  0
 47 48  2  0  0  0
 47 54  1  0  0  0
 49 50  1  0  0  0
 50 51  1  0  0  0
 51 52  2  0  0  0
 51 53  1  0  0  0
 54 55  1  0  0  0
 55 56  1  0  0  0
 55 58  1  0  0  0
 56 57  2  0  0  0
 56 62  1  0  0  0
 58 59  1  0  0  0
 59 60  2  0  0  0
 59 61  1  0  0  0
 62 63  1  0  0  0
 63 64  1  0  0  0
 63 66  1  0  0  0
 64 65  2  0  0  0
 64 69  1  0  0  0
 66 67  1  0  0  0
 66 68  1  0  0  0
 69 70  1  0  0  0
 70 71  1  0  0  0
 70 73  1  0  0  0
 71 72  2  0  0  0
 71 77  1  0  0  0
 73 74  1  0  0  0
 74 75  1  0  0  0
 74 76  1  0  0  0
 77 78  1  0  0  0
 78 79  1  0  0  0
 78 81  1  0  0  0
 79 80  2  0  0  0
 79 86  1  0  0  0
 81 82  1  0  0  0
 82 83  1  0  0  0
 83 84  1  0  0  0
 84 85  1  0  0  0
 86 87  1  0  0  0
 87 88  1  0  0  0
 87 90  1  0  0  0
 88 89  2  0  0  0
 88 94  1  0  0  0
 90 91  1  0  0  0
 91 92  1  0  0  0
 91 93  1  0  0  0
 94 95  1  0  0  0
 95 96  1  0  0  0
 95 98  1  0  0  0
 96 97  2  0  0  0
 96 99  1  0  0  0
 99100  1  0  0  0
100101  1  0  0  0
100103  1  0  0  0
101102  2  0  0  0
101106  1  0  0  0
103104  1  0  0  0
103105  1  0  0  0
  1107  1  0  0  0
  1108  1  0  0  0
  2109  1  0  0  0
  5110  1  0  0  0
  5111  1  0  0  0
  6112  1  0  0  0
  6113  1  0  0  0
  7114  1  0  0  0
  7115  1  0  0  0
  8116  1  0  0  0
  9117  1  0  0  0
 12118  1  0  0  0
 12119  1  0  0  0
 13120  1  0  0  0
 13121  1  0  0  0
 14122  1  0  0  0
 14123  1  0  0  0
 15124  1  0  0  0
 15125  1  0  0  0
 16126  1  0  0  0
 16127  1  0  0  0
 16128  1  0  0  0
 17129  1  0  0  0
 18130  1  0  0  0
 21131  1  0  0  0
 21132  1  0  0  0
 23133  1  0  0  0
 24134  1  0  0  0
 25135  1  0  0  0
 26136  1  0  0  0
 28137  1  0  0  0
 29138  1  0  0  0
 30139  1  0  0  0
 33140  1  0  0  0
 34141  1  0  0  0
 34142  1  0  0  0
 34143  1  0  0  0
 35144  1  0  0  0
 35145  1  0  0  0
 35146  1  0  0  0
 36147  1  0  0  0
 37148  1  0  0  0
 40149  1  0  0  0
 40150  1  0  0  0
 41151  1  0  0  0
 41152  1  0  0  0
 42153  1  0  0  0
 42154  1  0  0  0
 43155  1  0  0  0
 43156  1  0  0  0
 44157  1  0  0  0
 44158  1  0  0  0
 44159  1  0  0  0
 45160  1  0  0  0
 46161  1  0  0  0
 49162  1  0  0  0
 49163  1  0  0  0
 50164  1  0  0  0
 50165  1  0  0  0
 53166  1  0  0  0
 53167  1  0  0  0
 54168  1  0  0  0
 55169  1  0  0  0
 58170  1  0  0  0
 58171  1  0  0  0
 61172  1  0  0  0
 61173  1  0  0  0
 62174  1  0  0  0
 63175  1  0  0  0
 66176  1  0  0  0
 67177  1  0  0  0
 68178  1  0  0  0
 68179  1  0  0  0
 68180  1  0  0  0
 69181  1  0  0  0
 70182  1  0  0  0
 73183  1  0  0  0
 73184  1  0  0  0
 74185  1  0  0  0
 75186  1  0  0  0
 75187  1  0  0  0
 75188  1  0  0  0
 76189  1  0  0  0
 76190  1  0  0  0
 76191  1  0  0  0
 77192  1  0  0  0
 78193  1  0  0  0
 81194  1  0  0  0
 81195  1  0  0  0
 82196  1  0  0  0
 82197  1  0  0  0
 83198  1  0  0  0
 83199  1  0  0  0
 84200  1  0  0  0
 84201  1  0  0  0
 85202  1  0  0  0
 85203  1  0  0  0
 85204  1  0  0  0
 86205  1  0  0  0
 87206  1  0  0  0
 90207  1  0  0  0
 90208  1  0  0  0
 91209  1  0  0  0
 92210  1  0  0  0
 92211  1  0  0  0
 92212  1  0  0  0
 93213  1  0  0  0
 93214  1  0  0  0
 93215  1  0  0  0
 94216  1  0  0  0
 95217  1  0  0  0
 98218  1  0  0  0
 98219  1  0  0  0
 98220  1  0  0  0
 99221  1  0  0  0
100222  1  0  0  0
103223  1  0  0  0
104224  1  0  0  0
105225  1  0  0  0
105226  1  0  0  0
105227  1  0  0  0
106228  1  0  0  0
M  END
$$$$
