5fpi_ligand
  -I-interpret- 

113113  0  0  0  0  0  0  0  0999 V2000
  -33.0140   52.1710  -22.6570 N   0  3  0  0  0
  -33.7150   51.1230  -23.4630 C   0  0  0  0  0
  -32.7760   50.4300  -24.4920 C   0  0  0  0  0
  -32.6920   49.2150  -24.4450 O   0  0  0  0  0
  -34.9010   51.7670  -24.1130 C   0  0  0  0  0
  -35.6840   50.8430  -24.9940 C   0  0  0  0  0
  -36.3060   51.5720  -26.1810 C   0  0  0  0  0
  -35.7800   52.5990  -26.7310 O   0  0  0  0  0
  -37.4210   51.0230  -26.6170 N   0  0  0  0  0
  -32.0760   51.1630  -25.3860 N   0  0  0  0  0
  -30.8200   50.6150  -25.9890 C   0  0  0  0  0
  -29.7690   50.5190  -24.9110 C   0  0  0  0  0
  -29.5460   51.4860  -24.1820 O   0  0  0  0  0
  -30.2110   51.4760  -27.1090 C   0  0  0  0  0
  -30.8670   51.2740  -28.4550 C   0  0  0  0  0
  -30.7220   50.1040  -29.1570 C   0  0  0  0  0
  -31.6640   52.2590  -29.0010 C   0  0  0  0  0
  -31.3430   49.9290  -30.3650 C   0  0  0  0  0
  -32.3100   52.0650  -30.1810 C   0  0  0  0  0
  -32.1600   50.8900  -30.8470 C   0  0  0  0  0
  -32.8420   50.7630  -32.0140 O   0  0  0  0  0
  -29.1100   49.3710  -24.8310 N   0  0  0  0  0
  -27.9960   49.1350  -23.8920 C   0  0  0  0  0
  -26.7860   48.7120  -24.7300 C   0  0  0  0  0
  -26.9340   48.2380  -25.8640 O   0  0  0  0  0
  -28.3770   48.0450  -22.8540 C   0  0  0  0  0
  -29.1960   48.5450  -21.6410 C   0  0  0  0  0
  -30.1270   47.4560  -21.0000 C   0  0  0  0  0
  -31.6410   47.5080  -21.4860 C   0  0  0  0  0
  -32.6900   46.4230  -21.1890 N   0  3  0  0  0
  -25.5900   48.8480  -24.1840 N   0  0  0  0  0
  -24.4050   48.3280  -24.8810 C   0  0  0  0  0
  -24.3600   46.8430  -24.9530 C   0  0  0  0  0
  -24.7840   46.1820  -24.0280 O   0  0  0  0  0
  -23.1490   48.7870  -24.2240 C   0  0  0  0  0
  -23.0800   50.1680  -24.4560 O   0  0  0  0  0
  -23.8300   46.3290  -26.0630 N   0  0  0  0  0
  -23.6240   44.8870  -26.2660 C   0  0  0  0  0
  -22.3000   44.5940  -25.5980 C   0  0  0  0  0
  -21.2740   45.1640  -26.0100 O   0  0  0  0  0
  -23.5040   44.5650  -27.7670 C   0  0  0  0  0
  -24.7740   44.9710  -28.4850 C   0  0  0  0  0
  -23.2760   43.0840  -28.0110 C   0  0  0  0  0
  -24.7550   44.6790  -29.9660 C   0  0  0  0  0
  -22.2900   43.7560  -24.5660 N   0  0  0  0  0
  -21.0610   43.6560  -23.7720 C   0  0  0  0  0
  -20.2780   42.4400  -24.2190 C   0  0  0  0  0
  -19.1170   42.5770  -24.5330 O   0  0  0  0  0
  -21.3720   43.6140  -22.2740 C   0  0  0  0  0
  -22.0090   44.8560  -21.6140 C   0  0  0  0  0
  -22.2930   44.5720  -20.1240 C   0  0  0  0  0
  -21.1870   46.1400  -21.7960 C   0  0  0  0  0
  -20.8360   41.3660  -24.2490 O   0  0  0  0  0
  -32.1994   51.7595  -22.2014 H   0  0  0  0  0
  -32.7150   52.9278  -23.2720 H   0  0  0  0  0
  -33.6515   52.5375  -21.9501 H   0  0  0  0  0
  -34.0448   50.3168  -22.8077 H   0  0  0  0  0
  -34.5278   52.5760  -24.7409 H   0  0  0  0  0
  -35.5673   52.0991  -23.3168 H   0  0  0  0  0
  -36.4894   50.4092  -24.4013 H   0  0  0  0  0
  -35.0040   50.0834  -25.3798 H   0  0  0  0  0
  -37.9014   51.4174  -27.4257 H   0  0  0  0  0
  -37.8041   50.2034  -26.1459 H   0  0  0  0  0
  -32.4042   52.0918  -25.6505 H   0  0  0  0  0
  -31.1023   49.6555  -26.4223 H   0  0  0  0  0
  -29.1647   51.1874  -27.2097 H   0  0  0  0  0
  -30.3525   52.5204  -26.8308 H   0  0  0  0  0
  -30.1049   49.3039  -28.7481 H   0  0  0  0  0
  -31.7774   53.2083  -28.4775 H   0  0  0  0  0
  -31.1780   49.0155  -30.9364 H   0  0  0  0  0
  -32.9461   52.8491  -30.5916 H   0  0  0  0  0
  -33.3602   51.5563  -32.1685 H   0  0  0  0  0
  -29.3878   48.6106  -25.4515 H   0  0  0  0  0
  -27.7646   50.0366  -23.3248 H   0  0  0  0  0
  -27.4413   47.6508  -22.4577 H   0  0  0  0  0
  -29.0030   47.3217  -23.3765 H   0  0  0  0  0
  -29.8399   49.3491  -21.9973 H   0  0  0  0  0
  -28.4828   48.8495  -20.8750 H   0  0  0  0  0
  -30.1321   47.6353  -19.9249 H   0  0  0  0  0
  -29.7311   46.4848  -21.2970 H   0  0  0  0  0
  -31.5430   47.4510  -22.5701 H   0  0  0  0  0
  -32.0330   48.3695  -20.9454 H   0  0  0  0  0
  -33.5809   46.6893  -21.6082 H   0  0  0  0  0
  -32.3796   45.5348  -21.5828 H   0  0  0  0  0
  -32.8027   46.3280  -20.1797 H   0  0  0  0  0
  -25.4897   49.3125  -23.2815 H   0  0  0  0  0
  -24.4834   48.7215  -25.8945 H   0  0  0  0  0
  -22.2780   48.2725  -24.6298 H   0  0  0  0  0
  -23.1548   48.5637  -23.1571 H   0  0  0  0  0
  -22.2837   50.5199  -24.0515 H   0  0  0  0  0
  -23.5536   46.9677  -26.8087 H   0  0  0  0  0
  -24.4505   44.3004  -25.8649 H   0  0  0  0  0
  -22.6475   45.1219  -28.1469 H   0  0  0  0  0
  -24.8842   46.0490  -28.3671 H   0  0  0  0  0
  -25.5917   44.3961  -28.0503 H   0  0  0  0  0
  -22.3538   42.7739  -27.5196 H   0  0  0  0  0
  -24.1138   42.5170  -27.6052 H   0  0  0  0  0
  -23.1972   42.9016  -29.0827 H   0  0  0  0  0
  -23.9315   45.2208  -30.4313 H   0  0  0  0  0
  -24.6217   43.6085  -30.1223 H   0  0  0  0  0
  -25.6981   44.9976  -30.4100 H   0  0  0  0  0
  -23.1124   43.1993  -24.3334 H   0  0  0  0  0
  -20.4509   44.5440  -23.9374 H   0  0  0  0  0
  -20.4037   43.4994  -21.7867 H   0  0  0  0  0
  -22.1121   42.8218  -22.1604 H   0  0  0  0  0
  -22.9502   45.0435  -22.1309 H   0  0  0  0  0
  -22.9784   43.7286  -20.0404 H   0  0  0  0  0
  -21.3583   44.3340  -19.6162 H   0  0  0  0  0
  -22.7422   45.4535  -19.6666 H   0  0  0  0  0
  -20.2010   46.0047  -21.3515 H   0  0  0  0  0
  -21.0813   46.3545  -22.8594 H   0  0  0  0  0
  -21.6973   46.9691  -21.3058 H   0  0  0  0  0
  -21.7467   41.4718  -23.9644 H   0  0  0  0  0
  1  2  1  0  0  0
  2  3  1  0  0  0
  2  5  1  0  0  0
  3  4  2  0  0  0
  3 10  1  0  0  0
  5  6  1  0  0  0
  6  7  1  0  0  0
  7  8  2  0  0  0
  7  9  1  0  0  0
 10 11  1  0  0  0
 11 12  1  0  0  0
 11 14  1  0  0  0
 12 13  2  0  0  0
 12 22  1  0  0  0
 14 15  1  0  0  0
 15 16  4  0  0  0
 15 17  4  0  0  0
 16 18  4  0  0  0
 17 19  4  0  0  0
 18 20  4  0  0  0
 19 20  4  0  0  0
 20 21  1  0  0  0
 22 23  1  0  0  0
 23 24  1  0  0  0
 23 26  1  0  0  0
 24 25  2  0  0  0
 24 31  1  0  0  0
 26 27  1  0  0  0
 27 28  1  0  0  0
 28 29  1  0  0  0
 29 30  1  0  0  0
 31 32  1  0  0  0
 32 33  1  0  0  0
 32 35  1  0  0  0
 33 34  2  0  0  0
 33 37  1  0  0  0
 35 36  1  0  0  0
 37 38  1  0  0  0
 38 39  1  0  0  0
 38 41  1  0  0  0
 39 40  2  0  0  0
 39 45  1  0  0  0
 41 42  1  0  0  0
 41 43  1  0  0  0
 42 44  1  0  0  0
 45 46  1  0  0  0
 46 47  1  0  0  0
 46 49  1  0  0  0
 47 48  2  0  0  0
 47 53  1  0  0  0
 49 50  1  0  0  0
 50 51  1  0  0  0
 50 52  1  0  0  0
  1 54  1  0  0  0
  1 55  1  0  0  0
  1 56  1  0  0  0
  2 57  1  0  0  0
  5 58  1  0  0  0
  5 59  1  0  0  0
  6 60  1  0  0  0
  6 61  1  0  0  0
  9 62  1  0  0  0
  9 63  1  0  0  0
 10 64  1  0  0  0
 11 65  1  0  0  0
 14 66  1  0  0  0
 14 67  1  0  0  0
 16 68  1  0  0  0
 17 69  1  0  0  0
 18 70  1  0  0  0
 19 71  1  0  0  0
 21 72  1  0  0  0
 22 73  1  0  0  0
 23 74  1  0  0  0
 26 75  1  0  0  0
 26 76  1  0  0  0
 27 77  1  0  0  0
 27 78  1  0  0  0
 28 79  1  0  0  0
 28 80  1  0  0  0
 29 81  1  0  0  0
 29 82  1  0  0  0
 30 83  1  0  0  0
 30 84  1  0  0  0
 30 85  1  0  0  0
 31 86  1  0  0  0
 32 87  1  0  0  0
 35 88  1  0  0  0
 35 89  1  0  0  0
 36 90  1  0  0  0
 37 91  1  0  0  0
 38 92  1  0  0  0
 41 93  1  0  0  0
 42 94  1  0  0  0
 42 95  1  0  0  0
 43 96  1  0  0  0
 43 97  1  0  0  0
 43 98  1  0  0  0
 44 99  1  0  0  0
 44100  1  0  0  0
 44101  1  0  0  0
 45102  1  0  0  0
 46103  1  0  0  0
 49104  1  0  0  0
 49105  1  0  0  0
 50106  1  0  0  0
 51107  1  0  0  0
 51108  1  0  0  0
 51109  1  0  0  0
 52110  1  0  0  0
 52111  1  0  0  0
 52112  1  0  0  0
 53113  1  0  0  0
M  END
$$$$
