### 
### Created by X-TOOL on Mon Sep 10 21:13:27 2018
### 

@<TRIPOS>MOLECULE
5fpi_ligand
  112   112     1     0     0
SMALL
GAST_HUCK


@<TRIPOS>ATOM
      1 N         -33.0140   52.1710  -22.6570 N.4       1 GLN         0.2380
      2 CA        -33.7150   51.1230  -23.4630 C.3       1 GLN         0.0671
      3 C         -32.7760   50.4300  -24.4920 C.2       1 GLN         0.2270
      4 O         -32.6920   49.2150  -24.4450 O.2       1 GLN        -0.3907
      5 CB        -34.9010   51.7670  -24.1130 C.3       1 GLN         0.0247
      6 CG        -35.6840   50.8430  -24.9940 C.3       1 GLN         0.0443
      7 CD        -36.3060   51.5720  -26.1810 C.2       1 GLN         0.1738
      8 OE1       -35.7800   52.5990  -26.7310 O.2       1 GLN        -0.3973
      9 NE2       -37.4210   51.0230  -26.6170 N.am      1 GLN        -0.3009
     10 N         -32.0760   51.1630  -25.3860 N.am      1 TYR        -0.2594
     11 CA        -30.8200   50.6150  -25.9890 C.3       1 TYR         0.1391
     12 C         -29.7690   50.5190  -24.9110 C.2       1 TYR         0.2057
     13 O         -29.5460   51.4860  -24.1820 O.2       1 TYR        -0.3942
     14 CB        -30.2110   51.4760  -27.1090 C.3       1 TYR         0.0164
     15 CG        -30.8670   51.2740  -28.4550 C.ar      1 TYR        -0.0493
     16 CD1       -30.7220   50.1040  -29.1570 C.ar      1 TYR        -0.0685
     17 CD2       -31.6640   52.2590  -29.0010 C.ar      1 TYR        -0.0685
     18 CE1       -31.3430   49.9290  -30.3650 C.ar      1 TYR        -0.0398
     19 CE2       -32.3100   52.0650  -30.1810 C.ar      1 TYR        -0.0398
     20 CZ        -32.1600   50.8900  -30.8470 C.ar      1 TYR         0.0805
     21 OH        -32.8420   50.7630  -32.0140 O.3       1 TYR        -0.3376
     22 N         -29.1100   49.3710  -24.8310 N.am      1 LYS        -0.2636
     23 CA        -27.9960   49.1350  -23.8920 C.3       1 LYS         0.1310
     24 C         -26.7860   48.7120  -24.7300 C.2       1 LYS         0.2040
     25 O         -26.9340   48.2380  -25.8640 O.2       1 LYS        -0.3944
     26 CB        -28.3770   48.0450  -22.8540 C.3       1 LYS        -0.0122
     27 CG        -29.1960   48.5450  -21.6410 C.3       1 LYS        -0.0440
     28 CD        -30.1270   47.4560  -21.0000 C.3       1 LYS        -0.0124
     29 CE        -31.6410   47.5080  -21.4860 C.3       1 LYS        -0.0354
     30 NZ        -32.6900   46.4230  -21.1890 N.4       1 LYS         0.2185
     31 N         -25.5900   48.8480  -24.1840 N.am      1 SER        -0.2616
     32 CA        -24.4050   48.3280  -24.8810 C.3       1 SER         0.1539
     33 C         -24.3600   46.8430  -24.9530 C.2       1 SER         0.2062
     34 O         -24.7840   46.1820  -24.0280 O.2       1 SER        -0.3943
     35 CB        -23.1490   48.7870  -24.2240 C.3       1 SER         0.0843
     36 OG        -23.0800   50.1680  -24.4560 O.3       1 SER        -0.3903
     37 N         -23.8300   46.3290  -26.0630 N.am      1 ILE        -0.2634
     38 CA        -23.6240   44.8870  -26.2660 C.3       1 ILE         0.1335
     39 C         -22.3000   44.5940  -25.5980 C.2       1 ILE         0.2036
     40 O         -21.2740   45.1640  -26.0100 O.2       1 ILE        -0.3944
     41 CB        -23.5040   44.5650  -27.7670 C.3       1 ILE        -0.0037
     42 CG1       -24.7740   44.9710  -28.4850 C.3       1 ILE        -0.0491
     43 CG2       -23.2760   43.0840  -28.0110 C.3       1 ILE        -0.0582
     44 CD1       -24.7550   44.6790  -29.9660 C.3       1 ILE        -0.0648
     45 N         -22.2900   43.7560  -24.5660 N.am      1 LEU        -0.2695
     46 CA        -21.0610   43.6560  -23.7720 C.3       1 LEU         0.0946
     47 C         -20.2780   42.4400  -24.2190 C.2       1 LEU         0.0601
     48 O         -19.1170   42.5770  -24.5330 O.co2     1 LEU        -0.5666
     49 CB        -21.3720   43.6140  -22.2740 C.3       1 LEU        -0.0156
     50 CG        -22.0090   44.8560  -21.6140 C.3       1 LEU        -0.0431
     51 CD1       -22.2930   44.5720  -20.1240 C.3       1 LEU        -0.0625
     52 CD2       -21.1870   46.1400  -21.7960 C.3       1 LEU        -0.0625
     53 OXT       -20.8360   41.3660  -24.2490 O.co2     1 LEU        -0.5666
     54 H1        -33.6642   52.5870  -22.0087 H         1 GLN         0.2015
     55 H2        -32.6520   52.8822  -23.2727 H         1 GLN         0.2015
     56 H3        -32.2537   51.7497  -22.1466 H         1 GLN         0.2015
     57 H4        -34.0782   50.3450  -22.7754 H         1 GLN         0.1100
     58 H5        -34.5463   52.6104  -24.7235 H         1 GLN         0.0370
     59 H6        -35.5686   52.1414  -23.3230 H         1 GLN         0.0370
     60 H7        -36.4872   50.3824  -24.4001 H         1 GLN         0.0506
     61 H8        -35.0117   50.0588  -25.3721 H         1 GLN         0.0506
     62 H9        -37.9068   51.4261  -27.3925 H         1 GLN         0.1814
     63 H10       -37.7817   50.2031  -26.1725 H         1 GLN         0.1814
     64 H11       -32.3978   52.0736  -25.6454 H         1 TYR         0.1886
     65 H12       -31.0385   49.6149  -26.3915 H         1 TYR         0.0821
     66 H13       -29.1445   51.2227  -27.2009 H         1 TYR         0.0453
     67 H14       -30.3136   52.5346  -26.8281 H         1 TYR         0.0453
     68 H15       -30.1083   49.3083  -28.7504 H         1 TYR         0.0530
     69 H16       -31.7768   53.2031  -28.4804 H         1 TYR         0.0530
     70 H17       -31.1790   49.0206  -30.9333 H         1 TYR         0.0525
     71 H18       -32.9426   52.8448  -30.5894 H         1 TYR         0.0525
     72 H19       -32.6652   49.9094  -32.3915 H         1 TYR         0.2458
     73 H20       -29.3823   48.6255  -25.4393 H         1 LYS         0.1883
     74 H21       -27.7620   50.0664  -23.3557 H         1 LYS         0.0800
     75 H22       -27.4468   47.5971  -22.4745 H         1 LYS         0.0312
     76 H23       -28.9701   47.2761  -23.3707 H         1 LYS         0.0312
     77 H24       -29.8247   49.3848  -21.9718 H         1 LYS         0.0269
     78 H25       -28.4930   48.8945  -20.8706 H         1 LYS         0.0269
     79 H26       -30.1125   47.5918  -19.9085 H         1 LYS         0.0317
     80 H27       -29.7200   46.4656  -21.2518 H         1 LYS         0.0317
     81 H28       -31.5970   47.5841  -22.5825 H         1 LYS         0.0813
     82 H29       -32.0531   48.4392  -21.0700 H         1 LYS         0.0813
     83 H30       -33.5709   46.6851  -21.6029 H         1 LYS         0.1994
     84 H31       -32.8023   46.3282  -20.1918 H         1 LYS         0.1994
     85 H32       -32.3843   45.5447  -21.5778 H         1 LYS         0.1994
     86 H33       -25.4916   49.3034  -23.2992 H         1 SER         0.1884
     87 H34       -24.4278   48.7203  -25.9084 H         1 SER         0.0823
     88 H35       -22.2783   48.2803  -24.6657 H         1 SER         0.0606
     89 H36       -23.1842   48.5812  -23.1440 H         1 SER         0.0606
     90 H37       -23.0594   50.3301  -25.3919 H         1 SER         0.2097
     91 H38       -23.5590   46.9552  -26.7941 H         1 ILE         0.1883
     92 H39       -24.4400   44.3031  -25.8152 H         1 ILE         0.0803
     93 H40       -22.6554   45.1298  -28.1803 H         1 ILE         0.0345
     94 H41       -24.9206   46.0523  -28.3464 H         1 ILE         0.0267
     95 H42       -25.6167   44.4260  -28.0346 H         1 ILE         0.0267
     96 H43       -22.3567   42.7651  -27.4979 H         1 ILE         0.0235
     97 H44       -23.1751   42.9016  -29.0911 H         1 ILE         0.0235
     98 H45       -24.1308   42.5122  -27.6208 H         1 ILE         0.0235
     99 H46       -25.7064   45.0001  -30.4152 H         1 ILE         0.0230
    100 H47       -24.6205   43.5989  -30.1251 H         1 ILE         0.0230
    101 H48       -23.9244   45.2252  -30.4368 H         1 ILE         0.0230
    102 H49       -23.0963   43.2102  -24.3380 H         1 LEU         0.1875
    103 H50       -20.4495   44.5498  -23.9647 H         1 LEU         0.0726
    104 H51       -20.4235   43.4204  -21.7517 H         1 LEU         0.0308
    105 H52       -22.0598   42.7714  -22.1096 H         1 LEU         0.0308
    106 H53       -22.9765   45.0252  -22.1093 H         1 LEU         0.0297
    107 H54       -22.7464   45.4610  -19.6613 H         1 LEU         0.0232
    108 H55       -21.3504   44.3317  -19.6104 H         1 LEU         0.0232
    109 H56       -22.9846   43.7210  -20.0383 H         1 LEU         0.0232
    110 H57       -21.0045   46.3097  -22.8674 H         1 LEU         0.0232
    111 H58       -20.2253   46.0371  -21.2721 H         1 LEU         0.0232
    112 H59       -21.7423   46.9931  -21.3790 H         1 LEU         0.0232
@<TRIPOS>BOND
     1    1    2 1  
     2    2    3 1  
     3    2    5 1  
     4    3    4 2  
     5    3   10 am 
     6    5    6 1  
     7    6    7 1  
     8    7    8 2  
     9    7    9 am 
    10   10   11 1  
    11   11   12 1  
    12   11   14 1  
    13   12   13 2  
    14   12   22 am 
    15   14   15 1  
    16   15   16 ar 
    17   15   17 ar 
    18   16   18 ar 
    19   17   19 ar 
    20   18   20 ar 
    21   19   20 ar 
    22   20   21 1  
    23   22   23 1  
    24   23   24 1  
    25   23   26 1  
    26   24   25 2  
    27   24   31 am 
    28   26   27 1  
    29   27   28 1  
    30   28   29 1  
    31   29   30 1  
    32   31   32 1  
    33   32   33 1  
    34   32   35 1  
    35   33   34 2  
    36   33   37 am 
    37   35   36 1  
    38   37   38 1  
    39   38   39 1  
    40   38   41 1  
    41   39   40 2  
    42   39   45 am 
    43   41   42 1  
    44   41   43 1  
    45   42   44 1  
    46   45   46 1  
    47   46   47 1  
    48   46   49 1  
    49   47   48 ar 
    50   47   53 ar 
    51   49   50 1  
    52   50   51 1  
    53   50   52 1  
    54    1   54 1  
    55    1   55 1  
    56    1   56 1  
    57    2   57 1  
    58    5   58 1  
    59    5   59 1  
    60    6   60 1  
    61    6   61 1  
    62    9   62 1  
    63    9   63 1  
    64   10   64 1  
    65   11   65 1  
    66   14   66 1  
    67   14   67 1  
    68   16   68 1  
    69   17   69 1  
    70   18   70 1  
    71   19   71 1  
    72   21   72 1  
    73   22   73 1  
    74   23   74 1  
    75   26   75 1  
    76   26   76 1  
    77   27   77 1  
    78   27   78 1  
    79   28   79 1  
    80   28   80 1  
    81   29   81 1  
    82   29   82 1  
    83   30   83 1  
    84   30   84 1  
    85   30   85 1  
    86   31   86 1  
    87   32   87 1  
    88   35   88 1  
    89   35   89 1  
    90   36   90 1  
    91   37   91 1  
    92   38   92 1  
    93   41   93 1  
    94   42   94 1  
    95   42   95 1  
    96   43   96 1  
    97   43   97 1  
    98   43   98 1  
    99   44   99 1  
   100   44  100 1  
   101   44  101 1  
   102   45  102 1  
   103   46  103 1  
   104   49  104 1  
   105   49  105 1  
   106   50  106 1  
   107   51  107 1  
   108   51  108 1  
   109   51  109 1  
   110   52  110 1  
   111   52  111 1  
   112   52  112 1  
@<TRIPOS>SUBSTRUCTURE
     1 GLN         1

