### 
### Created by X-TOOL on Mon Aug  2 16:10:30 2021
### 

@<TRIPOS>MOLECULE
5zjy_ligand
  248   250     1     0     0
SMALL
GAST_HUCK


@<TRIPOS>ATOM
      1 C           2.4770    9.1740   12.4410 C.2       1 ACE         0.1751
      2 O           3.3010    9.2070   13.3330 O.2       1 ACE        -0.3972
      3 CH3         2.3380   10.3830   11.5550 C.3       1 ACE         0.0258
      4 N           1.7200    8.0980   12.1670 N.am      1 ACE        -0.2658
      5 CA          1.9470    6.7720   12.7560 C.3       1 ACE         0.1309
      6 C           1.0930    5.7050   12.0810 C.2       1 ACE         0.2039
      7 O           1.6460    4.8010   11.5100 O.2       1 ACE        -0.3944
      8 CB          1.7200    6.7170   14.2590 C.3       1 ACE        -0.0122
      9 CG          1.8920    5.3430   14.9140 C.3       1 ACE        -0.0440
     10 CD          3.1610    4.6200   14.5090 C.3       1 ACE        -0.0124
     11 CE          4.4390    5.3440   14.9230 C.3       1 ACE        -0.0354
     12 NZ          5.5470    4.9690   14.0120 N.4       1 ACE         0.2185
     13 N          -0.2430    5.7890   12.1700 N.am      1 ACE        -0.2637
     14 CA         -1.0900    5.0480   11.2330 C.3       1 ACE         0.1310
     15 C          -2.1230    6.0280   10.6990 C.2       1 ACE         0.2039
     16 O          -3.0520    6.3840   11.4070 O.2       1 ACE        -0.3944
     17 CB         -1.7700    3.8520   11.8970 C.3       1 ACE        -0.0122
     18 CG         -0.8410    2.6640   12.1130 C.3       1 ACE        -0.0440
     19 CD         -1.5010    1.5510   12.9130 C.3       1 ACE        -0.0124
     20 CE         -1.1550    1.6310   14.3940 C.3       1 ACE        -0.0354
     21 NZ         -2.0100    0.7670   15.2600 N.4       1 ACE         0.2185
     22 N          -1.9070    6.5050    9.4850 N.am      1 ACE        -0.2637
     23 CA         -2.8050    7.4630    8.8500 C.3       1 ACE         0.1311
     24 C          -3.4290    6.8240    7.6250 C.2       1 ACE         0.2040
     25 O          -2.8000    6.0000    6.9490 O.2       1 ACE        -0.3944
     26 CB         -2.0450    8.7220    8.4460 C.3       1 ACE        -0.0092
     27 CG         -1.5490    9.5380    9.6150 C.3       1 ACE        -0.0156
     28 CD         -0.8210   10.7580    9.0930 C.3       1 ACE         0.0627
     29 NE         -0.3060   11.5990   10.1680 N.pl3     1 ACE        -0.2723
     30 CZ          0.4660   12.6720    9.9900 C.cat     1 ACE         0.2882
     31 NH1         0.8300   13.0600    8.7660 N.pl3     1 ACE        -0.2849
     32 NH2         0.8710   13.3680   11.0490 N.pl3     1 ACE        -0.2849
     33 N          -4.6730    7.1990    7.3410 N.am      1 ACE        -0.2621
     34 CA         -5.3280    6.7830    6.1120 C.3       1 ACE         0.1390
     35 C          -6.0200    7.9800    5.5290 C.2       1 ACE         0.2058
     36 O          -6.6990    8.7450    6.2490 O.2       1 ACE        -0.3942
     37 CB         -6.3800    5.7050    6.3650 C.3       1 ACE         0.0163
     38 CG         -5.8530    4.4130    6.9400 C.ar      1 ACE        -0.0493
     39 CD1        -5.7600    4.2260    8.3190 C.ar      1 ACE        -0.0685
     40 CD2        -5.5200    3.3410    6.1150 C.ar      1 ACE        -0.0685
     41 CE1        -5.2860    3.0290    8.8510 C.ar      1 ACE        -0.0398
     42 CE2        -5.0380    2.1420    6.6390 C.ar      1 ACE        -0.0398
     43 CZ         -4.9220    1.9950    8.0110 C.ar      1 ACE         0.0805
     44 OH         -4.4610    0.8190    8.5670 O.3       1 ACE        -0.3376
     45 N          -5.8790    8.1350    4.2200 N.am      1 ACE        -0.2614
     46 CA         -6.6810    9.1020    3.5080 C.3       1 ACE         0.1539
     47 C          -8.1260    8.6500    3.4140 C.2       1 ACE         0.2062
     48 O          -8.4700    7.4780    3.5760 O.2       1 ACE        -0.3943
     49 CB         -6.1390    9.3170    2.1110 C.3       1 ACE         0.0843
     50 OG         -6.2900    8.1420    1.3420 O.3       1 ACE        -0.3903
     51 N          -8.9710    9.6140    3.1230 N.am      1 ACE        -0.2637
     52 CA        -10.3570    9.3560    2.8440 C.3       1 ACE         0.1308
     53 C         -10.4840    8.3020    1.7150 C.2       1 ACE         0.2010
     54 O         -11.2370    7.3270    1.8730 O.2       1 ACE        -0.3947
     55 CB        -11.0060   10.6890    2.4970 C.3       1 ACE        -0.0092
     56 CG        -12.4360   10.6360    2.1530 C.3       1 ACE        -0.0156
     57 CD        -12.8490   12.0020    1.6390 C.3       1 ACE         0.0627
     58 NE        -14.2410   11.9140    1.3050 N.pl3     1 ACE        -0.2723
     59 CZ        -14.7170   11.5190    0.1320 C.cat     1 ACE         0.2882
     60 NH1       -16.0280   11.4500   -0.0270 N.pl3     1 ACE        -0.2849
     61 NH2       -13.9000   11.1910   -0.8720 N.pl3     1 ACE        -0.2849
     62 OAE       -10.1070    5.0890   -0.2210 O.2       1 ACE        -0.3419
     63 CAG        -9.3930    6.0850    0.0670 C.2       1 ACE         0.2263
     64 CAQ        -9.9010    7.4050   -0.3680 C.3       1 ACE         0.1304
     65 CAA        -8.7610    7.8920   -1.3210 C.3       1 ACE        -0.0320
     66 NAC        -9.7210    8.4400    0.5830 N.am      1 ACE        -0.2743
     67 CAO       -11.0820    7.5430   -1.3110 C.3       1 ACE        -0.0186
     68 CAM       -11.0750    6.7540   -2.6180 C.3       1 ACE        -0.0449
     69 CAK       -12.5010    6.5470   -3.1420 C.3       1 ACE        -0.0365
     70 CAI       -12.4210    5.8550   -4.4750 C.2       1 ACE        -0.0987
     71 N          -8.3780    5.9680    0.8640 N.am      1 ACE        -0.2627
     72 CA         -7.9770    4.6540    1.3460 C.3       1 ACE         0.1332
     73 C          -9.0240    4.0500    2.2820 C.2       1 ACE         0.2042
     74 O          -9.2550    2.8480    2.2340 O.2       1 ACE        -0.3944
     75 CB         -6.6540    4.7680    2.1180 C.3       1 ACE         0.0047
     76 CG         -5.4490    5.0400    1.2480 C.3       1 ACE         0.0413
     77 CD         -4.1800    5.3530    2.0320 C.2       1 ACE         0.1737
     78 OE1        -4.1900    6.0700    3.0300 O.2       1 ACE        -0.3973
     79 NE2        -3.0610    4.8350    1.5450 N.am      1 ACE        -0.3009
     80 N          -9.6300    4.8730    3.1410 N.am      1 ACE        -0.2637
     81 CA        -10.6870    4.3240    4.0140 C.3       1 ACE         0.1312
     82 C         -11.9070    3.8360    3.2340 C.2       1 ACE         0.2039
     83 O         -12.4450    2.7530    3.5010 O.2       1 ACE        -0.3944
     84 CB        -11.1010    5.3140    5.0860 C.3       1 ACE        -0.0101
     85 CG         -9.9820    5.6340    6.0890 C.3       1 ACE        -0.0425
     86 CD1       -10.3160    6.8990    6.8660 C.3       1 ACE        -0.0625
     87 CD2        -9.6910    4.4790    7.0290 C.3       1 ACE        -0.0625
     88 N         -12.3460    4.6260    2.2610 N.am      1 ACE        -0.2637
     89 CA        -13.5440    4.2760    1.5320 C.3       1 ACE         0.1309
     90 C         -13.3460    3.0630    0.6280 C.2       1 ACE         0.2010
     91 O         -14.3430    2.3930    0.3470 O.2       1 ACE        -0.3947
     92 CB        -14.0700    5.4430    0.6970 C.3       1 ACE        -0.0101
     93 CG        -14.6240    6.6410    1.4600 C.3       1 ACE        -0.0425
     94 CD1       -14.8780    7.8360    0.5500 C.3       1 ACE        -0.0625
     95 CD2       -15.8900    6.2810    2.2090 C.3       1 ACE        -0.0625
     96 OAE       -12.5720   -0.6640   -0.8270 O.2       1 ACE        -0.3419
     97 CAG       -12.3570    0.2980   -0.0690 C.2       1 ACE         0.2265
     98 CAQ       -12.1310    1.6340   -0.7180 C.3       1 ACE         0.1304
     99 CAA       -10.5780    1.5690   -0.7670 C.3       1 ACE        -0.0320
    100 NAC       -12.1060    2.7960    0.1400 N.am      1 ACE        -0.2743
    101 CAO       -12.3670    1.6880   -2.2320 C.3       1 ACE        -0.0186
    102 CAM       -12.0300    3.0100   -2.9230 C.3       1 ACE        -0.0449
    103 CAK       -13.2030    3.5560   -3.7330 C.3       1 ACE        -0.0365
    104 CAI       -12.7090    4.5670   -4.7480 C.2       1 ACE        -0.0987
    105 N         -12.4600    0.2190    1.2040 N.am      1 ACE        -0.2611
    106 CA        -12.7420   -1.0440    1.9100 C.3       1 ACE         0.1403
    107 C         -14.2030   -1.4750    1.8680 C.2       1 ACE         0.2014
    108 O         -15.0190   -1.0160    2.6620 O.2       1 ACE        -0.3945
    109 CB        -12.2950   -0.8600    3.3570 C.3       1 ACE         0.0216
    110 CG        -10.8350   -1.0450    3.5380 C.ar      1 ACE        -0.0385
    111 CD1       -10.3100   -2.2930    3.8520 C.ar      1 ACE        -0.0601
    112 CD2        -9.9720    0.0220    3.3710 C.ar      1 ACE        -0.0601
    113 CE1        -8.9450   -2.4560    4.0030 C.ar      1 ACE        -0.0686
    114 CE2        -8.6090   -0.1260    3.5180 C.ar      1 ACE        -0.0686
    115 CZ         -8.0910   -1.3700    3.8290 C.ar      1 ACE        -0.0687
    116 N         -14.5550   -2.4470    0.8940 N.am      1 ACE        -0.2988
    117 H1          1.5571   10.1983   10.8026 H         1 ACE         0.0467
    118 H2          3.2951   10.5792   11.0496 H         1 ACE         0.0467
    119 H3          2.0601   11.2549   12.1654 H         1 ACE         0.0467
    120 H4          0.9598    8.2062   11.5264 H         1 ACE         0.1882
    121 H5          3.0025    6.5203   12.5757 H         1 ACE         0.0800
    122 H6          0.6932    7.0581   14.4571 H         1 ACE         0.0312
    123 H7          2.4335    7.4073   14.7327 H         1 ACE         0.0312
    124 H8          1.0326    4.7163   14.6334 H         1 ACE         0.0269
    125 H9          1.9054    5.4796   16.0054 H         1 ACE         0.0269
    126 H10         3.1635    4.5097   13.4146 H         1 ACE         0.0317
    127 H11         3.1584    3.6249   14.9778 H         1 ACE         0.0317
    128 H12         4.7016    5.0610   15.9530 H         1 ACE         0.0813
    129 H13         4.2760    6.4306   14.8715 H         1 ACE         0.0813
    130 H14         6.3880    5.4500   14.2902 H         1 ACE         0.1994
    131 H15         5.3082    5.2286   13.0678 H         1 ACE         0.1994
    132 H16         5.6982    3.9735   14.0588 H         1 ACE         0.1994
    133 H17        -0.6612    6.3587   12.8775 H         1 ACE         0.1883
    134 H18        -0.4717    4.6787   10.4015 H         1 ACE         0.0800
    135 H19        -2.6054    3.5285   11.2587 H         1 ACE         0.0312
    136 H20        -2.1585    4.1718   12.8751 H         1 ACE         0.0312
    137 H21         0.0519    3.0076   12.6557 H         1 ACE         0.0269
    138 H22        -0.5431    2.2653   11.1320 H         1 ACE         0.0269
    139 H23        -1.1604    0.5815   12.5206 H         1 ACE         0.0317
    140 H24        -2.5921    1.6301   12.7984 H         1 ACE         0.0317
    141 H25        -1.2723    2.6745   14.7217 H         1 ACE         0.0813
    142 H26        -0.1072    1.3219   14.5225 H         1 ACE         0.0813
    143 H27        -1.7262    0.8698   16.2218 H         1 ACE         0.1994
    144 H28        -1.9067   -0.1959   14.9804 H         1 ACE         0.1994
    145 H29        -2.9744    1.0436   15.1629 H         1 ACE         0.1994
    146 H30        -1.0982    6.1977    8.9837 H         1 ACE         0.1883
    147 H31        -3.5991    7.7372    9.5601 H         1 ACE         0.0800
    148 H32        -2.7148    9.3525    7.8428 H         1 ACE         0.0313
    149 H33        -1.1775    8.4233    7.8392 H         1 ACE         0.0313
    150 H34        -0.8620    8.9311   10.2230 H         1 ACE         0.0301
    151 H35        -2.4028    9.8544   10.2322 H         1 ACE         0.0301
    152 H36        -1.5179   11.3514    8.4830 H         1 ACE         0.0689
    153 H37         0.0219   10.4265    8.4688 H         1 ACE         0.0689
    154 H38        -0.5567   11.3459   11.1344 H         1 ACE         0.2642
    155 H39         1.4266   13.8909    8.6453 H         1 ACE         0.2615
    156 H40         0.5143   12.5285    7.9421 H         1 ACE         0.2615
    157 H41         0.5931   13.0732   11.9960 H         1 ACE         0.2615
    158 H42         1.4624   14.2017   10.9219 H         1 ACE         0.2615
    159 H43        -5.1684    7.7797    7.9870 H         1 ACE         0.1885
    160 H44        -4.5747    6.3999    5.4079 H         1 ACE         0.0821
    161 H45        -6.8694    5.4760    5.4069 H         1 ACE         0.0453
    162 H46        -7.1219    6.1122    7.0677 H         1 ACE         0.0453
    163 H47        -6.0613    5.0246    8.9872 H         1 ACE         0.0530
    164 H48        -5.6382    3.4411    5.0421 H         1 ACE         0.0530
    165 H49        -5.2028    2.9091    9.9251 H         1 ACE         0.0525
    166 H50        -4.7562    1.3310    5.9772 H         1 ACE         0.0525
    167 H51        -4.4489    0.9009    9.5134 H         1 ACE         0.2458
    168 H52        -5.2132    7.5789    3.7226 H         1 ACE         0.1884
    169 H53        -6.6435   10.0558    4.0547 H         1 ACE         0.0823
    170 H54        -5.0718    9.5767    2.1715 H         1 ACE         0.0606
    171 H55        -6.6898   10.1389    1.6302 H         1 ACE         0.0606
    172 H56        -5.9465    8.2901    0.4688 H         1 ACE         0.2097
    173 H57        -8.6389   10.5568    3.0949 H         1 ACE         0.1883
    174 H58       -10.8410    8.9526    3.7456 H         1 ACE         0.0800
    175 H59       -10.4676   11.1124    1.6363 H         1 ACE         0.0313
    176 H60       -10.8923   11.3555    3.3647 H         1 ACE         0.0313
    177 H61       -13.0249   10.3803    3.0461 H         1 ACE         0.0301
    178 H62       -12.6040    9.8782    1.3736 H         1 ACE         0.0301
    179 H63       -12.2612   12.2649    0.7472 H         1 ACE         0.0689
    180 H64       -12.6936   12.7629    2.4180 H         1 ACE         0.0689
    181 H65       -14.9224   12.1775    2.0310 H         1 ACE         0.2642
    182 H66       -16.4221   11.1460   -0.9288 H         1 ACE         0.2615
    183 H67       -16.6550   11.7003    0.7509 H         1 ACE         0.2615
    184 H68       -12.8794   11.2460   -0.7444 H         1 ACE         0.2615
    185 H69       -14.2904   10.8830   -1.7740 H         1 ACE         0.2615
    186 H70        -9.0173    8.8835   -1.7225 H         1 ACE         0.0242
    187 H71        -8.6469    7.1788   -2.1506 H         1 ACE         0.0242
    188 H72        -7.8168    7.9564   -0.7603 H         1 ACE         0.0242
    189 H73        -9.0924    9.2047    0.4414 H         1 ACE         0.1839
    190 H74       -11.1613    8.6075   -1.5764 H         1 ACE         0.0279
    191 H75       -11.9790    7.2364   -0.7530 H         1 ACE         0.0279
    192 H76       -10.6099    5.7726   -2.4434 H         1 ACE         0.0284
    193 H77       -10.4925    7.3074   -3.3693 H         1 ACE         0.0284
    194 H78       -12.9991    7.5208   -3.2583 H         1 ACE         0.0388
    195 H79       -13.0703    5.9261   -2.4347 H         1 ACE         0.0388
    196 H80       -12.0928    6.4644   -5.3158 H         1 ACE         0.0450
    197 H81        -7.8697    6.7809    1.1482 H         1 ACE         0.1889
    198 H82        -7.8407    3.9870    0.4820 H         1 ACE         0.0803
    199 H83        -6.4854    3.8226    2.6545 H         1 ACE         0.0337
    200 H84        -6.7479    5.5896    2.8434 H         1 ACE         0.0337
    201 H85        -5.6765    5.8991    0.5998 H         1 ACE         0.0504
    202 H86        -5.2623    4.1514    0.6271 H         1 ACE         0.0504
    203 H87        -2.1905    4.9998    2.0087 H         1 ACE         0.1814
    204 H88        -3.0875    4.2795    0.7139 H         1 ACE         0.1814
    205 H89        -9.3742    5.8384    3.1920 H         1 ACE         0.1883
    206 H90       -10.2577    3.4491    4.5241 H         1 ACE         0.0800
    207 H91       -11.9538    4.8928    5.6385 H         1 ACE         0.0315
    208 H92       -11.4076    6.2499    4.5961 H         1 ACE         0.0315
    209 H93        -9.0655    5.8257    5.5117 H         1 ACE         0.0298
    210 H94        -9.5071    7.1155    7.5793 H         1 ACE         0.0232
    211 H95       -11.2589    6.7547    7.4137 H         1 ACE         0.0232
    212 H96       -10.4233    7.7413    6.1667 H         1 ACE         0.0232
    213 H97        -9.4532    3.5796    6.4421 H         1 ACE         0.0232
    214 H98       -10.5739    4.2850    7.6558 H         1 ACE         0.0232
    215 H99        -8.8349    4.7351    7.6705 H         1 ACE         0.0232
    216 H100      -11.8480    5.4626    2.0328 H         1 ACE         0.1883
    217 H101      -14.3134    4.0189    2.2750 H         1 ACE         0.0800
    218 H102      -14.8753    5.0563    0.0551 H         1 ACE         0.0315
    219 H103      -13.2415    5.8028    0.0693 H         1 ACE         0.0315
    220 H104      -13.8670    6.9392    2.2003 H         1 ACE         0.0298
    221 H105      -15.2756    8.6717    1.1446 H         1 ACE         0.0232
    222 H106      -15.6072    7.5581   -0.2253 H         1 ACE         0.0232
    223 H107      -13.9347    8.1412    0.0736 H         1 ACE         0.0232
    224 H108      -15.6963    5.4178    2.8627 H         1 ACE         0.0232
    225 H109      -16.6818    6.0256    1.4894 H         1 ACE         0.0232
    226 H110      -16.2115    7.1381    2.8190 H         1 ACE         0.0232
    227 H111      -10.1868    2.4889   -1.2260 H         1 ACE         0.0242
    228 H112      -10.2660    0.6998   -1.3646 H         1 ACE         0.0242
    229 H113      -10.1826    1.4724    0.2549 H         1 ACE         0.0242
    230 H114      -11.2871    3.3314    0.3468 H         1 ACE         0.1839
    231 H115      -13.4312    1.4768   -2.4132 H         1 ACE         0.0279
    232 H116      -11.7531    0.9016   -2.6953 H         1 ACE         0.0279
    233 H117      -11.1778    2.8484   -3.5995 H         1 ACE         0.0284
    234 H118      -11.7547    3.7496   -2.1567 H         1 ACE         0.0284
    235 H119      -13.9190    4.0422   -3.0541 H         1 ACE         0.0388
    236 H120      -13.7001    2.7268   -4.2577 H         1 ACE         0.0388
    237 H121      -12.5769    4.2276   -5.7743 H         1 ACE         0.0450
    238 H122      -12.3439    1.0522    1.7447 H         1 ACE         0.1891
    239 H123      -12.1433   -1.8410    1.4449 H         1 ACE         0.0825
    240 H124      -12.8221   -1.5947    3.9833 H         1 ACE         0.0474
    241 H125      -12.5626    0.1567    3.6804 H         1 ACE         0.0474
    242 H126      -10.9727   -3.1414    3.9790 H         1 ACE         0.0557
    243 H127      -10.3755    0.9960    3.1190 H         1 ACE         0.0557
    244 H128       -8.5400   -3.4290    4.2568 H         1 ACE         0.0599
    245 H129       -7.9496    0.7249    3.3910 H         1 ACE         0.0599
    246 H130       -7.0202   -1.4997    3.9373 H         1 ACE         0.0559
    247 H131      -15.5006   -2.7648    0.8237 H         1 ACE         0.1815
    248 H132      -13.8573   -2.8136    0.2785 H         1 ACE         0.1815
@<TRIPOS>BOND
     1    1    2 2  
     2    1    3 1  
     3    4    1 am 
     4    5    4 1  
     5    6    5 1  
     6    5    8 1  
     7    6    7 2  
     8   13    6 am 
     9    8    9 1  
    10    9   10 1  
    11   10   11 1  
    12   11   12 1  
    13   14   13 1  
    14   15   14 1  
    15   14   17 1  
    16   15   16 2  
    17   22   15 am 
    18   17   18 1  
    19   18   19 1  
    20   19   20 1  
    21   20   21 1  
    22   23   22 1  
    23   24   23 1  
    24   23   26 1  
    25   24   25 2  
    26   33   24 am 
    27   26   27 1  
    28   27   28 1  
    29   28   29 1  
    30   29   30 ar 
    31   30   31 ar 
    32   30   32 ar 
    33   34   33 1  
    34   35   34 1  
    35   34   37 1  
    36   35   36 2  
    37   45   35 am 
    38   37   38 1  
    39   38   39 ar 
    40   38   40 ar 
    41   39   41 ar 
    42   40   42 ar 
    43   41   43 ar 
    44   42   43 ar 
    45   43   44 1  
    46   46   45 1  
    47   47   46 1  
    48   46   49 1  
    49   47   48 2  
    50   51   47 am 
    51   49   50 1  
    52   52   51 1  
    53   53   52 1  
    54   52   55 1  
    55   53   54 2  
    56   66   53 am 
    57   55   56 1  
    58   56   57 1  
    59   57   58 1  
    60   58   59 ar 
    61   59   60 ar 
    62   59   61 ar 
    63   63   62 2  
    64   63   64 1  
    65   71   63 am 
    66   64   65 1  
    67   64   66 1  
    68   64   67 1  
    69   67   68 1  
    70   68   69 1  
    71   69   70 1  
    72   70  104 2  
    73   72   71 1  
    74   73   72 1  
    75   72   75 1  
    76   73   74 2  
    77   80   73 am 
    78   75   76 1  
    79   76   77 1  
    80   77   78 2  
    81   77   79 am 
    82   81   80 1  
    83   82   81 1  
    84   81   84 1  
    85   82   83 2  
    86   88   82 am 
    87   84   85 1  
    88   85   86 1  
    89   85   87 1  
    90   89   88 1  
    91   90   89 1  
    92   89   92 1  
    93   90   91 2  
    94  100   90 am 
    95   92   93 1  
    96   93   94 1  
    97   93   95 1  
    98   97   96 2  
    99   98   97 1  
   100   97  105 am 
   101   98   99 1  
   102   98  100 1  
   103   98  101 1  
   104  101  102 1  
   105  102  103 1  
   106  103  104 1  
   107  105  106 1  
   108  106  107 1  
   109  106  109 1  
   110  107  108 2  
   111  107  116 am 
   112  109  110 1  
   113  110  111 ar 
   114  110  112 ar 
   115  111  113 ar 
   116  112  114 ar 
   117  113  115 ar 
   118  114  115 ar 
   119    3  117 1  
   120    3  118 1  
   121    3  119 1  
   122    4  120 1  
   123    5  121 1  
   124    8  122 1  
   125    8  123 1  
   126    9  124 1  
   127    9  125 1  
   128   10  126 1  
   129   10  127 1  
   130   11  128 1  
   131   11  129 1  
   132   12  130 1  
   133   12  131 1  
   134   12  132 1  
   135   13  133 1  
   136   14  134 1  
   137   17  135 1  
   138   17  136 1  
   139   18  137 1  
   140   18  138 1  
   141   19  139 1  
   142   19  140 1  
   143   20  141 1  
   144   20  142 1  
   145   21  143 1  
   146   21  144 1  
   147   21  145 1  
   148   22  146 1  
   149   23  147 1  
   150   26  148 1  
   151   26  149 1  
   152   27  150 1  
   153   27  151 1  
   154   28  152 1  
   155   28  153 1  
   156   29  154 1  
   157   31  155 1  
   158   31  156 1  
   159   32  157 1  
   160   32  158 1  
   161   33  159 1  
   162   34  160 1  
   163   37  161 1  
   164   37  162 1  
   165   39  163 1  
   166   40  164 1  
   167   41  165 1  
   168   42  166 1  
   169   44  167 1  
   170   45  168 1  
   171   46  169 1  
   172   49  170 1  
   173   49  171 1  
   174   50  172 1  
   175   51  173 1  
   176   52  174 1  
   177   55  175 1  
   178   55  176 1  
   179   56  177 1  
   180   56  178 1  
   181   57  179 1  
   182   57  180 1  
   183   58  181 1  
   184   60  182 1  
   185   60  183 1  
   186   61  184 1  
   187   61  185 1  
   188   65  186 1  
   189   65  187 1  
   190   65  188 1  
   191   66  189 1  
   192   67  190 1  
   193   67  191 1  
   194   68  192 1  
   195   68  193 1  
   196   69  194 1  
   197   69  195 1  
   198   70  196 1  
   199   71  197 1  
   200   72  198 1  
   201   75  199 1  
   202   75  200 1  
   203   76  201 1  
   204   76  202 1  
   205   79  203 1  
   206   79  204 1  
   207   80  205 1  
   208   81  206 1  
   209   84  207 1  
   210   84  208 1  
   211   85  209 1  
   212   86  210 1  
   213   86  211 1  
   214   86  212 1  
   215   87  213 1  
   216   87  214 1  
   217   87  215 1  
   218   88  216 1  
   219   89  217 1  
   220   92  218 1  
   221   92  219 1  
   222   93  220 1  
   223   94  221 1  
   224   94  222 1  
   225   94  223 1  
   226   95  224 1  
   227   95  225 1  
   228   95  226 1  
   229   99  227 1  
   230   99  228 1  
   231   99  229 1  
   232  100  230 1  
   233  101  231 1  
   234  101  232 1  
   235  102  233 1  
   236  102  234 1  
   237  103  235 1  
   238  103  236 1  
   239  104  237 1  
   240  105  238 1  
   241  106  239 1  
   242  109  240 1  
   243  109  241 1  
   244  111  242 1  
   245  112  243 1  
   246  113  244 1  
   247  114  245 1  
   248  115  246 1  
   249  116  247 1  
   250  116  248 1  
@<TRIPOS>SUBSTRUCTURE
     1 ACE         1

