5zjy_ligand
  -I-interpret- 

246248  0  0  0  0  0  0  0  0999 V2000
    2.4770    9.1740   12.4410 C   0  0  0  0  0
    3.3010    9.2070   13.3330 O   0  0  0  0  0
    2.3380   10.3830   11.5550 C   0  0  0  0  0
    1.7200    8.0980   12.1670 N   0  0  0  0  0
    1.9470    6.7720   12.7560 C   0  0  0  0  0
    1.0930    5.7050   12.0810 C   0  0  0  0  0
    1.6460    4.8010   11.5100 O   0  0  0  0  0
    1.7200    6.7170   14.2590 C   0  0  0  0  0
    1.8920    5.3430   14.9140 C   0  0  0  0  0
    3.1610    4.6200   14.5090 C   0  0  0  0  0
    4.4390    5.3440   14.9230 C   0  0  0  0  0
    5.5470    4.9690   14.0120 N   0  3  0  0  0
   -0.2430    5.7890   12.1700 N   0  0  0  0  0
   -1.0900    5.0480   11.2330 C   0  0  0  0  0
   -2.1230    6.0280   10.6990 C   0  0  0  0  0
   -3.0520    6.3840   11.4070 O   0  0  0  0  0
   -1.7700    3.8520   11.8970 C   0  0  0  0  0
   -0.8410    2.6640   12.1130 C   0  0  0  0  0
   -1.5010    1.5510   12.9130 C   0  0  0  0  0
   -1.1550    1.6310   14.3940 C   0  0  0  0  0
   -2.0100    0.7670   15.2600 N   0  3  0  0  0
   -1.9070    6.5050    9.4850 N   0  0  0  0  0
   -2.8050    7.4630    8.8500 C   0  0  0  0  0
   -3.4290    6.8240    7.6250 C   0  0  0  0  0
   -2.8000    6.0000    6.9490 O   0  0  0  0  0
   -2.0450    8.7220    8.4460 C   0  0  0  0  0
   -1.5490    9.5380    9.6150 C   0  0  0  0  0
   -0.8210   10.7580    9.0930 C   0  0  0  0  0
   -0.3060   11.5990   10.1680 N   0  0  0  0  0
    0.4660   12.6720    9.9900 C   0  0  0  0  0
    0.8300   13.0600    8.7660 N   0  0  0  0  0
    0.8710   13.3680   11.0490 N   0  0  0  0  0
   -4.6730    7.1990    7.3410 N   0  0  0  0  0
   -5.3280    6.7830    6.1120 C   0  0  0  0  0
   -6.0200    7.9800    5.5290 C   0  0  0  0  0
   -6.6990    8.7450    6.2490 O   0  0  0  0  0
   -6.3800    5.7050    6.3650 C   0  0  0  0  0
   -5.8530    4.4130    6.9400 C   0  0  0  0  0
   -5.7600    4.2260    8.3190 C   0  0  0  0  0
   -5.5200    3.3410    6.1150 C   0  0  0  0  0
   -5.2860    3.0290    8.8510 C   0  0  0  0  0
   -5.0380    2.1420    6.6390 C   0  0  0  0  0
   -4.9220    1.9950    8.0110 C   0  0  0  0  0
   -4.4610    0.8190    8.5670 O   0  0  0  0  0
   -5.8790    8.1350    4.2200 N   0  0  0  0  0
   -6.6810    9.1020    3.5080 C   0  0  0  0  0
   -8.1260    8.6500    3.4140 C   0  0  0  0  0
   -8.4700    7.4780    3.5760 O   0  0  0  0  0
   -6.1390    9.3170    2.1110 C   0  0  0  0  0
   -6.2900    8.1420    1.3420 O   0  0  0  0  0
   -8.9710    9.6140    3.1230 N   0  0  0  0  0
  -10.3570    9.3560    2.8440 C   0  0  0  0  0
  -10.4840    8.3020    1.7150 C   0  0  0  0  0
  -11.2370    7.3270    1.8730 O   0  0  0  0  0
  -11.0060   10.6890    2.4970 C   0  0  0  0  0
  -12.4360   10.6360    2.1530 C   0  0  0  0  0
  -12.8490   12.0020    1.6390 C   0  0  0  0  0
  -14.2410   11.9140    1.3050 N   0  0  0  0  0
  -14.7170   11.5190    0.1320 C   0  0  0  0  0
  -16.0280   11.4500   -0.0270 N   0  0  0  0  0
  -13.9000   11.1910   -0.8720 N   0  0  0  0  0
  -10.1070    5.0890   -0.2210 O   0  0  0  0  0
   -9.3930    6.0850    0.0670 C   0  0  0  0  0
   -9.9010    7.4050   -0.3680 C   0  0  0  0  0
   -8.7610    7.8920   -1.3210 C   0  0  0  0  0
   -9.7210    8.4400    0.5830 N   0  0  0  0  0
  -11.0820    7.5430   -1.3110 C   0  0  0  0  0
  -11.0750    6.7540   -2.6180 C   0  0  0  0  0
  -12.5010    6.5470   -3.1420 C   0  0  0  0  0
  -12.4210    5.8550   -4.4750 C   0  0  0  0  0
   -8.3780    5.9680    0.8640 N   0  0  0  0  0
   -7.9770    4.6540    1.3460 C   0  0  0  0  0
   -9.0240    4.0500    2.2820 C   0  0  0  0  0
   -9.2550    2.8480    2.2340 O   0  0  0  0  0
   -6.6540    4.7680    2.1180 C   0  0  0  0  0
   -5.4490    5.0400    1.2480 C   0  0  0  0  0
   -4.1800    5.3530    2.0320 C   0  0  0  0  0
   -4.1900    6.0700    3.0300 O   0  0  0  0  0
   -3.0610    4.8350    1.5450 N   0  0  0  0  0
   -9.6300    4.8730    3.1410 N   0  0  0  0  0
  -10.6870    4.3240    4.0140 C   0  0  0  0  0
  -11.9070    3.8360    3.2340 C   0  0  0  0  0
  -12.4450    2.7530    3.5010 O   0  0  0  0  0
  -11.1010    5.3140    5.0860 C   0  0  0  0  0
   -9.9820    5.6340    6.0890 C   0  0  0  0  0
  -10.3160    6.8990    6.8660 C   0  0  0  0  0
   -9.6910    4.4790    7.0290 C   0  0  0  0  0
  -12.3460    4.6260    2.2610 N   0  0  0  0  0
  -13.5440    4.2760    1.5320 C   0  0  0  0  0
  -13.3460    3.0630    0.6280 C   0  0  0  0  0
  -14.3430    2.3930    0.3470 O   0  0  0  0  0
  -14.0700    5.4430    0.6970 C   0  0  0  0  0
  -14.6240    6.6410    1.4600 C   0  0  0  0  0
  -14.8780    7.8360    0.5500 C   0  0  0  0  0
  -15.8900    6.2810    2.2090 C   0  0  0  0  0
  -12.5720   -0.6640   -0.8270 O   0  0  0  0  0
  -12.3570    0.2980   -0.0690 C   0  0  0  0  0
  -12.1310    1.6340   -0.7180 C   0  0  0  0  0
  -10.5780    1.5690   -0.7670 C   0  0  0  0  0
  -12.1060    2.7960    0.1400 N   0  0  0  0  0
  -12.3670    1.6880   -2.2320 C   0  0  0  0  0
  -12.0300    3.0100   -2.9230 C   0  0  0  0  0
  -13.2030    3.5560   -3.7330 C   0  0  0  0  0
  -12.7090    4.5670   -4.7480 C   0  0  0  0  0
  -12.4600    0.2190    1.2040 N   0  0  0  0  0
  -12.7420   -1.0440    1.9100 C   0  0  0  0  0
  -14.2030   -1.4750    1.8680 C   0  0  0  0  0
  -15.0190   -1.0160    2.6620 O   0  0  0  0  0
  -12.2950   -0.8600    3.3570 C   0  0  0  0  0
  -10.8350   -1.0450    3.5380 C   0  0  0  0  0
  -10.3100   -2.2930    3.8520 C   0  0  0  0  0
   -9.9720    0.0220    3.3710 C   0  0  0  0  0
   -8.9450   -2.4560    4.0030 C   0  0  0  0  0
   -8.6090   -0.1260    3.5180 C   0  0  0  0  0
   -8.0910   -1.3700    3.8290 C   0  0  0  0  0
  -14.5550   -2.4470    0.8940 N   0  0  0  0  0
    2.0627   11.2462   12.1610 H   0  0  0  0  0
    3.2870   10.5763   11.0548 H   0  0  0  0  0
    1.5640   10.1988   10.8099 H   0  0  0  0  0
    0.9446    8.2084   11.5136 H   0  0  0  0  0
    3.0032    6.5682   12.5797 H   0  0  0  0  0
    0.6820    7.0064   14.4227 H   0  0  0  0  0
    2.4730    7.3659   14.7063 H   0  0  0  0  0
    1.0526    4.7256   14.5942 H   0  0  0  0  0
    1.9412    5.5027   15.9911 H   0  0  0  0  0
    3.1635    4.5510   13.4212 H   0  0  0  0  0
    3.1583    3.6519   15.0098 H   0  0  0  0  0
    4.6995    5.0603   15.9427 H   0  0  0  0  0
    4.2768    6.4205   14.8687 H   0  0  0  0  0
    6.3974    5.4562   14.2944 H   0  0  0  0  0
    5.6990    3.9615   14.0602 H   0  0  0  0  0
    5.3042    5.2322   13.0569 H   0  0  0  0  0
   -0.6696    6.3701   12.8917 H   0  0  0  0  0
   -0.4815    4.6384   10.4268 H   0  0  0  0  0
   -2.5719    3.5236   11.2357 H   0  0  0  0  0
   -2.1180    4.1770   12.8775 H   0  0  0  0  0
    0.0278    3.0120   12.6718 H   0  0  0  0  0
   -0.5722    2.2635   11.1355 H   0  0  0  0  0
   -1.1411    0.5961   12.5299 H   0  0  0  0  0
   -2.5814    1.6512   12.8094 H   0  0  0  0  0
   -1.3113    2.6627   14.7090 H   0  0  0  0  0
   -0.1267    1.2875   14.5065 H   0  0  0  0  0
   -1.7220    0.8719   16.2329 H   0  0  0  0  0
   -2.9856    1.0478   15.1608 H   0  0  0  0  0
   -1.9047   -0.2070   14.9761 H   0  0  0  0  0
   -1.0820    6.1915    8.9736 H   0  0  0  0  0
   -3.5849    7.7437    9.5579 H   0  0  0  0  0
   -2.7343    9.3498    7.8814 H   0  0  0  0  0
   -1.1707    8.4047    7.8777 H   0  0  0  0  0
   -0.8706    8.9370   10.2205 H   0  0  0  0  0
   -2.3935    9.8497   10.2296 H   0  0  0  0  0
   -1.5275   11.3494    8.5105 H   0  0  0  0  0
    0.0250   10.4169    8.4963 H   0  0  0  0  0
   -0.5543   11.3483   11.1250 H   0  0  0  0  0
    1.4158   13.8864    8.6461 H   0  0  0  0  0
    0.5224   12.5302    7.9505 H   0  0  0  0  0
    0.5909   13.0795   11.9864 H   0  0  0  0  0
   -5.1783    7.7913    7.9999 H   0  0  0  0  0
   -4.5732    6.3748    5.4399 H   0  0  0  0  0
   -6.8163    5.4609    5.3964 H   0  0  0  0  0
   -7.0751    6.1130    7.0988 H   0  0  0  0  0
   -6.0629    5.0290    8.9909 H   0  0  0  0  0
   -5.6388    3.4417    5.0362 H   0  0  0  0  0
   -5.2023    2.9084    9.9311 H   0  0  0  0  0
   -4.7546    1.3265    5.9735 H   0  0  0  0  0
   -4.2482    0.1973    7.8671 H   0  0  0  0  0
   -5.1999    7.5678    3.7126 H   0  0  0  0  0
   -6.6366   10.0377    4.0653 H   0  0  0  0  0
   -5.0802    9.5680    2.1742 H   0  0  0  0  0
   -6.6910   10.1276    1.6354 H   0  0  0  0  0
   -5.9428    8.2916    0.4596 H   0  0  0  0  0
   -8.6322   10.5757    3.0943 H   0  0  0  0  0
  -10.8727    8.9323    3.7057 H   0  0  0  0  0
  -10.4904   11.0608    1.6116 H   0  0  0  0  0
  -10.9272   11.3107    3.3888 H   0  0  0  0  0
  -13.0240   10.3723    3.0321 H   0  0  0  0  0
  -12.6103    9.8789    1.3885 H   0  0  0  0  0
  -12.2579   12.2838    0.7676 H   0  0  0  0  0
  -12.6790   12.7687    2.3948 H   0  0  0  0  0
  -14.9158   12.1749    2.0240 H   0  0  0  0  0
  -16.6489   11.6978    0.7434 H   0  0  0  0  0
  -14.2866   10.8860   -1.7653 H   0  0  0  0  0
  -12.8893   11.2455   -0.7457 H   0  0  0  0  0
   -7.8261    7.9554   -0.7643 H   0  0  0  0  0
   -8.6489    7.1845   -2.1425 H   0  0  0  0  0
   -9.0161    8.8745   -1.7182 H   0  0  0  0  0
   -9.0798    9.2200    0.4385 H   0  0  0  0  0
  -11.0816    8.5903   -1.6131 H   0  0  0  0  0
  -11.9356    7.1581   -0.7531 H   0  0  0  0  0
  -10.6243    5.7785   -2.4353 H   0  0  0  0  0
  -10.5069    7.3134   -3.3613 H   0  0  0  0  0
  -13.0018    7.5090   -3.2506 H   0  0  0  0  0
  -13.0719    5.9393   -2.4399 H   0  0  0  0  0
  -12.0925    6.4650   -5.3165 H   0  0  0  0  0
   -7.8595    6.7972    1.1539 H   0  0  0  0  0
   -7.8670    4.0078    0.4752 H   0  0  0  0  0
   -6.4855    3.8098    2.6095 H   0  0  0  0  0
   -6.7530    5.6109    2.8020 H   0  0  0  0  0
   -5.6788    5.9150    0.6400 H   0  0  0  0  0
   -5.2575    4.1374    0.6677 H   0  0  0  0  0
   -2.1692    5.0274    2.0011 H   0  0  0  0  0
   -3.0919    4.2440    0.7142 H   0  0  0  0  0
   -9.3691    5.8577    3.1931 H   0  0  0  0  0
  -10.2480    3.4535    4.5015 H   0  0  0  0  0
  -11.9239    4.8676    5.6443 H   0  0  0  0  0
  -11.3695    6.2448    4.5865 H   0  0  0  0  0
   -9.0711    5.8005    5.5139 H   0  0  0  0  0
  -10.4221    7.7328    6.1720 H   0  0  0  0  0
  -11.2505    6.7547    7.4082 H   0  0  0  0  0
   -9.5138    7.1124    7.5724 H   0  0  0  0  0
  -10.5902    4.2384    7.5962 H   0  0  0  0  0
   -9.3821    3.6093    6.4491 H   0  0  0  0  0
   -8.8924    4.7625    7.7146 H   0  0  0  0  0
  -11.8380    5.4793    2.0282 H   0  0  0  0  0
  -14.2816    4.0231    2.2936 H   0  0  0  0  0
  -14.9041    5.0450    0.1192 H   0  0  0  0  0
  -13.2149    5.8168    0.1338 H   0  0  0  0  0
  -13.8590    6.9271    2.1818 H   0  0  0  0  0
  -13.9426    8.1374    0.0786 H   0  0  0  0  0
  -15.6006    7.5593   -0.2177 H   0  0  0  0  0
  -15.2719    8.6633    1.1403 H   0  0  0  0  0
  -16.6457    5.9415    1.5006 H   0  0  0  0  0
  -15.6749    5.4851    2.9220 H   0  0  0  0  0
  -16.2574    7.1582    2.7416 H   0  0  0  0  0
  -10.1875    1.4732    0.2461 H   0  0  0  0  0
  -10.2702    0.7073   -1.3594 H   0  0  0  0  0
  -10.1916    2.4810   -1.2220 H   0  0  0  0  0
  -11.2708    3.3421    0.3510 H   0  0  0  0  0
  -13.4359    1.5325   -2.3785 H   0  0  0  0  0
  -11.7061    0.9396   -2.6693 H   0  0  0  0  0
  -11.2004    2.8320   -3.6072 H   0  0  0  0  0
  -11.7818    3.7404   -2.1529 H   0  0  0  0  0
  -13.9083    4.0415   -3.0585 H   0  0  0  0  0
  -13.6906    2.7332   -4.2558 H   0  0  0  0  0
  -12.5768    4.2273   -5.7752 H   0  0  0  0  0
  -12.3416    1.0688    1.7555 H   0  0  0  0  0
  -12.1977   -1.8407    1.4030 H   0  0  0  0  0
  -12.8032   -1.6120    3.9606 H   0  0  0  0  0
  -12.5407    0.1595    3.6542 H   0  0  0  0  0
  -10.9763   -3.1461    3.9797 H   0  0  0  0  0
  -10.3778    1.0014    3.1177 H   0  0  0  0  0
   -8.5377   -3.4343    4.2582 H   0  0  0  0  0
   -7.9459    0.7296    3.3903 H   0  0  0  0  0
   -7.0143   -1.5004    3.9379 H   0  0  0  0  0
  -15.5147   -2.7877    0.8371 H   0  0  0  0  0
  -13.8480   -2.8044    0.2514 H   0  0  0  0  0
  1  2  2  0  0  0
  1  3  1  0  0  0
  4  1  1  0  0  0
  5  4  1  0  0  0
  6  5  1  0  0  0
  5  8  1  0  0  0
  6  7  2  0  0  0
 13  6  1  0  0  0
  8  9  1  0  0  0
  9 10  1  0  0  0
 10 11  1  0  0  0
 11 12  1  0  0  0
 14 13  1  0  0  0
 15 14  1  0  0  0
 14 17  1  0  0  0
 15 16  2  0  0  0
 22 15  1  0  0  0
 17 18  1  0  0  0
 18 19  1  0  0  0
 19 20  1  0  0  0
 20 21  1  0  0  0
 23 22  1  0  0  0
 24 23  1  0  0  0
 23 26  1  0  0  0
 24 25  2  0  0  0
 33 24  1  0  0  0
 26 27  1  0  0  0
 27 28  1  0  0  0
 28 29  1  0  0  0
 29 30  1  0  0  0
 30 31  1  0  0  0
 30 32  2  0  0  0
 34 33  1  0  0  0
 35 34  1  0  0  0
 34 37  1  0  0  0
 35 36  2  0  0  0
 45 35  1  0  0  0
 37 38  1  0  0  0
 38 39  4  0  0  0
 38 40  4  0  0  0
 39 41  4  0  0  0
 40 42  4  0  0  0
 41 43  4  0  0  0
 42 43  4  0  0  0
 43 44  1  0  0  0
 46 45  1  0  0  0
 47 46  1  0  0  0
 46 49  1  0  0  0
 47 48  2  0  0  0
 51 47  1  0  0  0
 49 50  1  0  0  0
 52 51  1  0  0  0
 53 52  1  0  0  0
 52 55  1  0  0  0
 53 54  2  0  0  0
 66 53  1  0  0  0
 55 56  1  0  0  0
 56 57  1  0  0  0
 57 58  1  0  0  0
 58 59  1  0  0  0
 59 60  2  0  0  0
 59 61  1  0  0  0
 63 62  2  0  0  0
 63 64  1  0  0  0
 71 63  1  0  0  0
 64 65  1  0  0  0
 64 66  1  0  0  0
 64 67  1  0  0  0
 67 68  1  0  0  0
 68 69  1  0  0  0
 69 70  1  0  0  0
 70104  2  0  0  0
 72 71  1  0  0  0
 73 72  1  0  0  0
 72 75  1  0  0  0
 73 74  2  0  0  0
 80 73  1  0  0  0
 75 76  1  0  0  0
 76 77  1  0  0  0
 77 78  2  0  0  0
 77 79  1  0  0  0
 81 80  1  0  0  0
 82 81  1  0  0  0
 81 84  1  0  0  0
 82 83  2  0  0  0
 88 82  1  0  0  0
 84 85  1  0  0  0
 85 86  1  0  0  0
 85 87  1  0  0  0
 89 88  1  0  0  0
 90 89  1  0  0  0
 89 92  1  0  0  0
 90 91  2  0  0  0
100 90  1  0  0  0
 92 93  1  0  0  0
 93 94  1  0  0  0
 93 95  1  0  0  0
 97 96  2  0  0  0
 98 97  1  0  0  0
 97105  1  0  0  0
 98 99  1  0  0  0
 98100  1  0  0  0
 98101  1  0  0  0
101102  1  0  0  0
102103  1  0  0  0
103104  1  0  0  0
105106  1  0  0  0
106107  1  0  0  0
106109  1  0  0  0
107108  2  0  0  0
107116  1  0  0  0
109110  1  0  0  0
110111  4  0  0  0
110112  4  0  0  0
111113  4  0  0  0
112114  4  0  0  0
113115  4  0  0  0
114115  4  0  0  0
  3117  1  0  0  0
  3118  1  0  0  0
  3119  1  0  0  0
  4120  1  0  0  0
  5121  1  0  0  0
  8122  1  0  0  0
  8123  1  0  0  0
  9124  1  0  0  0
  9125  1  0  0  0
 10126  1  0  0  0
 10127  1  0  0  0
 11128  1  0  0  0
 11129  1  0  0  0
 12130  1  0  0  0
 12131  1  0  0  0
 12132  1  0  0  0
 13133  1  0  0  0
 14134  1  0  0  0
 17135  1  0  0  0
 17136  1  0  0  0
 18137  1  0  0  0
 18138  1  0  0  0
 19139  1  0  0  0
 19140  1  0  0  0
 20141  1  0  0  0
 20142  1  0  0  0
 21143  1  0  0  0
 21144  1  0  0  0
 21145  1  0  0  0
 22146  1  0  0  0
 23147  1  0  0  0
 26148  1  0  0  0
 26149  1  0  0  0
 27150  1  0  0  0
 27151  1  0  0  0
 28152  1  0  0  0
 28153  1  0  0  0
 29154  1  0  0  0
 31155  1  0  0  0
 31156  1  0  0  0
 32157  1  0  0  0
 33158  1  0  0  0
 34159  1  0  0  0
 37160  1  0  0  0
 37161  1  0  0  0
 39162  1  0  0  0
 40163  1  0  0  0
 41164  1  0  0  0
 42165  1  0  0  0
 44166  1  0  0  0
 45167  1  0  0  0
 46168  1  0  0  0
 49169  1  0  0  0
 49170  1  0  0  0
 50171  1  0  0  0
 51172  1  0  0  0
 52173  1  0  0  0
 55174  1  0  0  0
 55175  1  0  0  0
 56176  1  0  0  0
 56177  1  0  0  0
 57178  1  0  0  0
 57179  1  0  0  0
 58180  1  0  0  0
 60181  1  0  0  0
 61182  1  0  0  0
 61183  1  0  0  0
 65184  1  0  0  0
 65185  1  0  0  0
 65186  1  0  0  0
 66187  1  0  0  0
 67188  1  0  0  0
 67189  1  0  0  0
 68190  1  0  0  0
 68191  1  0  0  0
 69192  1  0  0  0
 69193  1  0  0  0
 70194  1  0  0  0
 71195  1  0  0  0
 72196  1  0  0  0
 75197  1  0  0  0
 75198  1  0  0  0
 76199  1  0  0  0
 76200  1  0  0  0
 79201  1  0  0  0
 79202  1  0  0  0
 80203  1  0  0  0
 81204  1  0  0  0
 84205  1  0  0  0
 84206  1  0  0  0
 85207  1  0  0  0
 86208  1  0  0  0
 86209  1  0  0  0
 86210  1  0  0  0
 87211  1  0  0  0
 87212  1  0  0  0
 87213  1  0  0  0
 88214  1  0  0  0
 89215  1  0  0  0
 92216  1  0  0  0
 92217  1  0  0  0
 93218  1  0  0  0
 94219  1  0  0  0
 94220  1  0  0  0
 94221  1  0  0  0
 95222  1  0  0  0
 95223  1  0  0  0
 95224  1  0  0  0
 99225  1  0  0  0
 99226  1  0  0  0
 99227  1  0  0  0
100228  1  0  0  0
101229  1  0  0  0
101230  1  0  0  0
102231  1  0  0  0
102232  1  0  0  0
103233  1  0  0  0
103234  1  0  0  0
104235  1  0  0  0
105236  1  0  0  0
106237  1  0  0  0
109238  1  0  0  0
109239  1  0  0  0
111240  1  0  0  0
112241  1  0  0  0
113242  1  0  0  0
114243  1  0  0  0
115244  1  0  0  0
116245  1  0  0  0
116246  1  0  0  0
M  END
$$$$
