5i43_ligand
  -I-interpret- 

103106  0  0  0  0  0  0  0  0999 V2000
    3.1810    5.2930   38.4870 O   0  0  0  0  0
    2.3550    5.9610   37.8850 C   0  0  0  0  0
    2.3470    5.9640   36.3780 C   0  0  0  0  0
    1.4330    6.7000   38.5230 N   0  0  0  0  0
    1.4200    6.9310   39.9690 C   0  0  0  0  0
    0.7730    5.8520   40.8560 C   0  0  0  0  0
    1.1180    4.5300   40.3920 O   0  0  0  0  0
    0.1990    3.9790   39.3890 C   0  0  0  0  0
    0.3100    4.2690   38.2150 O   0  0  0  0  0
   -0.8830    3.0540   39.7940 C   0  0  0  0  0
    1.1890    6.2320   42.3070 C   0  0  0  0  0
    0.9600    5.2000   43.2980 O   0  0  0  0  0
    2.0860    4.3430   43.7660 C   0  0  0  0  0
    3.5390    4.7650   43.9050 C   0  0  0  0  0
    1.7920    3.2020   44.0870 O   0  0  0  0  0
    0.5130    7.5860   42.6900 C   0  0  0  0  0
    0.8770    8.0790   44.1130 C   0  0  0  0  0
    2.2720    8.4560   44.1780 O   0  0  0  0  0
    3.2130    8.3030   45.3080 C   0  0  0  0  0
    2.7740    8.5660   46.7330 C   0  0  0  0  0
    4.3750    8.0060   45.0200 O   0  0  0  0  0
    0.8470    8.6040   41.6960 O   0  0  0  0  0
    0.6720    8.2200   40.3030 C   0  0  0  0  0
    1.0860    9.1970   39.3460 O   0  0  0  0  0
   -0.0060   10.0020   38.8980 C   0  0  0  0  0
    0.3410   10.6590   37.5730 C   0  0  0  0  0
    0.1720    9.7110   36.3860 C   0  0  0  0  0
    1.3880    9.7990   35.5640 N   0  0  0  0  0
    1.2010   10.2960   34.2750 N   0  0  0  0  0
    2.4810   10.2730   33.6930 N   0  0  0  0  0
    2.6850    9.5130   35.7600 C   0  0  0  0  0
    3.3790    9.8250   34.5870 C   0  0  0  0  0
    4.8660    9.7150   34.3210 C   0  0  0  0  0
    5.6210   10.9500   34.7550 N   0  0  0  0  0
    5.9960   12.0490   33.8260 C   0  0  0  0  0
    4.8610   12.8130   33.1130 C   0  0  0  0  0
    5.5130   13.8820   32.2160 C   0  0  0  0  0
    3.8190   13.4720   34.0310 C   0  0  0  0  0
    7.0090   11.5240   32.8190 C   0  0  0  0  0
    6.8440   10.4910   32.1140 O   0  0  0  0  0
    8.0580   12.1150   32.6860 O   0  0  0  0  0
    6.2150   11.0300   36.1830 S   0  0  0  0  0
    6.2290   12.3590   36.7640 O   0  0  0  0  0
    5.5080   10.0520   36.9640 O   0  0  0  0  0
    7.7350   10.4280   36.0340 C   0  0  0  0  0
    7.9070    9.0370   35.9330 C   0  0  0  0  0
    9.1730    8.4510   35.7970 C   0  0  0  0  0
    8.9060   11.2430   36.0230 C   0  0  0  0  0
   10.1970   10.6680   35.8890 C   0  0  0  0  0
   10.3380    9.2480   35.7790 C   0  0  0  0  0
   11.6750    8.5820   35.7070 C   0  0  0  0  0
   11.9120    7.4200   35.0060 C   0  0  0  0  0
   13.1900    6.8410   34.9820 C   0  0  0  0  0
   14.2390    7.3850   35.7290 C   0  0  0  0  0
   14.0010    8.5030   36.4610 C   0  0  0  0  0
   12.7410    9.0960   36.4470 C   0  0  0  0  0
    3.3050    6.3328   36.0116 H   0  0  0  0  0
    2.1839    4.9493   36.0148 H   0  0  0  0  0
    1.5463    6.6120   36.0215 H   0  0  0  0  0
    0.6944    7.1279   37.9646 H   0  0  0  0  0
    2.4858    6.9484   40.1967 H   0  0  0  0  0
   -0.3157    5.8181   40.8156 H   0  0  0  0  0
   -1.8472    3.4838   39.5227 H   0  0  0  0  0
   -0.7530    2.0994   39.2842 H   0  0  0  0  0
   -0.8429    2.8999   40.8723 H   0  0  0  0  0
    2.2732    6.3444   42.3107 H   0  0  0  0  0
    3.8446    4.6730   44.9472 H   0  0  0  0  0
    4.1635    4.1229   43.2839 H   0  0  0  0  0
    3.6476    5.8008   43.5833 H   0  0  0  0  0
   -0.5625    7.4092   42.6984 H   0  0  0  0  0
    0.6947    7.2732   44.8240 H   0  0  0  0  0
    0.2641    8.9476   44.3541 H   0  0  0  0  0
    2.9518    7.6760   47.3367 H   0  0  0  0  0
    3.3438    9.4018   47.1390 H   0  0  0  0  0
    1.7115    8.8088   46.7455 H   0  0  0  0  0
   -0.4078    8.0957   40.2207 H   0  0  0  0  0
   -0.2088   10.7752   39.6390 H   0  0  0  0  0
   -0.8853    9.3716   38.7659 H   0  0  0  0  0
    1.3867   10.9639   37.6130 H   0  0  0  0  0
   -0.3352   11.5016   37.4287 H   0  0  0  0  0
   -0.7026    9.9915   35.7991 H   0  0  0  0  0
    0.0247    8.6892   36.7357 H   0  0  0  0  0
    3.1207    9.1084   36.6736 H   0  0  0  0  0
    5.0086    9.5921   33.2474 H   0  0  0  0  0
    5.2489    8.8679   34.8901 H   0  0  0  0  0
    6.4158   12.8163   34.4765 H   0  0  0  0  0
    4.2932   12.0723   32.5500 H   0  0  0  0  0
    6.1014   14.5618   32.8322 H   0  0  0  0  0
    6.1619   13.3963   31.4872 H   0  0  0  0  0
    4.7355   14.4417   31.6961 H   0  0  0  0  0
    3.3369   12.7068   34.6393 H   0  0  0  0  0
    4.3136   14.1952   34.6794 H   0  0  0  0  0
    3.0703   13.9797   33.4229 H   0  0  0  0  0
    5.9834   10.1099   32.3032 H   0  0  0  0  0
    7.0279    8.3932   35.9613 H   0  0  0  0  0
    9.2589    7.3684   35.7041 H   0  0  0  0  0
    8.8078   12.3243   36.1190 H   0  0  0  0  0
   11.0797   11.3071   35.8699 H   0  0  0  0  0
   11.0958    6.9439   34.4627 H   0  0  0  0  0
   13.3673    5.9549   34.3725 H   0  0  0  0  0
   15.2257    6.9218   35.7237 H   0  0  0  0  0
   14.7992    8.9384   37.0622 H   0  0  0  0  0
   12.5808    9.9979   37.0378 H   0  0  0  0  0
  1  2  2  0  0  0
  2  3  1  0  0  0
  2  4  1  0  0  0
  4  5  1  0  0  0
  5  6  1  0  0  0
  5 23  1  0  0  0
  6  7  1  0  0  0
  6 11  1  0  0  0
  7  8  1  0  0  0
  8  9  2  0  0  0
  8 10  1  0  0  0
 11 12  1  0  0  0
 11 16  1  0  0  0
 12 13  1  0  0  0
 13 14  1  0  0  0
 13 15  2  0  0  0
 16 17  1  0  0  0
 16 22  1  0  0  0
 17 18  1  0  0  0
 18 19  1  0  0  0
 19 20  1  0  0  0
 19 21  2  0  0  0
 22 23  1  0  0  0
 23 24  1  0  0  0
 24 25  1  0  0  0
 25 26  1  0  0  0
 26 27  1  0  0  0
 27 28  1  0  0  0
 28 29  4  0  0  0
 28 31  4  0  0  0
 29 30  4  0  0  0
 30 32  4  0  0  0
 31 32  4  0  0  0
 32 33  1  0  0  0
 33 34  1  0  0  0
 34 35  1  0  0  0
 34 42  1  0  0  0
 35 36  1  0  0  0
 35 39  1  0  0  0
 36 37  1  0  0  0
 36 38  1  0  0  0
 39 40  1  0  0  0
 39 41  2  0  0  0
 42 43  2  0  0  0
 42 44  2  0  0  0
 42 45  1  0  0  0
 45 46  4  0  0  0
 45 48  4  0  0  0
 46 47  4  0  0  0
 47 50  4  0  0  0
 48 49  4  0  0  0
 49 50  4  0  0  0
 50 51  1  0  0  0
 51 52  4  0  0  0
 51 56  4  0  0  0
 52 53  4  0  0  0
 53 54  4  0  0  0
 54 55  4  0  0  0
 55 56  4  0  0  0
  3 57  1  0  0  0
  3 58  1  0  0  0
  3 59  1  0  0  0
  4 60  1  0  0  0
  5 61  1  0  0  0
  6 62  1  0  0  0
 10 63  1  0  0  0
 10 64  1  0  0  0
 10 65  1  0  0  0
 11 66  1  0  0  0
 14 67  1  0  0  0
 14 68  1  0  0  0
 14 69  1  0  0  0
 16 70  1  0  0  0
 17 71  1  0  0  0
 17 72  1  0  0  0
 20 73  1  0  0  0
 20 74  1  0  0  0
 20 75  1  0  0  0
 23 76  1  0  0  0
 25 77  1  0  0  0
 25 78  1  0  0  0
 26 79  1  0  0  0
 26 80  1  0  0  0
 27 81  1  0  0  0
 27 82  1  0  0  0
 31 83  1  0  0  0
 33 84  1  0  0  0
 33 85  1  0  0  0
 35 86  1  0  0  0
 36 87  1  0  0  0
 37 88  1  0  0  0
 37 89  1  0  0  0
 37 90  1  0  0  0
 38 91  1  0  0  0
 38 92  1  0  0  0
 38 93  1  0  0  0
 40 94  1  0  0  0
 46 95  1  0  0  0
 47 96  1  0  0  0
 48 97  1  0  0  0
 49 98  1  0  0  0
 52 99  1  0  0  0
 53100  1  0  0  0
 54101  1  0  0  0
 55102  1  0  0  0
 56103  1  0  0  0
M  END
$$$$
