4deu_ligand
  -I-interpret- 

 32 34  0  0  0  0  0  0  0  0999 V2000
   20.8430   41.9850   37.6050 C   0  0  0  0  0
   20.9420   42.0050   36.2720 C   0  0  0  0  0
   21.9860   42.6280   35.6500 C   0  0  0  0  0
   22.9510   43.2380   36.4080 C   0  0  0  0  0
   22.8850   43.2270   37.7440 C   0  0  0  0  0
   21.8250   42.5930   38.3440 C   0  0  0  0  0
   23.8440   43.7720   38.6060 C   0  0  0  0  0
   23.7880   43.3480   40.0740 C   0  0  0  0  0
   22.7970   42.1410   40.1750 C   0  0  0  0  0
   21.7150   42.6000   39.6610 O   0  0  0  0  0
   24.7880   44.4600   38.2560 O   0  0  0  0  0
   22.2000   41.6800   41.5160 C   0  0  0  0  0
   21.7220   42.6140   42.3560 C   0  0  0  0  0
   21.1600   42.1210   43.5310 C   0  0  0  0  0
   21.0040   40.7720   43.8510 C   0  0  0  0  0
   21.4520   39.7780   43.0220 C   0  0  0  0  0
   22.0310   40.1730   41.7990 C   0  0  0  0  0
   20.4310   40.4820   45.0250 O   0  0  0  0  0
   19.9810   41.3970   35.5760 O   0  0  0  0  0
   23.9760   43.8550   35.8400 O   0  0  0  0  0
   20.0002   41.4961   38.0937 H   0  0  0  0  0
   22.0510   42.6399   34.5620 H   0  0  0  0  0
   23.4480   44.1747   40.6977 H   0  0  0  0  0
   24.7783   43.0597   40.4264 H   0  0  0  0  0
   23.3896   41.3194   39.7725 H   0  0  0  0  0
   21.7707   43.6800   42.1337 H   0  0  0  0  0
   20.8127   42.8507   44.2624 H   0  0  0  0  0
   21.3646   38.7267   43.2962 H   0  0  0  0  0
   22.3523   39.4298   41.0692 H   0  0  0  0  0
   20.3806   39.5289   45.1285 H   0  0  0  0  0
   20.1651   41.4810   34.6376 H   0  0  0  0  0
   24.5455   44.2203   36.5210 H   0  0  0  0  0
  1  2  4  0  0  0
  1  6  4  0  0  0
  2  3  4  0  0  0
  2 19  1  0  0  0
  3  4  4  0  0  0
  4  5  4  0  0  0
  4 20  1  0  0  0
  5  6  4  0  0  0
  5  7  1  0  0  0
  6 10  1  0  0  0
  7  8  1  0  0  0
  7 11  2  0  0  0
  8  9  1  0  0  0
  9 10  1  0  0  0
  9 12  1  0  0  0
 12 13  4  0  0  0
 12 17  4  0  0  0
 13 14  4  0  0  0
 14 15  4  0  0  0
 15 16  4  0  0  0
 15 18  1  0  0  0
 16 17  4  0  0  0
  1 21  1  0  0  0
  3 22  1  0  0  0
  8 23  1  0  0  0
  8 24  1  0  0  0
  9 25  1  0  0  0
 13 26  1  0  0  0
 14 27  1  0  0  0
 16 28  1  0  0  0
 17 29  1  0  0  0
 18 30  1  0  0  0
 19 31  1  0  0  0
 20 32  1  0  0  0
M  END
$$$$
