5cgj_ligand
  -I-interpret- 

 60 63  0  0  0  0  0  0  0  0999 V2000
   39.1270  -20.5620   -4.7610 C   0  0  0  0  0
   39.3700  -19.5780   -5.7380 C   0  0  0  0  0
   39.3120  -18.2460   -5.4240 C   0  0  0  0  0
   38.4520  -18.4120   -1.7970 C   0  0  0  0  0
   38.3910  -17.0890   -1.4720 C   0  0  0  0  0
   38.6340  -16.1060   -2.4520 C   0  0  0  0  0
   38.9330  -16.4720   -3.7320 C   0  0  0  0  0
   39.0360  -17.5290   -7.7460 C   0  0  0  0  0
   40.2930  -17.7330   -8.6020 C   0  0  0  0  0
   41.3170  -16.7850   -7.9750 C   0  0  0  0  0
   40.9730  -16.7640   -6.4920 C   0  0  0  0  0
   40.0610  -17.3870  -10.0370 C   0  0  0  0  0
   39.3850  -16.4930  -10.5020 O   0  0  0  0  0
   40.3270  -23.0500   -3.1500 C   0  0  0  0  0
   41.5210  -22.6420   -3.8020 C   0  0  0  0  0
   40.2080  -24.9050   -4.7380 C   0  0  0  0  0
   43.2810  -22.9520   -5.5930 C   0  0  0  0  0
   39.5490  -26.1230   -5.2810 C   0  0  0  0  0
   38.4370  -24.7210   -3.0550 C   0  0  0  0  0
   38.8270  -20.1940   -3.4740 C   0  0  0  0  0
   39.0020  -17.8370   -4.0920 C   0  0  0  0  0
   38.7590  -18.8150   -3.1150 C   0  0  0  0  0
   39.5530  -17.2190   -6.3840 N   0  0  0  0  0
   40.7200  -18.2150  -10.8680 O   0  0  0  0  0
   38.5850  -21.1950   -2.5020 N   0  0  0  0  0
   39.7000  -22.2220   -1.8590 S   0  0  0  0  0
   40.6460  -21.3750   -1.2440 O   0  0  0  0  0
   39.0370  -23.0970   -0.9770 O   0  0  0  0  0
   42.0320  -23.3550   -4.8890 C   0  0  0  0  0
   41.3720  -24.4810   -5.3490 C   0  0  0  0  0
   39.6940  -24.1990   -3.6550 C   0  0  0  0  0
   42.3010  -21.4400   -3.3780 C   0  0  0  0  0
   39.1773  -21.6177   -5.0275 H   0  0  0  0  0
   39.6075  -19.8801   -6.7580 H   0  0  0  0  0
   38.2620  -19.1652   -1.0324 H   0  0  0  0  0
   38.1535  -16.7909   -0.4508 H   0  0  0  0  0
   38.5829  -15.0500   -2.1867 H   0  0  0  0  0
   39.1203  -15.7050   -4.4835 H   0  0  0  0  0
   38.3955  -18.4109   -7.7471 H   0  0  0  0  0
   38.4052  -16.7290   -8.1336 H   0  0  0  0  0
   40.6158  -18.7741   -8.6098 H   0  0  0  0  0
   41.2705  -15.7892   -8.4159 H   0  0  0  0  0
   42.3394  -17.1204   -8.1491 H   0  0  0  0  0
   41.0972  -15.7646   -6.0749 H   0  0  0  0  0
   41.6378  -17.4166   -5.9261 H   0  0  0  0  0
   43.1591  -21.9485   -6.0007 H   0  0  0  0  0
   44.1127  -22.9608   -4.8885 H   0  0  0  0  0
   43.4821  -23.6528   -6.4033 H   0  0  0  0  0
   39.2819  -25.9555   -6.3244 H   0  0  0  0  0
   40.2348  -26.9673   -5.2112 H   0  0  0  0  0
   38.6491  -26.3356   -4.7039 H   0  0  0  0  0
   38.6123  -24.9725   -2.0090 H   0  0  0  0  0
   37.6604  -23.9591   -3.1216 H   0  0  0  0  0
   38.1205  -25.6126   -3.5963 H   0  0  0  0  0
   41.2057  -18.8635  -10.3530 H   0  0  0  0  0
   37.6260  -21.2891   -2.1674 H   0  0  0  0  0
   41.7725  -25.0359   -6.1974 H   0  0  0  0  0
   41.6719  -20.5534   -3.4581 H   0  0  0  0  0
   42.6254  -21.5648   -2.3449 H   0  0  0  0  0
   43.1726  -21.3280   -4.0229 H   0  0  0  0  0
  1  2  4  0  0  0
 20  1  4  0  0  0
  2  3  4  0  0  0
 21  3  4  0  0  0
  3 23  1  0  0  0
  4  5  4  0  0  0
 22  4  4  0  0  0
  5  6  4  0  0  0
  7  6  4  0  0  0
 21  7  4  0  0  0
  8  9  1  0  0  0
 23  8  1  0  0  0
 10  9  1  0  0  0
  9 12  1  0  0  0
 11 10  1  0  0  0
 23 11  1  0  0  0
 12 13  2  0  0  0
 12 24  1  0  0  0
 14 15  4  0  0  0
 26 14  1  0  0  0
 14 31  4  0  0  0
 15 29  4  0  0  0
 15 32  1  0  0  0
 16 18  1  0  0  0
 16 30  4  0  0  0
 31 16  4  0  0  0
 29 17  1  0  0  0
 31 19  1  0  0  0
 20 22  4  0  0  0
 25 20  1  0  0  0
 22 21  4  0  0  0
 25 26  1  0  0  0
 26 27  2  0  0  0
 26 28  2  0  0  0
 29 30  4  0  0  0
  1 33  1  0  0  0
  2 34  1  0  0  0
  4 35  1  0  0  0
  5 36  1  0  0  0
  6 37  1  0  0  0
  7 38  1  0  0  0
  8 39  1  0  0  0
  8 40  1  0  0  0
  9 41  1  0  0  0
 10 42  1  0  0  0
 10 43  1  0  0  0
 11 44  1  0  0  0
 11 45  1  0  0  0
 17 46  1  0  0  0
 17 47  1  0  0  0
 17 48  1  0  0  0
 18 49  1  0  0  0
 18 50  1  0  0  0
 18 51  1  0  0  0
 19 52  1  0  0  0
 19 53  1  0  0  0
 19 54  1  0  0  0
 24 55  1  0  0  0
 25 56  1  0  0  0
 30 57  1  0  0  0
 32 58  1  0  0  0
 32 59  1  0  0  0
 32 60  1  0  0  0
M  END
$$$$
