5otz_ligand
  -I-interpret- 

 34 35  0  0  0  0  0  0  0  0999 V2000
 -117.3480 -174.7430  308.5690 C   0  0  0  0  0
 -114.9460 -174.0150  308.7120 C   0  0  0  0  0
 -114.1100 -176.5590  309.3230 C   0  0  0  0  0
 -113.1530 -175.5480  309.2960 C   0  0  0  0  0
 -109.5070 -176.5980  309.0550 C   0  0  0  0  0
 -111.7180 -175.8190  309.6250 C   0  0  0  0  0
 -115.8850 -175.0380  308.7710 C   0  0  0  0  0
 -113.6150 -174.2720  308.9730 C   0  0  0  0  0
 -112.4940 -172.9510  308.8990 Cl  0  0  0  0  0
 -115.4460 -176.3200  309.0690 C   0  0  0  0  0
 -111.2980 -175.6770  310.9480 C   0  0  0  0  0
 -109.1140 -176.4620  310.3730 C   0  0  0  0  0
 -110.0040 -176.0030  311.3150 C   0  0  0  0  0
 -110.8060 -176.2820  308.6650 C   0  0  0  0  0
 -111.2420 -176.4560  307.2280 C   0  0  0  0  0
 -117.9610 -175.7380  307.6980 N   0  3  0  0  0
 -113.6110 -178.1800  309.6750 Cl  0  0  0  0  0
 -110.8530 -175.3290  306.3140 C   0  0  0  0  0
 -117.4480 -173.7612  308.1061 H   0  0  0  0  0
 -117.8484 -174.7672  309.5370 H   0  0  0  0  0
 -115.2625 -173.0034  308.4580 H   0  0  0  0  0
 -108.7931 -176.9562  308.3133 H   0  0  0  0  0
 -116.1598 -177.1431  309.1028 H   0  0  0  0  0
 -111.9953 -175.3060  311.6992 H   0  0  0  0  0
 -108.0962 -176.7192  310.6663 H   0  0  0  0  0
 -109.6898 -175.8956  312.3532 H   0  0  0  0  0
 -112.3310 -176.5019  307.2299 H   0  0  0  0  0
 -110.7496 -177.3533  306.8532 H   0  0  0  0  0
 -118.9495 -175.5183  307.5758 H   0  0  0  0  0
 -117.4945 -175.7277  306.7910 H   0  0  0  0  0
 -117.8664 -176.6619  308.1198 H   0  0  0  0  0
 -111.3023 -174.4021  306.6706 H   0  0  0  0  0
 -109.7677 -175.2283  306.3050 H   0  0  0  0  0
 -111.2078 -175.5418  305.3056 H   0  0  0  0  0
  7  1  1  0  0  0
  1 16  1  0  0  0
  2  7  4  0  0  0
  8  2  4  0  0  0
  4  3  4  0  0  0
  3 10  4  0  0  0
  3 17  1  0  0  0
  6  4  1  0  0  0
  4  8  4  0  0  0
  5 12  4  0  0  0
 14  5  4  0  0  0
  6 11  4  0  0  0
  6 14  4  0  0  0
  7 10  4  0  0  0
  8  9  1  0  0  0
 11 13  4  0  0  0
 12 13  4  0  0  0
 14 15  1  0  0  0
 15 18  1  0  0  0
  1 19  1  0  0  0
  1 20  1  0  0  0
  2 21  1  0  0  0
  5 22  1  0  0  0
 10 23  1  0  0  0
 11 24  1  0  0  0
 12 25  1  0  0  0
 13 26  1  0  0  0
 15 27  1  0  0  0
 15 28  1  0  0  0
 16 29  1  0  0  0
 16 30  1  0  0  0
 16 31  1  0  0  0
 18 32  1  0  0  0
 18 33  1  0  0  0
 18 34  1  0  0  0
M  END
$$$$
