2ksp_ligand
  -I-interpret- 

248251  0  0  0  0  0  0  0  0999 V2000
    8.6790   19.4830    4.9350 N   0  3  0  0  0
    7.5390   18.5600    5.1330 C   0  0  0  0  0
    7.1430   17.8790    3.8240 C   0  0  0  0  0
    6.3180   16.9620    3.8190 O   0  0  0  0  0
    6.3240   19.3010    5.7160 C   0  0  0  0  0
    5.6130   20.2880    4.7780 C   0  0  0  0  0
    4.2670   20.6700    5.3640 C   0  0  0  0  0
    6.4500   21.5410    4.5470 C   0  0  0  0  0
    7.7180   18.3170    2.7090 N   0  0  0  0  0
    7.3480   17.7610    1.4160 C   0  0  0  0  0
    8.1300   16.4950    1.1120 C   0  0  0  0  0
    7.6190   15.5910    0.4540 O   0  0  0  0  0
    7.5170   18.7950    0.3080 C   0  0  0  0  0
    6.4530   19.8740    0.3670 C   0  0  0  0  0
    5.0640   19.2820    0.4870 C   0  0  0  0  0
    4.5690   18.7080   -0.5010 O   0  0  0  0  0
    4.4450   19.4230    1.5610 O   0  0  0  0  0
    9.3560   16.4260    1.5990 N   0  0  0  0  0
   10.1210   15.1980    1.5120 C   0  0  0  0  0
    9.5340   14.1980    2.5030 C   0  0  0  0  0
    9.7050   14.3470    3.7140 O   0  0  0  0  0
   11.5940   15.4680    1.8250 C   0  0  0  0  0
   12.0890   16.5500    1.0490 O   0  0  0  0  0
    8.8090   13.2080    1.9950 N   0  0  0  0  0
    8.0860   12.2860    2.8550 C   0  0  0  0  0
    8.9840   11.1290    3.2980 C   0  0  0  0  0
    9.2930   10.2270    2.5180 O   0  0  0  0  0
    6.8350   11.7630    2.1380 C   0  0  0  0  0
    5.8280   12.8540    1.7690 C   0  0  0  0  0
    5.2820   13.5640    3.0040 C   0  0  0  0  0
    4.1590   14.5420    2.6610 C   0  0  0  0  0
    4.6390   15.7020    1.8620 N   0  3  0  0  0
    9.3950   11.1310    4.5760 N   0  0  0  0  0
   10.3660   10.1800    5.1090 C   0  0  0  0  0
    9.7300    8.8690    5.5600 C   0  0  0  0  0
   10.3490    8.0760    6.2710 O   0  0  0  0  0
   10.9670   10.9210    6.3130 C   0  0  0  0  0
   10.1430   12.1620    6.5120 C   0  0  0  0  0
    8.9460   12.0560    5.6130 C   0  0  0  0  0
    8.5010    8.6390    5.1280 N   0  0  0  0  0
    7.7650    7.4450    5.5140 C   0  0  0  0  0
    7.8530    6.4070    4.4100 C   0  0  0  0  0
    7.2680    5.3280    4.5000 O   0  0  0  0  0
    6.3000    7.7840    5.7920 C   0  0  0  0  0
    6.1180    8.8670    6.8260 C   0  0  0  0  0
    6.0400    8.5600    8.1770 C   0  0  0  0  0
    6.0270   10.1980    6.4480 C   0  0  0  0  0
    5.8720    9.5500    9.1230 C   0  0  0  0  0
    5.8620   11.1950    7.3890 C   0  0  0  0  0
    5.7850   10.8650    8.7250 C   0  0  0  0  0
    5.6160   11.8500    9.6680 O   0  0  0  0  0
    8.5930    6.7520    3.3710 N   0  0  0  0  0
    8.7120    5.9090    2.1990 C   0  0  0  0  0
   10.1520    5.4190    2.0590 C   0  0  0  0  0
   11.0730    6.2200    1.9000 O   0  0  0  0  0
    8.2830    6.7000    0.9590 C   0  0  0  0  0
    8.1280    5.8440   -0.2870 C   0  0  0  0  0
    8.7130    4.7730   -0.4060 O   0  0  0  0  0
    7.3570    6.3330   -1.2440 N   0  0  0  0  0
   10.3630    4.0920    2.1290 N   0  0  0  0  0
   11.6960    3.4870    2.0040 C   0  0  0  0  0
   12.2340    3.5420    0.5750 C   0  0  0  0  0
   13.3380    3.0860    0.2970 O   0  0  0  0  0
   11.4690    2.0370    2.4320 C   0  0  0  0  0
   10.0390    1.7720    2.1210 C   0  0  0  0  0
    9.3210    3.0740    2.3540 C   0  0  0  0  0
   11.4290    4.0570   -0.3350 N   0  0  0  0  0
   11.8590    4.2570   -1.7050 C   0  0  0  0  0
   12.0510    5.7430   -1.9590 C   0  0  0  0  0
   12.3150    6.1730   -3.0810 O   0  0  0  0  0
   10.8270    3.6740   -2.6670 C   0  0  0  0  0
   10.3940    2.2950   -2.2770 C   0  0  0  0  0
   11.2520    1.2230   -2.4220 C   0  0  0  0  0
    9.1300    2.0720   -1.7550 C   0  0  0  0  0
   10.8620   -0.0480   -2.0550 C   0  0  0  0  0
    8.7330    0.8040   -1.3860 C   0  0  0  0  0
    9.6010   -0.2570   -1.5360 C   0  0  0  0  0
   11.9180    6.5110   -0.8910 N   0  0  0  0  0
   12.0120    7.9570   -0.9540 C   0  0  0  0  0
   12.9960    8.4260    0.1160 C   0  0  0  0  0
   13.0350    9.5980    0.4910 O   0  0  0  0  0
   10.6120    8.5420   -0.7280 C   0  0  0  0  0
   10.4150    9.9740   -1.2020 C   0  0  0  0  0
    8.9550   10.3930   -1.1470 C   0  0  0  0  0
    8.0780    9.5990   -1.5450 O   0  0  0  0  0
    8.6720   11.5320   -0.6970 O   0  0  0  0  0
   13.7990    7.4820    0.5960 N   0  0  0  0  0
   14.7670    7.7540    1.6480 C   0  0  0  0  0
   16.0040    8.4740    1.0980 C   0  0  0  0  0
   16.9930    7.8460    0.7240 O   0  0  0  0  0
   15.1450    6.4560    2.3900 C   0  0  0  0  0
   15.3710    5.2550    1.4790 C   0  0  0  0  0
   15.6460    3.9600    2.2370 C   0  0  0  0  0
   14.7070    3.3900    2.8450 O   0  0  0  0  0
   16.7960    3.4790    2.1970 O   0  0  0  0  0
   15.9010    9.8110    1.0460 N   0  0  0  0  0
   16.9730   10.7040    0.5890 C   0  0  0  0  0
   17.1730   10.6190   -0.9280 C   0  0  0  0  0
   16.9370    9.5840   -1.5460 O   0  0  0  0  0
   18.2820   10.4370    1.3430 C   0  0  0  0  0
   18.1240   10.5460    2.8510 C   0  0  0  0  0
   19.4440   10.5080    3.5900 C   0  0  0  0  0
   20.1180    9.4590    3.5730 O   0  0  0  0  0
   19.8030   11.5240    4.2180 O   0  0  0  0  0
   17.5890   11.7290   -1.5290 N   0  0  0  0  0
   17.6700   11.8100   -2.9810 C   0  0  0  0  0
   19.1200   11.7390   -3.4630 C   0  0  0  0  0
   19.5520   10.7270   -4.0150 O   0  0  0  0  0
   17.0090   13.1010   -3.4780 C   0  0  0  0  0
   16.7610   13.1180   -4.9780 C   0  0  0  0  0
   16.2320   14.4470   -5.4750 C   0  0  0  0  0
   15.1000   14.8160   -5.0950 O   0  0  0  0  0
   16.9430   15.1320   -6.2390 O   0  0  0  0  0
   19.8670   12.8150   -3.2550 N   0  0  0  0  0
   21.2510   12.8820   -3.7230 C   0  0  0  0  0
   22.2000   13.0340   -2.5440 C   0  0  0  0  0
   23.3730   12.6600   -2.6150 O   0  0  0  0  0
   21.4280   14.0600   -4.6770 C   0  0  0  0  0
   20.4240   14.0860   -5.8170 C   0  0  0  0  0
   20.7450   15.1520   -6.8390 C   0  0  0  0  0
   20.5100   16.3460   -6.5560 O   0  0  0  0  0
   21.2560   14.7990   -7.9220 O   0  0  0  0  0
   21.6690   13.5950   -1.4740 N   0  0  0  0  0
   22.4070   13.8220   -0.2440 C   0  0  0  0  0
   21.4700   13.6310    0.9270 C   0  0  0  0  0
   21.7490   12.7680    1.7810 O   0  0  0  0  0
   22.9980   15.2370   -0.2010 C   0  0  0  0  0
   24.3820   15.3250   -0.8100 C   0  0  0  0  0
   24.4890   15.5830   -2.0280 O   0  0  0  0  0
   25.3740   15.1700   -0.0640 O   0  0  0  0  0
   20.4280   14.3230    0.9570 O   0  0  0  0  0
    9.4694   18.9671    4.5484 H   0  0  0  0  0
    8.4067   20.2242    4.2893 H   0  0  0  0  0
    8.9437   19.8916    5.8313 H   0  0  0  0  0
    7.8619   17.7965    5.8407 H   0  0  0  0  0
    6.7015   19.8933    6.5495 H   0  0  0  0  0
    5.5899   18.5335    5.9613 H   0  0  0  0  0
    5.4711   19.7970    3.8153 H   0  0  0  0  0
    4.4181   21.1834    6.3136 H   0  0  0  0  0
    3.7449   21.3303    4.6716 H   0  0  0  0  0
    3.6742   19.7698    5.5265 H   0  0  0  0  0
    5.9290   22.2018    3.8541 H   0  0  0  0  0
    6.6022   22.0548    5.4962 H   0  0  0  0  0
    7.4152   21.2592    4.1261 H   0  0  0  0  0
    8.4255   19.0500    2.7598 H   0  0  0  0  0
    6.2934   17.4895    1.4619 H   0  0  0  0  0
    7.4294   18.2834   -0.6505 H   0  0  0  0  0
    8.4901   19.2701    0.4321 H   0  0  0  0  0
    6.5010   20.4555   -0.5537 H   0  0  0  0  0
    6.6398   20.4941    1.2437 H   0  0  0  0  0
    5.0004   19.8889    2.1904 H   0  0  0  0  0
    9.7693   17.2468    2.0416 H   0  0  0  0  0
   10.0656   14.7914    0.5022 H   0  0  0  0  0
   12.1715   14.5745    1.5879 H   0  0  0  0  0
   11.6862   15.7236    2.8806 H   0  0  0  0  0
   13.0128   16.6995    1.2630 H   0  0  0  0  0
    8.7587   13.0926    0.9828 H   0  0  0  0  0
    7.7735   12.8241    3.7499 H   0  0  0  0  0
    6.3335   11.0775    2.8211 H   0  0  0  0  0
    7.1650   11.2995    1.2083 H   0  0  0  0  0
    4.9936   12.3867    1.2461 H   0  0  0  0  0
    6.3351   13.5913    1.1466 H   0  0  0  0  0
    6.0964   14.1293    3.4570 H   0  0  0  0  0
    4.8785   12.8084    3.6780 H   0  0  0  0  0
    3.7481   14.9239    3.5956 H   0  0  0  0  0
    3.4173   14.0080    2.0670 H   0  0  0  0  0
    3.8547   16.3221    1.6601 H   0  0  0  0  0
    5.3472   16.2092    2.3927 H   0  0  0  0  0
    5.0430   15.3670    0.9874 H   0  0  0  0  0
   11.0964    9.8900    4.3537 H   0  0  0  0  0
   12.0117   11.1736    6.1315 H   0  0  0  0  0
   10.9464   10.2942    7.2045 H   0  0  0  0  0
   10.7258   13.0503    6.2684 H   0  0  0  0  0
    9.8319   12.2508    7.5529 H   0  0  0  0  0
    8.0555   11.7056    6.1348 H   0  0  0  0  0
    8.6320   13.0198    5.2122 H   0  0  0  0  0
    8.0577    9.3167    4.5079 H   0  0  0  0  0
    8.2078    7.0422    6.4249 H   0  0  0  0  0
    5.8223    6.8822    6.1750 H   0  0  0  0  0
    5.8650    8.1448    4.8600 H   0  0  0  0  0
    6.1126    7.5202    8.4958 H   0  0  0  0  0
    6.0866   10.4613    5.3920 H   0  0  0  0  0
    5.8085    9.2923   10.1802 H   0  0  0  0  0
    5.7930   12.2371    7.0770 H   0  0  0  0  0
    5.5743   12.7045    9.2326 H   0  0  0  0  0
    9.0958    7.6391    3.3950 H   0  0  0  0  0
    8.0627    5.0395    2.3018 H   0  0  0  0  0
    9.0618    7.4348    0.7552 H   0  0  0  0  0
    7.3101    7.1419    1.1743 H   0  0  0  0  0
    7.2345    5.8157   -2.1145 H   0  0  0  0  0
    6.8849    7.2274   -1.1115 H   0  0  0  0  0
   12.4371    4.0143    2.6046 H   0  0  0  0  0
   11.6907    1.8850    3.4883 H   0  0  0  0  0
   12.1335    1.3494    1.9088 H   0  0  0  0  0
    9.6365    0.9788    2.7510 H   0  0  0  0  0
    9.9135    1.4280    1.0943 H   0  0  0  0  0
    8.4649    3.2014    1.6914 H   0  0  0  0  0
    8.8865    3.1368    3.3517 H   0  0  0  0  0
   10.4806    4.3209   -0.0679 H   0  0  0  0  0
   12.8066    3.7443   -1.8703 H   0  0  0  0  0
   11.2835    3.6162   -3.6551 H   0  0  0  0  0
    9.9489    4.3196   -2.6497 H   0  0  0  0  0
   12.2494    1.3831   -2.8314 H   0  0  0  0  0
    8.4416    2.9085   -1.6347 H   0  0  0  0  0
   11.5489   -0.8858   -2.1748 H   0  0  0  0  0
    7.7359    0.6408   -0.9769 H   0  0  0  0  0
    9.2908   -1.2605   -1.2446 H   0  0  0  0  0
   11.7426    6.0697    0.0117 H   0  0  0  0  0
   12.3751    8.2932   -1.9252 H   0  0  0  0  0
   10.4484    8.5469    0.3496 H   0  0  0  0  0
    9.9220    7.9267   -1.3054 H   0  0  0  0  0
   10.7512   10.0410   -2.2367 H   0  0  0  0  0
   10.9847   10.6326   -0.5464 H   0  0  0  0  0
    9.4800   11.9853   -0.4456 H   0  0  0  0  0
   13.7348    6.5379    0.2153 H   0  0  0  0  0
   14.3023    8.4258    2.3696 H   0  0  0  0  0
   14.3111    6.2078    3.0466 H   0  0  0  0  0
   16.0844    6.6456    2.9093 H   0  0  0  0  0
   16.2469    5.4685    0.8664 H   0  0  0  0  0
   14.4602    5.1079    0.8985 H   0  0  0  0  0
   13.9072    3.9141    2.7596 H   0  0  0  0  0
   15.0216   10.2339    1.3430 H   0  0  0  0  0
   16.6641   11.7242    0.8169 H   0  0  0  0  0
   19.0083   11.1862    1.0278 H   0  0  0  0  0
   18.5991    9.4199    1.1126 H   0  0  0  0  0
   17.5327    9.6933    3.1847 H   0  0  0  0  0
   17.6512   11.5042    3.0662 H   0  0  0  0  0
   19.1491   12.2174    4.1033 H   0  0  0  0  0
   17.8555   12.5361   -0.9651 H   0  0  0  0  0
   17.1366   10.9541   -3.3946 H   0  0  0  0  0
   17.6856   13.9243   -3.2488 H   0  0  0  0  0
   16.0403   13.1834   -2.9852 H   0  0  0  0  0
   16.0113   12.3584   -5.1993 H   0  0  0  0  0
   17.7137   12.9332   -5.4743 H   0  0  0  0  0
   14.7246   14.1484   -4.5163 H   0  0  0  0  0
   19.4682   13.6119   -2.7586 H   0  0  0  0  0
   21.4824   11.9562   -4.2498 H   0  0  0  0  0
   22.4197   13.9714   -5.1207 H   0  0  0  0  0
   21.2830   14.9713   -4.0968 H   0  0  0  0  0
   19.4417   14.3039   -5.3979 H   0  0  0  0  0
   20.4545   13.1179   -6.3169 H   0  0  0  0  0
   20.1188   16.3952   -5.6807 H   0  0  0  0  0
   20.6914   13.8836   -1.5128 H   0  0  0  0  0
   23.2320   13.1113   -0.1947 H   0  0  0  0  0
   23.0789   15.5293    0.8460 H   0  0  0  0  0
   22.3410   15.8868   -0.7791 H   0  0  0  0  0
   25.0753   14.9803    0.8284 H   0  0  0  0  0
   20.4198   14.9198    0.2051 H   0  0  0  0  0
  1  2  1  0  0  0
  2  3  1  0  0  0
  2  5  1  0  0  0
  3  4  2  0  0  0
  3  9  1  0  0  0
  5  6  1  0  0  0
  6  7  1  0  0  0
  6  8  1  0  0  0
  9 10  1  0  0  0
 10 11  1  0  0  0
 10 13  1  0  0  0
 11 12  2  0  0  0
 11 18  1  0  0  0
 13 14  1  0  0  0
 14 15  1  0  0  0
 15 16  2  0  0  0
 15 17  1  0  0  0
 18 19  1  0  0  0
 19 20  1  0  0  0
 19 22  1  0  0  0
 20 21  2  0  0  0
 20 24  1  0  0  0
 22 23  1  0  0  0
 24 25  1  0  0  0
 25 26  1  0  0  0
 25 28  1  0  0  0
 26 27  2  0  0  0
 26 33  1  0  0  0
 28 29  1  0  0  0
 29 30  1  0  0  0
 30 31  1  0  0  0
 31 32  1  0  0  0
 33 34  1  0  0  0
 33 39  1  0  0  0
 34 35  1  0  0  0
 34 37  1  0  0  0
 35 36  2  0  0  0
 35 40  1  0  0  0
 37 38  1  0  0  0
 38 39  1  0  0  0
 40 41  1  0  0  0
 41 42  1  0  0  0
 41 44  1  0  0  0
 42 43  2  0  0  0
 42 52  1  0  0  0
 44 45  1  0  0  0
 45 46  4  0  0  0
 45 47  4  0  0  0
 46 48  4  0  0  0
 47 49  4  0  0  0
 48 50  4  0  0  0
 49 50  4  0  0  0
 50 51  1  0  0  0
 52 53  1  0  0  0
 53 54  1  0  0  0
 53 56  1  0  0  0
 54 55  2  0  0  0
 54 60  1  0  0  0
 56 57  1  0  0  0
 57 58  2  0  0  0
 57 59  1  0  0  0
 60 61  1  0  0  0
 60 66  1  0  0  0
 61 62  1  0  0  0
 61 64  1  0  0  0
 62 63  2  0  0  0
 62 67  1  0  0  0
 64 65  1  0  0  0
 65 66  1  0  0  0
 67 68  1  0  0  0
 68 69  1  0  0  0
 68 71  1  0  0  0
 69 70  2  0  0  0
 69 78  1  0  0  0
 71 72  1  0  0  0
 72 73  4  0  0  0
 72 74  4  0  0  0
 73 75  4  0  0  0
 74 76  4  0  0  0
 75 77  4  0  0  0
 76 77  4  0  0  0
 78 79  1  0  0  0
 79 80  1  0  0  0
 79 82  1  0  0  0
 80 81  2  0  0  0
 80 87  1  0  0  0
 82 83  1  0  0  0
 83 84  1  0  0  0
 84 85  2  0  0  0
 84 86  1  0  0  0
 87 88  1  0  0  0
 88 89  1  0  0  0
 88 91  1  0  0  0
 89 90  2  0  0  0
 89 96  1  0  0  0
 91 92  1  0  0  0
 92 93  1  0  0  0
 93 94  1  0  0  0
 93 95  2  0  0  0
 96 97  1  0  0  0
 97 98  1  0  0  0
 97100  1  0  0  0
 98 99  2  0  0  0
 98105  1  0  0  0
100101  1  0  0  0
101102  1  0  0  0
102103  2  0  0  0
102104  1  0  0  0
105106  1  0  0  0
106107  1  0  0  0
106109  1  0  0  0
107108  2  0  0  0
107114  1  0  0  0
109110  1  0  0  0
110111  1  0  0  0
111112  1  0  0  0
111113  2  0  0  0
114115  1  0  0  0
115116  1  0  0  0
115118  1  0  0  0
116117  2  0  0  0
116123  1  0  0  0
118119  1  0  0  0
119120  1  0  0  0
120121  1  0  0  0
120122  2  0  0  0
123124  1  0  0  0
124125  1  0  0  0
124127  1  0  0  0
125126  2  0  0  0
125131  1  0  0  0
127128  1  0  0  0
128129  2  0  0  0
128130  1  0  0  0
  1132  1  0  0  0
  1133  1  0  0  0
  1134  1  0  0  0
  2135  1  0  0  0
  5136  1  0  0  0
  5137  1  0  0  0
  6138  1  0  0  0
  7139  1  0  0  0
  7140  1  0  0  0
  7141  1  0  0  0
  8142  1  0  0  0
  8143  1  0  0  0
  8144  1  0  0  0
  9145  1  0  0  0
 10146  1  0  0  0
 13147  1  0  0  0
 13148  1  0  0  0
 14149  1  0  0  0
 14150  1  0  0  0
 17151  1  0  0  0
 18152  1  0  0  0
 19153  1  0  0  0
 22154  1  0  0  0
 22155  1  0  0  0
 23156  1  0  0  0
 24157  1  0  0  0
 25158  1  0  0  0
 28159  1  0  0  0
 28160  1  0  0  0
 29161  1  0  0  0
 29162  1  0  0  0
 30163  1  0  0  0
 30164  1  0  0  0
 31165  1  0  0  0
 31166  1  0  0  0
 32167  1  0  0  0
 32168  1  0  0  0
 32169  1  0  0  0
 34170  1  0  0  0
 37171  1  0  0  0
 37172  1  0  0  0
 38173  1  0  0  0
 38174  1  0  0  0
 39175  1  0  0  0
 39176  1  0  0  0
 40177  1  0  0  0
 41178  1  0  0  0
 44179  1  0  0  0
 44180  1  0  0  0
 46181  1  0  0  0
 47182  1  0  0  0
 48183  1  0  0  0
 49184  1  0  0  0
 51185  1  0  0  0
 52186  1  0  0  0
 53187  1  0  0  0
 56188  1  0  0  0
 56189  1  0  0  0
 59190  1  0  0  0
 59191  1  0  0  0
 61192  1  0  0  0
 64193  1  0  0  0
 64194  1  0  0  0
 65195  1  0  0  0
 65196  1  0  0  0
 66197  1  0  0  0
 66198  1  0  0  0
 67199  1  0  0  0
 68200  1  0  0  0
 71201  1  0  0  0
 71202  1  0  0  0
 73203  1  0  0  0
 74204  1  0  0  0
 75205  1  0  0  0
 76206  1  0  0  0
 77207  1  0  0  0
 78208  1  0  0  0
 79209  1  0  0  0
 82210  1  0  0  0
 82211  1  0  0  0
 83212  1  0  0  0
 83213  1  0  0  0
 86214  1  0  0  0
 87215  1  0  0  0
 88216  1  0  0  0
 91217  1  0  0  0
 91218  1  0  0  0
 92219  1  0  0  0
 92220  1  0  0  0
 94221  1  0  0  0
 96222  1  0  0  0
 97223  1  0  0  0
100224  1  0  0  0
100225  1  0  0  0
101226  1  0  0  0
101227  1  0  0  0
104228  1  0  0  0
105229  1  0  0  0
106230  1  0  0  0
109231  1  0  0  0
109232  1  0  0  0
110233  1  0  0  0
110234  1  0  0  0
112235  1  0  0  0
114236  1  0  0  0
115237  1  0  0  0
118238  1  0  0  0
118239  1  0  0  0
119240  1  0  0  0
119241  1  0  0  0
121242  1  0  0  0
123243  1  0  0  0
124244  1  0  0  0
127245  1  0  0  0
127246  1  0  0  0
130247  1  0  0  0
131248  1  0  0  0
M  END
$$$$
