### 
### Created by X-TOOL on Mon Sep 10 21:13:05 2018
### 

@<TRIPOS>MOLECULE
2ksp_ligand
  240   243     1     0     0
SMALL
GAST_HUCK


@<TRIPOS>ATOM
      1 N           8.6790   19.4830    4.9350 N.4       1 LEU         0.2379
      2 CA          7.5390   18.5600    5.1330 C.3       1 LEU         0.0652
      3 C           7.1430   17.8790    3.8240 C.2       1 LEU         0.2267
      4 O           6.3180   16.9620    3.8190 O.2       1 LEU        -0.3907
      5 CB          6.3240   19.3010    5.7160 C.3       1 LEU         0.0102
      6 CG          5.6130   20.2880    4.7780 C.3       1 LEU        -0.0394
      7 CD1         4.2670   20.6700    5.3640 C.3       1 LEU        -0.0623
      8 CD2         6.4500   21.5410    4.5470 C.3       1 LEU        -0.0623
      9 N           7.7180   18.3170    2.7090 N.am      1 GLU        -0.2609
     10 CA          7.3480   17.7610    1.4160 C.3       1 GLU         0.1326
     11 C           8.1300   16.4950    1.1120 C.2       1 GLU         0.2041
     12 O           7.6190   15.5910    0.4540 O.2       1 GLU        -0.3944
     13 CB          7.5170   18.7950    0.3080 C.3       1 GLU        -0.0008
     14 CG          6.4530   19.8740    0.3670 C.3       1 GLU         0.0044
     15 CD          5.0640   19.2820    0.4870 C.2       1 GLU         0.0350
     16 OE1         4.5690   18.7080   -0.5010 O.co2     1 GLU        -0.5690
     17 OE2         4.4450   19.4230    1.5610 O.co2     1 GLU        -0.5690
     18 N           9.3560   16.4260    1.5990 N.am      1 SER        -0.2616
     19 CA         10.1210   15.1980    1.5120 C.3       1 SER         0.1539
     20 C           9.5340   14.1980    2.5030 C.2       1 SER         0.2062
     21 O           9.7050   14.3470    3.7140 O.2       1 SER        -0.3943
     22 CB         11.5940   15.4680    1.8250 C.3       1 SER         0.0843
     23 OG         12.0890   16.5500    1.0490 O.3       1 SER        -0.3903
     24 N           8.8090   13.2080    1.9950 N.am      1 LYS        -0.2637
     25 CA          8.0860   12.2860    2.8550 C.3       1 LYS         0.1312
     26 C           8.9840   11.1290    3.2980 C.2       1 LYS         0.2064
     27 O           9.2930   10.2270    2.5180 O.2       1 LYS        -0.3942
     28 CB          6.8350   11.7630    2.1380 C.3       1 LYS        -0.0122
     29 CG          5.8280   12.8540    1.7690 C.3       1 LYS        -0.0440
     30 CD          5.2820   13.5640    3.0040 C.3       1 LYS        -0.0124
     31 CE          4.1590   14.5420    2.6610 C.3       1 LYS        -0.0354
     32 NZ          4.6390   15.7020    1.8620 N.4       1 LYS         0.2185
     33 N           9.3950   11.1310    4.5760 N.am      1 PRO        -0.2498
     34 CA         10.3660   10.1800    5.1090 C.3       1 PRO         0.1338
     35 C           9.7300    8.8690    5.5600 C.2       1 PRO         0.2042
     36 O          10.3490    8.0760    6.2710 O.2       1 PRO        -0.3944
     37 CB         10.9670   10.9210    6.3130 C.3       1 PRO        -0.0104
     38 CG         10.1430   12.1620    6.5120 C.3       1 PRO        -0.0281
     39 CD          8.9460   12.0560    5.6130 C.3       1 PRO         0.0369
     40 N           8.5010    8.6390    5.1280 N.am      1 TYR        -0.2621
     41 CA          7.7650    7.4450    5.5140 C.3       1 TYR         0.1390
     42 C           7.8530    6.4070    4.4100 C.2       1 TYR         0.2059
     43 O           7.2680    5.3280    4.5000 O.2       1 TYR        -0.3942
     44 CB          6.3000    7.7840    5.7920 C.3       1 TYR         0.0163
     45 CG          6.1180    8.8670    6.8260 C.ar      1 TYR        -0.0493
     46 CD1         6.0400    8.5600    8.1770 C.ar      1 TYR        -0.0685
     47 CD2         6.0270   10.1980    6.4480 C.ar      1 TYR        -0.0685
     48 CE1         5.8720    9.5500    9.1230 C.ar      1 TYR        -0.0398
     49 CE2         5.8620   11.1950    7.3890 C.ar      1 TYR        -0.0398
     50 CZ          5.7850   10.8650    8.7250 C.ar      1 TYR         0.0805
     51 OH          5.6160   11.8500    9.6680 O.3       1 TYR        -0.3376
     52 N           8.5930    6.7520    3.3710 N.am      1 ASN        -0.2615
     53 CA          8.7120    5.9090    2.1990 C.3       1 ASN         0.1478
     54 C          10.1520    5.4190    2.0590 C.2       1 ASN         0.2088
     55 O          11.0730    6.2200    1.9000 O.2       1 ASN        -0.3940
     56 CB          8.2830    6.7000    0.9590 C.3       1 ASN         0.0773
     57 CG          8.1280    5.8440   -0.2870 C.2       1 ASN         0.1780
     58 OD1         8.7130    4.7730   -0.4060 O.2       1 ASN        -0.3970
     59 ND2         7.3570    6.3330   -1.2440 N.am      1 ASN        -0.3007
     60 N          10.3630    4.0920    2.1290 N.am      1 PRO        -0.2497
     61 CA         11.6960    3.4870    2.0040 C.3       1 PRO         0.1338
     62 C          12.2340    3.5420    0.5750 C.2       1 PRO         0.2042
     63 O          13.3380    3.0860    0.2970 O.2       1 PRO        -0.3944
     64 CB         11.4690    2.0370    2.4320 C.3       1 PRO        -0.0104
     65 CG         10.0390    1.7720    2.1210 C.3       1 PRO        -0.0281
     66 CD          9.3210    3.0740    2.3540 C.3       1 PRO         0.0369
     67 N          11.4290    4.0570   -0.3350 N.am      1 PHE        -0.2619
     68 CA         11.8590    4.2570   -1.7050 C.3       1 PHE         0.1404
     69 C          12.0510    5.7430   -1.9590 C.2       1 PHE         0.2060
     70 O          12.3150    6.1730   -3.0810 O.2       1 PHE        -0.3942
     71 CB         10.8270    3.6740   -2.6670 C.3       1 PHE         0.0214
     72 CG         10.3940    2.2950   -2.2770 C.ar      1 PHE        -0.0386
     73 CD1        11.2520    1.2230   -2.4220 C.ar      1 PHE        -0.0601
     74 CD2         9.1300    2.0720   -1.7550 C.ar      1 PHE        -0.0601
     75 CE1        10.8620   -0.0480   -2.0550 C.ar      1 PHE        -0.0686
     76 CE2         8.7330    0.8040   -1.3860 C.ar      1 PHE        -0.0686
     77 CZ          9.6010   -0.2570   -1.5360 C.ar      1 PHE        -0.0687
     78 N          11.9180    6.5110   -0.8910 N.am      1 GLU        -0.2635
     79 CA         12.0120    7.9570   -0.9540 C.3       1 GLU         0.1325
     80 C          12.9960    8.4260    0.1160 C.2       1 GLU         0.2040
     81 O          13.0350    9.5980    0.4910 O.2       1 GLU        -0.3944
     82 CB         10.6120    8.5420   -0.7280 C.3       1 GLU        -0.0008
     83 CG         10.4150    9.9740   -1.2020 C.3       1 GLU         0.0044
     84 CD          8.9550   10.3930   -1.1470 C.2       1 GLU         0.0350
     85 OE1         8.0780    9.5990   -1.5450 O.co2     1 GLU        -0.5690
     86 OE2         8.6720   11.5320   -0.6970 O.co2     1 GLU        -0.5690
     87 N          13.7990    7.4820    0.5960 N.am      1 GLU        -0.2636
     88 CA         14.7670    7.7540    1.6480 C.3       1 GLU         0.1325
     89 C          16.0040    8.4740    1.0980 C.2       1 GLU         0.2040
     90 O          16.9930    7.8460    0.7240 O.2       1 GLU        -0.3944
     91 CB         15.1450    6.4560    2.3900 C.3       1 GLU        -0.0008
     92 CG         15.3710    5.2550    1.4790 C.3       1 GLU         0.0044
     93 CD         15.6460    3.9600    2.2370 C.2       1 GLU         0.0350
     94 OE1        14.7070    3.3900    2.8450 O.co2     1 GLU        -0.5690
     95 OE2        16.7960    3.4790    2.1970 O.co2     1 GLU        -0.5690
     96 N          15.9010    9.8110    1.0460 N.am      1 GLU        -0.2636
     97 CA         16.9730   10.7040    0.5890 C.3       1 GLU         0.1325
     98 C          17.1730   10.6190   -0.9280 C.2       1 GLU         0.2040
     99 O          16.9370    9.5840   -1.5460 O.2       1 GLU        -0.3944
    100 CB         18.2820   10.4370    1.3430 C.3       1 GLU        -0.0008
    101 CG         18.1240   10.5460    2.8510 C.3       1 GLU         0.0044
    102 CD         19.4440   10.5080    3.5900 C.2       1 GLU         0.0350
    103 OE1        20.1180    9.4590    3.5730 O.co2     1 GLU        -0.5690
    104 OE2        19.8030   11.5240    4.2180 O.co2     1 GLU        -0.5690
    105 N          17.5890   11.7290   -1.5290 N.am      1 GLU        -0.2636
    106 CA         17.6700   11.8100   -2.9810 C.3       1 GLU         0.1325
    107 C          19.1200   11.7390   -3.4630 C.2       1 GLU         0.2040
    108 O          19.5520   10.7270   -4.0150 O.2       1 GLU        -0.3944
    109 CB         17.0090   13.1010   -3.4780 C.3       1 GLU        -0.0008
    110 CG         16.7610   13.1180   -4.9780 C.3       1 GLU         0.0044
    111 CD         16.2320   14.4470   -5.4750 C.2       1 GLU         0.0350
    112 OE1        15.1000   14.8160   -5.0950 O.co2     1 GLU        -0.5690
    113 OE2        16.9430   15.1320   -6.2390 O.co2     1 GLU        -0.5690
    114 N          19.8670   12.8150   -3.2550 N.am      1 GLU        -0.2636
    115 CA         21.2510   12.8820   -3.7230 C.3       1 GLU         0.1324
    116 C          22.2000   13.0340   -2.5440 C.2       1 GLU         0.2035
    117 O          23.3730   12.6600   -2.6150 O.2       1 GLU        -0.3944
    118 CB         21.4280   14.0600   -4.6770 C.3       1 GLU        -0.0008
    119 CG         20.4240   14.0860   -5.8170 C.3       1 GLU         0.0044
    120 CD         20.7450   15.1520   -6.8390 C.2       1 GLU         0.0350
    121 OE1        20.5100   16.3460   -6.5560 O.co2     1 GLU        -0.5690
    122 OE2        21.2560   14.7990   -7.9220 O.co2     1 GLU        -0.5690
    123 N          21.6690   13.5950   -1.4740 N.am      1 ASP        -0.2679
    124 CA         22.4070   13.8220   -0.2440 C.3       1 ASP         0.1057
    125 C          21.4700   13.6310    0.9270 C.2       1 ASP         0.0618
    126 O          21.7490   12.7680    1.7810 O.co2     1 ASP        -0.5665
    127 CB         22.9980   15.2370   -0.2010 C.3       1 ASP         0.0351
    128 CG         24.3820   15.3250   -0.8100 C.2       1 ASP         0.0387
    129 OD1        24.4890   15.5830   -2.0280 O.co2     1 ASP        -0.5688
    130 OD2        25.3740   15.1700   -0.0640 O.co2     1 ASP        -0.5688
    131 OXT        20.4280   14.3230    0.9570 O.co2     1 ASP        -0.5665
    132 H1          8.9170   19.9163    5.8135 H         1 LEU         0.2015
    133 H2          8.4236   20.1942    4.2679 H         1 LEU         0.2015
    134 H3          9.4728   18.9672    4.5889 H         1 LEU         0.2015
    135 H4          7.8485   17.7835    5.8480 H         1 LEU         0.1098
    136 H5          6.6660   19.8636    6.5972 H         1 LEU         0.0348
    137 H6          5.5880   18.5449    6.0267 H         1 LEU         0.0348
    138 H7          5.4510   19.7935    3.8089 H         1 LEU         0.0299
    139 H8          3.7609   21.3766    4.6899 H         1 LEU         0.0232
    140 H9          4.4154   21.1426    6.3461 H         1 LEU         0.0232
    141 H10         3.6486   19.7678    5.4809 H         1 LEU         0.0232
    142 H11         7.4244   21.2579    4.1222 H         1 LEU         0.0232
    143 H12         6.6044   22.0605    5.5042 H         1 LEU         0.0232
    144 H13         5.9253   22.2087    3.8478 H         1 LEU         0.0232
    145 H14         8.4116   19.0356    2.7589 H         1 GLU         0.1885
    146 H15         6.2826   17.4911    1.4614 H         1 GLU         0.0801
    147 H16         7.4522   18.2860   -0.6650 H         1 GLU         0.0330
    148 H17         8.5057   19.2661    0.4103 H         1 GLU         0.0330
    149 H18         6.5055   20.4776   -0.5511 H         1 GLU         0.0433
    150 H19         6.6438   20.5161    1.2395 H         1 GLU         0.0433
    151 H20         9.7612   17.2307    2.0329 H         1 SER         0.1884
    152 H21        10.0420   14.7899    0.4936 H         1 SER         0.0823
    153 H22        12.1810   14.5655    1.5996 H         1 SER         0.0606
    154 H23        11.6957   15.7145    2.8922 H         1 SER         0.0606
    155 H24        13.0032   16.6979    1.2607 H         1 SER         0.2097
    156 H25         8.7596   13.0949    1.0026 H         1 LYS         0.1883
    157 H26         7.7650   12.8332    3.7537 H         1 LYS         0.0800
    158 H27         6.3347   11.0395    2.7985 H         1 LYS         0.0312
    159 H28         7.1518   11.2577    1.2137 H         1 LYS         0.0312
    160 H29         4.9905   12.3953    1.2230 H         1 LYS         0.0269
    161 H30         6.3250   13.5936    1.1241 H         1 LYS         0.0269
    162 H31         6.1011   14.1199    3.4836 H         1 LYS         0.0317
    163 H32         4.8926   12.8091    3.7029 H         1 LYS         0.0317
    164 H33         3.7187   14.9162    3.5970 H         1 LYS         0.0813
    165 H34         3.3908   14.0084    2.0821 H         1 LYS         0.0813
    166 H35         3.8647   16.3156    1.6619 H         1 LYS         0.1994
    167 H36         5.0385   15.3722    0.9973 H         1 LYS         0.1994
    168 H37         5.3389   16.2041    2.3855 H         1 LYS         0.1994
    169 H38        11.1390    9.9623    4.3573 H         1 PRO         0.0802
    170 H39        12.0138   11.1899    6.1086 H         1 PRO         0.0313
    171 H40        10.9198   10.2868    7.2105 H         1 PRO         0.0313
    172 H41        10.7336   13.0516    6.2480 H         1 PRO         0.0287
    173 H42         9.8199   12.2344    7.5610 H         1 PRO         0.0287
    174 H43         8.0789   11.6512    6.1554 H         1 PRO         0.0524
    175 H44         8.6859   13.0349    5.1840 H         1 PRO         0.0524
    176 H45         8.0664    9.3035    4.5200 H         1 TYR         0.1885
    177 H46         8.2135    7.0320    6.4296 H         1 TYR         0.0821
    178 H47         5.7938    6.8746    6.1478 H         1 TYR         0.0453
    179 H48         5.8358    8.1183    4.8525 H         1 TYR         0.0453
    180 H49         6.1122    7.5259    8.4941 H         1 TYR         0.0530
    181 H50         6.0863   10.4598    5.3978 H         1 TYR         0.0530
    182 H51         5.8088    9.2937   10.1744 H         1 TYR         0.0525
    183 H52         5.7934   12.2314    7.0787 H         1 TYR         0.0525
    184 H53         5.5831   11.4571   10.5323 H         1 TYR         0.2458
    185 H54         9.0860    7.6217    3.3945 H         1 ASN         0.1885
    186 H55         8.0500    5.0379    2.3129 H         1 ASN         0.0826
    187 H56         9.0418    7.4708    0.7588 H         1 ASN         0.0551
    188 H57         7.3175    7.1824    1.1714 H         1 ASN         0.0551
    189 H58         7.2174    5.8144   -2.0876 H         1 ASN         0.1814
    190 H59         6.9137    7.2213   -1.1240 H         1 ASN         0.1814
    191 H60        12.4091    3.9871    2.6759 H         1 PRO         0.0802
    192 H61        11.6610    1.9154    3.5083 H         1 PRO         0.0313
    193 H62        12.1219    1.3580    1.8640 H         1 PRO         0.0313
    194 H63         9.6409    0.9908    2.7852 H         1 PRO         0.0287
    195 H64         9.9271    1.4549    1.0737 H         1 PRO         0.0287
    196 H65         8.4916    3.1975    1.6421 H         1 PRO         0.0524
    197 H66         8.9334    3.1298    3.3819 H         1 PRO         0.0524
    198 H67        10.4992    4.3158   -0.0731 H         1 PHE         0.1885
    199 H68        12.8184    3.7415   -1.8596 H         1 PHE         0.0823
    200 H69        11.2670    3.6338   -3.6744 H         1 PHE         0.0474
    201 H70         9.9446    4.3307   -2.6782 H         1 PHE         0.0474
    202 H71        12.2439    1.3822   -2.8291 H         1 PHE         0.0557
    203 H72         8.4453    2.9039   -1.6353 H         1 PHE         0.0557
    204 H73        11.5451   -0.8812   -2.1742 H         1 PHE         0.0599
    205 H74         7.7414    0.6417   -0.9792 H         1 PHE         0.0599
    206 H75         9.2926   -1.2550   -1.2462 H         1 PHE         0.0559
    207 H76        11.7460    6.0784   -0.0060 H         1 GLU         0.1883
    208 H77        12.3789    8.2655   -1.9441 H         1 GLU         0.0801
    209 H78        10.4020    8.5107    0.3513 H         1 GLU         0.0330
    210 H79         9.8893    7.9065   -1.2608 H         1 GLU         0.0330
    211 H80        10.7700   10.0572   -2.2398 H         1 GLU         0.0433
    212 H81        11.0022   10.6457   -0.5586 H         1 GLU         0.0433
    213 H82        13.7361    6.5564    0.2228 H         1 GLU         0.1883
    214 H83        14.2895    8.4265    2.3758 H         1 GLU         0.0801
    215 H84        14.3322    6.2098    3.0891 H         1 GLU         0.0330
    216 H85        16.0712    6.6392    2.9544 H         1 GLU         0.0330
    217 H86        16.2327    5.4679    0.8294 H         1 GLU         0.0433
    218 H87        14.4722    5.1126    0.8610 H         1 GLU         0.0433
    219 H88        15.0388   10.2256    1.3372 H         1 GLU         0.1883
    220 H89        16.6637   11.7337    0.8216 H         1 GLU         0.0801
    221 H90        19.0332   11.1701    1.0142 H         1 GLU         0.0330
    222 H91        18.6283    9.4221    1.0981 H         1 GLU         0.0330
    223 H92        17.5033    9.7074    3.1996 H         1 GLU         0.0433
    224 H93        17.6203   11.4961    3.0826 H         1 GLU         0.0433
    225 H94        17.8503   12.5203   -0.9761 H         1 GLU         0.1883
    226 H95        17.1242   10.9540   -3.4044 H         1 GLU         0.0801
    227 H96        17.6640   13.9474   -3.2240 H         1 GLU         0.0330
    228 H97        16.0433   13.2176   -2.9643 H         1 GLU         0.0330
    229 H98        16.0269   12.3356   -5.2209 H         1 GLU         0.0433
    230 H99        17.7093   12.9036   -5.4926 H         1 GLU         0.0433
    231 H100       19.4760   13.5962   -2.7684 H         1 GLU         0.1883
    232 H101       21.4907   11.9505   -4.2567 H         1 GLU         0.0801
    233 H102       22.4390   14.0082   -5.1072 H         1 GLU         0.0330
    234 H103       21.3219   14.9911   -4.1009 H         1 GLU         0.0330
    235 H104       19.4238   14.2822   -5.4033 H         1 GLU         0.0433
    236 H105       20.4288   13.1053   -6.3152 H         1 GLU         0.0433
    237 H106       20.7106   13.8779   -1.5121 H         1 ASP         0.1876
    238 H107       23.2271   13.0919   -0.1782 H         1 ASP         0.0745
    239 H108       23.0571   15.5593    0.8490 H         1 ASP         0.0471
    240 H109       22.3290   15.9122   -0.7547 H         1 ASP         0.0471
@<TRIPOS>BOND
     1    1    2 1  
     2    2    3 1  
     3    2    5 1  
     4    3    4 2  
     5    3    9 am 
     6    5    6 1  
     7    6    7 1  
     8    6    8 1  
     9    9   10 1  
    10   10   11 1  
    11   10   13 1  
    12   11   12 2  
    13   11   18 am 
    14   13   14 1  
    15   14   15 1  
    16   15   16 ar 
    17   15   17 ar 
    18   18   19 1  
    19   19   20 1  
    20   19   22 1  
    21   20   21 2  
    22   20   24 am 
    23   22   23 1  
    24   24   25 1  
    25   25   26 1  
    26   25   28 1  
    27   26   27 2  
    28   26   33 am 
    29   28   29 1  
    30   29   30 1  
    31   30   31 1  
    32   31   32 1  
    33   33   34 1  
    34   33   39 1  
    35   34   35 1  
    36   34   37 1  
    37   35   36 2  
    38   35   40 am 
    39   37   38 1  
    40   38   39 1  
    41   40   41 1  
    42   41   42 1  
    43   41   44 1  
    44   42   43 2  
    45   42   52 am 
    46   44   45 1  
    47   45   46 ar 
    48   45   47 ar 
    49   46   48 ar 
    50   47   49 ar 
    51   48   50 ar 
    52   49   50 ar 
    53   50   51 1  
    54   52   53 1  
    55   53   54 1  
    56   53   56 1  
    57   54   55 2  
    58   54   60 am 
    59   56   57 1  
    60   57   58 2  
    61   57   59 am 
    62   60   61 1  
    63   60   66 1  
    64   61   62 1  
    65   61   64 1  
    66   62   63 2  
    67   62   67 am 
    68   64   65 1  
    69   65   66 1  
    70   67   68 1  
    71   68   69 1  
    72   68   71 1  
    73   69   70 2  
    74   69   78 am 
    75   71   72 1  
    76   72   73 ar 
    77   72   74 ar 
    78   73   75 ar 
    79   74   76 ar 
    80   75   77 ar 
    81   76   77 ar 
    82   78   79 1  
    83   79   80 1  
    84   79   82 1  
    85   80   81 2  
    86   80   87 am 
    87   82   83 1  
    88   83   84 1  
    89   84   85 ar 
    90   84   86 ar 
    91   87   88 1  
    92   88   89 1  
    93   88   91 1  
    94   89   90 2  
    95   89   96 am 
    96   91   92 1  
    97   92   93 1  
    98   93   94 ar 
    99   93   95 ar 
   100   96   97 1  
   101   97   98 1  
   102   97  100 1  
   103   98   99 2  
   104   98  105 am 
   105  100  101 1  
   106  101  102 1  
   107  102  103 ar 
   108  102  104 ar 
   109  105  106 1  
   110  106  107 1  
   111  106  109 1  
   112  107  108 2  
   113  107  114 am 
   114  109  110 1  
   115  110  111 1  
   116  111  112 ar 
   117  111  113 ar 
   118  114  115 1  
   119  115  116 1  
   120  115  118 1  
   121  116  117 2  
   122  116  123 am 
   123  118  119 1  
   124  119  120 1  
   125  120  121 ar 
   126  120  122 ar 
   127  123  124 1  
   128  124  125 1  
   129  124  127 1  
   130  125  126 ar 
   131  125  131 ar 
   132  127  128 1  
   133  128  129 ar 
   134  128  130 ar 
   135    1  132 1  
   136    1  133 1  
   137    1  134 1  
   138    2  135 1  
   139    5  136 1  
   140    5  137 1  
   141    6  138 1  
   142    7  139 1  
   143    7  140 1  
   144    7  141 1  
   145    8  142 1  
   146    8  143 1  
   147    8  144 1  
   148    9  145 1  
   149   10  146 1  
   150   13  147 1  
   151   13  148 1  
   152   14  149 1  
   153   14  150 1  
   154   18  151 1  
   155   19  152 1  
   156   22  153 1  
   157   22  154 1  
   158   23  155 1  
   159   24  156 1  
   160   25  157 1  
   161   28  158 1  
   162   28  159 1  
   163   29  160 1  
   164   29  161 1  
   165   30  162 1  
   166   30  163 1  
   167   31  164 1  
   168   31  165 1  
   169   32  166 1  
   170   32  167 1  
   171   32  168 1  
   172   34  169 1  
   173   37  170 1  
   174   37  171 1  
   175   38  172 1  
   176   38  173 1  
   177   39  174 1  
   178   39  175 1  
   179   40  176 1  
   180   41  177 1  
   181   44  178 1  
   182   44  179 1  
   183   46  180 1  
   184   47  181 1  
   185   48  182 1  
   186   49  183 1  
   187   51  184 1  
   188   52  185 1  
   189   53  186 1  
   190   56  187 1  
   191   56  188 1  
   192   59  189 1  
   193   59  190 1  
   194   61  191 1  
   195   64  192 1  
   196   64  193 1  
   197   65  194 1  
   198   65  195 1  
   199   66  196 1  
   200   66  197 1  
   201   67  198 1  
   202   68  199 1  
   203   71  200 1  
   204   71  201 1  
   205   73  202 1  
   206   74  203 1  
   207   75  204 1  
   208   76  205 1  
   209   77  206 1  
   210   78  207 1  
   211   79  208 1  
   212   82  209 1  
   213   82  210 1  
   214   83  211 1  
   215   83  212 1  
   216   87  213 1  
   217   88  214 1  
   218   91  215 1  
   219   91  216 1  
   220   92  217 1  
   221   92  218 1  
   222   96  219 1  
   223   97  220 1  
   224  100  221 1  
   225  100  222 1  
   226  101  223 1  
   227  101  224 1  
   228  105  225 1  
   229  106  226 1  
   230  109  227 1  
   231  109  228 1  
   232  110  229 1  
   233  110  230 1  
   234  114  231 1  
   235  115  232 1  
   236  118  233 1  
   237  118  234 1  
   238  119  235 1  
   239  119  236 1  
   240  123  237 1  
   241  124  238 1  
   242  127  239 1  
   243  127  240 1  
@<TRIPOS>SUBSTRUCTURE
     1 LEU         1

