### 
### Created by X-TOOL on Mon Sep 10 21:13:12 2018
### 

@<TRIPOS>MOLECULE
4jj7_ligand
   97    97     1     0     0
SMALL
GAST_HUCK


@<TRIPOS>ATOM
      1 C          59.6150   81.4910  154.9560 C.2       1 ACE         0.1753
      2 O          59.2250   80.9570  153.9200 O.2       1 ACE        -0.3972
      3 CH3        59.3310   82.9360  155.2880 C.3       1 ACE         0.0258
      4 N          60.2980   80.8370  155.9040 N.am      1 1MH        -0.2639
      5 CA         60.6720   79.4310  155.6410 C.3       1 1MH         0.1415
      6 C          59.4870   78.4910  155.5250 C.2       1 1MH         0.2062
      7 O          59.4610   77.6260  154.6590 O.2       1 1MH        -0.3942
      8 CB         61.5900   78.9680  156.8080 C.3       1 1MH         0.0277
      9 C6         61.9140   77.5090  156.6760 C.ar      1 1MH        -0.0106
     10 C7         62.9680   77.0830  155.8520 C.ar      1 1MH         0.0127
     11 N8         63.2770   75.8010  155.6700 N.ar      1 1MH        -0.3044
     12 C9         62.5600   74.8590  156.3100 C.ar      1 1MH         0.0042
     13 C10        61.5160   75.1810  157.1740 C.ar      1 1MH        -0.0404
     14 C11        61.1860   76.5250  157.3480 C.ar      1 1MH        -0.0402
     15 N          58.4870   78.6200  156.4050 N.am      1 ASP        -0.2620
     16 CA         57.3980   77.6630  156.4200 C.3       1 ASP         0.1422
     17 C          56.4920   77.7820  155.2110 C.2       1 ASP         0.2037
     18 O          55.7710   76.8420  154.8930 O.2       1 ASP        -0.3944
     19 CB         56.5480   77.7680  157.6870 C.3       1 ASP         0.0406
     20 CG         57.2460   77.2580  158.9410 C.2       1 ASP         0.0393
     21 OD1        58.2080   76.4380  158.8750 O.co2     1 ASP        -0.5688
     22 OD2        56.7270   77.6590  160.0280 O.co2     1 ASP        -0.5688
     23 O          55.0870   78.5930  150.5110 O.2       1 B3L        -0.3968
     24 C          56.1120   79.2440  150.8050 C.2       1 B3L         0.1804
     25 CA         56.7630   79.0100  152.1630 C.3       1 B3L         0.0603
     26 CB         55.7680   79.0730  153.3010 C.3       1 B3L         0.0590
     27 N          56.5010   78.9440  154.5620 N.am      1 B3L        -0.2796
     28 CG         54.8740   80.2510  153.3420 C.3       1 B3L        -0.0254
     29 CD         53.7720   80.0210  154.4400 C.3       1 B3L        -0.0445
     30 CE2        52.9640   81.2860  154.5410 C.3       1 B3L        -0.0626
     31 CE1        52.7530   78.9020  154.2220 C.3       1 B3L        -0.0626
     32 N          56.7080   80.1150  150.0290 N.am      1 HLX        -0.2656
     33 CA         56.1660   80.3940  148.7000 C.3       1 HLX         0.1309
     34 C          57.2920   80.5390  147.7270 C.2       1 HLX         0.2040
     35 O          58.4410   80.7440  148.0840 O.2       1 HLX        -0.3944
     36 CB         55.2860   81.5690  148.7450 C.3       1 HLX        -0.0122
     37 CG         56.0350   82.7530  149.1470 C.3       1 HLX        -0.0465
     38 C7         55.0750   83.9260  149.2000 C.3       1 HLX        -0.0465
     39 C8         55.6000   85.0420  150.0640 C.3       1 HLX        -0.0627
     40 C9         53.7920   83.6560  149.9390 C.3       1 HLX        -0.0627
     41 N          56.9360   80.4140  146.4600 N.am      1 1U8        -0.2633
     42 CA         57.8870   80.4450  145.3370 C.3       1 1U8         0.1259
     43 C          57.8290   81.7330  144.5370 C.2       1 1U8         0.1289
     44 O          58.2210   81.7750  143.3880 O.2       1 1U8        -0.3893
     45 CB         57.6490   79.2180  144.4760 C.3       1 1U8         0.0395
     46 CG         58.2260   77.9680  145.1250 C.2       1 1U8         0.0393
     47 OD1        57.7470   76.8570  144.8060 O.co2     1 1U8        -0.5688
     48 OD2        59.1980   78.0870  145.9280 O.co2     1 1U8        -0.5688
     49 C9         57.1560   82.8910  145.1110 C.3       1 1U8         0.0119
     50 H1         59.7792   83.1834  156.2616 H         1 ACE         0.0467
     51 H2         58.2435   83.0948  155.3341 H         1 ACE         0.0467
     52 H3         59.7634   83.5827  154.5104 H         1 ACE         0.0467
     53 H4         60.5472   81.2853  156.7625 H         1 1MH         0.1884
     54 H5         61.2339   79.3903  154.6963 H         1 1MH         0.0825
     55 H6         61.0737   79.1388  157.7641 H         1 1MH         0.0489
     56 H7         62.5236   79.5493  156.7864 H         1 1MH         0.0489
     57 H8         63.5584   77.8339  155.3395 H         1 1MH         0.0765
     58 H9         62.8030   73.8151  156.1478 H         1 1MH         0.0767
     59 H10        60.9721   74.4044  157.6995 H         1 1MH         0.0693
     60 H11        60.3679   76.8044  158.0021 H         1 1MH         0.0678
     61 H12        58.4909   79.3798  157.0551 H         1 ASP         0.1884
     62 H13        57.8505   76.6606  156.4011 H         1 ASP         0.0819
     63 H14        55.6300   77.1805  157.5382 H         1 ASP         0.0478
     64 H15        56.2859   78.8250  157.8419 H         1 ASP         0.0478
     65 H16        57.5315   79.7805  152.3233 H         1 B3L         0.0525
     66 H17        57.2348   78.0163  152.1616 H         1 B3L         0.0525
     67 H18        55.1147   78.1941  153.1974 H         1 B3L         0.0581
     68 H19        57.0051   79.7238  154.9332 H         1 B3L         0.1856
     69 H20        54.3946   80.3842  152.3610 H         1 B3L         0.0291
     70 H21        55.4589   81.1492  153.5894 H         1 B3L         0.0291
     71 H22        54.2888   79.8258  155.3912 H         1 B3L         0.0296
     72 H23        52.1805   81.1607  155.3029 H         1 B3L         0.0232
     73 H24        52.4982   81.5023  153.5682 H         1 B3L         0.0232
     74 H25        53.6224   82.1199  154.8258 H         1 B3L         0.0232
     75 H26        53.2781   77.9391  154.1384 H         1 B3L         0.0232
     76 H27        52.1899   79.0940  153.2968 H         1 B3L         0.0232
     77 H28        52.0580   78.8679  155.0739 H         1 B3L         0.0232
     78 H29        57.5309   80.5875  150.3445 H         1 HLX         0.1883
     79 H30        55.5574   79.5335  148.3853 H         1 HLX         0.0800
     80 H31        54.4781   81.3886  149.4694 H         1 HLX         0.0312
     81 H32        54.8536   81.7358  147.7474 H         1 HLX         0.0312
     82 H33        56.8310   82.9562  148.4155 H         1 HLX         0.0270
     83 H34        56.4813   82.5921  150.1394 H         1 HLX         0.0270
     84 H35        54.8774   84.2643  148.1721 H         1 HLX         0.0296
     85 H36        54.8753   85.8695  150.0745 H         1 HLX         0.0232
     86 H37        56.5585   85.3992  149.6593 H         1 HLX         0.0232
     87 H38        55.7497   84.6726  151.0893 H         1 HLX         0.0232
     88 H39        53.2465   82.8409  149.4409 H         1 HLX         0.0232
     89 H40        53.1719   84.5645  149.9411 H         1 HLX         0.0232
     90 H41        54.0198   83.3651  150.9751 H         1 HLX         0.0232
     91 H42        55.9654   80.2914  146.2528 H         1 1U8         0.1885
     92 H43        58.9018   80.3730  145.7553 H         1 1U8         0.0810
     93 H44        58.1288   79.3680  143.4976 H         1 1U8         0.0479
     94 H45        56.5664   79.0823  144.3366 H         1 1U8         0.0479
     95 H46        57.2067   83.7322  144.4041 H         1 1U8         0.0459
     96 H47        57.6502   83.1730  146.0524 H         1 1U8         0.0459
     97 H48        56.1032   82.6420  145.3097 H         1 1U8         0.0459
@<TRIPOS>BOND
     1    1    2 2  
     2    1    3 1  
     3    4    1 am 
     4    5    4 1  
     5    6    5 1  
     6    5    8 1  
     7    6    7 2  
     8   15    6 am 
     9    8    9 1  
    10    9   10 ar 
    11    9   14 ar 
    12   10   11 ar 
    13   11   12 ar 
    14   13   12 ar 
    15   14   13 ar 
    16   16   15 1  
    17   17   16 1  
    18   16   19 1  
    19   17   18 2  
    20   27   17 am 
    21   19   20 1  
    22   20   21 ar 
    23   20   22 ar 
    24   24   23 2  
    25   25   24 1  
    26   24   32 am 
    27   26   25 1  
    28   26   27 1  
    29   26   28 1  
    30   28   29 1  
    31   29   30 1  
    32   29   31 1  
    33   32   33 1  
    34   33   34 1  
    35   33   36 1  
    36   34   35 2  
    37   34   41 am 
    38   36   37 1  
    39   37   38 1  
    40   38   39 1  
    41   38   40 1  
    42   41   42 1  
    43   42   43 1  
    44   42   45 1  
    45   43   44 2  
    46   43   49 1  
    47   45   46 1  
    48   46   47 ar 
    49   46   48 ar 
    50    3   50 1  
    51    3   51 1  
    52    3   52 1  
    53    4   53 1  
    54    5   54 1  
    55    8   55 1  
    56    8   56 1  
    57   10   57 1  
    58   12   58 1  
    59   13   59 1  
    60   14   60 1  
    61   15   61 1  
    62   16   62 1  
    63   19   63 1  
    64   19   64 1  
    65   25   65 1  
    66   25   66 1  
    67   26   67 1  
    68   27   68 1  
    69   28   69 1  
    70   28   70 1  
    71   29   71 1  
    72   30   72 1  
    73   30   73 1  
    74   30   74 1  
    75   31   75 1  
    76   31   76 1  
    77   31   77 1  
    78   32   78 1  
    79   33   79 1  
    80   36   80 1  
    81   36   81 1  
    82   37   82 1  
    83   37   83 1  
    84   38   84 1  
    85   39   85 1  
    86   39   86 1  
    87   39   87 1  
    88   40   88 1  
    89   40   89 1  
    90   40   90 1  
    91   41   91 1  
    92   42   92 1  
    93   45   93 1  
    94   45   94 1  
    95   49   95 1  
    96   49   96 1  
    97   49   97 1  
@<TRIPOS>SUBSTRUCTURE
     1 ACE         1

