4jj7_ligand
  -I-interpret- 

 99 99  0  0  0  0  0  0  0  0999 V2000
   59.6150   81.4910  154.9560 C   0  0  0  0  0
   59.2250   80.9570  153.9200 O   0  0  0  0  0
   59.3310   82.9360  155.2880 C   0  0  0  0  0
   60.2980   80.8370  155.9040 N   0  0  0  0  0
   60.6720   79.4310  155.6410 C   0  0  0  0  0
   59.4870   78.4910  155.5250 C   0  0  0  0  0
   59.4610   77.6260  154.6590 O   0  0  0  0  0
   61.5900   78.9680  156.8080 C   0  0  0  0  0
   61.9140   77.5090  156.6760 C   0  0  0  0  0
   62.9680   77.0830  155.8520 C   0  0  0  0  0
   63.2770   75.8010  155.6700 N   0  0  0  0  0
   62.5600   74.8590  156.3100 C   0  0  0  0  0
   61.5160   75.1810  157.1740 C   0  0  0  0  0
   61.1860   76.5250  157.3480 C   0  0  0  0  0
   58.4870   78.6200  156.4050 N   0  0  0  0  0
   57.3980   77.6630  156.4200 C   0  0  0  0  0
   56.4920   77.7820  155.2110 C   0  0  0  0  0
   55.7710   76.8420  154.8930 O   0  0  0  0  0
   56.5480   77.7680  157.6870 C   0  0  0  0  0
   57.2460   77.2580  158.9410 C   0  0  0  0  0
   58.2080   76.4380  158.8750 O   0  0  0  0  0
   56.7270   77.6590  160.0280 O   0  0  0  0  0
   55.0870   78.5930  150.5110 O   0  0  0  0  0
   56.1120   79.2440  150.8050 C   0  0  0  0  0
   56.7630   79.0100  152.1630 C   0  0  0  0  0
   55.7680   79.0730  153.3010 C   0  0  0  0  0
   56.5010   78.9440  154.5620 N   0  0  0  0  0
   54.8740   80.2510  153.3420 C   0  0  0  0  0
   53.7720   80.0210  154.4400 C   0  0  0  0  0
   52.9640   81.2860  154.5410 C   0  0  0  0  0
   52.7530   78.9020  154.2220 C   0  0  0  0  0
   56.7080   80.1150  150.0290 N   0  0  0  0  0
   56.1660   80.3940  148.7000 C   0  0  0  0  0
   57.2920   80.5390  147.7270 C   0  0  0  0  0
   58.4410   80.7440  148.0840 O   0  0  0  0  0
   55.2860   81.5690  148.7450 C   0  0  0  0  0
   56.0350   82.7530  149.1470 C   0  0  0  0  0
   55.0750   83.9260  149.2000 C   0  0  0  0  0
   55.6000   85.0420  150.0640 C   0  0  0  0  0
   53.7920   83.6560  149.9390 C   0  0  0  0  0
   56.9360   80.4140  146.4600 N   0  0  0  0  0
   57.8870   80.4450  145.3370 C   0  0  0  0  0
   57.8290   81.7330  144.5370 C   0  0  0  0  0
   58.2210   81.7750  143.3880 O   0  0  0  0  0
   57.6490   79.2180  144.4760 C   0  0  0  0  0
   58.2260   77.9680  145.1250 C   0  0  0  0  0
   57.7470   76.8570  144.8060 O   0  0  0  0  0
   59.1980   78.0870  145.9280 O   0  0  0  0  0
   57.1560   82.8910  145.1110 C   0  0  0  0  0
   59.7599   83.5757  154.5167 H   0  0  0  0  0
   58.2532   83.0920  155.3333 H   0  0  0  0  0
   59.7756   83.1799  156.2529 H   0  0  0  0  0
   60.5522   81.2942  156.7796 H   0  0  0  0  0
   61.1754   79.3928  154.6750 H   0  0  0  0  0
   61.0709   79.1310  157.7525 H   0  0  0  0  0
   62.5171   79.5404  156.7773 H   0  0  0  0  0
   63.5616   77.8381  155.3367 H   0  0  0  0  0
   62.8043   73.8093  156.1469 H   0  0  0  0  0
   60.9691   74.4001  157.7024 H   0  0  0  0  0
   60.3634   76.8060  158.0057 H   0  0  0  0  0
   58.4910   79.3950  157.0681 H   0  0  0  0  0
   57.8843   76.6878  156.3954 H   0  0  0  0  0
   55.6618   77.1517  157.5354 H   0  0  0  0  0
   56.3288   78.8241  157.8442 H   0  0  0  0  0
   56.0162   78.2744  159.8340 H   0  0  0  0  0
   57.5039   79.7938  152.3203 H   0  0  0  0  0
   57.2045   78.0134  152.1571 H   0  0  0  0  0
   55.0798   78.2450  153.1311 H   0  0  0  0  0
   57.0151   79.7394  154.9406 H   0  0  0  0  0
   54.4007   80.3867  152.3696 H   0  0  0  0  0
   55.4525   81.1427  153.5836 H   0  0  0  0  0
   54.3444   79.7303  155.3209 H   0  0  0  0  0
   53.6175   82.1115  154.8232 H   0  0  0  0  0
   52.5031   81.4992  153.5765 H   0  0  0  0  0
   52.1880   81.1607  155.2962 H   0  0  0  0  0
   52.1984   79.0914  153.3030 H   0  0  0  0  0
   53.2742   77.9479  154.1433 H   0  0  0  0  0
   52.0626   78.8718  155.0649 H   0  0  0  0  0
   57.5474   80.5970  150.3508 H   0  0  0  0  0
   55.5484   79.5627  148.3600 H   0  0  0  0  0
   54.4922   81.3892  149.4700 H   0  0  0  0  0
   54.8666   81.7354  147.7528 H   0  0  0  0  0
   56.8319   82.9532  148.4308 H   0  0  0  0  0
   56.4881   82.5952  150.1257 H   0  0  0  0  0
   54.9421   84.1438  148.1403 H   0  0  0  0  0
   55.7479   84.6747  151.0795 H   0  0  0  0  0
   56.5497   85.3950  149.6620 H   0  0  0  0  0
   54.8811   85.8613  150.0736 H   0  0  0  0  0
   53.2615   82.8356  149.4557 H   0  0  0  0  0
   54.0182   83.3864  150.9706 H   0  0  0  0  0
   53.1703   84.5512  149.9240 H   0  0  0  0  0
   55.9460   80.2890  146.2486 H   0  0  0  0  0
   58.9008   80.4217  145.7366 H   0  0  0  0  0
   58.1395   79.3681  143.5142 H   0  0  0  0  0
   56.5744   79.0819  144.3546 H   0  0  0  0  0
   59.4096   79.0170  146.0369 H   0  0  0  0  0
   57.8284   83.7486  145.0884 H   0  0  0  0  0
   56.2609   83.1141  144.5304 H   0  0  0  0  0
   56.8771   82.6734  146.1420 H   0  0  0  0  0
  1  2  2  0  0  0
  1  3  1  0  0  0
  4  1  1  0  0  0
  5  4  1  0  0  0
  6  5  1  0  0  0
  5  8  1  0  0  0
  6  7  2  0  0  0
 15  6  1  0  0  0
  8  9  1  0  0  0
  9 10  4  0  0  0
  9 14  4  0  0  0
 10 11  4  0  0  0
 11 12  4  0  0  0
 13 12  4  0  0  0
 14 13  4  0  0  0
 16 15  1  0  0  0
 17 16  1  0  0  0
 16 19  1  0  0  0
 17 18  2  0  0  0
 27 17  1  0  0  0
 19 20  1  0  0  0
 20 21  2  0  0  0
 20 22  1  0  0  0
 24 23  2  0  0  0
 25 24  1  0  0  0
 24 32  1  0  0  0
 26 25  1  0  0  0
 26 27  1  0  0  0
 26 28  1  0  0  0
 28 29  1  0  0  0
 29 30  1  0  0  0
 29 31  1  0  0  0
 32 33  1  0  0  0
 33 34  1  0  0  0
 33 36  1  0  0  0
 34 35  2  0  0  0
 34 41  1  0  0  0
 36 37  1  0  0  0
 37 38  1  0  0  0
 38 39  1  0  0  0
 38 40  1  0  0  0
 41 42  1  0  0  0
 42 43  1  0  0  0
 42 45  1  0  0  0
 43 44  2  0  0  0
 43 49  1  0  0  0
 45 46  1  0  0  0
 46 47  2  0  0  0
 46 48  1  0  0  0
  3 50  1  0  0  0
  3 51  1  0  0  0
  3 52  1  0  0  0
  4 53  1  0  0  0
  5 54  1  0  0  0
  8 55  1  0  0  0
  8 56  1  0  0  0
 10 57  1  0  0  0
 12 58  1  0  0  0
 13 59  1  0  0  0
 14 60  1  0  0  0
 15 61  1  0  0  0
 16 62  1  0  0  0
 19 63  1  0  0  0
 19 64  1  0  0  0
 22 65  1  0  0  0
 25 66  1  0  0  0
 25 67  1  0  0  0
 26 68  1  0  0  0
 27 69  1  0  0  0
 28 70  1  0  0  0
 28 71  1  0  0  0
 29 72  1  0  0  0
 30 73  1  0  0  0
 30 74  1  0  0  0
 30 75  1  0  0  0
 31 76  1  0  0  0
 31 77  1  0  0  0
 31 78  1  0  0  0
 32 79  1  0  0  0
 33 80  1  0  0  0
 36 81  1  0  0  0
 36 82  1  0  0  0
 37 83  1  0  0  0
 37 84  1  0  0  0
 38 85  1  0  0  0
 39 86  1  0  0  0
 39 87  1  0  0  0
 39 88  1  0  0  0
 40 89  1  0  0  0
 40 90  1  0  0  0
 40 91  1  0  0  0
 41 92  1  0  0  0
 42 93  1  0  0  0
 45 94  1  0  0  0
 45 95  1  0  0  0
 48 96  1  0  0  0
 49 97  1  0  0  0
 49 98  1  0  0  0
 49 99  1  0  0  0
M  END
$$$$
