4pnl_ligand
  -I-interpret- 

 22 23  0  0  0  0  0  0  0  0999 V2000
   24.5070   44.5140   -1.0850 C   0  0  0  0  0
   24.3460   46.0300   -1.1040 C   0  0  0  0  0
   25.1900   46.8270   -0.4190 N   0  0  0  0  0
   25.0820   48.1850   -0.4300 C   0  0  0  0  0
   26.1660   48.8990    0.4080 C   0  0  0  0  0
   26.1690   50.4370    0.3040 C   0  0  0  0  0
   24.5000   51.1780    0.2950 S   0  0  0  0  0
   23.8270   50.3370   -1.1880 C   0  0  0  0  0
   24.0270   48.8070   -1.1490 C   0  0  0  0  0
   23.1540   47.9790   -1.8750 C   0  0  0  0  0
   22.2380   48.4440   -2.5610 O   0  0  0  0  0
   23.3120   46.5950   -1.8590 N   0  0  0  0  0
   25.4863   44.2489   -1.4836 H   0  0  0  0  0
   24.4208   44.1536   -0.0599 H   0  0  0  0  0
   23.7286   44.0595   -1.6979 H   0  0  0  0  0
   27.1295   48.5579    0.0293 H   0  0  0  0  0
   25.9652   48.6563    1.4515 H   0  0  0  0  0
   26.6458   50.6981   -0.6408 H   0  0  0  0  0
   26.6906   50.8211    1.1806 H   0  0  0  0  0
   24.3571   50.7212   -2.0595 H   0  0  0  0  0
   22.7555   50.5331   -1.2260 H   0  0  0  0  0
   22.6796   45.9987   -2.3929 H   0  0  0  0  0
  1  2  1  0  0  0
  2  3  2  0  0  0
  2 12  1  0  0  0
  3  4  1  0  0  0
  4  5  1  0  0  0
  4  9  2  0  0  0
  5  6  1  0  0  0
  6  7  1  0  0  0
  7  8  1  0  0  0
  8  9  1  0  0  0
  9 10  1  0  0  0
 10 11  2  0  0  0
 10 12  1  0  0  0
  1 13  1  0  0  0
  1 14  1  0  0  0
  1 15  1  0  0  0
  5 16  1  0  0  0
  5 17  1  0  0  0
  6 18  1  0  0  0
  6 19  1  0  0  0
  8 20  1  0  0  0
  8 21  1  0  0  0
 12 22  1  0  0  0
M  END
$$$$
