### 
### Created by X-TOOL on Mon Sep 10 21:13:07 2018
### 

@<TRIPOS>MOLECULE
3pkn_ligand
  187   189     1     0     0
SMALL
GAST_HUCK


@<TRIPOS>ATOM
      1 N          -0.6840   14.1740    7.1180 N.4       1 LEU         0.2379
      2 CA         -1.9700   13.5440    7.5450 C.3       1 LEU         0.0652
      3 C          -3.1290   13.9790    6.6600 C.2       1 LEU         0.2268
      4 O          -3.3310   15.1710    6.4360 O.2       1 LEU        -0.3907
      5 CB         -2.2870   13.9000    9.0020 C.3       1 LEU         0.0102
      6 CG         -1.5380   13.2220   10.1520 C.3       1 LEU        -0.0394
      7 CD1        -1.4680   11.7020    9.9470 C.3       1 LEU        -0.0623
      8 CD2        -0.1500   13.8380   10.3650 C.3       1 LEU        -0.0623
      9 N          -3.9100   13.0110    6.1930 N.am      1 ASN        -0.2589
     10 CA         -4.9890   13.2760    5.2480 C.3       1 ASN         0.1479
     11 C          -6.3770   13.2460    5.8890 C.2       1 ASN         0.2088
     12 O          -6.8870   12.1600    6.1890 O.2       1 ASN        -0.3940
     13 CB         -4.9060   12.2870    4.0790 C.3       1 ASN         0.0773
     14 CG         -6.1720   12.2480    3.2410 C.2       1 ASN         0.1780
     15 OD1        -6.7630   13.2830    2.9250 O.2       1 ASN        -0.3970
     16 ND2        -6.5870   11.0420    2.8630 N.am      1 ASN        -0.3007
     17 N          -7.0030   14.4330    6.0880 N.am      1 PRO        -0.2497
     18 CA         -8.3200   14.4930    6.7150 C.3       1 PRO         0.1338
     19 C          -9.4260   13.8510    5.8790 C.2       1 PRO         0.2042
     20 O         -10.5400   13.6790    6.3750 O.2       1 PRO        -0.3944
     21 CB         -8.5690   16.0010    6.8850 C.3       1 PRO        -0.0104
     22 CG         -7.7060   16.6480    5.8560 C.3       1 PRO        -0.0281
     23 CD         -6.4980   15.7760    5.7470 C.3       1 PRO         0.0369
     24 N          -9.1230   13.4910    4.6330 N.am      1 ASN        -0.2616
     25 CA        -10.0860   12.7870    3.7910 C.3       1 ASN         0.1476
     26 C         -10.0360   11.2590    3.9070 C.2       1 ASN         0.2062
     27 O         -10.7540   10.5630    3.1920 O.2       1 ASN        -0.3942
     28 CB         -9.9360   13.2190    2.3250 C.3       1 ASN         0.0773
     29 CG        -10.1680   14.7030    2.1300 C.2       1 ASN         0.1780
     30 OD1       -11.2770   15.2040    2.3300 O.2       1 ASN        -0.3970
     31 ND2        -9.1190   15.4190    1.7350 N.am      1 ASN        -0.3007
     32 N          -9.1940   10.7380    4.7940 N.am      1 ALA        -0.2639
     33 CA         -9.0480    9.2920    4.9570 C.3       1 ALA         0.1282
     34 C         -10.3720    8.5760    5.2450 C.2       1 ALA         0.2036
     35 O         -11.2630    9.1340    5.8870 O.2       1 ALA        -0.3944
     36 CB         -8.0320    8.9820    6.0570 C.3       1 ALA        -0.0244
     37 N         -10.4810    7.3350    4.7740 N.am      1 LYS        -0.2637
     38 CA        -11.6340    6.4770    5.0590 C.3       1 LYS         0.1310
     39 C         -11.7720    6.1550    6.5560 C.2       1 LYS         0.2039
     40 O         -10.7960    5.7960    7.2120 O.2       1 LYS        -0.3944
     41 CB        -11.5140    5.1790    4.2580 C.3       1 LYS        -0.0122
     42 CG        -12.8390    4.5770    3.8200 C.3       1 LYS        -0.0440
     43 CD        -13.3230    3.5480    4.8200 C.3       1 LYS        -0.0124
     44 CE        -13.0590    2.1400    4.3170 C.3       1 LYS        -0.0354
     45 NZ        -14.1910    1.6960    3.4670 N.4       1 LYS         0.2185
     46 N         -12.9930    6.2600    7.0740 N.am      1 VAL        -0.2635
     47 CA        -13.2920    5.9600    8.4880 C.3       1 VAL         0.1333
     48 C         -13.1760    4.4690    8.8320 C.2       1 VAL         0.2042
     49 O         -13.7720    3.6060    8.1590 O.2       1 VAL        -0.3944
     50 CB        -14.7140    6.4560    8.8680 C.3       1 VAL        -0.0063
     51 CG1       -15.0780    6.0670   10.3080 C.3       1 VAL        -0.0584
     52 CG2       -14.8140    7.9750    8.6750 C.3       1 VAL        -0.0584
     53 N         -12.4120    4.1800    9.8850 N.am      1 TRP        -0.2627
     54 CA        -12.2570    2.8240   10.4220 C.3       1 TRP         0.1352
     55 C         -13.5230    2.3330   11.1420 C.2       1 TRP         0.2052
     56 O         -14.1370    3.0710   11.9320 O.2       1 TRP        -0.3942
     57 CB        -11.0770    2.7750   11.4090 C.3       1 TRP         0.0042
     58 CG        -10.9020    1.4240   12.0470 C.2       1 TRP        -0.0418
     59 CD1       -11.2970    1.0400   13.3030 C.2       1 TRP         0.0167
     60 CD2       -10.2990    0.2780   11.4500 C.ar      1 TRP        -0.0214
     61 NE1       -10.9740   -0.2870   13.5180 N.pl3     1 TRP        -0.2890
     62 CE2       -10.3680   -0.7750   12.3900 C.ar      1 TRP         0.0603
     63 CE3        -9.7260    0.0290   10.1970 C.ar      1 TRP        -0.0747
     64 CZ2        -9.8580   -2.0410   12.1250 C.ar      1 TRP        -0.0443
     65 CZ3        -9.2230   -1.2200    9.9400 C.ar      1 TRP        -0.0792
     66 CH2        -9.2950   -2.2450   10.8970 C.ar      1 TRP        -0.0768
     67 N         -13.9010    1.0850   10.8720 N.am      1 GLN        -0.2635
     68 CA        -14.9770    0.4210   11.6190 C.3       1 GLN         0.1330
     69 C         -14.4100   -0.8090   12.3010 C.2       1 GLN         0.2040
     70 O         -13.8340   -1.6520   11.6420 O.2       1 GLN        -0.3944
     71 CB        -16.1220    0.0250   10.6870 C.3       1 GLN         0.0045
     72 CG        -16.7900    1.2030    9.9990 C.3       1 GLN         0.0412
     73 CD        -18.0010    0.7990    9.1970 C.2       1 GLN         0.1737
     74 OE1       -18.8660    0.0610    9.6730 O.2       1 GLN        -0.3973
     75 NE2       -18.0800    1.2910    7.9680 N.am      1 GLN        -0.3009
     76 N         -14.5660   -0.9100   13.6160 N.am      1 GLU        -0.2636
     77 CA        -13.8790   -1.9490   14.3920 C.3       1 GLU         0.1324
     78 C         -14.6650   -3.2590   14.4590 C.2       1 GLU         0.2035
     79 O         -15.8960   -3.2530   14.4330 O.2       1 GLU        -0.3944
     80 CB        -13.5690   -1.4480   15.8150 C.3       1 GLU        -0.0008
     81 CG        -12.8890   -2.4840   16.7470 C.3       1 GLU         0.0044
     82 CD        -11.3690   -2.4250   16.7310 C.2       1 GLU         0.0350
     83 OE1       -10.8090   -1.8000   15.8210 O.co2     1 GLU        -0.5690
     84 OE2       -10.7260   -3.0000   17.6440 O.co2     1 GLU        -0.5690
     85 N         -13.9470   -4.3780   14.5540 N.am      1 ILE        -0.2692
     86 CA        -14.5740   -5.6740   14.8060 C.3       1 ILE         0.0969
     87 C         -14.2010   -6.2330   16.1820 C.2       1 ILE         0.0604
     88 O         -13.0480   -6.1530   16.6130 O.co2     1 ILE        -0.5666
     89 CB        -14.2630   -6.7000   13.6850 C.3       1 ILE        -0.0092
     90 CG1       -15.3340   -6.6400   12.5910 C.3       1 ILE        -0.0497
     91 CG2       -14.2410   -8.1170   14.2380 C.3       1 ILE        -0.0588
     92 CD1       -15.2280   -5.4420   11.6630 C.3       1 ILE        -0.0649
     93 H          -0.4909   13.9258    6.1477 H         1 LEU         0.2015
     94 H          -0.7589   15.1877    7.2025 H         1 LEU         0.2015
     95 H           0.0725   13.8370    7.7134 H         1 LEU         0.2015
     96 H          -1.8462   12.4653    7.4496 H         1 LEU         0.1098
     97 H          -3.3220   13.5849    9.1348 H         1 LEU         0.0348
     98 H          -2.0108   14.9510    9.0863 H         1 LEU         0.0348
     99 H          -2.1038   13.4002   11.0665 H         1 LEU         0.0299
    100 H          -0.8595   11.4826    9.0697 H         1 LEU         0.0232
    101 H          -1.0206   11.2383   10.8262 H         1 LEU         0.0232
    102 H          -2.4743   11.3098    9.8001 H         1 LEU         0.0232
    103 H           0.3107   13.3958   11.2484 H         1 LEU         0.0232
    104 H           0.4718   13.6402    9.4919 H         1 LEU         0.0232
    105 H          -0.2493   14.9143   10.5056 H         1 LEU         0.0232
    106 H          -3.7502   12.0531    6.5049 H         1 ASN         0.1886
    107 H          -4.8522   14.2934    4.8816 H         1 ASN         0.0826
    108 H          -4.7546   11.2918    4.4971 H         1 ASN         0.0551
    109 H          -4.0898   12.6072    3.4314 H         1 ASN         0.0551
    110 H          -7.4248   10.9477    2.2889 H         1 ASN         0.1814
    111 H          -6.0674   10.2116    3.1472 H         1 ASN         0.1814
    112 H          -8.3376   13.9326    7.6497 H         1 PRO         0.0802
    113 H          -8.3252   16.3416    7.8913 H         1 PRO         0.0313
    114 H          -9.6203   16.2562    6.7516 H         1 PRO         0.0313
    115 H          -7.4404   17.6666    6.1390 H         1 PRO         0.0287
    116 H          -8.2220   16.7388    4.9002 H         1 PRO         0.0287
    117 H          -6.0485   15.8112    4.7546 H         1 PRO         0.0524
    118 H          -5.6928   16.0972    6.4078 H         1 PRO         0.0524
    119 H          -8.1998   13.7115    4.2595 H         1 ASN         0.1885
    120 H         -11.0674   13.0767    4.1666 H         1 ASN         0.0826
    121 H         -10.6819   12.6824    1.7386 H         1 ASN         0.0551
    122 H          -8.9167   12.9942    2.0111 H         1 ASN         0.0551
    123 H          -9.2142   16.4235    1.5858 H         1 ASN         0.1814
    124 H          -8.2194   14.9635    1.5812 H         1 ASN         0.1814
    125 H          -8.6356   11.3626    5.3757 H         1 ALA         0.1883
    126 H          -8.6887    8.9093    4.0017 H         1 ALA         0.0797
    127 H          -7.0661    9.4099    5.7887 H         1 ALA         0.0277
    128 H          -8.3736    9.4141    6.9976 H         1 ALA         0.0277
    129 H          -7.9347    7.9018    6.1660 H         1 ALA         0.0277
    130 H          -9.7302    6.9663    4.1903 H         1 LYS         0.1883
    131 H         -12.5302    7.0226    4.7636 H         1 LYS         0.0800
    132 H         -11.0336    4.4483    4.9087 H         1 LYS         0.0312
    133 H         -10.9586    5.4167    3.3507 H         1 LYS         0.0312
    134 H         -12.7001    4.0893    2.8551 H         1 LYS         0.0269
    135 H         -13.5798    5.3736    3.7509 H         1 LYS         0.0269
    136 H         -14.3962    3.6745    4.9624 H         1 LYS         0.0317
    137 H         -12.7877    3.6917    5.7586 H         1 LYS         0.0317
    138 H         -12.9568    1.4647    5.1665 H         1 LYS         0.0813
    139 H         -12.1400    2.1307    3.7309 H         1 LYS         0.0813
    140 H         -14.0113    0.7501    3.1304 H         1 LYS         0.1994
    141 H         -15.0507    1.7053    4.0158 H         1 LYS         0.1994
    142 H         -14.2865    2.3285    2.6725 H         1 LYS         0.1994
    143 H         -13.7558    6.5610    6.4675 H         1 VAL         0.1883
    144 H         -12.5372    6.4918    9.0673 H         1 VAL         0.0802
    145 H         -15.4298    5.9690    8.2057 H         1 VAL         0.0343
    146 H         -15.0519    4.9819   10.4075 H         1 VAL         0.0234
    147 H         -14.3603    6.5136   10.9961 H         1 VAL         0.0234
    148 H         -16.0794    6.4303   10.5391 H         1 VAL         0.0234
    149 H         -14.0807    8.4699    9.3117 H         1 VAL         0.0234
    150 H         -14.6163    8.2212    7.6317 H         1 VAL         0.0234
    151 H         -15.8158    8.3091    8.9450 H         1 VAL         0.0234
    152 H         -11.9090    4.9412   10.3411 H         1 TRP         0.1884
    153 H         -12.0709    2.1683    9.5714 H         1 TRP         0.0815
    154 H         -11.2775    3.4943   12.2030 H         1 TRP         0.0397
    155 H         -10.1677    2.9999   10.8517 H         1 TRP         0.0397
    156 H         -11.7933    1.6869   14.0264 H         1 TRP         0.0795
    157 H         -11.1561   -0.8139   14.3722 H         1 TRP         0.2216
    158 H          -9.6808    0.8128    9.4409 H         1 TRP         0.0540
    159 H          -9.9054   -2.8383   12.8668 H         1 TRP         0.0541
    160 H          -8.7585   -1.4212    8.9747 H         1 TRP         0.0510
    161 H          -8.8916   -3.2280   10.6541 H         1 TRP         0.0530
    162 H         -13.4295    0.5755   10.1247 H         1 GLN         0.1883
    163 H         -15.3754    1.1097   12.3641 H         1 GLN         0.0801
    164 H         -16.8801   -0.4678   11.2957 H         1 GLN         0.0337
    165 H         -15.7010   -0.6099    9.9074 H         1 GLN         0.0337
    166 H         -16.0666    1.6439    9.3132 H         1 GLN         0.0504
    167 H         -17.1172    1.8995   10.7709 H         1 GLN         0.0504
    168 H         -18.8794    1.0620    7.3774 H         1 GLN         0.1814
    169 H         -17.3413    1.8984    7.6134 H         1 GLN         0.1814
    170 H         -15.1772   -0.2505   14.0975 H         1 GLU         0.1883
    171 H         -12.9468   -2.1598   13.8679 H         1 GLU         0.0801
    172 H         -14.5254   -1.1958   16.2730 H         1 GLU         0.0330
    173 H         -12.8712   -0.6174   15.7090 H         1 GLU         0.0330
    174 H         -13.1783   -3.4745   16.3957 H         1 GLU         0.0433
    175 H         -13.2108   -2.2641   17.7649 H         1 GLU         0.0433
    176 H         -12.9337   -4.3286   14.4481 H         1 ILE         0.1875
    177 H         -15.6503   -5.5017   14.8017 H         1 ILE         0.0729
    178 O         -15.0880   -6.7846   16.8867 O.co2     1 ILE        -0.5666
    179 H         -13.2861   -6.4452   13.2742 H         1 ILE         0.0338
    180 H         -16.2979   -6.5666   13.0946 H         1 ILE         0.0267
    181 H         -15.2081   -7.5303   11.9749 H         1 ILE         0.0267
    182 H         -13.4726   -8.1935   15.0073 H         1 ILE         0.0234
    183 H         -15.2138   -8.3523   14.6696 H         1 ILE         0.0234
    184 H         -14.0208   -8.8169   13.4319 H         1 ILE         0.0234
    185 H         -15.3191   -4.5245   12.2444 H         1 ILE         0.0230
    186 H         -14.2621   -5.4594   11.1582 H         1 ILE         0.0230
    187 H         -16.0270   -5.4855   10.9229 H         1 ILE         0.0230
@<TRIPOS>BOND
     1    1    2 1  
     2    2    3 1  
     3    2    5 1  
     4    3    4 2  
     5    3    9 am 
     6    5    6 1  
     7    6    7 1  
     8    6    8 1  
     9    9   10 1  
    10   10   11 1  
    11   10   13 1  
    12   11   12 2  
    13   11   17 am 
    14   13   14 1  
    15   14   15 2  
    16   14   16 am 
    17   17   18 1  
    18   17   23 1  
    19   18   19 1  
    20   18   21 1  
    21   19   20 2  
    22   19   24 am 
    23   21   22 1  
    24   22   23 1  
    25   24   25 1  
    26   25   26 1  
    27   25   28 1  
    28   26   27 2  
    29   26   32 am 
    30   28   29 1  
    31   29   30 2  
    32   29   31 am 
    33   32   33 1  
    34   33   34 1  
    35   33   36 1  
    36   34   35 2  
    37   34   37 am 
    38   37   38 1  
    39   38   39 1  
    40   38   41 1  
    41   39   40 2  
    42   39   46 am 
    43   41   42 1  
    44   42   43 1  
    45   43   44 1  
    46   44   45 1  
    47   46   47 1  
    48   47   48 1  
    49   47   50 1  
    50   48   49 2  
    51   48   53 am 
    52   50   51 1  
    53   50   52 1  
    54   53   54 1  
    55   54   55 1  
    56   54   57 1  
    57   55   56 2  
    58   55   67 am 
    59   57   58 1  
    60   58   59 2  
    61   58   60 1  
    62   59   61 1  
    63   60   62 ar 
    64   60   63 ar 
    65   61   62 1  
    66   62   64 ar 
    67   63   65 ar 
    68   64   66 ar 
    69   65   66 ar 
    70   67   68 1  
    71   68   69 1  
    72   68   71 1  
    73   69   70 2  
    74   69   76 am 
    75   71   72 1  
    76   72   73 1  
    77   73   74 2  
    78   73   75 am 
    79   76   77 1  
    80   77   78 1  
    81   77   80 1  
    82   78   79 2  
    83   78   85 am 
    84   80   81 1  
    85   81   82 1  
    86   82   83 ar 
    87   82   84 ar 
    88   85   86 1  
    89   86   87 1  
    90   86   89 1  
    91   87   88 ar 
    92   89   90 1  
    93   89   91 1  
    94   90   92 1  
    95    1   93 1  
    96    1   94 1  
    97    1   95 1  
    98    2   96 1  
    99    5   97 1  
   100    5   98 1  
   101    6   99 1  
   102    7  100 1  
   103    7  101 1  
   104    7  102 1  
   105    8  103 1  
   106    8  104 1  
   107    8  105 1  
   108    9  106 1  
   109   10  107 1  
   110   13  108 1  
   111   13  109 1  
   112   16  110 1  
   113   16  111 1  
   114   18  112 1  
   115   21  113 1  
   116   21  114 1  
   117   22  115 1  
   118   22  116 1  
   119   23  117 1  
   120   23  118 1  
   121   24  119 1  
   122   25  120 1  
   123   28  121 1  
   124   28  122 1  
   125   31  123 1  
   126   31  124 1  
   127   32  125 1  
   128   33  126 1  
   129   36  127 1  
   130   36  128 1  
   131   36  129 1  
   132   37  130 1  
   133   38  131 1  
   134   41  132 1  
   135   41  133 1  
   136   42  134 1  
   137   42  135 1  
   138   43  136 1  
   139   43  137 1  
   140   44  138 1  
   141   44  139 1  
   142   45  140 1  
   143   45  141 1  
   144   45  142 1  
   145   46  143 1  
   146   47  144 1  
   147   50  145 1  
   148   51  146 1  
   149   51  147 1  
   150   51  148 1  
   151   52  149 1  
   152   52  150 1  
   153   52  151 1  
   154   53  152 1  
   155   54  153 1  
   156   57  154 1  
   157   57  155 1  
   158   59  156 1  
   159   61  157 1  
   160   63  158 1  
   161   64  159 1  
   162   65  160 1  
   163   66  161 1  
   164   67  162 1  
   165   68  163 1  
   166   71  164 1  
   167   71  165 1  
   168   72  166 1  
   169   72  167 1  
   170   75  168 1  
   171   75  169 1  
   172   76  170 1  
   173   77  171 1  
   174   80  172 1  
   175   80  173 1  
   176   81  174 1  
   177   81  175 1  
   178   85  176 1  
   179   86  177 1  
   180   87  178 ar 
   181   89  179 1  
   182   90  180 1  
   183   90  181 1  
   184   91  182 1  
   185   91  183 1  
   186   91  184 1  
   187   92  185 1  
   188   92  186 1  
   189   92  187 1  
@<TRIPOS>SUBSTRUCTURE
     1 LEU         1

