3pkn_ligand
  -I-interpret- 

188190  0  0  0  0  0  0  0  0999 V2000
   -0.6840   14.1740    7.1180 N   0  3  0  0  0
   -1.9700   13.5440    7.5450 C   0  0  0  0  0
   -3.1290   13.9790    6.6600 C   0  0  0  0  0
   -3.3310   15.1710    6.4360 O   0  0  0  0  0
   -2.2870   13.9000    9.0020 C   0  0  0  0  0
   -1.5380   13.2220   10.1520 C   0  0  0  0  0
   -1.4680   11.7020    9.9470 C   0  0  0  0  0
   -0.1500   13.8380   10.3650 C   0  0  0  0  0
   -3.9100   13.0110    6.1930 N   0  0  0  0  0
   -4.9890   13.2760    5.2480 C   0  0  0  0  0
   -6.3770   13.2460    5.8890 C   0  0  0  0  0
   -6.8870   12.1600    6.1890 O   0  0  0  0  0
   -4.9060   12.2870    4.0790 C   0  0  0  0  0
   -6.1720   12.2480    3.2410 C   0  0  0  0  0
   -6.7630   13.2830    2.9250 O   0  0  0  0  0
   -6.5870   11.0420    2.8630 N   0  0  0  0  0
   -7.0030   14.4330    6.0880 N   0  0  0  0  0
   -8.3200   14.4930    6.7150 C   0  0  0  0  0
   -9.4260   13.8510    5.8790 C   0  0  0  0  0
  -10.5400   13.6790    6.3750 O   0  0  0  0  0
   -8.5690   16.0010    6.8850 C   0  0  0  0  0
   -7.7060   16.6480    5.8560 C   0  0  0  0  0
   -6.4980   15.7760    5.7470 C   0  0  0  0  0
   -9.1230   13.4910    4.6330 N   0  0  0  0  0
  -10.0860   12.7870    3.7910 C   0  0  0  0  0
  -10.0360   11.2590    3.9070 C   0  0  0  0  0
  -10.7540   10.5630    3.1920 O   0  0  0  0  0
   -9.9360   13.2190    2.3250 C   0  0  0  0  0
  -10.1680   14.7030    2.1300 C   0  0  0  0  0
  -11.2770   15.2040    2.3300 O   0  0  0  0  0
   -9.1190   15.4190    1.7350 N   0  0  0  0  0
   -9.1940   10.7380    4.7940 N   0  0  0  0  0
   -9.0480    9.2920    4.9570 C   0  0  0  0  0
  -10.3720    8.5760    5.2450 C   0  0  0  0  0
  -11.2630    9.1340    5.8870 O   0  0  0  0  0
   -8.0320    8.9820    6.0570 C   0  0  0  0  0
  -10.4810    7.3350    4.7740 N   0  0  0  0  0
  -11.6340    6.4770    5.0590 C   0  0  0  0  0
  -11.7720    6.1550    6.5560 C   0  0  0  0  0
  -10.7960    5.7960    7.2120 O   0  0  0  0  0
  -11.5140    5.1790    4.2580 C   0  0  0  0  0
  -12.8390    4.5770    3.8200 C   0  0  0  0  0
  -13.3230    3.5480    4.8200 C   0  0  0  0  0
  -13.0590    2.1400    4.3170 C   0  0  0  0  0
  -14.1910    1.6960    3.4670 N   0  3  0  0  0
  -12.9930    6.2600    7.0740 N   0  0  0  0  0
  -13.2920    5.9600    8.4880 C   0  0  0  0  0
  -13.1760    4.4690    8.8320 C   0  0  0  0  0
  -13.7720    3.6060    8.1590 O   0  0  0  0  0
  -14.7140    6.4560    8.8680 C   0  0  0  0  0
  -15.0780    6.0670   10.3080 C   0  0  0  0  0
  -14.8140    7.9750    8.6750 C   0  0  0  0  0
  -12.4120    4.1800    9.8850 N   0  0  0  0  0
  -12.2570    2.8240   10.4220 C   0  0  0  0  0
  -13.5230    2.3330   11.1420 C   0  0  0  0  0
  -14.1370    3.0710   11.9320 O   0  0  0  0  0
  -11.0770    2.7750   11.4090 C   0  0  0  0  0
  -10.9020    1.4240   12.0470 C   0  0  0  0  0
  -11.2970    1.0400   13.3030 C   0  0  0  0  0
  -10.2990    0.2780   11.4500 C   0  0  0  0  0
  -10.9740   -0.2870   13.5180 N   0  0  0  0  0
  -10.3680   -0.7750   12.3900 C   0  0  0  0  0
   -9.7260    0.0290   10.1970 C   0  0  0  0  0
   -9.8580   -2.0410   12.1250 C   0  0  0  0  0
   -9.2230   -1.2200    9.9400 C   0  0  0  0  0
   -9.2950   -2.2450   10.8970 C   0  0  0  0  0
  -13.9010    1.0850   10.8720 N   0  0  0  0  0
  -14.9770    0.4210   11.6190 C   0  0  0  0  0
  -14.4100   -0.8090   12.3010 C   0  0  0  0  0
  -13.8340   -1.6520   11.6420 O   0  0  0  0  0
  -16.1220    0.0250   10.6870 C   0  0  0  0  0
  -16.7900    1.2030    9.9990 C   0  0  0  0  0
  -18.0010    0.7990    9.1970 C   0  0  0  0  0
  -18.8660    0.0610    9.6730 O   0  0  0  0  0
  -18.0800    1.2910    7.9680 N   0  0  0  0  0
  -14.5660   -0.9100   13.6160 N   0  0  0  0  0
  -13.8790   -1.9490   14.3920 C   0  0  0  0  0
  -14.6650   -3.2590   14.4590 C   0  0  0  0  0
  -15.8960   -3.2530   14.4330 O   0  0  0  0  0
  -13.5690   -1.4480   15.8150 C   0  0  0  0  0
  -12.8890   -2.4840   16.7470 C   0  0  0  0  0
  -11.3690   -2.4250   16.7310 C   0  0  0  0  0
  -10.8090   -1.8000   15.8210 O   0  0  0  0  0
  -10.7260   -3.0000   17.6440 O   0  0  0  0  0
  -13.9470   -4.3780   14.5540 N   0  0  0  0  0
  -14.5740   -5.6740   14.8060 C   0  0  0  0  0
  -14.2010   -6.2330   16.1820 C   0  0  0  0  0
  -13.0480   -6.1530   16.6130 O   0  0  0  0  0
  -14.2630   -6.7000   13.6850 C   0  0  0  0  0
  -15.3340   -6.6400   12.5910 C   0  0  0  0  0
  -14.2410   -8.1170   14.2380 C   0  0  0  0  0
  -15.2280   -5.4420   11.6630 C   0  0  0  0  0
  -15.0880   -6.7846   16.8867 O   0  0  0  0  0
   -0.4909   13.9258    6.1477 H   0  0  0  0  0
   -0.7589   15.1877    7.2025 H   0  0  0  0  0
    0.0725   13.8370    7.7134 H   0  0  0  0  0
   -1.8462   12.4653    7.4496 H   0  0  0  0  0
   -3.3220   13.5849    9.1348 H   0  0  0  0  0
   -2.0108   14.9510    9.0863 H   0  0  0  0  0
   -2.1038   13.4002   11.0665 H   0  0  0  0  0
   -0.8595   11.4826    9.0697 H   0  0  0  0  0
   -1.0206   11.2383   10.8262 H   0  0  0  0  0
   -2.4743   11.3098    9.8001 H   0  0  0  0  0
    0.3107   13.3958   11.2484 H   0  0  0  0  0
    0.4718   13.6402    9.4919 H   0  0  0  0  0
   -0.2493   14.9143   10.5056 H   0  0  0  0  0
   -3.7502   12.0531    6.5049 H   0  0  0  0  0
   -4.8522   14.2934    4.8816 H   0  0  0  0  0
   -4.7546   11.2918    4.4971 H   0  0  0  0  0
   -4.0898   12.6072    3.4314 H   0  0  0  0  0
   -7.4248   10.9477    2.2889 H   0  0  0  0  0
   -6.0674   10.2116    3.1472 H   0  0  0  0  0
   -8.3376   13.9326    7.6497 H   0  0  0  0  0
   -8.3252   16.3416    7.8913 H   0  0  0  0  0
   -9.6203   16.2562    6.7516 H   0  0  0  0  0
   -7.4404   17.6666    6.1390 H   0  0  0  0  0
   -8.2220   16.7388    4.9002 H   0  0  0  0  0
   -6.0485   15.8112    4.7546 H   0  0  0  0  0
   -5.6928   16.0972    6.4078 H   0  0  0  0  0
   -8.1998   13.7115    4.2595 H   0  0  0  0  0
  -11.0674   13.0767    4.1666 H   0  0  0  0  0
  -10.6819   12.6824    1.7386 H   0  0  0  0  0
   -8.9167   12.9942    2.0111 H   0  0  0  0  0
   -9.2142   16.4235    1.5858 H   0  0  0  0  0
   -8.2194   14.9635    1.5812 H   0  0  0  0  0
   -8.6356   11.3626    5.3757 H   0  0  0  0  0
   -8.6887    8.9093    4.0017 H   0  0  0  0  0
   -7.0661    9.4099    5.7887 H   0  0  0  0  0
   -8.3736    9.4141    6.9976 H   0  0  0  0  0
   -7.9347    7.9018    6.1660 H   0  0  0  0  0
   -9.7302    6.9663    4.1903 H   0  0  0  0  0
  -12.5302    7.0226    4.7636 H   0  0  0  0  0
  -11.0336    4.4483    4.9087 H   0  0  0  0  0
  -10.9586    5.4167    3.3507 H   0  0  0  0  0
  -12.7001    4.0893    2.8551 H   0  0  0  0  0
  -13.5798    5.3736    3.7509 H   0  0  0  0  0
  -14.3962    3.6745    4.9624 H   0  0  0  0  0
  -12.7877    3.6917    5.7586 H   0  0  0  0  0
  -12.9568    1.4647    5.1665 H   0  0  0  0  0
  -12.1400    2.1307    3.7309 H   0  0  0  0  0
  -14.0113    0.7501    3.1304 H   0  0  0  0  0
  -15.0507    1.7053    4.0158 H   0  0  0  0  0
  -14.2865    2.3285    2.6725 H   0  0  0  0  0
  -13.7558    6.5610    6.4675 H   0  0  0  0  0
  -12.5372    6.4918    9.0673 H   0  0  0  0  0
  -15.4298    5.9690    8.2057 H   0  0  0  0  0
  -15.0519    4.9819   10.4075 H   0  0  0  0  0
  -14.3603    6.5136   10.9961 H   0  0  0  0  0
  -16.0794    6.4303   10.5391 H   0  0  0  0  0
  -14.0807    8.4699    9.3117 H   0  0  0  0  0
  -14.6163    8.2212    7.6317 H   0  0  0  0  0
  -15.8158    8.3091    8.9450 H   0  0  0  0  0
  -11.9090    4.9412   10.3411 H   0  0  0  0  0
  -12.0709    2.1683    9.5714 H   0  0  0  0  0
  -11.2775    3.4943   12.2030 H   0  0  0  0  0
  -10.1677    2.9999   10.8517 H   0  0  0  0  0
  -11.7933    1.6869   14.0264 H   0  0  0  0  0
   -9.6808    0.8128    9.4409 H   0  0  0  0  0
   -9.9054   -2.8383   12.8668 H   0  0  0  0  0
   -8.7585   -1.4212    8.9747 H   0  0  0  0  0
   -8.8916   -3.2280   10.6541 H   0  0  0  0  0
  -13.4295    0.5755   10.1247 H   0  0  0  0  0
  -15.3754    1.1097   12.3641 H   0  0  0  0  0
  -16.8801   -0.4678   11.2957 H   0  0  0  0  0
  -15.7010   -0.6099    9.9074 H   0  0  0  0  0
  -16.0666    1.6439    9.3132 H   0  0  0  0  0
  -17.1172    1.8995   10.7709 H   0  0  0  0  0
  -18.8794    1.0620    7.3774 H   0  0  0  0  0
  -17.3413    1.8984    7.6134 H   0  0  0  0  0
  -15.1772   -0.2505   14.0975 H   0  0  0  0  0
  -12.9468   -2.1598   13.8679 H   0  0  0  0  0
  -14.5254   -1.1958   16.2730 H   0  0  0  0  0
  -12.8712   -0.6174   15.7090 H   0  0  0  0  0
  -13.1783   -3.4745   16.3957 H   0  0  0  0  0
  -13.2108   -2.2641   17.7649 H   0  0  0  0  0
  -11.3399   -3.4249   18.2474 H   0  0  0  0  0
  -12.9337   -4.3286   14.4481 H   0  0  0  0  0
  -15.6503   -5.5017   14.8017 H   0  0  0  0  0
  -13.2861   -6.4452   13.2742 H   0  0  0  0  0
  -16.2979   -6.5666   13.0946 H   0  0  0  0  0
  -15.2081   -7.5303   11.9749 H   0  0  0  0  0
  -13.4726   -8.1935   15.0073 H   0  0  0  0  0
  -15.2138   -8.3523   14.6696 H   0  0  0  0  0
  -14.0208   -8.8169   13.4319 H   0  0  0  0  0
  -15.3191   -4.5245   12.2444 H   0  0  0  0  0
  -14.2621   -5.4594   11.1582 H   0  0  0  0  0
  -16.0270   -5.4855   10.9229 H   0  0  0  0  0
  -15.9248   -6.7682   16.4164 H   0  0  0  0  0
  1  2  1  0  0  0
  2  3  1  0  0  0
  2  5  1  0  0  0
  3  4  2  0  0  0
  3  9  1  0  0  0
  5  6  1  0  0  0
  6  7  1  0  0  0
  6  8  1  0  0  0
  9 10  1  0  0  0
 10 11  1  0  0  0
 10 13  1  0  0  0
 11 12  2  0  0  0
 11 17  1  0  0  0
 13 14  1  0  0  0
 14 15  2  0  0  0
 14 16  1  0  0  0
 17 18  1  0  0  0
 17 23  1  0  0  0
 18 19  1  0  0  0
 18 21  1  0  0  0
 19 20  2  0  0  0
 19 24  1  0  0  0
 21 22  1  0  0  0
 22 23  1  0  0  0
 24 25  1  0  0  0
 25 26  1  0  0  0
 25 28  1  0  0  0
 26 27  2  0  0  0
 26 32  1  0  0  0
 28 29  1  0  0  0
 29 30  2  0  0  0
 29 31  1  0  0  0
 32 33  1  0  0  0
 33 34  1  0  0  0
 33 36  1  0  0  0
 34 35  2  0  0  0
 34 37  1  0  0  0
 37 38  1  0  0  0
 38 39  1  0  0  0
 38 41  1  0  0  0
 39 40  2  0  0  0
 39 46  1  0  0  0
 41 42  1  0  0  0
 42 43  1  0  0  0
 43 44  1  0  0  0
 44 45  1  0  0  0
 46 47  1  0  0  0
 47 48  1  0  0  0
 47 50  1  0  0  0
 48 49  2  0  0  0
 48 53  1  0  0  0
 50 51  1  0  0  0
 50 52  1  0  0  0
 53 54  1  0  0  0
 54 55  1  0  0  0
 54 57  1  0  0  0
 55 56  2  0  0  0
 55 67  1  0  0  0
 57 58  1  0  0  0
 58 59  4  0  0  0
 58 60  4  0  0  0
 59 61  4  0  0  0
 60 62  4  0  0  0
 60 63  4  0  0  0
 61 62  4  0  0  0
 62 64  4  0  0  0
 63 65  4  0  0  0
 64 66  4  0  0  0
 65 66  4  0  0  0
 67 68  1  0  0  0
 68 69  1  0  0  0
 68 71  1  0  0  0
 69 70  2  0  0  0
 69 76  1  0  0  0
 71 72  1  0  0  0
 72 73  1  0  0  0
 73 74  2  0  0  0
 73 75  1  0  0  0
 76 77  1  0  0  0
 77 78  1  0  0  0
 77 80  1  0  0  0
 78 79  2  0  0  0
 78 85  1  0  0  0
 80 81  1  0  0  0
 81 82  1  0  0  0
 82 83  2  0  0  0
 82 84  1  0  0  0
 85 86  1  0  0  0
 86 87  1  0  0  0
 86 89  1  0  0  0
 87 88  2  0  0  0
 89 90  1  0  0  0
 89 91  1  0  0  0
 90 92  1  0  0  0
 87 93  1  0  0  0
  1 94  1  0  0  0
  1 95  1  0  0  0
  1 96  1  0  0  0
  2 97  1  0  0  0
  5 98  1  0  0  0
  5 99  1  0  0  0
  6100  1  0  0  0
  7101  1  0  0  0
  7102  1  0  0  0
  7103  1  0  0  0
  8104  1  0  0  0
  8105  1  0  0  0
  8106  1  0  0  0
  9107  1  0  0  0
 10108  1  0  0  0
 13109  1  0  0  0
 13110  1  0  0  0
 16111  1  0  0  0
 16112  1  0  0  0
 18113  1  0  0  0
 21114  1  0  0  0
 21115  1  0  0  0
 22116  1  0  0  0
 22117  1  0  0  0
 23118  1  0  0  0
 23119  1  0  0  0
 24120  1  0  0  0
 25121  1  0  0  0
 28122  1  0  0  0
 28123  1  0  0  0
 31124  1  0  0  0
 31125  1  0  0  0
 32126  1  0  0  0
 33127  1  0  0  0
 36128  1  0  0  0
 36129  1  0  0  0
 36130  1  0  0  0
 37131  1  0  0  0
 38132  1  0  0  0
 41133  1  0  0  0
 41134  1  0  0  0
 42135  1  0  0  0
 42136  1  0  0  0
 43137  1  0  0  0
 43138  1  0  0  0
 44139  1  0  0  0
 44140  1  0  0  0
 45141  1  0  0  0
 45142  1  0  0  0
 45143  1  0  0  0
 46144  1  0  0  0
 47145  1  0  0  0
 50146  1  0  0  0
 51147  1  0  0  0
 51148  1  0  0  0
 51149  1  0  0  0
 52150  1  0  0  0
 52151  1  0  0  0
 52152  1  0  0  0
 53153  1  0  0  0
 54154  1  0  0  0
 57155  1  0  0  0
 57156  1  0  0  0
 59157  1  0  0  0
 63158  1  0  0  0
 64159  1  0  0  0
 65160  1  0  0  0
 66161  1  0  0  0
 67162  1  0  0  0
 68163  1  0  0  0
 71164  1  0  0  0
 71165  1  0  0  0
 72166  1  0  0  0
 72167  1  0  0  0
 75168  1  0  0  0
 75169  1  0  0  0
 76170  1  0  0  0
 77171  1  0  0  0
 80172  1  0  0  0
 80173  1  0  0  0
 81174  1  0  0  0
 81175  1  0  0  0
 84176  1  0  0  0
 85177  1  0  0  0
 86178  1  0  0  0
 89179  1  0  0  0
 90180  1  0  0  0
 90181  1  0  0  0
 91182  1  0  0  0
 91183  1  0  0  0
 91184  1  0  0  0
 92185  1  0  0  0
 92186  1  0  0  0
 92187  1  0  0  0
 93188  1  0  0  0
M  END
$$$$
