4mm4_ligand
  -I-interpret- 

 45 48  0  0  0  0  0  0  0  0999 V2000
  116.6140  -21.7660  101.9500 F   0  0  0  0  0
  115.7990  -20.5280  103.8720 C   0  0  0  0  0
  117.9530  -19.8990  102.7580 C   0  0  0  0  0
  113.8460  -14.5330  103.1320 C   0  0  0  0  0
  115.9780  -19.4760  104.8040 C   0  0  0  0  0
  118.1250  -18.8810  103.6690 C   0  0  0  0  0
  112.9290  -14.0390  102.1780 C   0  0  0  0  0
  112.0360  -15.2380  104.5580 C   0  0  0  0  0
  118.3430  -16.7200  107.9760 C   0  0  0  0  0
  118.2030  -17.8080  106.9440 C   0  0  0  0  0
  116.4390  -15.5430  107.0250 C   0  0  0  0  0
  109.3170  -14.1080  102.4300 C   0  0  0  0  0
  115.4360  -16.2520  104.8560 C   0  0  0  0  0
  117.0500  -16.0420  108.2600 N   0  3  0  0  0
  114.2280  -15.6420  105.3070 O   0  0  0  0  0
  110.4540  -13.7600  101.6990 O   0  0  0  0  0
  109.6650  -14.6940  103.5530 O   0  0  0  0  0
  116.7740  -20.7590  102.8440 C   0  0  0  0  0
  113.3550  -15.1450  104.3330 C   0  0  0  0  0
  117.1470  -18.6300  104.7240 C   0  0  0  0  0
  111.5860  -14.1420  102.4110 C   0  0  0  0  0
  111.1090  -14.7390  103.6020 C   0  0  0  0  0
  116.1560  -16.7120  106.1100 C   0  0  0  0  0
  117.4170  -17.4000  105.7500 C   0  0  0  0  0
  114.9168  -21.1650  103.9358 H   0  0  0  0  0
  118.6935  -20.0631  101.9752 H   0  0  0  0  0
  114.9186  -14.4498  102.9570 H   0  0  0  0  0
  115.2337  -19.3047  105.5817 H   0  0  0  0  0
  119.0103  -18.2488  103.6012 H   0  0  0  0  0
  113.2909  -13.5773  101.2593 H   0  0  0  0  0
  111.6732  -15.6979  105.4772 H   0  0  0  0  0
  119.0381  -15.9746  107.5895 H   0  0  0  0  0
  118.6968  -17.1749  108.9012 H   0  0  0  0  0
  117.6753  -18.6378  107.4142 H   0  0  0  0  0
  119.2057  -18.0648  106.6024 H   0  0  0  0  0
  117.1187  -14.8471  106.5333 H   0  0  0  0  0
  115.5089  -15.0246  107.2580 H   0  0  0  0  0
  108.7092  -14.7949  101.8411 H   0  0  0  0  0
  108.7482  -13.2066  102.6579 H   0  0  0  0  0
  116.0442  -15.5531  104.2818 H   0  0  0  0  0
  115.2336  -17.0866  104.1847 H   0  0  0  0  0
  117.2232  -15.2527  108.8825 H   0  0  0  0  0
  116.4153  -16.7136  108.6919 H   0  0  0  0  0
  115.5107  -17.4120  106.6407 H   0  0  0  0  0
  118.0397  -16.6778  105.2220 H   0  0  0  0  0
 18  1  1  0  0  0
  5  2  4  0  0  0
  2 18  4  0  0  0
  6  3  4  0  0  0
  3 18  4  0  0  0
  4  7  4  0  0  0
 19  4  4  0  0  0
 20  5  4  0  0  0
 20  6  4  0  0  0
  7 21  4  0  0  0
 19  8  4  0  0  0
  8 22  4  0  0  0
 10  9  1  0  0  0
  9 14  1  0  0  0
 24 10  1  0  0  0
 14 11  1  0  0  0
 11 23  1  0  0  0
 12 16  1  0  0  0
 17 12  1  0  0  0
 13 15  1  0  0  0
 23 13  1  0  0  0
 15 19  1  0  0  0
 21 16  1  0  0  0
 22 17  1  0  0  0
 20 24  1  0  0  0
 21 22  4  0  0  0
 23 24  1  0  0  0
  2 25  1  0  0  0
  3 26  1  0  0  0
  4 27  1  0  0  0
  5 28  1  0  0  0
  6 29  1  0  0  0
  7 30  1  0  0  0
  8 31  1  0  0  0
  9 32  1  0  0  0
  9 33  1  0  0  0
 10 34  1  0  0  0
 10 35  1  0  0  0
 11 36  1  0  0  0
 11 37  1  0  0  0
 12 38  1  0  0  0
 12 39  1  0  0  0
 13 40  1  0  0  0
 13 41  1  0  0  0
 14 42  1  0  0  0
 14 43  1  0  0  0
 23 44  1  0  0  0
 24 45  1  0  0  0
M  END
$$$$
