4ewo_ligand
  -I-interpret- 

 73 75  0  0  0  0  0  0  0  0999 V2000
    7.4040    2.2460  -18.3460 O   0  0  0  0  0
    6.4500    1.5560  -17.8960 C   0  0  0  0  0
    6.6080    0.5340  -16.7480 C   0  0  0  0  0
    5.2140    1.6710  -18.3530 N   0  0  0  0  0
    4.8180    2.5500  -19.4940 C   0  0  0  0  0
    4.0930    1.6950  -20.5280 C   0  0  0  0  0
    4.9370    0.4930  -21.0110 C   0  0  0  0  0
    6.3210    0.5690  -21.2330 C   0  0  0  0  0
    7.0220   -0.6210  -21.6200 C   0  0  0  0  0
    6.3180   -1.8200  -21.8300 C   0  0  0  0  0
    4.9540   -1.8680  -21.5800 C   0  0  0  0  0
    4.2360   -0.7120  -21.1990 C   0  0  0  0  0
    3.9280    3.6970  -18.9380 C   0  0  0  0  0
    3.5530    4.6330  -19.9890 O   0  0  0  0  0
    4.7380    4.4890  -17.8860 C   0  0  0  0  0
    3.9380    5.6150  -17.4350 N   0  3  0  0  0
    4.6650    6.7960  -16.9890 C   0  0  0  0  0
    5.6100    7.3270  -18.0230 C   0  0  0  0  0
    6.9880    7.7180  -17.7730 C   0  0  0  0  0
    7.6050    7.5980  -16.3910 C   0  0  0  0  0
    6.4660    7.5670  -15.3380 C   0  0  0  0  0
    5.8280    8.9490  -15.1610 C   0  0  0  0  0
    7.1650    7.2050  -14.0090 C   0  0  0  0  0
    5.5600    6.3810  -15.7520 C   0  0  0  0  0
    7.5310    8.1470  -18.9500 N   0  0  0  0  0
    6.4910    8.0310  -19.8920 N   0  0  0  0  0
    5.2990    7.5440  -19.3850 C   0  0  0  0  0
    6.8770    8.4540  -21.2270 C   0  0  0  0  0
    6.5120    9.8980  -21.5670 C   0  0  0  0  0
    5.0190   10.1980  -21.3010 C   0  0  0  0  0
    7.3990   10.8770  -20.7310 C   0  0  0  0  0
    6.7760   10.0770  -23.0570 C   0  0  0  0  0
    7.3273   -0.2309  -17.0406 H   0  0  0  0  0
    6.9636    1.0460  -15.8539 H   0  0  0  0  0
    5.6441    0.0684  -16.5425 H   0  0  0  0  0
    4.4840    1.1240  -17.8967 H   0  0  0  0  0
    5.6805    3.0032  -19.9827 H   0  0  0  0  0
    3.8832    2.3242  -21.3930 H   0  0  0  0  0
    3.1896    1.3021  -20.0615 H   0  0  0  0  0
    6.8522    1.5133  -21.1137 H   0  0  0  0  0
    8.1037   -0.5958  -21.7517 H   0  0  0  0  0
    6.8410   -2.7071  -22.1873 H   0  0  0  0  0
    4.4258   -2.8163  -21.6795 H   0  0  0  0  0
    3.1566   -0.7534  -21.0532 H   0  0  0  0  0
    3.0299    3.2505  -18.5111 H   0  0  0  0  0
    3.0465    4.1714  -20.6613 H   0  0  0  0  0
    5.6678    4.8479  -18.3273 H   0  0  0  0  0
    4.9794    3.8438  -17.0413 H   0  0  0  0  0
    3.4167    5.2826  -16.6238 H   0  0  0  0  0
    3.3887    5.9109  -18.2419 H   0  0  0  0  0
    3.9227    7.5608  -16.7606 H   0  0  0  0  0
    8.2598    8.4489  -16.2029 H   0  0  0  0  0
    8.1934    6.6827  -16.3267 H   0  0  0  0  0
    6.5864    9.6581  -14.8293 H   0  0  0  0  0
    5.4108    9.2797  -16.1121 H   0  0  0  0  0
    5.0346    8.8888  -14.4161 H   0  0  0  0  0
    7.6503    6.2340  -14.1079 H   0  0  0  0  0
    7.9117    7.9636  -13.7743 H   0  0  0  0  0
    6.4245    7.1628  -13.2102 H   0  0  0  0  0
    6.1835    5.5305  -16.0277 H   0  0  0  0  0
    4.9155    6.1109  -14.9155 H   0  0  0  0  0
    4.3568    7.3711  -19.9052 H   0  0  0  0  0
    6.3411    7.8164  -21.9301 H   0  0  0  0  0
    7.9630    8.3787  -21.2830 H   0  0  0  0  0
    4.4027    9.5384  -21.9119 H   0  0  0  0  0
    4.7983   10.0304  -20.2468 H   0  0  0  0  0
    4.8070   11.2360  -21.5574 H   0  0  0  0  0
    7.2295   10.7015  -19.6686 H   0  0  0  0  0
    8.4493   10.7044  -20.9661 H   0  0  0  0  0
    7.1345   11.9053  -20.9775 H   0  0  0  0  0
    7.8285    9.8834  -23.2640 H   0  0  0  0  0
    6.1588    9.3774  -23.6207 H   0  0  0  0  0
    6.5289   11.0978  -23.3484 H   0  0  0  0  0
  1  2  2  0  0  0
  2  3  1  0  0  0
  2  4  1  0  0  0
  4  5  1  0  0  0
  5  6  1  0  0  0
  5 13  1  0  0  0
  6  7  1  0  0  0
  7  8  4  0  0  0
  7 12  4  0  0  0
  8  9  4  0  0  0
  9 10  4  0  0  0
 10 11  4  0  0  0
 11 12  4  0  0  0
 13 14  1  0  0  0
 13 15  1  0  0  0
 15 16  1  0  0  0
 16 17  1  0  0  0
 17 18  1  0  0  0
 17 24  1  0  0  0
 18 19  4  0  0  0
 18 27  4  0  0  0
 19 20  1  0  0  0
 19 25  4  0  0  0
 20 21  1  0  0  0
 21 22  1  0  0  0
 21 23  1  0  0  0
 21 24  1  0  0  0
 25 26  4  0  0  0
 26 27  4  0  0  0
 26 28  1  0  0  0
 28 29  1  0  0  0
 29 30  1  0  0  0
 29 31  1  0  0  0
 29 32  1  0  0  0
  3 33  1  0  0  0
  3 34  1  0  0  0
  3 35  1  0  0  0
  4 36  1  0  0  0
  5 37  1  0  0  0
  6 38  1  0  0  0
  6 39  1  0  0  0
  8 40  1  0  0  0
  9 41  1  0  0  0
 10 42  1  0  0  0
 11 43  1  0  0  0
 12 44  1  0  0  0
 13 45  1  0  0  0
 14 46  1  0  0  0
 15 47  1  0  0  0
 15 48  1  0  0  0
 16 49  1  0  0  0
 16 50  1  0  0  0
 17 51  1  0  0  0
 20 52  1  0  0  0
 20 53  1  0  0  0
 22 54  1  0  0  0
 22 55  1  0  0  0
 22 56  1  0  0  0
 23 57  1  0  0  0
 23 58  1  0  0  0
 23 59  1  0  0  0
 24 60  1  0  0  0
 24 61  1  0  0  0
 27 62  1  0  0  0
 28 63  1  0  0  0
 28 64  1  0  0  0
 30 65  1  0  0  0
 30 66  1  0  0  0
 30 67  1  0  0  0
 31 68  1  0  0  0
 31 69  1  0  0  0
 31 70  1  0  0  0
 32 71  1  0  0  0
 32 72  1  0  0  0
 32 73  1  0  0  0
M  END
$$$$
