4iuu_ligand
  -I-interpret- 

140139  0  0  0  0  0  0  0  0999 V2000
   -1.5340  -14.3310   20.9970 N   0  3  0  0  0
   -2.0090  -14.4580   22.3690 C   0  0  0  0  0
   -2.9090  -13.2890   22.7510 C   0  0  0  0  0
   -2.8890  -12.2430   22.1060 O   0  0  0  0  0
   -0.8400  -14.5300   23.3650 C   0  0  0  0  0
   -0.3790  -13.2050   23.6570 O   0  0  0  0  0
    0.3030  -15.3440   22.7840 C   0  0  0  0  0
   -3.6960  -13.4740   23.8050 N   0  0  0  0  0
   -4.5990  -12.4330   24.2780 C   0  0  0  0  0
   -3.8180  -11.2360   24.8050 C   0  0  0  0  0
   -2.5960  -11.2860   24.9280 O   0  0  0  0  0
   -5.5200  -12.9780   25.3700 C   0  0  0  0  0
   -6.9460  -13.2300   24.9120 C   0  0  0  0  0
   -7.8260  -13.6770   26.0670 C   0  0  0  0  0
   -8.8060  -14.7550   25.6320 C   0  0  0  0  0
   -9.5090  -15.3680   26.7910 N   0  3  0  0  0
   -4.5320  -10.1600   25.1130 N   0  0  0  0  0
   -3.9080   -8.9550   25.6440 C   0  0  0  0  0
   -4.1050   -8.8660   27.1510 C   0  0  0  0  0
   -5.0210   -9.4740   27.7030 O   0  0  0  0  0
   -4.4800   -7.7100   24.9640 C   0  0  0  0  0
   -4.5170   -7.7950   23.4480 C   0  0  0  0  0
   -4.3220   -6.4480   22.7850 C   0  0  0  0  0
   -4.2410   -5.4200   23.4550 O   0  0  0  0  0
   -4.2470   -6.4460   21.4600 N   0  0  0  0  0
   -3.2390   -8.1080   27.8130 N   0  0  0  0  0
   -3.3240   -7.9400   29.2570 C   0  0  0  0  0
   -4.4320   -6.9610   29.6240 C   0  0  0  0  0
   -4.4070   -5.8010   29.2190 O   0  0  0  0  0
   -1.9930   -7.4500   29.8470 C   0  0  0  0  0
   -0.9070   -7.9790   29.0770 O   0  0  0  0  0
   -1.8520   -7.9050   31.2890 C   0  0  0  0  0
   -5.4050   -7.4380   30.3920 N   0  0  0  0  0
   -6.5410   -6.6180   30.7890 C   0  0  0  0  0
   -6.2310   -5.7770   32.0210 C   0  0  0  0  0
   -5.5830   -6.2430   32.9560 O   0  0  0  0  0
   -7.7600   -7.4900   31.0390 C   0  0  0  0  0
   -6.7050   -4.5360   32.0150 N   0  0  0  0  0
   -6.5330   -3.6460   33.1540 C   0  0  0  0  0
   -7.8860   -3.2560   33.7350 C   0  0  0  0  0
   -8.6760   -2.5740   33.0850 O   0  0  0  0  0
   -5.7430   -2.3980   32.7530 C   0  0  0  0  0
   -6.4020   -1.5600   31.6720 C   0  0  0  0  0
   -5.5250   -0.3830   31.2730 C   0  0  0  0  0
   -5.9830    0.2450   30.0360 N   0  0  0  0  0
   -6.8350    1.2640   29.9850 C   0  0  0  0  0
   -7.1970    1.7700   28.8140 N   0  0  0  0  0
   -7.3260    1.7770   31.1040 N   0  0  0  0  0
   -8.1480   -3.6980   34.9590 N   0  0  0  0  0
   -9.4370   -3.3990   35.6430 C   0  0  0  0  0
   -9.6520   -4.3760   36.7920 C   0  0  0  0  0
   -9.3220   -5.8010   36.3670 C   0  0  0  0  0
   -9.3790   -6.7560   37.5540 C   0  0  0  0  0
  -10.4380   -7.8300   37.3410 C   0  0  0  0  0
  -10.1790   -9.0160   38.1330 N   0  3  0  0  0
  -10.5560  -10.3200   37.6260 C   0  0  0  0  0
   -9.4700   -1.9940   36.1680 C   0  0  0  0  0
   -8.4300   -1.3860   36.4100 O   0  0  0  0  0
  -10.6750   -1.4640   36.3490 N   0  0  0  0  0
  -10.8450   -0.1070   36.8520 C   0  0  0  0  0
  -10.6290   -0.0450   38.3590 C   0  0  0  0  0
  -10.1596    0.9921   38.8991 O   0  0  0  0  0
  -12.2340    0.4290   36.4960 C   0  0  0  0  0
  -13.2340   -0.5470   36.7330 O   0  0  0  0  0
  -10.9227   -1.0411   39.0725 O   0  0  0  0  0
   -2.3330  -14.2860   20.3646 H   0  0  0  0  0
   -0.9799  -13.4793   20.9078 H   0  0  0  0  0
   -0.9578  -15.1391   20.7618 H   0  0  0  0  0
   -2.5787  -15.3859   22.4183 H   0  0  0  0  0
   -1.1872  -15.0116   24.2791 H   0  0  0  0  0
   -1.1010  -12.6899   24.0243 H   0  0  0  0  0
    0.6559  -14.8702   21.8680 H   0  0  0  0  0
    1.1174  -15.3919   23.5069 H   0  0  0  0  0
   -0.0469  -16.3521   22.5616 H   0  0  0  0  0
   -3.6674  -14.3677   24.2958 H   0  0  0  0  0
   -5.2069  -12.1060   23.4345 H   0  0  0  0  0
   -5.5632  -12.2272   26.1590 H   0  0  0  0  0
   -5.1100  -13.9365   25.6882 H   0  0  0  0  0
   -6.9345  -14.0183   24.1593 H   0  0  0  0  0
   -7.3496  -12.3018   24.5073 H   0  0  0  0  0
   -8.3929  -12.8170   26.4236 H   0  0  0  0  0
   -7.1879  -14.0849   26.8509 H   0  0  0  0  0
   -8.2469  -15.5376   25.1191 H   0  0  0  0  0
   -9.5526  -14.2961   24.9838 H   0  0  0  0  0
  -10.1545  -16.0833   26.4561 H   0  0  0  0  0
   -8.8243  -15.7923   27.4168 H   0  0  0  0  0
  -10.0285  -14.6472   27.2920 H   0  0  0  0  0
   -5.5424  -10.1772   24.9745 H   0  0  0  0  0
   -2.8392   -9.0072   25.4365 H   0  0  0  0  0
   -3.8323   -6.8731   25.2249 H   0  0  0  0  0
   -5.5088   -7.5987   25.3065 H   0  0  0  0  0
   -5.4968   -8.1737   23.1569 H   0  0  0  0  0
   -3.7042   -8.4472   23.1285 H   0  0  0  0  0
   -4.1172   -5.5677   20.9579 H   0  0  0  0  0
   -4.3192   -7.3228   20.9438 H   0  0  0  0  0
   -2.4975   -7.6327   27.2986 H   0  0  0  0  0
   -3.5523   -8.9180   29.6807 H   0  0  0  0  0
   -1.9759   -6.3606   29.8162 H   0  0  0  0  0
   -0.0754   -7.6725   29.4460 H   0  0  0  0  0
   -2.6732   -7.4980   31.8790 H   0  0  0  0  0
   -1.8788   -8.9939   31.3293 H   0  0  0  0  0
   -0.9032   -7.5485   31.6900 H   0  0  0  0  0
   -5.3552   -8.4051   30.7125 H   0  0  0  0  0
   -6.7534   -5.9327   29.9684 H   0  0  0  0  0
   -8.0122   -8.0300   30.1264 H   0  0  0  0  0
   -7.5391   -8.2016   31.8345 H   0  0  0  0  0
   -8.6001   -6.8617   31.3348 H   0  0  0  0  0
   -7.2023   -4.1981   31.1910 H   0  0  0  0  0
   -5.9671   -4.1771   33.9194 H   0  0  0  0  0
   -4.7867   -2.7384   32.3558 H   0  0  0  0  0
   -5.6635   -1.7705   33.6407 H   0  0  0  0  0
   -7.3452   -1.1743   32.0589 H   0  0  0  0  0
   -6.5604   -2.1875   30.7950 H   0  0  0  0  0
   -4.5115   -0.7512   31.1138 H   0  0  0  0  0
   -5.5683    0.3601   32.0692 H   0  0  0  0  0
   -5.6257   -0.1224   29.1541 H   0  0  0  0  0
   -7.8514    2.5515   28.7765 H   0  0  0  0  0
   -6.8211    1.3777   27.9508 H   0  0  0  0  0
   -7.0502    1.3899   32.0065 H   0  0  0  0  0
   -7.4472   -4.2579   35.4446 H   0  0  0  0  0
  -10.2359   -3.5065   34.9093 H   0  0  0  0  0
  -10.6985   -4.3350   37.0943 H   0  0  0  0  0
   -8.9955   -4.0963   37.6159 H   0  0  0  0  0
   -8.3129   -5.8169   35.9551 H   0  0  0  0  0
  -10.0542   -6.1220   35.6261 H   0  0  0  0  0
   -9.6332   -6.1871   38.4483 H   0  0  0  0  0
   -8.4078   -7.2392   37.6607 H   0  0  0  0  0
  -10.4266   -8.1147   36.2889 H   0  0  0  0  0
  -11.4019   -7.4220   37.6451 H   0  0  0  0  0
  -10.7477   -8.8932   38.9708 H   0  0  0  0  0
   -9.1626   -9.0555   38.2095 H   0  0  0  0  0
  -11.6323  -10.3449   37.4556 H   0  0  0  0  0
  -10.0339  -10.5085   36.6879 H   0  0  0  0  0
  -10.2844  -11.0840   38.3544 H   0  0  0  0  0
  -11.5013   -2.0207   36.1305 H   0  0  0  0  0
  -10.0920    0.5201   36.3747 H   0  0  0  0  0
   -9.9900    1.6540   38.2247 H   0  0  0  0  0
  -12.2461    0.6908   35.4380 H   0  0  0  0  0
  -12.4419    1.2994   37.1183 H   0  0  0  0  0
  -14.0930   -0.1860   36.5021 H   0  0  0  0  0
  1  2  1  0  0  0
  2  3  1  0  0  0
  2  5  1  0  0  0
  3  4  2  0  0  0
  3  8  1  0  0  0
  5  6  1  0  0  0
  5  7  1  0  0  0
  8  9  1  0  0  0
  9 10  1  0  0  0
  9 12  1  0  0  0
 10 11  2  0  0  0
 10 17  1  0  0  0
 12 13  1  0  0  0
 13 14  1  0  0  0
 14 15  1  0  0  0
 15 16  1  0  0  0
 17 18  1  0  0  0
 18 19  1  0  0  0
 18 21  1  0  0  0
 19 20  2  0  0  0
 19 26  1  0  0  0
 21 22  1  0  0  0
 22 23  1  0  0  0
 23 24  2  0  0  0
 23 25  1  0  0  0
 26 27  1  0  0  0
 27 28  1  0  0  0
 27 30  1  0  0  0
 28 29  2  0  0  0
 28 33  1  0  0  0
 30 31  1  0  0  0
 30 32  1  0  0  0
 33 34  1  0  0  0
 34 35  1  0  0  0
 34 37  1  0  0  0
 35 36  2  0  0  0
 35 38  1  0  0  0
 38 39  1  0  0  0
 39 40  1  0  0  0
 39 42  1  0  0  0
 40 41  2  0  0  0
 40 49  1  0  0  0
 42 43  1  0  0  0
 43 44  1  0  0  0
 44 45  1  0  0  0
 45 46  1  0  0  0
 46 47  1  0  0  0
 46 48  2  0  0  0
 49 50  1  0  0  0
 50 51  1  0  0  0
 50 57  1  0  0  0
 51 52  1  0  0  0
 52 53  1  0  0  0
 53 54  1  0  0  0
 54 55  1  0  0  0
 55 56  1  0  0  0
 57 58  2  0  0  0
 57 59  1  0  0  0
 59 60  1  0  0  0
 60 61  1  0  0  0
 60 63  1  0  0  0
 61 62  1  0  0  0
 63 64  1  0  0  0
 61 65  2  0  0  0
  1 66  1  0  0  0
  1 67  1  0  0  0
  1 68  1  0  0  0
  2 69  1  0  0  0
  5 70  1  0  0  0
  6 71  1  0  0  0
  7 72  1  0  0  0
  7 73  1  0  0  0
  7 74  1  0  0  0
  8 75  1  0  0  0
  9 76  1  0  0  0
 12 77  1  0  0  0
 12 78  1  0  0  0
 13 79  1  0  0  0
 13 80  1  0  0  0
 14 81  1  0  0  0
 14 82  1  0  0  0
 15 83  1  0  0  0
 15 84  1  0  0  0
 16 85  1  0  0  0
 16 86  1  0  0  0
 16 87  1  0  0  0
 17 88  1  0  0  0
 18 89  1  0  0  0
 21 90  1  0  0  0
 21 91  1  0  0  0
 22 92  1  0  0  0
 22 93  1  0  0  0
 25 94  1  0  0  0
 25 95  1  0  0  0
 26 96  1  0  0  0
 27 97  1  0  0  0
 30 98  1  0  0  0
 31 99  1  0  0  0
 32100  1  0  0  0
 32101  1  0  0  0
 32102  1  0  0  0
 33103  1  0  0  0
 34104  1  0  0  0
 37105  1  0  0  0
 37106  1  0  0  0
 37107  1  0  0  0
 38108  1  0  0  0
 39109  1  0  0  0
 42110  1  0  0  0
 42111  1  0  0  0
 43112  1  0  0  0
 43113  1  0  0  0
 44114  1  0  0  0
 44115  1  0  0  0
 45116  1  0  0  0
 47117  1  0  0  0
 47118  1  0  0  0
 48119  1  0  0  0
 49120  1  0  0  0
 50121  1  0  0  0
 51122  1  0  0  0
 51123  1  0  0  0
 52124  1  0  0  0
 52125  1  0  0  0
 53126  1  0  0  0
 53127  1  0  0  0
 54128  1  0  0  0
 54129  1  0  0  0
 55130  1  0  0  0
 55131  1  0  0  0
 56132  1  0  0  0
 56133  1  0  0  0
 56134  1  0  0  0
 59135  1  0  0  0
 60136  1  0  0  0
 62137  1  0  0  0
 63138  1  0  0  0
 63139  1  0  0  0
 64140  1  0  0  0
M  END
$$$$
