### 
### Created by X-TOOL on Sun Sep  9 21:52:18 2018
### 

@<TRIPOS>MOLECULE
4iuu_ligand
  140   139     1     0     0
SMALL
GAST_HUCK


@<TRIPOS>ATOM
      1 N          -1.5340  -14.3310   20.9970 N.4       1 NON         0.2398
      2 CA         -2.0090  -14.4580   22.3690 C.3       1 NON         0.0910
      3 C          -2.9090  -13.2890   22.7510 C.2       1 NON         0.2293
      4 O          -2.8890  -12.2430   22.1060 O.2       1 NON        -0.3906
      5 CB         -0.8400  -14.5300   23.3650 C.3       1 NON         0.1120
      6 OG1        -0.3790  -13.2050   23.6570 O.3       1 NON        -0.3840
      7 CG2         0.3030  -15.3440   22.7840 C.3       1 NON        -0.0314
      8 N          -3.6960  -13.4740   23.8050 N.am      1 NON        -0.2609
      9 CA         -4.5990  -12.4330   24.2780 C.3       1 NON         0.1311
     10 C          -3.8180  -11.2360   24.8050 C.2       1 NON         0.2039
     11 O          -2.5960  -11.2860   24.9280 O.2       1 NON        -0.3944
     12 CB         -5.5200  -12.9780   25.3700 C.3       1 NON        -0.0122
     13 CG         -6.9460  -13.2300   24.9120 C.3       1 NON        -0.0440
     14 CD         -7.8260  -13.6770   26.0670 C.3       1 NON        -0.0124
     15 CE         -8.8060  -14.7550   25.6320 C.3       1 NON        -0.0354
     16 NZ         -9.5090  -15.3680   26.7910 N.4       1 NON         0.2185
     17 N          -4.5320  -10.1600   25.1130 N.am      1 NON        -0.2636
     18 CA         -3.9080   -8.9550   25.6440 C.3       1 NON         0.1330
     19 C          -4.1050   -8.8660   27.1510 C.2       1 NON         0.2041
     20 O          -5.0210   -9.4740   27.7030 O.2       1 NON        -0.3944
     21 CB         -4.4800   -7.7100   24.9640 C.3       1 NON         0.0045
     22 CG         -4.5170   -7.7950   23.4480 C.3       1 NON         0.0412
     23 CD         -4.3220   -6.4480   22.7850 C.2       1 NON         0.1737
     24 OE1        -4.2410   -5.4200   23.4550 O.2       1 NON        -0.3973
     25 NE2        -4.2470   -6.4460   21.4600 N.am      1 NON        -0.3009
     26 N          -3.2390   -8.1080   27.8130 N.am      1 NON        -0.2613
     27 CA         -3.3240   -7.9400   29.2570 C.3       1 NON         0.1565
     28 C          -4.4320   -6.9610   29.6240 C.2       1 NON         0.2065
     29 O          -4.4070   -5.8010   29.2190 O.2       1 NON        -0.3943
     30 CB         -1.9930   -7.4500   29.8470 C.3       1 NON         0.0924
     31 OG1        -0.9070   -7.9790   29.0770 O.3       1 NON        -0.3874
     32 CG2        -1.8520   -7.9050   31.2890 C.3       1 NON        -0.0346
     33 N          -5.4050   -7.4380   30.3920 N.am      1 NON        -0.2639
     34 CA         -6.5410   -6.6180   30.7890 C.3       1 NON         0.1282
     35 C          -6.2310   -5.7770   32.0210 C.2       1 NON         0.2036
     36 O          -5.5830   -6.2430   32.9560 O.2       1 NON        -0.3944
     37 CB         -7.7600   -7.4900   31.0390 C.3       1 NON        -0.0244
     38 N          -6.7050   -4.5360   32.0150 N.am      1 NON        -0.2637
     39 CA         -6.5330   -3.6460   33.1540 C.3       1 NON         0.1311
     40 C          -7.8860   -3.2560   33.7350 C.2       1 NON         0.2039
     41 O          -8.6760   -2.5740   33.0850 O.2       1 NON        -0.3944
     42 CB         -5.7430   -2.3980   32.7530 C.3       1 NON        -0.0092
     43 CG         -6.4020   -1.5600   31.6720 C.3       1 NON        -0.0156
     44 CD         -5.5250   -0.3830   31.2730 C.3       1 NON         0.0627
     45 NE         -5.9830    0.2450   30.0360 N.pl3     1 NON        -0.2723
     46 CZ         -6.8350    1.2640   29.9850 C.cat     1 NON         0.2882
     47 NH1        -7.1970    1.7700   28.8140 N.pl3     1 NON        -0.2849
     48 NH2        -7.3260    1.7770   31.1040 N.pl3     1 NON        -0.2849
     49 N          -8.1480   -3.6980   34.9590 N.am      1 NON        -0.2637
     50 CA         -9.4370   -3.3990   35.6430 C.3       1 NON         0.1309
     51 CB         -9.6520   -4.3760   36.7920 C.3       1 NON        -0.0122
     52 CG         -9.3220   -5.8010   36.3670 C.3       1 NON        -0.0440
     53 CD         -9.3790   -6.7560   37.5540 C.3       1 NON        -0.0124
     54 CE        -10.4380   -7.8300   37.3410 C.3       1 NON        -0.0339
     55 NZ        -10.1790   -9.0160   38.1330 N.4       1 NON         0.2248
     56 CM        -10.5560  -10.3200   37.6260 C.3       1 NON        -0.0449
     57 C          -9.4700   -1.9940   36.1680 C.2       1 NON         0.2034
     58 O          -8.4300   -1.3860   36.4100 O.2       1 NON        -0.3944
     59 N         -10.6750   -1.4640   36.3490 N.am      1 NON        -0.2672
     60 CA        -10.8450   -0.1070   36.8520 C.3       1 NON         0.1173
     61 C         -10.6290   -0.0450   38.3590 C.2       1 NON         0.0623
     62 O         -10.1596    0.9921   38.8991 O.co2     1 NON        -0.5665
     63 CB        -12.2340    0.4290   36.4960 C.3       1 NON         0.0789
     64 OG        -13.2340   -0.5470   36.7330 O.3       1 NON        -0.3910
     65 O         -10.9227   -1.0411   39.0725 O.co2     1 NON        -0.5665
     66 H1         -2.3229  -14.2865   20.3711 H         1 NON         0.2016
     67 H2         -0.9644  -15.1291   20.7634 H         1 NON         0.2016
     68 H3         -0.9863  -13.4895   20.9076 H         1 NON         0.2016
     69 H4         -2.5909  -15.3884   22.4443 H         1 NON         0.1125
     70 H5         -1.1869  -15.0075   24.2933 H         1 NON         0.0674
     71 H6         -1.0887  -12.7005   24.0368 H         1 NON         0.2102
     72 H7          1.1294  -15.3850   23.5088 H         1 NON         0.0258
     73 H8          0.6538  -14.8721   21.8544 H         1 NON         0.0258
     74 H9         -0.0462  -16.3645   22.5681 H         1 NON         0.0258
     75 H10        -3.6680  -14.3502   24.2861 H         1 NON         0.1884
     76 H11        -5.2182  -12.1003   23.4319 H         1 NON         0.0800
     77 H12        -5.5459  -12.2504   26.1946 H         1 NON         0.0312
     78 H13        -5.1009  -13.9283   25.7324 H         1 NON         0.0312
     79 H14        -6.9413  -14.0143   24.1408 H         1 NON         0.0269
     80 H15        -7.3556  -12.3013   24.4881 H         1 NON         0.0269
     81 H16        -8.3903  -12.8110   26.4432 H         1 NON         0.0317
     82 H17        -7.1882  -14.0758   26.8696 H         1 NON         0.0317
     83 H18        -8.2546  -15.5407   25.0948 H         1 NON         0.0813
     84 H19        -9.5527  -14.3064   24.9603 H         1 NON         0.0813
     85 H20       -10.1472  -16.0751   26.4612 H         1 NON         0.1994
     86 H21       -10.0228  -14.6566   27.2869 H         1 NON         0.1994
     87 H22        -8.8333  -15.7877   27.4102 H         1 NON         0.1994
     88 H23        -5.5226  -10.1769   24.9772 H         1 NON         0.1883
     89 H24        -2.8290   -9.0021   25.4356 H         1 NON         0.0801
     90 H25        -3.8605   -6.8462   25.2468 H         1 NON         0.0337
     91 H26        -5.5074   -7.5590   25.3269 H         1 NON         0.0337
     92 H27        -5.4924   -8.2007   23.1415 H         1 NON         0.0504
     93 H28        -3.7169   -8.4716   23.1133 H         1 NON         0.0504
     94 H29        -4.1185   -5.5851   20.9678 H         1 NON         0.1814
     95 H30        -4.3190   -7.3054   20.9538 H         1 NON         0.1814
     96 H31        -2.5120   -7.6420   27.3087 H         1 NON         0.1884
     97 H32        -3.5608   -8.9180   29.7013 H         1 NON         0.0826
     98 H33        -1.9652   -6.3510   29.8105 H         1 NON         0.0639
     99 H34        -0.0841   -7.6757   29.4422 H         1 NON         0.2101
    100 H35        -0.8948   -7.5458   31.6949 H         1 NON         0.0257
    101 H36        -1.8788   -9.0039   31.3311 H         1 NON         0.0257
    102 H37        -2.6802   -7.4948   31.8856 H         1 NON         0.0257
    103 H38        -5.3561   -8.3861   30.7062 H         1 NON         0.1883
    104 H39        -6.7712   -5.9330   29.9597 H         1 NON         0.0797
    105 H40        -8.6086   -6.8570   31.3376 H         1 NON         0.0277
    106 H41        -7.5384   -8.2087   31.8417 H         1 NON         0.0277
    107 H42        -8.0156   -8.0355   30.1187 H         1 NON         0.0277
    108 H43        -7.1925   -4.2047   31.2072 H         1 NON         0.1883
    109 H44        -5.9642   -4.1814   33.9285 H         1 NON         0.0800
    110 H45        -4.7564   -2.7181   32.3867 H         1 NON         0.0313
    111 H46        -5.6161   -1.7691   33.6465 H         1 NON         0.0313
    112 H47        -7.3625   -1.1793   32.0495 H         1 NON         0.0301
    113 H48        -6.5793   -2.1904   30.7882 H         1 NON         0.0301
    114 H49        -4.4945   -0.7402   31.1297 H         1 NON         0.0689
    115 H50        -5.5451    0.3646   32.0796 H         1 NON         0.0689
    116 H51        -5.6222   -0.1260   29.1454 H         1 NON         0.2642
    117 H52        -7.8573    2.5596   28.7761 H         1 NON         0.2615
    118 H53        -6.8179    1.3734   27.9423 H         1 NON         0.2615
    119 H54        -7.0470    1.3865   32.0154 H         1 NON         0.2615
    120 H55        -7.9866    2.5662   31.0623 H         1 NON         0.2615
    121 H56        -7.4609   -4.2469   35.4351 H         1 NON         0.1883
    122 H57       -10.2534   -3.5197   34.9158 H         1 NON         0.0800
    123 H58       -10.7038   -4.3304   37.1108 H         1 NON         0.0312
    124 H59        -9.0015   -4.0917   37.6322 H         1 NON         0.0312
    125 H60        -8.3096   -5.8223   35.9374 H         1 NON         0.0269
    126 H61       -10.0491   -6.1270   35.6087 H         1 NON         0.0269
    127 H62        -9.6226   -6.1861   38.4627 H         1 NON         0.0317
    128 H63        -8.3976   -7.2378   37.6754 H         1 NON         0.0317
    129 H64       -10.4505   -8.1097   36.2772 H         1 NON         0.0814
    130 H65       -11.4193   -7.4217   37.6244 H         1 NON         0.0814
    131 H66       -10.6627   -8.8929   39.0087 H         1 NON         0.2011
    132 H67        -9.1852   -9.0442   38.2991 H         1 NON         0.2011
    133 H68       -10.2824  -11.0920   38.3603 H         1 NON         0.0777
    134 H69       -10.0297  -10.5115   36.6793 H         1 NON         0.0777
    135 H70       -11.6421  -10.3465   37.4537 H         1 NON         0.0777
    136 H71       -11.4851   -2.0098   36.1348 H         1 NON         0.1876
    137 H72       -10.0922    0.5339   36.3698 H         1 NON         0.0749
    138 H73       -12.2495    0.7081   35.4321 H         1 NON         0.0599
    139 H74       -12.4452    1.3162   37.1110 H         1 NON         0.0599
    140 H75       -13.0584   -1.3143   36.2011 H         1 NON         0.2096
@<TRIPOS>BOND
     1    1    2 1  
     2    2    3 1  
     3    2    5 1  
     4    3    4 2  
     5    3    8 am 
     6    5    6 1  
     7    5    7 1  
     8    8    9 1  
     9    9   10 1  
    10    9   12 1  
    11   10   11 2  
    12   10   17 am 
    13   12   13 1  
    14   13   14 1  
    15   14   15 1  
    16   15   16 1  
    17   17   18 1  
    18   18   19 1  
    19   18   21 1  
    20   19   20 2  
    21   19   26 am 
    22   21   22 1  
    23   22   23 1  
    24   23   24 2  
    25   23   25 am 
    26   26   27 1  
    27   27   28 1  
    28   27   30 1  
    29   28   29 2  
    30   28   33 am 
    31   30   31 1  
    32   30   32 1  
    33   33   34 1  
    34   34   35 1  
    35   34   37 1  
    36   35   36 2  
    37   35   38 am 
    38   38   39 1  
    39   39   40 1  
    40   39   42 1  
    41   40   41 2  
    42   40   49 am 
    43   42   43 1  
    44   43   44 1  
    45   44   45 1  
    46   45   46 ar 
    47   46   47 ar 
    48   46   48 ar 
    49   49   50 1  
    50   50   51 1  
    51   50   57 1  
    52   51   52 1  
    53   52   53 1  
    54   53   54 1  
    55   54   55 1  
    56   55   56 1  
    57   57   58 2  
    58   57   59 am 
    59   59   60 1  
    60   60   61 1  
    61   60   63 1  
    62   61   62 ar 
    63   63   64 1  
    64   61   65 ar 
    65    1   66 1  
    66    1   67 1  
    67    1   68 1  
    68    2   69 1  
    69    5   70 1  
    70    6   71 1  
    71    7   72 1  
    72    7   73 1  
    73    7   74 1  
    74    8   75 1  
    75    9   76 1  
    76   12   77 1  
    77   12   78 1  
    78   13   79 1  
    79   13   80 1  
    80   14   81 1  
    81   14   82 1  
    82   15   83 1  
    83   15   84 1  
    84   16   85 1  
    85   16   86 1  
    86   16   87 1  
    87   17   88 1  
    88   18   89 1  
    89   21   90 1  
    90   21   91 1  
    91   22   92 1  
    92   22   93 1  
    93   25   94 1  
    94   25   95 1  
    95   26   96 1  
    96   27   97 1  
    97   30   98 1  
    98   31   99 1  
    99   32  100 1  
   100   32  101 1  
   101   32  102 1  
   102   33  103 1  
   103   34  104 1  
   104   37  105 1  
   105   37  106 1  
   106   37  107 1  
   107   38  108 1  
   108   39  109 1  
   109   42  110 1  
   110   42  111 1  
   111   43  112 1  
   112   43  113 1  
   113   44  114 1  
   114   44  115 1  
   115   45  116 1  
   116   47  117 1  
   117   47  118 1  
   118   48  119 1  
   119   48  120 1  
   120   49  121 1  
   121   50  122 1  
   122   51  123 1  
   123   51  124 1  
   124   52  125 1  
   125   52  126 1  
   126   53  127 1  
   127   53  128 1  
   128   54  129 1  
   129   54  130 1  
   130   55  131 1  
   131   55  132 1  
   132   56  133 1  
   133   56  134 1  
   134   56  135 1  
   135   59  136 1  
   136   60  137 1  
   137   63  138 1  
   138   63  139 1  
   139   64  140 1  
@<TRIPOS>SUBSTRUCTURE
     1 NON         1

