5j6n_ligand
  -I-interpret- 

 48 50  0  0  0  0  0  0  0  0999 V2000
   -0.8250   31.9980   26.5200 C   0  0  0  0  0
   -2.0580   32.3060   25.9490 C   0  0  0  0  0
   -2.0970   33.0500   24.7870 C   0  0  0  0  0
   -0.8870   34.3200   22.9760 C   0  0  0  0  0
   -0.5040   36.0520   21.6470 C   0  0  0  0  0
    0.5330   36.1810   23.8830 C   0  0  0  0  0
    1.9290   36.1110   23.8460 C   0  0  0  0  0
    2.6930   36.7200   24.8490 C   0  0  0  0  0
   -0.0930   36.8600   24.9390 C   0  0  0  0  0
    5.0070   29.2790   23.5890 C   0  0  0  0  0
   -0.8910   33.4540   24.1670 C   0  0  0  0  0
    0.3330   33.1360   24.7500 C   0  0  0  0  0
    0.3770   32.4560   25.9430 C   0  0  0  0  0
   -0.8330   31.3220   27.6900 O   0  0  0  0  0
   -3.3140   33.3500   24.2630 O   0  0  0  0  0
   -1.5550   34.1000   21.8750 N   0  0  0  0  0
   -1.3140   35.1670   21.0220 N   0  0  0  0  0
   -0.2300   35.5520   22.8750 N   0  0  0  0  0
    2.0580   37.3590   25.9160 C   0  0  0  0  0
    0.6680   37.4410   25.9590 C   0  0  0  0  0
   -0.1160   37.1190   21.1880 O   0  0  0  0  0
    1.9820   32.0650   26.5810 S   0  0  0  0  0
    2.8840   33.0170   25.9870 O   0  0  0  0  0
    1.8180   32.0210   27.9970 O   0  0  0  0  0
    2.2440   30.5870   25.8900 N   0  0  0  0  0
    3.0750   30.4260   24.6660 C   0  0  0  0  0
    4.3640   29.6220   24.9320 C   0  0  0  0  0
    1.5160   29.4500   26.4200 C   0  0  0  0  0
    2.5200   35.4980   22.7950 F   0  0  0  0  0
   -2.9819   31.9631   26.4149 H   0  0  0  0  0
    3.7815   36.6953   24.7970 H   0  0  0  0  0
   -1.1801   36.9354   24.9649 H   0  0  0  0  0
    4.3122   28.6839   22.9964 H   0  0  0  0  0
    5.2452   30.1995   23.0560 H   0  0  0  0  0
    5.9207   28.7098   23.7599 H   0  0  0  0  0
    1.2605   33.4280   24.2575 H   0  0  0  0  0
    0.0705   31.1718   27.9777 H   0  0  0  0  0
   -3.1978   33.8668   23.4624 H   0  0  0  0  0
   -1.6866   35.2678   20.0779 H   0  0  0  0  0
    2.6525   37.7955   26.7186 H   0  0  0  0  0
    0.1754   37.9557   26.7839 H   0  0  0  0  0
    3.3622   31.4190   24.3204 H   0  0  0  0  0
    2.4854   29.8832   23.9271 H   0  0  0  0  0
    5.0536   30.2131   25.5346 H   0  0  0  0  0
    4.1267   28.7074   25.4754 H   0  0  0  0  0
    1.7649   29.3197   27.4732 H   0  0  0  0  0
    0.4452   29.6260   26.3175 H   0  0  0  0  0
    1.7927   28.5529   25.8662 H   0  0  0  0  0
  1  2  4  0  0  0
 13  1  4  0  0  0
  1 14  1  0  0  0
  2  3  4  0  0  0
 11  3  4  0  0  0
  3 15  1  0  0  0
 11  4  1  0  0  0
  4 16  2  0  0  0
  4 18  1  0  0  0
  5 17  1  0  0  0
 18  5  1  0  0  0
  5 21  2  0  0  0
  6  7  4  0  0  0
  6  9  4  0  0  0
 18  6  1  0  0  0
  7  8  4  0  0  0
  7 29  1  0  0  0
  8 19  4  0  0  0
  9 20  4  0  0  0
 27 10  1  0  0  0
 12 11  4  0  0  0
 13 12  4  0  0  0
 22 13  1  0  0  0
 16 17  1  0  0  0
 20 19  4  0  0  0
 22 23  2  0  0  0
 22 24  2  0  0  0
 25 22  1  0  0  0
 26 25  1  0  0  0
 25 28  1  0  0  0
 26 27  1  0  0  0
  2 30  1  0  0  0
  8 31  1  0  0  0
  9 32  1  0  0  0
 10 33  1  0  0  0
 10 34  1  0  0  0
 10 35  1  0  0  0
 12 36  1  0  0  0
 14 37  1  0  0  0
 15 38  1  0  0  0
 17 39  1  0  0  0
 19 40  1  0  0  0
 20 41  1  0  0  0
 26 42  1  0  0  0
 26 43  1  0  0  0
 27 44  1  0  0  0
 27 45  1  0  0  0
 28 46  1  0  0  0
 28 47  1  0  0  0
 28 48  1  0  0  0
M  END
$$$$
