4ocz_ligand
  -I-interpret- 

 47 48  0  0  0  0  0  0  0  0999 V2000
   21.3830    7.7920   12.8470 F   0  0  0  0  0
   20.3700    8.2540   12.1480 C   0  0  0  0  0
   20.7830    9.0010   11.1340 F   0  0  0  0  0
   19.7350    7.1590   11.8050 F   0  0  0  0  0
   19.4150    9.0690   12.9500 C   0  0  0  0  0
   19.3990   10.4640   12.9370 C   0  0  0  0  0
   18.4640   11.1490   13.7210 C   0  0  0  0  0
   18.5100    8.3690   13.7240 C   0  0  0  0  0
   17.5990    9.0580   14.5090 C   0  0  0  0  0
   17.5430   10.4520   14.5300 C   0  0  0  0  0
   16.6870   11.1260   15.3740 N   0  0  0  0  0
   16.0720   10.6390   16.4850 C   0  0  0  0  0
   16.2220    9.4900   16.8640 O   0  0  0  0  0
   15.3330   11.5180   17.2030 N   0  0  0  0  0
   14.7880   11.3370   18.5620 C   0  0  0  0  0
   13.6360   10.3440   18.7370 C   0  0  0  0  0
   12.9990   10.3350   20.1450 C   0  0  0  0  0
   12.5870   11.7030   20.5360 N   0  0  0  0  0
   13.6760   12.6930   20.4220 C   0  0  0  0  0
   14.2800   12.7080   19.0170 C   0  0  0  0  0
   11.3870   12.0870   21.0410 C   0  0  0  0  0
   11.2140   13.2060   21.5580 O   0  0  0  0  0
   10.2240   11.1270   21.0190 C   0  0  0  0  0
    9.7330   10.9710   19.6030 C   0  0  0  0  0
    9.0720   11.6340   21.8800 C   0  0  0  0  0
   20.1091   11.0159   12.3211 H   0  0  0  0  0
   18.4473   12.2388   13.7061 H   0  0  0  0  0
   18.5123    7.2790   13.7174 H   0  0  0  0  0
   16.9040    8.4927   15.1299 H   0  0  0  0  0
   16.4929   12.0994   15.1390 H   0  0  0  0  0
   15.1294   12.4096   16.7513 H   0  0  0  0  0
   15.6060   10.9143   19.1453 H   0  0  0  0  0
   14.0469    9.3486   18.5685 H   0  0  0  0  0
   12.8541   10.6387   18.0371 H   0  0  0  0  0
   13.7317    9.9667   20.8631 H   0  0  0  0  0
   12.1202    9.6903   20.1323 H   0  0  0  0  0
   14.4598   12.4252   21.1305 H   0  0  0  0  0
   13.2658   13.6811   20.6306 H   0  0  0  0  0
   13.4964   13.0156   18.3246 H   0  0  0  0  0
   15.1325   13.3871   19.0319 H   0  0  0  0  0
   10.5664   10.1717   21.4169 H   0  0  0  0  0
    9.4134   11.9408   19.2217 H   0  0  0  0  0
   10.5393   10.5824   18.9810 H   0  0  0  0  0
    8.8924   10.2774   19.5856 H   0  0  0  0  0
    9.4115   11.7455   22.9098 H   0  0  0  0  0
    8.7340   12.5985   21.5011 H   0  0  0  0  0
    8.2500   10.9191   21.8424 H   0  0  0  0  0
  1  2  1  0  0  0
  2  3  1  0  0  0
  2  4  1  0  0  0
  2  5  1  0  0  0
  5  6  4  0  0  0
  5  8  4  0  0  0
  6  7  4  0  0  0
  7 10  4  0  0  0
  8  9  4  0  0  0
  9 10  4  0  0  0
 10 11  1  0  0  0
 11 12  1  0  0  0
 12 13  2  0  0  0
 12 14  1  0  0  0
 14 15  1  0  0  0
 15 16  1  0  0  0
 15 20  1  0  0  0
 16 17  1  0  0  0
 17 18  1  0  0  0
 18 19  1  0  0  0
 18 21  1  0  0  0
 19 20  1  0  0  0
 21 22  2  0  0  0
 21 23  1  0  0  0
 23 24  1  0  0  0
 23 25  1  0  0  0
  6 26  1  0  0  0
  7 27  1  0  0  0
  8 28  1  0  0  0
  9 29  1  0  0  0
 11 30  1  0  0  0
 14 31  1  0  0  0
 15 32  1  0  0  0
 16 33  1  0  0  0
 16 34  1  0  0  0
 17 35  1  0  0  0
 17 36  1  0  0  0
 19 37  1  0  0  0
 19 38  1  0  0  0
 20 39  1  0  0  0
 20 40  1  0  0  0
 23 41  1  0  0  0
 24 42  1  0  0  0
 24 43  1  0  0  0
 24 44  1  0  0  0
 25 45  1  0  0  0
 25 46  1  0  0  0
 25 47  1  0  0  0
M  END
$$$$
