5lh4_ligand
  -I-interpret- 

 75 80  0  0  0  0  0  0  0  0999 V2000
   25.1000   10.2920   20.2290 N   0  0  0  0  0
   24.1160    8.9220   18.8190 N   0  0  0  0  0
   23.6160    8.7350   20.1370 C   0  0  0  0  0
   24.2400    9.5940   20.9550 C   0  0  0  0  0
   22.5440    7.7030   20.4040 C   0  0  0  0  0
   26.0300   11.3090   20.6620 C   0  0  0  0  0
   27.1910   11.5670   19.6760 C   0  0  0  0  0
   27.9900   11.8710   21.9330 C   0  0  0  0  0
   29.2170   11.1790   22.4610 C   0  0  0  0  0
   25.0150    9.9020   18.9500 N   0  0  0  0  0
   22.8760    6.6200   21.4560 C   0  0  0  0  0
   21.7760    7.6660   21.7420 C   0  0  0  0  0
   28.0870   12.2900   20.5620 N   0  0  0  0  0
   26.8250   10.8570   21.8980 C   0  0  0  0  0
   29.7210   10.2130   21.8900 O   0  0  0  0  0
   29.6530   11.6930   23.6230 N   0  0  0  0  0
   30.6790   11.0410   24.4330 C   0  0  0  0  0
   29.9620   10.9290   25.8160 C   0  0  0  0  0
   28.5650   10.2730   25.7460 C   0  0  0  0  0
   28.2860    9.1070   25.0180 C   0  0  0  0  0
   26.9720    8.6260   24.9040 C   0  0  0  0  0
   25.9400    9.2950   25.5810 C   0  0  0  0  0
   26.1950   10.4730   26.2790 C   0  0  0  0  0
   27.4980   10.9580   26.3450 C   0  0  0  0  0
   30.8400   10.2950   26.9080 C   0  0  0  0  0
   31.8570   11.0640   27.4850 C   0  0  0  0  0
   32.6810   10.5280   28.4890 C   0  0  0  0  0
   32.4330    9.2320   28.9510 C   0  0  0  0  0
   31.3950    8.4650   28.4060 C   0  0  0  0  0
   30.5970    8.9980   27.3830 C   0  0  0  0  0
   28.8420   13.3870   20.2910 C   0  0  0  0  0
   29.4320   14.0040   21.1810 O   0  0  0  0  0
   28.9450   13.9590   18.8960 C   0  0  0  0  0
   29.0890   13.0900   17.7920 C   0  0  0  0  0
   29.1880   13.6160   16.4930 C   0  0  0  0  0
   29.1100   15.0030   16.3050 C   0  0  0  0  0
   28.9590   15.8750   17.3970 C   0  0  0  0  0
   28.9080   15.3410   18.7020 C   0  0  0  0  0
   29.1670   15.5670   14.8820 C   0  0  0  0  0
   30.5220   15.4890   14.3390 N   0  3  0  0  0
   24.0700    9.6993   22.0265 H   0  0  0  0  0
   22.2206    7.7348   19.3636 H   0  0  0  0  0
   25.3804   12.1731   20.8014 H   0  0  0  0  0
   26.9122   12.1021   18.7682 H   0  0  0  0  0
   27.6167   10.6715   19.2233 H   0  0  0  0  0
   27.8552   12.7326   22.5868 H   0  0  0  0  0
   23.7526    6.1990   21.9483 H   0  0  0  0  0
   23.0097    5.5393   21.5036 H   0  0  0  0  0
   20.7442    7.6913   22.0925 H   0  0  0  0  0
   21.4891    8.3527   22.5384 H   0  0  0  0  0
   27.1607    9.8218   21.8356 H   0  0  0  0  0
   26.2310   10.8563   22.8119 H   0  0  0  0  0
   29.2526   12.5715   23.9521 H   0  0  0  0  0
   31.6184   11.5924   24.4727 H   0  0  0  0  0
   31.0056   10.0813   24.0326 H   0  0  0  0  0
   29.7920   11.9635   26.1145 H   0  0  0  0  0
   29.1001    8.5672   24.5344 H   0  0  0  0  0
   26.7561    7.7457   24.2985 H   0  0  0  0  0
   24.9289    8.8884   25.5602 H   0  0  0  0  0
   25.3824   11.0097   26.7686 H   0  0  0  0  0
   27.6933   11.8908   26.8739 H   0  0  0  0  0
   32.0116   12.0902   27.1518 H   0  0  0  0  0
   33.5019   11.1143   28.9018 H   0  0  0  0  0
   33.0537    8.8140   29.7435 H   0  0  0  0  0
   31.2081    7.4569   28.7759 H   0  0  0  0  0
   29.7881    8.4042   26.9573 H   0  0  0  0  0
   29.1233   12.0117   17.9477 H   0  0  0  0  0
   29.3242   12.9519   15.6394 H   0  0  0  0  0
   28.8822   16.9506   17.2376 H   0  0  0  0  0
   28.8396   16.0090   19.5606 H   0  0  0  0  0
   28.8616   16.6130   14.9088 H   0  0  0  0  0
   28.5026   14.9805   14.2474 H   0  0  0  0  0
   30.5304   15.8704   13.3930 H   0  0  0  0  0
   31.1553   16.0278   14.9298 H   0  0  0  0  0
   30.8225   14.5145   14.3166 H   0  0  0  0  0
  1  4  4  0  0  0
  6  1  1  0  0  0
  1 10  4  0  0  0
  2  3  4  0  0  0
 10  2  4  0  0  0
  4  3  4  0  0  0
  3  5  1  0  0  0
  5 11  1  0  0  0
  5 12  1  0  0  0
  7  6  1  0  0  0
  6 14  1  0  0  0
 13  7  1  0  0  0
  8  9  1  0  0  0
  8 13  1  0  0  0
  8 14  1  0  0  0
  9 15  2  0  0  0
  9 16  1  0  0  0
 11 12  1  0  0  0
 13 31  1  0  0  0
 16 17  1  0  0  0
 17 18  1  0  0  0
 18 19  1  0  0  0
 18 25  1  0  0  0
 19 20  4  0  0  0
 19 24  4  0  0  0
 20 21  4  0  0  0
 21 22  4  0  0  0
 22 23  4  0  0  0
 23 24  4  0  0  0
 25 26  4  0  0  0
 25 30  4  0  0  0
 26 27  4  0  0  0
 27 28  4  0  0  0
 28 29  4  0  0  0
 29 30  4  0  0  0
 31 32  2  0  0  0
 31 33  1  0  0  0
 33 34  4  0  0  0
 33 38  4  0  0  0
 34 35  4  0  0  0
 35 36  4  0  0  0
 36 37  4  0  0  0
 36 39  1  0  0  0
 37 38  4  0  0  0
 39 40  1  0  0  0
  4 41  1  0  0  0
  5 42  1  0  0  0
  6 43  1  0  0  0
  7 44  1  0  0  0
  7 45  1  0  0  0
  8 46  1  0  0  0
 11 47  1  0  0  0
 11 48  1  0  0  0
 12 49  1  0  0  0
 12 50  1  0  0  0
 14 51  1  0  0  0
 14 52  1  0  0  0
 16 53  1  0  0  0
 17 54  1  0  0  0
 17 55  1  0  0  0
 18 56  1  0  0  0
 20 57  1  0  0  0
 21 58  1  0  0  0
 22 59  1  0  0  0
 23 60  1  0  0  0
 24 61  1  0  0  0
 26 62  1  0  0  0
 27 63  1  0  0  0
 28 64  1  0  0  0
 29 65  1  0  0  0
 30 66  1  0  0  0
 34 67  1  0  0  0
 35 68  1  0  0  0
 37 69  1  0  0  0
 38 70  1  0  0  0
 39 71  1  0  0  0
 39 72  1  0  0  0
 40 73  1  0  0  0
 40 74  1  0  0  0
 40 75  1  0  0  0
M  END
$$$$
