1kl5_ligand
  -I-interpret- 

 81 83  0  0  0  0  0  0  0  0999 V2000
   11.5330    0.3250   34.0670 N   0  3  0  0  0
   11.5370    1.8240   34.1380 C   0  0  0  0  0
   12.7320    2.4260   33.3920 C   0  0  0  0  0
   13.8220    2.5500   33.9280 O   0  0  0  0  0
   11.6100    2.3360   35.5780 C   0  0  0  0  0
   12.9430    2.1940   36.0450 O   0  0  0  0  0
   12.5810    2.7670   32.1270 N   0  0  0  0  0
   13.6590    3.4450   31.4150 C   0  0  0  0  0
   13.5460    4.9750   31.4110 C   0  0  0  0  0
   12.4530    5.5460   31.2940 O   0  0  0  0  0
   13.5930    2.9100   30.0040 C   0  0  0  0  0
   14.7960    3.2450   29.1830 C   0  0  0  0  0
   14.9630    4.4830   28.6020 N   0  0  0  0  0
   15.8710    2.4960   28.8330 C   0  0  0  0  0
   16.1070    4.4870   27.9450 C   0  0  0  0  0
   16.6820    3.3000   28.0720 N   0  0  0  0  0
   14.6790    5.6720   31.5000 N   0  0  0  0  0
   14.6570    7.1400   31.5420 C   0  0  0  0  0
   14.0300    7.8020   30.3250 C   0  0  0  0  0
   13.5740    8.9220   30.4820 O   0  0  0  0  0
   16.1210    7.5520   31.5070 C   0  0  0  0  0
   16.8870    6.3370   31.6880 C   0  0  0  0  0
   16.0530    5.1360   31.5340 C   0  0  0  0  0
   14.0150    7.2070   29.1430 N   0  0  0  0  0
   13.3190    7.8620   28.0330 C   0  0  0  0  0
   11.8200    8.0350   28.3270 C   0  0  0  0  0
   11.1940    8.9550   27.7750 O   0  0  0  0  0
   13.4280    7.0220   26.7540 C   0  0  0  0  0
   12.9670    7.7140   25.4960 C   0  0  0  0  0
   13.3060    6.8750   24.2520 C   0  0  0  0  0
   12.6210    6.8810   23.2180 O   0  0  0  0  0
   14.3380    6.1310   24.3830 N   0  0  0  0  0
   11.2610    7.1800   29.1940 N   0  0  0  0  0
    9.8290    7.2140   29.5000 C   0  0  0  0  0
    9.5290    7.4700   30.9770 C   0  0  0  0  0
    8.4290    7.1090   31.3880 O   0  0  0  0  0
    9.1770    5.8920   29.0840 C   0  0  0  0  0
    9.6880    5.3960   27.7690 C   0  0  0  0  0
    9.4040    6.1200   26.6290 C   0  0  0  0  0
   10.4510    4.2450   27.6770 C   0  0  0  0  0
    9.8760    5.6900   25.4070 C   0  0  0  0  0
   10.9220    3.8150   26.4540 C   0  0  0  0  0
   10.6400    4.5350   25.3100 C   0  0  0  0  0
   11.4835    0.0322   33.0912 H   0  0  0  0  0
   12.3885   -0.0364   34.4888 H   0  0  0  0  0
   10.7242   -0.0360   34.5730 H   0  0  0  0  0
   10.5993    2.1323   33.6756 H   0  0  0  0  0
   10.9332    1.7610   36.2100 H   0  0  0  0  0
   11.3153    3.3848   35.6133 H   0  0  0  0  0
   12.9999    2.5127   36.9488 H   0  0  0  0  0
   11.7074    2.5560   31.6446 H   0  0  0  0  0
   14.6084    3.2472   31.9126 H   0  0  0  0  0
   12.7290    3.3660   29.5207 H   0  0  0  0  0
   13.5320    1.8236   30.0679 H   0  0  0  0  0
   16.0553    1.4564   29.1038 H   0  0  0  0  0
   16.5137    5.3308   27.3875 H   0  0  0  0  0
   14.0779    7.4406   32.4151 H   0  0  0  0  0
   16.3439    8.2773   32.2896 H   0  0  0  0  0
   16.3703    8.0367   30.5631 H   0  0  0  0  0
   17.2996    6.3399   32.6969 H   0  0  0  0  0
   17.6694    6.3097   30.9296 H   0  0  0  0  0
   16.3015    4.5672   30.6380 H   0  0  0  0  0
   16.2014    4.4184   32.3409 H   0  0  0  0  0
   14.4794    6.3090   29.0075 H   0  0  0  0  0
   13.7923    8.8356   27.9058 H   0  0  0  0  0
   12.7820    6.1548   26.8910 H   0  0  0  0  0
   14.4847    6.7921   26.6176 H   0  0  0  0  0
   13.4743    8.6757   25.4190 H   0  0  0  0  0
   11.8863    7.8470   25.5451 H   0  0  0  0  0
   14.6226    5.5150   23.6215 H   0  0  0  0  0
   14.8765    6.1537   25.2490 H   0  0  0  0  0
   11.8495    6.4855   29.6541 H   0  0  0  0  0
    9.4155    8.0497   28.9355 H   0  0  0  0  0
   10.2554    7.9493   31.6332 H   0  0  0  0  0
    8.1042    6.0595   28.9884 H   0  0  0  0  0
    9.4133    5.1452   29.8420 H   0  0  0  0  0
    8.8077    7.0301   26.6945 H   0  0  0  0  0
   10.6812    3.6746   28.5769 H   0  0  0  0  0
    9.6470    6.2626   24.5082 H   0  0  0  0  0
   11.5182    2.9047   26.3904 H   0  0  0  0  0
   11.0129    4.2004   24.3420 H   0  0  0  0  0
  1  2  1  0  0  0
  2  3  1  0  0  0
  2  5  1  0  0  0
  3  4  2  0  0  0
  3  7  1  0  0  0
  5  6  1  0  0  0
  7  8  1  0  0  0
  8  9  1  0  0  0
  8 11  1  0  0  0
  9 10  2  0  0  0
  9 17  1  0  0  0
 11 12  1  0  0  0
 12 13  4  0  0  0
 12 14  4  0  0  0
 13 15  4  0  0  0
 14 16  4  0  0  0
 15 16  4  0  0  0
 17 18  1  0  0  0
 17 23  1  0  0  0
 18 19  1  0  0  0
 18 21  1  0  0  0
 19 20  2  0  0  0
 19 24  1  0  0  0
 21 22  1  0  0  0
 22 23  1  0  0  0
 24 25  1  0  0  0
 25 26  1  0  0  0
 25 28  1  0  0  0
 26 27  2  0  0  0
 26 33  1  0  0  0
 28 29  1  0  0  0
 29 30  1  0  0  0
 30 31  2  0  0  0
 30 32  1  0  0  0
 33 34  1  0  0  0
 34 35  1  0  0  0
 34 37  1  0  0  0
 35 36  2  0  0  0
 37 38  1  0  0  0
 38 39  4  0  0  0
 38 40  4  0  0  0
 39 41  4  0  0  0
 40 42  4  0  0  0
 41 43  4  0  0  0
 42 43  4  0  0  0
  1 44  1  0  0  0
  1 45  1  0  0  0
  1 46  1  0  0  0
  2 47  1  0  0  0
  5 48  1  0  0  0
  5 49  1  0  0  0
  6 50  1  0  0  0
  7 51  1  0  0  0
  8 52  1  0  0  0
 11 53  1  0  0  0
 11 54  1  0  0  0
 14 55  1  0  0  0
 15 56  1  0  0  0
 18 57  1  0  0  0
 21 58  1  0  0  0
 21 59  1  0  0  0
 22 60  1  0  0  0
 22 61  1  0  0  0
 23 62  1  0  0  0
 23 63  1  0  0  0
 24 64  1  0  0  0
 25 65  1  0  0  0
 28 66  1  0  0  0
 28 67  1  0  0  0
 29 68  1  0  0  0
 29 69  1  0  0  0
 32 70  1  0  0  0
 32 71  1  0  0  0
 33 72  1  0  0  0
 34 73  1  0  0  0
 35 74  1  0  0  0
 37 75  1  0  0  0
 37 76  1  0  0  0
 39 77  1  0  0  0
 40 78  1  0  0  0
 41 79  1  0  0  0
 42 80  1  0  0  0
 43 81  1  0  0  0
M  END
$$$$
