1ff1_ligand
  -I-interpret- 

 96 97  0  0  0  0  0  0  0  0999 V2000
    4.7460    7.0830    8.2030 N   0  3  0  0  0
    3.2920    7.1450    7.8670 C   0  0  0  0  0
    3.1040    7.3120    6.3550 C   0  0  0  0  0
    3.2120    8.3990    5.8240 O   0  0  0  0  0
    2.7630    8.3750    8.6060 C   0  0  0  0  0
    1.3440    8.3970    8.5230 O   0  0  0  0  0
    2.8190    6.2450    5.6580 N   0  0  0  0  0
    2.6230    6.3560    4.1830 C   0  0  0  0  0
    2.3230    4.9830    3.5750 C   0  0  0  0  0
    1.6330    4.8740    2.5810 O   0  0  0  0  0
    3.9460    6.9040    3.6420 C   0  0  0  0  0
    3.9450    6.8190    2.2240 O   0  0  0  0  0
    5.1110    6.0850    4.2030 C   0  0  0  0  0
    2.8370    3.9350    4.1590 N   0  0  0  0  0
    2.5810    2.5740    3.6030 C   0  0  0  0  0
    1.9030    1.6840    4.6500 C   0  0  0  0  0
    2.4400    1.4620    5.7170 O   0  0  0  0  0
    3.9630    2.0290    3.2500 C   0  0  0  0  0
    3.8130    0.6940    2.5200 C   0  0  0  0  0
    2.8610   -0.0280    2.7390 O   0  0  0  0  0
    4.7190    0.3350    1.6530 N   0  0  0  0  0
    0.7350    1.2050    4.3070 N   0  0  0  0  0
   -0.0310    0.3330    5.2300 C   0  0  0  0  0
    0.5280   -1.0970    5.2320 C   0  0  0  0  0
   -0.0350   -1.9880    5.8360 O   0  0  0  0  0
   -1.4420    0.3600    4.6530 C   0  0  0  0  0
   -1.2710    0.6750    3.1990 C   0  0  0  0  0
    0.0240    1.4320    3.0440 C   0  0  0  0  0
    1.6290   -1.3270    4.5640 N   0  0  0  0  0
    2.2100   -2.7060    4.5400 C   0  0  0  0  0
    3.6910   -2.6670    4.9340 C   0  0  0  0  0
    4.4450   -3.5720    4.6370 O   0  0  0  0  0
    2.0490   -3.1860    3.0930 C   0  0  0  0  0
    0.5840   -3.3450    2.7830 C   0  0  0  0  0
   -0.1660   -4.3260    3.4400 C   0  0  0  0  0
   -0.0230   -2.5110    1.8390 C   0  0  0  0  0
   -1.5260   -4.4740    3.1510 C   0  0  0  0  0
   -1.3820   -2.6590    1.5490 C   0  0  0  0  0
   -2.1330   -3.6410    2.2050 C   0  0  0  0  0
    4.1120   -1.6280    5.6030 N   0  0  0  0  0
    5.5430   -1.5350    6.0150 C   0  0  0  0  0
    5.6440   -1.3620    7.5340 C   0  0  0  0  0
    4.7140   -0.8240    8.1110 O   0  0  0  0  0
    6.0850   -0.3000    5.2930 C   0  0  0  0  0
    7.2960   -0.6960    4.4460 C   0  0  0  0  0
    6.8540   -1.6500    3.3360 C   0  0  0  0  0
    7.9170    0.5590    3.8250 C   0  0  0  0  0
    6.6480   -1.7720    8.0910 O   0  0  0  0  0
    5.1669    6.2781    7.7390 H   0  0  0  0  0
    5.2038    7.9376    7.8859 H   0  0  0  0  0
    4.8568    6.9911    9.2128 H   0  0  0  0  0
    2.7654    6.2359    8.1572 H   0  0  0  0  0
    3.1697    9.2779    8.1506 H   0  0  0  0  0
    3.0672    8.3319    9.6518 H   0  0  0  0  0
    1.0094    9.1684    8.9863 H   0  0  0  0  0
    2.7308    5.3398    6.1198 H   0  0  0  0  0
    1.7811    7.0014    3.9324 H   0  0  0  0  0
    4.0594    7.9446    3.9459 H   0  0  0  0  0
    4.7743    7.1624    1.8834 H   0  0  0  0  0
    4.9997    5.0435    3.9015 H   0  0  0  0  0
    6.0504    6.4786    3.8147 H   0  0  0  0  0
    5.1097    6.1517    5.2910 H   0  0  0  0  0
    3.4125    4.0460    4.9938 H   0  0  0  0  0
    1.9168    2.6010    2.7392 H   0  0  0  0  0
    4.5394    1.8810    4.1632 H   0  0  0  0  0
    4.4801    2.7396    2.6052 H   0  0  0  0  0
    4.6283   -0.5525    1.1584 H   0  0  0  0  0
    5.5181    0.9417    1.4696 H   0  0  0  0  0
    0.0154    0.6703    6.2655 H   0  0  0  0  0
   -2.0647    1.1020    5.1528 H   0  0  0  0  0
   -1.9525   -0.5919    4.7990 H   0  0  0  0  0
   -2.1069    1.2752    2.8397 H   0  0  0  0  0
   -1.2466   -0.2431    2.6120 H   0  0  0  0  0
    0.5984    1.0876    2.1840 H   0  0  0  0  0
   -0.1426    2.4922    2.8536 H   0  0  0  0  0
    2.0901   -0.5688    4.0611 H   0  0  0  0  0
    1.7130   -3.3722    5.2452 H   0  0  0  0  0
    2.5551   -4.1431    2.9671 H   0  0  0  0  0
    2.4888   -2.4551    2.4145 H   0  0  0  0  0
    0.3091   -4.9742    4.1763 H   0  0  0  0  0
    0.5633   -1.7461    1.3298 H   0  0  0  0  0
   -2.1125   -5.2374    3.6621 H   0  0  0  0  0
   -1.8566   -2.0103    0.8127 H   0  0  0  0  0
   -3.1929   -3.7570    1.9784 H   0  0  0  0  0
    3.4624   -0.8795    5.8441 H   0  0  0  0  0
    6.1068   -2.4325    5.7604 H   0  0  0  0  0
    4.0376   -0.5859    7.4727 H   0  0  0  0  0
    6.3837    0.4485    6.0270 H   0  0  0  0  0
    5.3097    0.1136    4.6480 H   0  0  0  0  0
    8.0334   -1.1920    5.0771 H   0  0  0  0  0
    6.4136   -2.5428    3.7800 H   0  0  0  0  0
    6.1160   -1.1544    2.7053 H   0  0  0  0  0
    7.7184   -1.9305    2.7342 H   0  0  0  0  0
    7.1784    1.0546    3.1949 H   0  0  0  0  0
    8.2333    1.2367    4.6179 H   0  0  0  0  0
    8.7796    0.2756    3.2219 H   0  0  0  0  0
  1  2  1  0  0  0
  2  3  1  0  0  0
  2  5  1  0  0  0
  3  4  2  0  0  0
  3  7  1  0  0  0
  5  6  1  0  0  0
  7  8  1  0  0  0
  8  9  1  0  0  0
  8 11  1  0  0  0
  9 10  2  0  0  0
  9 14  1  0  0  0
 11 12  1  0  0  0
 11 13  1  0  0  0
 14 15  1  0  0  0
 15 16  1  0  0  0
 15 18  1  0  0  0
 16 17  2  0  0  0
 16 22  1  0  0  0
 18 19  1  0  0  0
 19 20  2  0  0  0
 19 21  1  0  0  0
 22 23  1  0  0  0
 22 28  1  0  0  0
 23 24  1  0  0  0
 23 26  1  0  0  0
 24 25  2  0  0  0
 24 29  1  0  0  0
 26 27  1  0  0  0
 27 28  1  0  0  0
 29 30  1  0  0  0
 30 31  1  0  0  0
 30 33  1  0  0  0
 31 32  2  0  0  0
 31 40  1  0  0  0
 33 34  1  0  0  0
 34 35  4  0  0  0
 34 36  4  0  0  0
 35 37  4  0  0  0
 36 38  4  0  0  0
 37 39  4  0  0  0
 38 39  4  0  0  0
 40 41  1  0  0  0
 41 42  1  0  0  0
 41 44  1  0  0  0
 42 43  1  0  0  0
 42 48  2  0  0  0
 44 45  1  0  0  0
 45 46  1  0  0  0
 45 47  1  0  0  0
  1 49  1  0  0  0
  1 50  1  0  0  0
  1 51  1  0  0  0
  2 52  1  0  0  0
  5 53  1  0  0  0
  5 54  1  0  0  0
  6 55  1  0  0  0
  7 56  1  0  0  0
  8 57  1  0  0  0
 11 58  1  0  0  0
 12 59  1  0  0  0
 13 60  1  0  0  0
 13 61  1  0  0  0
 13 62  1  0  0  0
 14 63  1  0  0  0
 15 64  1  0  0  0
 18 65  1  0  0  0
 18 66  1  0  0  0
 21 67  1  0  0  0
 21 68  1  0  0  0
 23 69  1  0  0  0
 26 70  1  0  0  0
 26 71  1  0  0  0
 27 72  1  0  0  0
 27 73  1  0  0  0
 28 74  1  0  0  0
 28 75  1  0  0  0
 29 76  1  0  0  0
 30 77  1  0  0  0
 33 78  1  0  0  0
 33 79  1  0  0  0
 35 80  1  0  0  0
 36 81  1  0  0  0
 37 82  1  0  0  0
 38 83  1  0  0  0
 39 84  1  0  0  0
 40 85  1  0  0  0
 41 86  1  0  0  0
 43 87  1  0  0  0
 44 88  1  0  0  0
 44 89  1  0  0  0
 45 90  1  0  0  0
 46 91  1  0  0  0
 46 92  1  0  0  0
 46 93  1  0  0  0
 47 94  1  0  0  0
 47 95  1  0  0  0
 47 96  1  0  0  0
M  END
$$$$
