6bec_ligand
  -I-interpret- 

126131  0  0  0  0  0  0  0  0999 V2000
   88.0710  101.7670   39.9240 C   0  0  0  0  0
   88.4750  100.7600   40.9670 C   0  0  0  0  0
   88.4640  101.1300   42.2780 C   0  0  0  0  0
   88.2000  102.5110   42.6760 C   0  0  0  0  0
   87.7840  104.9430   42.0780 C   0  0  0  0  0
   87.5290  105.8760   41.0750 C   0  0  0  0  0
   87.3880  105.5510   39.7220 C   0  0  0  0  0
   87.5360  104.2040   39.3670 C   0  0  0  0  0
   87.8130  103.1950   40.3340 C   0  0  0  0  0
   87.9160  103.5770   41.7160 C   0  0  0  0  0
   87.9950  105.7090   43.2730 C   0  0  0  0  0
   88.1990  107.1890   42.8280 C   0  0  0  0  0
   87.5740  108.2860   43.7370 C   0  0  0  0  0
   87.1070  106.6050   38.6780 C   0  0  0  0  0
   88.2630   98.3090   40.7800 C   0  0  0  0  0
   88.6240   97.2210   39.7410 C   0  0  0  0  0
   89.9410   96.9520   39.3960 C   0  0  0  0  0
   91.1070   97.6280   39.8960 C   0  0  0  0  0
   92.3860   97.3860   39.5790 C   0  0  0  0  0
   93.5790   98.1530   40.1050 C   0  0  0  0  0
   93.5640   99.6400   39.5780 C   0  0  0  0  0
   94.5610  100.6780   40.2620 C   0  0  0  0  0
   93.8870  102.0500   40.5240 C   0  0  0  0  0
   94.1820  103.1500   39.4690 C   0  0  0  0  0
   93.9270  104.5940   39.9680 C   0  0  0  0  0
   92.4970  104.8700   40.5000 C   0  0  0  0  0
   92.4550  105.9720   41.5820 C   0  0  0  0  0
   91.2310  105.8780   42.4600 C   0  0  0  0  0
   90.6330  106.8930   43.1080 C   0  0  0  0  0
   87.4460   96.4920   39.1620 C   0  0  0  0  0
   93.6340   98.0840   41.6370 C   0  0  0  0  0
   95.9030  100.7780   39.5300 C   0  0  0  0  0
   93.4650  102.8800   38.1400 C   0  0  0  0  0
   91.5010  105.1480   39.3670 C   0  0  0  0  0
   96.0680  105.4790   40.6430 C   0  0  0  0  0
   96.8920  105.7770   41.8470 C   0  0  0  0  0
   93.6390  108.0470   41.4480 C   0  0  0  0  0
   88.6340  101.3190   44.5170 C   0  0  0  0  0
   87.5870  100.9610   45.5680 C   0  0  0  0  0
   90.0160  101.4660   45.1460 C   0  0  0  0  0
   88.0250   99.8200   46.4750 C   0  0  0  0  0
   90.3750  100.3070   46.0640 C   0  0  0  0  0
   89.7500   99.1220   48.1230 C   0  0  0  0  0
   89.4530   97.6390   47.8480 C   0  0  0  0  0
   88.0560   97.1220   48.1820 C   0  0  0  0  0
   90.0200   97.0540   46.5530 C   0  0  0  0  0
   88.9540   99.4890   40.6460 N   0  0  0  0  0
   88.6870  100.3690   43.3890 N   0  0  0  0  0
   88.2890  102.6230   43.9580 N   0  0  0  0  0
   89.3390  100.1040   47.0970 N   0  3  0  0  0
   87.9860  101.4110   38.7460 O   0  0  0  0  0
   87.4080  103.8970   38.0450 O   0  0  0  0  0
   87.5130  107.1950   41.5200 O   0  0  0  0  0
   88.0390  105.4090   44.4490 O   0  0  0  0  0
   89.5800  107.6280   42.5020 O   0  0  0  0  0
   92.5600  107.2600   40.9500 O   0  0  0  0  0
   94.8910  104.9070   41.0010 O   0  0  0  0  0
   96.3850  105.7020   39.5040 O   0  0  0  0  0
   94.2480  102.4600   41.8390 O   0  0  0  0  0
   93.7140   99.6410   38.1610 O   0  0  0  0  0
   87.4580   98.0920   41.6900 O   0  0  0  0  0
   86.4953  108.1393   43.7920 H   0  0  0  0  0
   88.0029  108.2156   44.7366 H   0  0  0  0  0
   87.7874  109.2690   43.3171 H   0  0  0  0  0
   86.1666  107.1043   38.9115 H   0  0  0  0  0
   87.9163  107.3352   38.6737 H   0  0  0  0  0
   87.0360  106.1337   37.6977 H   0  0  0  0  0
   90.1074   96.1506   38.6762 H   0  0  0  0  0
   90.9305   98.4283   40.6146 H   0  0  0  0  0
   92.5832   96.5691   38.8848 H   0  0  0  0  0
   94.4890   97.6869   39.7271 H   0  0  0  0  0
   92.5896  100.0222   39.8822 H   0  0  0  0  0
   94.8067  100.2798   41.2465 H   0  0  0  0  0
   92.8096  101.9128   40.4320 H   0  0  0  0  0
   95.2558  103.0877   39.2922 H   0  0  0  0  0
   94.0360  105.2347   39.0929 H   0  0  0  0  0
   92.1811  103.9491   40.9902 H   0  0  0  0  0
   93.3050  105.8288   42.2492 H   0  0  0  0  0
   91.5990  105.2728   43.2885 H   0  0  0  0  0
   90.4638  105.5925   41.7403 H   0  0  0  0  0
   91.4274  107.6279   43.2385 H   0  0  0  0  0
   90.1622  106.4168   43.9680 H   0  0  0  0  0
   87.4302   96.6304   38.0809 H   0  0  0  0  0
   87.5286   95.4298   39.3924 H   0  0  0  0  0
   86.5270   96.8884   39.5938 H   0  0  0  0  0
   92.7241   98.5178   42.0519 H   0  0  0  0  0
   93.7172   97.0432   41.9498 H   0  0  0  0  0
   94.4996   98.6422   41.9937 H   0  0  0  0  0
   96.3871   99.8014   39.5265 H   0  0  0  0  0
   95.7324  101.1041   38.5040 H   0  0  0  0  0
   96.5410  101.4994   40.0405 H   0  0  0  0  0
   93.7977  101.9235   37.7369 H   0  0  0  0  0
   92.3886  102.8499   38.3089 H   0  0  0  0  0
   93.7011  103.6754   37.4331 H   0  0  0  0  0
   91.8280  106.0221   38.8038 H   0  0  0  0  0
   91.4556  104.2835   38.7046 H   0  0  0  0  0
   90.5142  105.3353   39.7903 H   0  0  0  0  0
   97.8346  105.2332   41.7843 H   0  0  0  0  0
   97.0912  106.8476   41.8935 H   0  0  0  0  0
   96.3513  105.4675   42.7414 H   0  0  0  0  0
   93.5015  108.2153   42.5161 H   0  0  0  0  0
   94.5787  107.5209   41.2798 H   0  0  0  0  0
   93.6590  109.0045   40.9276 H   0  0  0  0  0
   86.6851  100.6432   45.0449 H   0  0  0  0  0
   87.4274  101.8402   46.1922 H   0  0  0  0  0
   90.0141  102.3768   45.7448 H   0  0  0  0  0
   90.7482  101.4906   44.3389 H   0  0  0  0  0
   88.1123   98.9135   45.8761 H   0  0  0  0  0
   87.2844   99.7004   47.2658 H   0  0  0  0  0
   91.3196  100.5340   46.5582 H   0  0  0  0  0
   90.4521   99.3995   45.4652 H   0  0  0  0  0
   90.8358   99.1971   48.1817 H   0  0  0  0  0
   89.1778   99.3745   49.0157 H   0  0  0  0  0
   90.0708   97.2105   48.6372 H   0  0  0  0  0
   87.8633   97.2610   49.2458 H   0  0  0  0  0
   87.3171   97.6751   47.6023 H   0  0  0  0  0
   87.9937   96.0620   47.9356 H   0  0  0  0  0
   89.6156   97.6008   45.7012 H   0  0  0  0  0
   91.1063   97.1428   46.5608 H   0  0  0  0  0
   89.7406   96.0031   46.4777 H   0  0  0  0  0
   89.9037   99.4308   40.2784 H   0  0  0  0  0
   88.8538   99.3636   43.4305 H   0  0  0  0  0
   89.2269  100.9764   47.6135 H   0  0  0  0  0
   87.5285  102.9523   37.9239 H   0  0  0  0  0
   93.8439  103.3095   42.0304 H   0  0  0  0  0
   93.7049  100.5457   37.8400 H   0  0  0  0  0
  2  1  1  0  0  0
  9  1  1  0  0  0
  1 51  2  0  0  0
  3  2  2  0  0  0
  2 47  1  0  0  0
  4  3  1  0  0  0
 48  3  1  0  0  0
  4 10  1  0  0  0
 49  4  2  0  0  0
  5  6  4  0  0  0
 10  5  4  0  0  0
  5 11  1  0  0  0
  6  7  4  0  0  0
  6 53  1  0  0  0
  8  7  4  0  0  0
  7 14  1  0  0  0
  9  8  4  0  0  0
  8 52  1  0  0  0
 10  9  4  0  0  0
 11 12  1  0  0  0
 11 54  2  0  0  0
 12 13  1  0  0  0
 12 53  1  0  0  0
 12 55  1  0  0  0
 15 16  1  0  0  0
 47 15  1  0  0  0
 15 61  2  0  0  0
 16 17  2  0  0  0
 16 30  1  0  0  0
 17 18  1  0  0  0
 18 19  2  0  0  0
 19 20  1  0  0  0
 20 21  1  0  0  0
 20 31  1  0  0  0
 21 22  1  0  0  0
 21 60  1  0  0  0
 22 23  1  0  0  0
 22 32  1  0  0  0
 24 23  1  0  0  0
 23 59  1  0  0  0
 25 24  1  0  0  0
 24 33  1  0  0  0
 26 25  1  0  0  0
 25 57  1  0  0  0
 27 26  1  0  0  0
 26 34  1  0  0  0
 28 27  1  0  0  0
 27 56  1  0  0  0
 29 28  1  0  0  0
 55 29  1  0  0  0
 35 36  1  0  0  0
 57 35  1  0  0  0
 35 58  2  0  0  0
 56 37  1  0  0  0
 39 38  1  0  0  0
 40 38  1  0  0  0
 38 48  1  0  0  0
 38 49  1  0  0  0
 41 39  1  0  0  0
 42 40  1  0  0  0
 50 41  1  0  0  0
 50 42  1  0  0  0
 43 44  1  0  0  0
 43 50  1  0  0  0
 44 45  1  0  0  0
 44 46  1  0  0  0
 13 62  1  0  0  0
 13 63  1  0  0  0
 13 64  1  0  0  0
 14 65  1  0  0  0
 14 66  1  0  0  0
 14 67  1  0  0  0
 17 68  1  0  0  0
 18 69  1  0  0  0
 19 70  1  0  0  0
 20 71  1  0  0  0
 21 72  1  0  0  0
 22 73  1  0  0  0
 23 74  1  0  0  0
 24 75  1  0  0  0
 25 76  1  0  0  0
 26 77  1  0  0  0
 27 78  1  0  0  0
 28 79  1  0  0  0
 28 80  1  0  0  0
 29 81  1  0  0  0
 29 82  1  0  0  0
 30 83  1  0  0  0
 30 84  1  0  0  0
 30 85  1  0  0  0
 31 86  1  0  0  0
 31 87  1  0  0  0
 31 88  1  0  0  0
 32 89  1  0  0  0
 32 90  1  0  0  0
 32 91  1  0  0  0
 33 92  1  0  0  0
 33 93  1  0  0  0
 33 94  1  0  0  0
 34 95  1  0  0  0
 34 96  1  0  0  0
 34 97  1  0  0  0
 36 98  1  0  0  0
 36 99  1  0  0  0
 36100  1  0  0  0
 37101  1  0  0  0
 37102  1  0  0  0
 37103  1  0  0  0
 39104  1  0  0  0
 39105  1  0  0  0
 40106  1  0  0  0
 40107  1  0  0  0
 41108  1  0  0  0
 41109  1  0  0  0
 42110  1  0  0  0
 42111  1  0  0  0
 43112  1  0  0  0
 43113  1  0  0  0
 44114  1  0  0  0
 45115  1  0  0  0
 45116  1  0  0  0
 45117  1  0  0  0
 46118  1  0  0  0
 46119  1  0  0  0
 46120  1  0  0  0
 47121  1  0  0  0
 48122  1  0  0  0
 50123  1  0  0  0
 52124  1  0  0  0
 59125  1  0  0  0
 60126  1  0  0  0
M  END
$$$$
