3d7h_ligand
  -I-interpret- 

 55 55  0  0  0  0  0  0  0  0999 V2000
   23.7600   50.2890   51.1960 I   0  0  0  0  0
   23.5690   50.0000   49.0670 C   0  0  0  0  0
   23.6870   51.0340   48.1360 C   0  0  0  0  0
   23.5420   50.8600   46.7400 C   0  0  0  0  0
   23.3050   48.7450   48.4950 C   0  0  0  0  0
   23.1900   48.5610   47.0960 C   0  0  0  0  0
   23.3040   49.5940   46.1750 C   0  0  0  0  0
   23.1030   49.3840   44.6770 C   0  0  0  0  0
   22.5410   50.2630   44.0150 O   0  0  0  0  0
   23.4170   48.2670   44.0280 N   0  0  0  0  0
   23.2190   47.9360   42.6190 C   0  0  0  0  0
   23.2710   46.4080   42.5100 C   0  0  0  0  0
   22.4200   45.6140   43.5380 C   0  0  0  0  0
   20.9060   45.7040   43.2820 C   0  0  0  0  0
   19.9410   45.0280   44.2810 C   0  0  0  0  0
   20.1650   45.6410   45.6330 C   0  0  0  0  0
   20.7790   44.9610   46.4760 O   0  0  0  0  0
   19.6870   46.7980   45.8880 O   0  0  0  0  0
   18.6300   45.4440   43.7640 N   0  0  0  0  0
   17.9310   44.7090   42.8680 C   0  0  0  0  0
   18.3220   43.6340   42.3640 O   0  0  0  0  0
   16.7060   45.1940   42.5140 N   0  0  0  0  0
   16.0570   44.5180   41.4150 C   0  0  0  0  0
   17.0230   44.7150   40.2500 C   0  0  0  0  0
   17.9670   45.5940   40.2700 O   0  0  0  0  0
   16.9600   43.9350   39.2550 O   0  0  0  0  0
   14.7590   45.2980   41.0660 C   0  0  0  0  0
   15.0050   46.8050   40.8980 C   0  0  0  0  0
   13.8790   47.5820   40.1990 C   0  0  0  0  0
   13.1270   46.9880   39.3810 O   0  0  0  0  0
   13.8050   48.8030   40.4360 O   0  0  0  0  0
   23.9039   52.0355   48.5075 H   0  0  0  0  0
   23.6165   51.7285   46.0856 H   0  0  0  0  0
   23.1845   47.8827   49.1508 H   0  0  0  0  0
   23.0019   47.5547   46.7218 H   0  0  0  0  0
   23.8573   47.5402   44.5922 H   0  0  0  0  0
   23.9913   48.3946   42.0015 H   0  0  0  0  0
   22.2620   48.3171   42.2627 H   0  0  0  0  0
   24.3079   46.1263   42.6931 H   0  0  0  0  0
   22.8684   46.1604   41.5278 H   0  0  0  0  0
   22.6117   46.0422   44.5219 H   0  0  0  0  0
   22.7039   44.5647   43.4571 H   0  0  0  0  0
   20.7475   45.1816   42.3386 H   0  0  0  0  0
   20.6725   46.7672   43.3391 H   0  0  0  0  0
   20.0542   43.9480   44.3747 H   0  0  0  0  0
   19.2551   47.1445   45.1038 H   0  0  0  0  0
   18.2304   46.3226   44.0939 H   0  0  0  0  0
   16.2757   45.9839   42.9950 H   0  0  0  0  0
   15.8226   43.4755   41.6303 H   0  0  0  0  0
   17.9000   46.1157   41.0731 H   0  0  0  0  0
   14.0542   45.1618   41.8862 H   0  0  0  0  0
   14.3789   44.9120   40.1202 H   0  0  0  0  0
   15.8904   46.9080   40.2707 H   0  0  0  0  0
   15.0930   47.2200   41.9020 H   0  0  0  0  0
   13.3570   46.0563   39.3549 H   0  0  0  0  0
  1  2  1  0  0  0
  2  3  4  0  0  0
  2  5  4  0  0  0
  3  4  4  0  0  0
  4  7  4  0  0  0
  5  6  4  0  0  0
  6  7  4  0  0  0
  7  8  1  0  0  0
  8  9  2  0  0  0
  8 10  1  0  0  0
 10 11  1  0  0  0
 11 12  1  0  0  0
 12 13  1  0  0  0
 13 14  1  0  0  0
 14 15  1  0  0  0
 15 16  1  0  0  0
 15 19  1  0  0  0
 16 17  2  0  0  0
 16 18  1  0  0  0
 19 20  1  0  0  0
 20 21  2  0  0  0
 20 22  1  0  0  0
 22 23  1  0  0  0
 23 24  1  0  0  0
 23 27  1  0  0  0
 24 25  1  0  0  0
 24 26  2  0  0  0
 27 28  1  0  0  0
 28 29  1  0  0  0
 29 30  1  0  0  0
 29 31  2  0  0  0
  3 32  1  0  0  0
  4 33  1  0  0  0
  5 34  1  0  0  0
  6 35  1  0  0  0
 10 36  1  0  0  0
 11 37  1  0  0  0
 11 38  1  0  0  0
 12 39  1  0  0  0
 12 40  1  0  0  0
 13 41  1  0  0  0
 13 42  1  0  0  0
 14 43  1  0  0  0
 14 44  1  0  0  0
 15 45  1  0  0  0
 18 46  1  0  0  0
 19 47  1  0  0  0
 22 48  1  0  0  0
 23 49  1  0  0  0
 25 50  1  0  0  0
 27 51  1  0  0  0
 27 52  1  0  0  0
 28 53  1  0  0  0
 28 54  1  0  0  0
 30 55  1  0  0  0
M  END
$$$$
