1qx1_ligand
  -I-interpret- 

 22 22  0  0  0  0  0  0  0  0999 V2000
   30.3870   66.4620    7.2340 C   0  0  0  0  0
   32.2910   65.9040    9.0360 C   0  0  0  0  0
   33.3520   65.3690    9.6520 F   0  0  0  0  0
   32.7010   66.6330    7.6630 C   0  0  0  0  0
   33.9650   66.0100    7.2230 O   0  0  0  0  0
   31.6790   66.6650    6.4760 C   0  0  0  0  0
   31.7960   67.8420    5.8330 O   0  0  0  0  0
   29.3220   66.4620    6.2290 C   0  0  0  0  0
   28.0570   66.5860    6.9410 O   0  0  0  0  0
   30.3670   65.1950    7.8500 O   0  0  0  0  0
   31.1960   64.8820    8.8970 C   0  0  0  0  0
   30.2725   67.2357    7.9932 H   0  0  0  0  0
   31.8830   66.7021    9.6562 H   0  0  0  0  0
   32.7644   67.6921    7.9128 H   0  0  0  0  0
   34.5849   65.9945    7.9559 H   0  0  0  0  0
   31.7968   65.9310    5.6788 H   0  0  0  0  0
   31.1727   67.8701    5.1034 H   0  0  0  0  0
   29.3452   65.5416    5.6455 H   0  0  0  0  0
   29.4525   67.2896    5.5317 H   0  0  0  0  0
   27.3344   66.5892    6.3090 H   0  0  0  0  0
   31.6468   63.9076    8.7090 H   0  0  0  0  0
   30.6106   64.8672    9.8163 H   0  0  0  0  0
  6  1  1  0  0  0
  1  8  1  0  0  0
  1 10  1  0  0  0
  2  3  1  0  0  0
  4  2  1  0  0  0
  4  5  1  0  0  0
  6  4  1  0  0  0
  6  7  1  0  0  0
  8  9  1  0  0  0
 10 11  1  0  0  0
 11  2  1  0  0  0
  1 12  1  0  0  0
  2 13  1  0  0  0
  4 14  1  0  0  0
  5 15  1  0  0  0
  6 16  1  0  0  0
  7 17  1  0  0  0
  8 18  1  0  0  0
  8 19  1  0  0  0
  9 20  1  0  0  0
 11 21  1  0  0  0
 11 22  1  0  0  0
M  END
$$$$
