6k4r_ligand
  -I-interpret- 

 37 39  0  0  0  0  0  0  0  0999 V2000
   -0.7290   -8.2250  -66.0080 P   0  0  0  0  0
    0.5820   -8.6720  -66.6100 O   0  0  0  0  0
   -0.8100   -8.3010  -64.5030 O   0  0  0  0  0
   -1.2460   -6.9220  -66.5440 O   0  0  0  0  0
   -1.7920   -9.2790  -66.5540 O   0  0  0  0  0
   -1.3750  -10.4320  -67.2760 C   0  0  0  0  0
   -1.0510  -11.5640  -66.3390 C   0  0  0  0  0
    0.1370  -11.2200  -65.5780 O   0  0  0  0  0
   -2.1450  -11.8820  -65.3170 C   0  0  0  0  0
   -2.2390  -13.2930  -65.1470 O   0  0  0  0  0
   -1.6210  -11.2530  -64.0270 C   0  0  0  0  0
   -2.0760  -11.8820  -62.8480 O   0  0  0  0  0
   -0.1120  -11.3970  -64.2010 C   0  0  0  0  0
    0.6880  -10.4270  -63.4410 N   0  0  0  0  0
    0.4430  -10.0580  -62.1690 C   0  0  0  0  0
    1.3570   -9.1570  -61.7230 N   0  0  0  0  0
    2.2270   -8.9370  -62.7250 C   0  0  0  0  0
    3.4360   -8.1000  -62.9280 C   0  0  0  0  0
    3.9120   -7.2970  -61.9460 N   0  0  0  0  0
    4.0560   -8.1610  -64.1270 N   0  0  0  0  0
    3.5970   -8.9480  -65.1130 C   0  0  0  0  0
    2.5100   -9.7290  -64.9930 N   0  0  0  0  0
    1.7890   -9.7810  -63.8500 C   0  0  0  0  0
    0.8443   -9.5081  -66.2179 H   0  0  0  0  0
   -0.4696   -9.1487  -64.2077 H   0  0  0  0  0
   -0.4809  -10.1833  -67.8477 H   0  0  0  0  0
   -2.1843  -10.7440  -67.9361 H   0  0  0  0  0
   -0.9255  -12.4392  -66.9765 H   0  0  0  0  0
   -3.1282  -11.5140  -65.6104 H   0  0  0  0  0
   -2.9253  -13.4919  -64.5059 H   0  0  0  0  0
   -1.9694  -10.2287  -63.8944 H   0  0  0  0  0
   -1.7064  -11.4331  -62.0841 H   0  0  0  0  0
    0.1852  -12.3734  -63.8183 H   0  0  0  0  0
   -0.3864  -10.4357  -61.5710 H   0  0  0  0  0
    3.4377   -7.2586  -61.0438 H   0  0  0  0  0
    4.7447   -6.7308  -62.1089 H   0  0  0  0  0
    4.1345   -8.9538  -66.0612 H   0  0  0  0  0
  1  2  1  0  0  0
  1  3  1  0  0  0
  1  4  2  0  0  0
  1  5  1  0  0  0
  5  6  1  0  0  0
  6  7  1  0  0  0
  7  8  1  0  0  0
  7  9  1  0  0  0
  8 13  1  0  0  0
  9 10  1  0  0  0
  9 11  1  0  0  0
 11 12  1  0  0  0
 11 13  1  0  0  0
 13 14  1  0  0  0
 14 15  4  0  0  0
 14 23  4  0  0  0
 15 16  4  0  0  0
 16 17  4  0  0  0
 17 18  4  0  0  0
 17 23  4  0  0  0
 18 19  1  0  0  0
 18 20  4  0  0  0
 20 21  4  0  0  0
 21 22  4  0  0  0
 22 23  4  0  0  0
  2 24  1  0  0  0
  3 25  1  0  0  0
  6 26  1  0  0  0
  6 27  1  0  0  0
  7 28  1  0  0  0
  9 29  1  0  0  0
 10 30  1  0  0  0
 11 31  1  0  0  0
 12 32  1  0  0  0
 13 33  1  0  0  0
 15 34  1  0  0  0
 19 35  1  0  0  0
 19 36  1  0  0  0
 21 37  1  0  0  0
M  END
$$$$
