### 
### Created by X-TOOL on Mon Aug  2 16:14:38 2021
### 

@<TRIPOS>MOLECULE
6k4r_ligand
   35    37     1     0     0
SMALL
GAST_HUCK


@<TRIPOS>ATOM
      1 P          -0.7290   -8.2250  -66.0080 P.3       1 AMP         0.2008
      2 O1P         0.5820   -8.6720  -66.6100 O.co2     1 AMP        -0.5537
      3 O2P        -0.8100   -8.3010  -64.5030 O.co2     1 AMP        -0.5537
      4 O3P        -1.2460   -6.9220  -66.5440 O.co2     1 AMP        -0.5537
      5 O5'        -1.7920   -9.2790  -66.5540 O.3       1 AMP        -0.2734
      6 C5'        -1.3750  -10.4320  -67.2760 C.3       1 AMP         0.1072
      7 C4'        -1.0510  -11.5640  -66.3390 C.3       1 AMP         0.1182
      8 O4'         0.1370  -11.2200  -65.5780 O.3       1 AMP        -0.3365
      9 C3'        -2.1450  -11.8820  -65.3170 C.3       1 AMP         0.1149
     10 O3'        -2.2390  -13.2930  -65.1470 O.3       1 AMP        -0.3864
     11 C2'        -1.6210  -11.2530  -64.0270 C.3       1 AMP         0.1385
     12 O2'        -2.0760  -11.8820  -62.8480 O.3       1 AMP        -0.3836
     13 C1'        -0.1120  -11.3970  -64.2010 C.3       1 AMP         0.2010
     14 N9          0.6880  -10.4270  -63.4410 N.pl3     1 AMP        -0.1919
     15 C8          0.4430  -10.0580  -62.1690 C.2       1 AMP         0.1123
     16 N7          1.3570   -9.1570  -61.7230 N.2       1 AMP        -0.2958
     17 C5          2.2270   -8.9370  -62.7250 C.ar      1 AMP         0.1045
     18 C6          3.4360   -8.1000  -62.9280 C.ar      1 AMP         0.1298
     19 N6          3.9120   -7.2970  -61.9460 N.pl3     1 AMP        -0.3152
     20 N1          4.0560   -8.1610  -64.1270 N.ar      1 AMP        -0.2698
     21 C2          3.5970   -8.9480  -65.1130 C.ar      1 AMP         0.0533
     22 N3          2.5100   -9.7290  -64.9930 N.ar      1 AMP        -0.2714
     23 C4          1.7890   -9.7810  -63.8500 C.ar      1 AMP         0.1613
     24 H1         -0.4794  -10.1841  -67.8645 H         1 AMP         0.0639
     25 H2         -2.1835  -10.7450  -67.9529 H         1 AMP         0.0639
     26 H3         -0.8604  -12.4643  -66.9415 H         1 AMP         0.0650
     27 H4         -3.1169  -11.4606  -65.6132 H         1 AMP         0.0648
     28 H5         -2.9181  -13.4898  -64.5126 H         1 AMP         0.2100
     29 H6         -1.9060  -10.1916  -63.9811 H         1 AMP         0.0676
     30 H7         -3.0244  -11.8395  -62.8135 H         1 AMP         0.2101
     31 H8          0.1871  -12.4091  -63.8909 H         1 AMP         0.0996
     32 H9         -0.3856  -10.4353  -61.5716 H         1 AMP         0.1349
     33 H10         4.7528   -6.7253  -62.1105 H         1 AMP         0.1820
     34 H11         3.4330   -7.2583  -61.0350 H         1 AMP         0.1820
     35 H12         4.1316   -8.9538  -66.0560 H         1 AMP         0.0996
@<TRIPOS>BOND
     1    1    2 ar 
     2    1    3 ar 
     3    1    4 ar 
     4    1    5 1  
     5    5    6 1  
     6    6    7 1  
     7    7    8 1  
     8    7    9 1  
     9    8   13 1  
    10    9   10 1  
    11    9   11 1  
    12   11   12 1  
    13   11   13 1  
    14   13   14 1  
    15   14   15 1  
    16   14   23 1  
    17   15   16 2  
    18   16   17 1  
    19   17   18 ar 
    20   17   23 ar 
    21   18   19 1  
    22   18   20 ar 
    23   20   21 ar 
    24   21   22 ar 
    25   22   23 ar 
    26    6   24 1  
    27    6   25 1  
    28    7   26 1  
    29    9   27 1  
    30   10   28 1  
    31   11   29 1  
    32   12   30 1  
    33   13   31 1  
    34   15   32 1  
    35   19   33 1  
    36   19   34 1  
    37   21   35 1  
@<TRIPOS>SUBSTRUCTURE
     1 AMP         1

