6npu_ligand
  -I-interpret- 

 29 30  0  0  0  0  0  0  0  0999 V2000
   12.2410    6.9680  -34.9940 C   0  0  0  0  0
   14.1920    8.3460  -34.8850 C   0  0  0  0  0
   15.6730    6.5510  -34.0250 C   0  0  0  0  0
   17.8960    5.4840  -32.8150 C   0  0  0  0  0
   16.7290    4.7410  -32.8560 C   0  0  0  0  0
   15.6020    5.2810  -33.4600 C   0  0  0  0  0
    8.3360    6.7320  -34.4640 C   0  0  0  0  0
   16.8300    7.2970  -33.9760 C   0  0  0  0  0
   17.9610    6.7550  -33.3640 C   0  0  0  0  0
    9.7050    7.2250  -34.9310 C   0  0  0  0  0
   12.6550    8.4610  -34.8080 C   0  0  0  0  0
   10.8950    6.5290  -34.5160 N   0  0  0  0  0
   13.1180    6.3230  -34.2880 N   0  0  0  0  0
   14.4880    7.0650  -34.6330 N   0  3  0  0  0
    9.8190    8.1760  -35.6330 O   0  0  0  0  0
   19.3270    4.7790  -32.0400 Cl  0  0  0  0  0
   16.6970    3.0940  -32.1480 Cl  0  0  0  0  0
   12.1968    6.7868  -36.0679 H   0  0  0  0  0
   14.8969    9.1487  -35.1016 H   0  0  0  0  0
   14.6704    4.7160  -33.4915 H   0  0  0  0  0
    7.8421    7.5199  -33.8954 H   0  0  0  0  0
    7.7291    6.4733  -35.3316 H   0  0  0  0  0
    8.4638    5.8524  -33.8331 H   0  0  0  0  0
   16.8617    8.2967  -34.4092 H   0  0  0  0  0
   18.8880    7.3266  -33.3181 H   0  0  0  0  0
   12.2900    8.9103  -33.8844 H   0  0  0  0  0
   12.2236    9.1358  -35.5473 H   0  0  0  0  0
   10.8185    5.7279  -33.8892 H   0  0  0  0  0
   12.9678    5.5315  -33.6625 H   0  0  0  0  0
  1 11  1  0  0  0
 12  1  1  0  0  0
  1 13  1  0  0  0
 11  2  1  0  0  0
  2 14  2  0  0  0
  3  6  4  0  0  0
  3  8  4  0  0  0
 14  3  1  0  0  0
  5  4  4  0  0  0
  9  4  4  0  0  0
  4 16  1  0  0  0
  6  5  4  0  0  0
  5 17  1  0  0  0
 10  7  1  0  0  0
  8  9  4  0  0  0
 10 12  1  0  0  0
 10 15  2  0  0  0
 13 14  1  0  0  0
  1 18  1  0  0  0
  2 19  1  0  0  0
  6 20  1  0  0  0
  7 21  1  0  0  0
  7 22  1  0  0  0
  7 23  1  0  0  0
  8 24  1  0  0  0
  9 25  1  0  0  0
 11 26  1  0  0  0
 11 27  1  0  0  0
 12 28  1  0  0  0
 13 29  1  0  0  0
M  END
$$$$
