3lpu_ligand
  -I-interpret- 

 45 47  0  0  0  0  0  0  0  0999 V2000
   37.4400   33.9690    5.6730 N   0  0  0  0  0
   39.8140   28.5220    6.1010 Cl  0  0  0  0  0
   39.1110   30.1590    5.9640 C   0  0  0  0  0
   34.3750   33.7760    8.7190 O   0  0  0  0  0
   39.9050   31.2580    5.6390 C   0  0  0  0  0
   32.6370   34.8750    8.0220 O   0  0  0  0  0
   39.3650   32.5410    5.5390 C   0  0  0  0  0
   38.0060   32.7370    5.7620 C   0  0  0  0  0
   37.1820   31.5490    6.1050 C   0  0  0  0  0
   37.7520   30.2950    6.1970 C   0  0  0  0  0
   36.1120   34.1890    5.8910 C   0  0  0  0  0
   35.1890   33.0800    6.2390 C   0  0  0  0  0
   35.7390   31.7270    6.3600 C   0  0  0  0  0
   34.8850   30.5670    6.6850 C   0  0  0  0  0
   33.7470   33.2840    6.4840 C   0  0  0  0  0
   33.6010   33.9950    7.8040 C   0  0  0  0  0
   33.1340   34.0700    5.3240 C   0  0  0  0  0
   32.8580   33.1630    4.1250 C   0  0  0  0  0
   31.8700   32.0640    4.4660 C   0  0  0  0  0
   35.5570   35.5830    5.7750 C   0  0  0  0  0
   34.5100   30.2860    7.9900 C   0  0  0  0  0
   33.7110   29.1770    8.2350 C   0  0  0  0  0
   33.2930   28.3540    7.1920 C   0  0  0  0  0
   33.6720   28.6450    5.8870 C   0  0  0  0  0
   34.4730   29.7540    5.6370 C   0  0  0  0  0
   40.9701   31.1120    5.4592 H   0  0  0  0  0
   32.0978   34.9595    7.2323 H   0  0  0  0  0
   40.0056   33.3862    5.2871 H   0  0  0  0  0
   37.1432   29.4266    6.4487 H   0  0  0  0  0
   33.2117   32.3360    6.5378 H   0  0  0  0  0
   33.8375   34.8447    5.0190 H   0  0  0  0  0
   32.1905   34.5022    5.6573 H   0  0  0  0  0
   33.7968   32.6984    3.8235 H   0  0  0  0  0
   32.4325   33.7707    3.3264 H   0  0  0  0  0
   32.2732   31.4523    5.2731 H   0  0  0  0  0
   30.9273   32.5101    4.7827 H   0  0  0  0  0
   31.7020   31.4425    3.5865 H   0  0  0  0  0
   36.0564   36.2325    6.4939 H   0  0  0  0  0
   35.7271   35.9576    4.7656 H   0  0  0  0  0
   34.4869   35.5650    5.9817 H   0  0  0  0  0
   34.8370   30.9252    8.8101 H   0  0  0  0  0
   33.4071   28.9477    9.2564 H   0  0  0  0  0
   32.6701   27.4838    7.3988 H   0  0  0  0  0
   33.3438   28.0085    5.0652 H   0  0  0  0  0
   34.7781   29.9856    4.6165 H   0  0  0  0  0
  1  8  4  0  0  0
 11  1  4  0  0  0
  3  2  1  0  0  0
  3  5  4  0  0  0
 10  3  4  0  0  0
 16  4  2  0  0  0
  7  5  4  0  0  0
 16  6  1  0  0  0
  8  7  4  0  0  0
  9  8  4  0  0  0
  9 10  4  0  0  0
 13  9  4  0  0  0
 12 11  4  0  0  0
 11 20  1  0  0  0
 12 13  4  0  0  0
 15 12  1  0  0  0
 13 14  1  0  0  0
 14 21  4  0  0  0
 14 25  4  0  0  0
 15 16  1  0  0  0
 15 17  1  0  0  0
 17 18  1  0  0  0
 18 19  1  0  0  0
 21 22  4  0  0  0
 22 23  4  0  0  0
 23 24  4  0  0  0
 24 25  4  0  0  0
  5 26  1  0  0  0
  6 27  1  0  0  0
  7 28  1  0  0  0
 10 29  1  0  0  0
 15 30  1  0  0  0
 17 31  1  0  0  0
 17 32  1  0  0  0
 18 33  1  0  0  0
 18 34  1  0  0  0
 19 35  1  0  0  0
 19 36  1  0  0  0
 19 37  1  0  0  0
 20 38  1  0  0  0
 20 39  1  0  0  0
 20 40  1  0  0  0
 21 41  1  0  0  0
 22 42  1  0  0  0
 23 43  1  0  0  0
 24 44  1  0  0  0
 25 45  1  0  0  0
M  END
$$$$
