### 
### Created by X-TOOL on Mon Sep 10 21:13:09 2018
### 

@<TRIPOS>MOLECULE
4b4m_ligand
   45    47     1     0     0
SMALL
GAST_HUCK


@<TRIPOS>ATOM
      1 CAY        37.7820    6.9300   10.2690 C.ar      1 JWT        -0.0578
      2 CAZ        37.2370    7.9970   11.0120 C.ar      1 JWT        -0.0685
      3 CBA        37.2320    7.9550   12.4140 C.ar      1 JWT        -0.0687
      4 CAX        37.7770    6.8440   13.0550 C.ar      1 JWT        -0.0685
      5 CAW        38.3240    5.7930   12.3060 C.ar      1 JWT        -0.0578
      6 CAV        38.3250    5.7980   10.9050 C.ar      1 JWT        -0.0133
      7 CAU        38.8980    4.7360   10.1470 C.3       1 JWT         0.1020
      8 NAN        38.1090    3.4720   10.1460 N.am      1 JWT        -0.1513
      9 CAO        37.2240    3.2040    9.1450 C.2       1 JWT         0.1624
     10 NAP        37.0260    4.0660    8.1480 N.2       1 JWT        -0.3924
     11 CAM        38.3050    2.5790   11.1420 C.2       1 JWT         0.3372
     12 OAL        39.1250    2.8270   12.0290 O.2       1 JWT        -0.3761
     13 NAD        37.5750    1.3760   11.1800 N.am      1 JWT        -0.1727
     14 CAE        36.6280    1.0910   10.1990 C.2       1 JWT         0.2502
     15 OAA        35.9920    0.0340   10.2540 O.2       1 JWT        -0.3802
     16 CAF        36.4550    2.0280    9.1710 C.3       1 JWT         0.2173
     17 NAG        35.5980    1.7200    8.1720 N.am      1 JWT        -0.1940
     18 CAB        36.0820    0.7180    7.1990 C.3       1 JWT         0.0244
     19 SAH        33.9810    2.2720    8.1380 S.o2      1 JWT         0.0733
     20 OAC        33.3090    1.8580    6.8340 O.2       1 JWT        -0.1503
     21 OAQ        33.8770    3.7800    8.3150 O.2       1 JWT        -0.1503
     22 CAI        33.2050    1.4860    9.5160 C.ar      1 JWT         0.1046
     23 CAJ        32.3920    0.3710    9.3470 C.ar      1 JWT        -0.0370
     24 CAK        31.7980   -0.2220   10.4500 C.ar      1 JWT        -0.0263
     25 CAT        31.9980    0.3170   11.7080 C.ar      1 JWT         0.1325
     26 CAS        32.8140    1.4210   11.8810 C.ar      1 JWT        -0.0263
     27 CAR        33.4300    2.0050   10.7810 C.ar      1 JWT        -0.0370
     28 FAM        31.4170   -0.2520   12.8020 F         1 JWT        -0.1834
     29 H1         37.7828    6.9825    9.1863 H         1 JWT         0.0557
     30 H2         36.8195    8.8546   10.4969 H         1 JWT         0.0599
     31 H3         36.8116    8.7723   12.9888 H         1 JWT         0.0559
     32 H4         37.7779    6.7924   14.1378 H         1 JWT         0.0599
     33 H5         38.7604    4.9489   12.8277 H         1 JWT         0.0557
     34 H6         39.8931    4.5177   10.5618 H         1 JWT         0.0774
     35 H7         39.0012    5.0757    9.1059 H         1 JWT         0.0774
     36 H8         36.3667    3.8485    7.4172 H         1 JWT         0.0533
     37 H9         37.7376    0.7205   11.9175 H         1 JWT         0.2272
     38 H10        35.6591    2.5411    9.7307 H         1 JWT         0.1053
     39 H11        37.1430    0.5016    7.3926 H         1 JWT         0.0446
     40 H12        35.9687    1.1131    6.1787 H         1 JWT         0.0446
     41 H13        35.4946   -0.2064    7.3017 H         1 JWT         0.0446
     42 H14        32.2231   -0.0334    8.3555 H         1 JWT         0.0627
     43 H15        31.1797   -1.1039   10.3273 H         1 JWT         0.0604
     44 H16        32.9723    1.8294   12.8726 H         1 JWT         0.0604
     45 H17        34.0823    2.8609   10.9115 H         1 JWT         0.0627
@<TRIPOS>BOND
     1    1    2 ar 
     2    1    6 ar 
     3    2    3 ar 
     4    3    4 ar 
     5    4    5 ar 
     6    5    6 ar 
     7    6    7 1  
     8    7    8 1  
     9    8    9 1  
    10    8   11 am 
    11    9   10 2  
    12    9   16 1  
    13   11   12 2  
    14   11   13 am 
    15   13   14 am 
    16   14   15 2  
    17   14   16 1  
    18   16   17 1  
    19   17   18 1  
    20   17   19 am 
    21   19   20 2  
    22   19   21 2  
    23   19   22 1  
    24   22   23 ar 
    25   22   27 ar 
    26   23   24 ar 
    27   24   25 ar 
    28   25   26 ar 
    29   25   28 1  
    30   26   27 ar 
    31    1   29 1  
    32    2   30 1  
    33    3   31 1  
    34    4   32 1  
    35    5   33 1  
    36    7   34 1  
    37    7   35 1  
    38   10   36 1  
    39   13   37 1  
    40   16   38 1  
    41   18   39 1  
    42   18   40 1  
    43   18   41 1  
    44   23   42 1  
    45   24   43 1  
    46   26   44 1  
    47   27   45 1  
@<TRIPOS>SUBSTRUCTURE
     1 JWT         1

