4b4m_ligand
  -I-interpret- 

 45 47  0  0  0  0  0  0  0  0999 V2000
   37.7820    6.9300   10.2690 C   0  0  0  0  0
   37.2370    7.9970   11.0120 C   0  0  0  0  0
   37.2320    7.9550   12.4140 C   0  0  0  0  0
   37.7770    6.8440   13.0550 C   0  0  0  0  0
   38.3240    5.7930   12.3060 C   0  0  0  0  0
   38.3250    5.7980   10.9050 C   0  0  0  0  0
   38.8980    4.7360   10.1470 C   0  0  0  0  0
   38.1090    3.4720   10.1460 N   0  0  0  0  0
   37.2240    3.2040    9.1450 C   0  0  0  0  0
   37.0260    4.0660    8.1480 N   0  0  0  0  0
   38.3050    2.5790   11.1420 C   0  0  0  0  0
   39.1250    2.8270   12.0290 O   0  0  0  0  0
   37.5750    1.3760   11.1800 N   0  0  0  0  0
   36.6280    1.0910   10.1990 C   0  0  0  0  0
   35.9920    0.0340   10.2540 O   0  0  0  0  0
   36.4550    2.0280    9.1710 C   0  0  0  0  0
   35.5980    1.7200    8.1720 N   0  0  0  0  0
   36.0820    0.7180    7.1990 C   0  0  0  0  0
   33.9810    2.2720    8.1380 S   0  0  0  0  0
   33.3090    1.8580    6.8340 O   0  0  0  0  0
   33.8770    3.7800    8.3150 O   0  0  0  0  0
   33.2050    1.4860    9.5160 C   0  0  0  0  0
   32.3920    0.3710    9.3470 C   0  0  0  0  0
   31.7980   -0.2220   10.4500 C   0  0  0  0  0
   31.9980    0.3170   11.7080 C   0  0  0  0  0
   32.8140    1.4210   11.8810 C   0  0  0  0  0
   33.4300    2.0050   10.7810 C   0  0  0  0  0
   31.4170   -0.2520   12.8020 F   0  0  0  0  0
   37.7828    6.9828    9.1803 H   0  0  0  0  0
   36.8172    8.8593   10.4941 H   0  0  0  0  0
   36.8093    8.7768   12.9920 H   0  0  0  0  0
   37.7779    6.7921   14.1438 H   0  0  0  0  0
   38.7628    4.9443   12.8306 H   0  0  0  0  0
   39.8617    4.5069   10.6018 H   0  0  0  0  0
   38.9497    5.0774    9.1131 H   0  0  0  0  0
   37.5416    4.9458    8.1245 H   0  0  0  0  0
   37.7409    0.7074   11.9322 H   0  0  0  0  0
   35.9149    2.9055    9.5265 H   0  0  0  0  0
   35.4992   -0.1974    7.3017 H   0  0  0  0  0
   35.9691    1.1107    6.1885 H   0  0  0  0  0
   37.1333    0.5044    7.3919 H   0  0  0  0  0
   32.2222   -0.0356    8.3501 H   0  0  0  0  0
   31.1763   -1.1088   10.3266 H   0  0  0  0  0
   32.9732    1.8316   12.8781 H   0  0  0  0  0
   34.0859    2.8657   10.9122 H   0  0  0  0  0
  1  2  4  0  0  0
  1  6  4  0  0  0
  2  3  4  0  0  0
  3  4  4  0  0  0
  4  5  4  0  0  0
  5  6  4  0  0  0
  6  7  1  0  0  0
  7  8  1  0  0  0
  8  9  1  0  0  0
  8 11  1  0  0  0
  9 10  2  0  0  0
  9 16  1  0  0  0
 11 12  2  0  0  0
 11 13  1  0  0  0
 13 14  1  0  0  0
 14 15  2  0  0  0
 14 16  1  0  0  0
 16 17  1  0  0  0
 17 18  1  0  0  0
 17 19  1  0  0  0
 19 20  2  0  0  0
 19 21  2  0  0  0
 19 22  1  0  0  0
 22 23  4  0  0  0
 22 27  4  0  0  0
 23 24  4  0  0  0
 24 25  4  0  0  0
 25 26  4  0  0  0
 25 28  1  0  0  0
 26 27  4  0  0  0
  1 29  1  0  0  0
  2 30  1  0  0  0
  3 31  1  0  0  0
  4 32  1  0  0  0
  5 33  1  0  0  0
  7 34  1  0  0  0
  7 35  1  0  0  0
 10 36  1  0  0  0
 13 37  1  0  0  0
 16 38  1  0  0  0
 18 39  1  0  0  0
 18 40  1  0  0  0
 18 41  1  0  0  0
 23 42  1  0  0  0
 24 43  1  0  0  0
 26 44  1  0  0  0
 27 45  1  0  0  0
M  END
$$$$
