5tkd_ligand
  -I-interpret- 

 41 43  0  0  0  0  0  0  0  0999 V2000
   11.7200   -6.2620   27.2680 C   0  0  0  0  0
   16.0160   -6.1990   27.3470 C   0  0  0  0  0
   13.7730   -5.7520   28.4130 C   0  0  0  0  0
   14.5090   -6.2950   27.3670 C   0  0  0  0  0
   13.8190   -6.8480   26.2970 C   0  0  0  0  0
   11.7160   -7.4510   25.0430 C   0  0  0  0  0
    8.5850   -2.6070   32.8160 C   0  0  0  0  0
   15.3830   -1.5300   30.0570 C   0  0  0  0  0
   12.3800   -5.7150   28.3640 C   0  0  0  0  0
   12.0910   -1.8080   31.7330 C   0  0  0  0  0
   13.0240   -2.3020   30.8350 N   0  0  0  0  0
   12.8660   -3.4210   30.0400 N   0  0  0  0  0
   11.7260   -4.0210   30.1830 C   0  0  0  0  0
   10.6890   -3.6020   31.0510 C   0  0  0  0  0
   10.8380   -2.4900   31.8340 C   0  0  0  0  0
   12.5520   -0.7200   32.3360 N   0  0  0  0  0
   13.7950   -0.5110   31.7940 C   0  0  0  0  0
   14.1380   -1.4610   30.8610 C   0  0  0  0  0
   11.5830   -5.1620   29.3950 N   0  0  0  0  0
   12.4330   -6.8470   26.2290 C   0  0  0  0  0
    9.8970   -2.0030   32.6650 N   0  0  0  0  0
   15.5480   -2.4820   29.1420 N   0  0  0  0  0
   16.2600   -0.6750   30.2780 O   0  0  0  0  0
   10.6313   -6.2312   27.2241 H   0  0  0  0  0
   16.3120   -5.1500   27.3495 H   0  0  0  0  0
   16.4221   -6.6946   28.2288 H   0  0  0  0  0
   16.3978   -6.6834   26.4483 H   0  0  0  0  0
   14.2914   -5.3497   29.2833 H   0  0  0  0  0
   14.3855   -7.2986   25.4820 H   0  0  0  0  0
   11.0594   -8.2507   25.3857 H   0  0  0  0  0
   11.1248   -6.6813   24.5469 H   0  0  0  0  0
   12.4486   -7.8549   24.3443 H   0  0  0  0  0
    8.0719   -2.6034   31.8543 H   0  0  0  0  0
    8.6970   -3.6333   33.1657 H   0  0  0  0  0
    8.0048   -2.0361   33.5409 H   0  0  0  0  0
    9.7610   -4.1720   31.0960 H   0  0  0  0  0
   14.4422    0.3203   32.0735 H   0  0  0  0  0
   10.7426   -5.7022   29.6008 H   0  0  0  0  0
   10.1158   -1.1715   33.2137 H   0  0  0  0  0
   16.4110   -2.5243   28.5999 H   0  0  0  0  0
   14.8115   -3.1694   28.9827 H   0  0  0  0  0
  9  1  4  0  0  0
  1 20  4  0  0  0
  4  2  1  0  0  0
  3  4  4  0  0  0
  9  3  4  0  0  0
  4  5  4  0  0  0
 20  5  4  0  0  0
 20  6  1  0  0  0
 21  7  1  0  0  0
 18  8  1  0  0  0
  8 22  1  0  0  0
  8 23  2  0  0  0
 19  9  1  0  0  0
 10 11  4  0  0  0
 15 10  4  0  0  0
 10 16  4  0  0  0
 11 12  4  0  0  0
 11 18  4  0  0  0
 13 12  4  0  0  0
 14 13  4  0  0  0
 13 19  1  0  0  0
 15 14  4  0  0  0
 15 21  1  0  0  0
 16 17  4  0  0  0
 17 18  4  0  0  0
  1 24  1  0  0  0
  2 25  1  0  0  0
  2 26  1  0  0  0
  2 27  1  0  0  0
  3 28  1  0  0  0
  5 29  1  0  0  0
  6 30  1  0  0  0
  6 31  1  0  0  0
  6 32  1  0  0  0
  7 33  1  0  0  0
  7 34  1  0  0  0
  7 35  1  0  0  0
 14 36  1  0  0  0
 17 37  1  0  0  0
 19 38  1  0  0  0
 21 39  1  0  0  0
 22 40  1  0  0  0
 22 41  1  0  0  0
M  END
$$$$
