6bfp_ligand
  -I-interpret- 

 65 68  0  0  0  0  0  0  0  0999 V2000
   -3.6880   21.9340  -23.0020 C   0  0  0  0  0
   -1.5030   20.3380  -21.9330 C   0  0  0  0  0
   -0.7640   18.7340  -20.3330 C   0  0  0  0  0
   -2.0880   18.5580  -19.9010 C   0  0  0  0  0
   -4.5860   19.0420  -20.0680 C   0  0  0  0  0
   -5.0090   17.8340  -19.6220 C   0  0  0  0  0
    0.2890   17.9910  -19.5320 C   0  0  0  0  0
    0.6560   15.8840  -18.2020 C   0  0  0  0  0
    1.0620   16.5130  -17.0230 C   0  0  0  0  0
    1.6890   14.3990  -16.1740 C   0  0  0  0  0
    1.2220   13.7680  -17.3110 C   0  0  0  0  0
    0.6790   14.5160  -18.3310 C   0  0  0  0  0
    2.2220   13.5670  -15.0460 C   0  0  0  0  0
    3.0450   14.1200  -14.0730 N   0  0  0  0  0
    0.8630   19.8590  -21.7640 C   0  0  0  0  0
    1.4600   21.1140  -21.6380 C   0  0  0  0  0
    3.4350   20.2450  -22.6800 C   0  0  0  0  0
    1.6010   18.8350  -22.3590 C   0  0  0  0  0
    1.0440   17.4380  -22.5720 C   0  0  0  0  0
    4.8750   20.3750  -23.1610 C   0  0  0  0  0
    5.3920   19.3300  -23.9780 N   0  0  0  0  0
    6.7520   19.3440  -24.4390 C   0  0  0  0  0
    6.9060   19.5260  -26.9780 C   0  0  0  0  0
   -3.9300   20.8380  -22.1200 O   0  0  0  0  0
   -2.8300   20.1520  -21.5290 C   0  0  0  0  0
   -0.4580   19.6500  -21.3260 C   0  0  0  0  0
   -3.1320   19.2570  -20.5070 C   0  0  0  0  0
    1.3270   18.5140  -19.2020 O   0  0  0  0  0
   -0.0370   16.6900  -19.1250 N   0  0  0  0  0
    1.6060   15.7650  -16.0020 C   0  0  0  0  0
    1.8150   12.3300  -14.8900 N   0  0  0  0  0
    2.7620   21.3020  -22.0830 C   0  0  0  0  0
    2.8500   19.0490  -22.7850 N   0  0  0  0  0
    0.0200   17.2770  -23.3070 O   0  0  0  0  0
    1.6080   16.4370  -22.0470 O   0  0  0  0  0
    5.5600   21.3280  -22.8220 O   0  0  0  0  0
    7.0630   20.2310  -25.6460 C   0  0  0  0  0
    5.9300   20.6150  -26.5720 C   0  0  0  0  0
   -3.1417   22.7129  -22.4701 H   0  0  0  0  0
   -3.0987   21.5911  -23.8524 H   0  0  0  0  0
   -4.6395   22.3319  -23.3546 H   0  0  0  0  0
   -1.2840   21.0368  -22.7404 H   0  0  0  0  0
   -2.3023   17.8686  -19.0843 H   0  0  0  0  0
   -5.2896   19.8732  -20.1154 H   0  0  0  0  0
   -4.3123   16.9973  -19.5712 H   0  0  0  0  0
   -6.0459   17.6993  -19.3141 H   0  0  0  0  0
    0.9489   17.5913  -16.9111 H   0  0  0  0  0
    1.2833   12.6834  -17.3998 H   0  0  0  0  0
    0.2760   14.0338  -19.2216 H   0  0  0  0  0
    3.3187   13.5660  -13.2615 H   0  0  0  0  0
    3.3756   15.0800  -14.1701 H   0  0  0  0  0
    0.9077   21.9417  -21.1930 H   0  0  0  0  0
    4.7835   18.5549  -24.2415 H   0  0  0  0  0
    6.9716   18.3237  -24.7533 H   0  0  0  0  0
    7.3430   19.7430  -23.6146 H   0  0  0  0  0
    6.8816   18.5084  -27.3680 H   0  0  0  0  0
    7.5184   19.2543  -27.8378 H   0  0  0  0  0
   -0.8713   16.2806  -19.5454 H   0  0  0  0  0
    1.9600   16.2383  -15.0861 H   0  0  0  0  0
    1.1343   11.9317  -15.5368 H   0  0  0  0  0
    3.2502   22.2693  -21.9647 H   0  0  0  0  0
   -0.2827   18.1312  -23.6237 H   0  0  0  0  0
    7.8330   20.8080  -25.1339 H   0  0  0  0  0
    4.8522   20.7706  -26.5243 H   0  0  0  0  0
    5.4905   21.5182  -26.9953 H   0  0  0  0  0
 24  1  1  0  0  0
 25  2  4  0  0  0
  2 26  4  0  0  0
  3  4  4  0  0  0
  3  7  1  0  0  0
 26  3  4  0  0  0
  4 27  4  0  0  0
  5  6  2  0  0  0
 27  5  1  0  0  0
  7 28  2  0  0  0
  7 29  1  0  0  0
  8  9  4  0  0  0
  8 12  4  0  0  0
 29  8  1  0  0  0
  9 30  4  0  0  0
 11 10  4  0  0  0
 10 13  1  0  0  0
 30 10  4  0  0  0
 12 11  4  0  0  0
 13 14  1  0  0  0
 13 31  2  0  0  0
 15 16  4  0  0  0
 15 18  4  0  0  0
 26 15  1  0  0  0
 16 32  4  0  0  0
 17 20  1  0  0  0
 32 17  4  0  0  0
 33 17  4  0  0  0
 18 19  1  0  0  0
 18 33  4  0  0  0
 19 34  1  0  0  0
 19 35  2  0  0  0
 20 21  1  0  0  0
 20 36  2  0  0  0
 21 22  1  0  0  0
 22 37  1  0  0  0
 37 23  1  0  0  0
 23 38  1  0  0  0
 24 25  1  0  0  0
 25 27  4  0  0  0
 37 38  1  0  0  0
  1 39  1  0  0  0
  1 40  1  0  0  0
  1 41  1  0  0  0
  2 42  1  0  0  0
  4 43  1  0  0  0
  5 44  1  0  0  0
  6 45  1  0  0  0
  6 46  1  0  0  0
  9 47  1  0  0  0
 11 48  1  0  0  0
 12 49  1  0  0  0
 14 50  1  0  0  0
 14 51  1  0  0  0
 16 52  1  0  0  0
 21 53  1  0  0  0
 22 54  1  0  0  0
 22 55  1  0  0  0
 23 56  1  0  0  0
 23 57  1  0  0  0
 29 58  1  0  0  0
 30 59  1  0  0  0
 31 60  1  0  0  0
 32 61  1  0  0  0
 34 62  1  0  0  0
 37 63  1  0  0  0
 38 64  1  0  0  0
 38 65  1  0  0  0
M  END
$$$$
