5ep7_ligand
  -I-interpret- 

 32 33  0  0  0  0  0  0  0  0999 V2000
  -19.7980   -9.1060   21.4750 C   0  0  0  0  0
  -18.4940  -12.3710   20.0220 C   0  0  0  0  0
  -13.8450   -9.7220   25.7290 C   0  0  0  0  0
  -10.7000   -8.0220   25.5640 O   0  0  0  0  0
  -11.7630   -8.4670   25.2310 C   0  0  0  0  0
  -12.2150   -8.3280   23.9930 N   0  0  0  0  0
  -11.4010   -7.6220   22.9660 C   0  0  0  0  0
  -12.6270   -9.1750   26.1230 C   0  0  0  0  0
  -14.2650   -9.5130   24.4330 C   0  0  0  0  0
  -13.3800   -8.8140   23.5840 C   0  0  0  0  0
  -15.6280  -10.1090   23.8600 C   0  0  0  0  0
  -15.9740  -11.1260   24.3280 O   0  0  0  0  0
  -16.3610   -9.2930   22.9080 N   0  0  0  0  0
  -17.6210   -9.5880   22.1740 C   0  0  0  0  0
  -17.5270  -10.6810   21.5020 C   0  0  0  0  0
  -18.6240  -11.0490   20.7210 C   0  0  0  0  0
  -17.4990  -13.0850   20.1060 O   0  0  0  0  0
  -19.4540  -12.8490   19.3840 O   0  0  0  0  0
  -19.7330  -10.2620   20.7300 C   0  0  0  0  0
  -18.6900   -8.7310   22.1780 C   0  0  0  0  0
  -20.7085   -8.5074   21.5025 H   0  0  0  0  0
  -14.4505  -10.3003   26.4269 H   0  0  0  0  0
  -11.1720   -8.3084   22.1509 H   0  0  0  0  0
  -11.9635   -6.7720   22.5797 H   0  0  0  0  0
  -10.4736   -7.2704   23.4180 H   0  0  0  0  0
  -12.3173   -9.2922   27.1615 H   0  0  0  0  0
  -13.6673   -8.6665   22.5429 H   0  0  0  0  0
  -15.9499   -8.3800   22.7133 H   0  0  0  0  0
  -16.6272  -11.2949   21.5409 H   0  0  0  0  0
  -20.1775  -12.2181   19.3763 H   0  0  0  0  0
  -20.5949  -10.5547   20.1304 H   0  0  0  0  0
  -18.6568   -7.7867   22.7214 H   0  0  0  0  0
  1 19  4  0  0  0
 20  1  4  0  0  0
 16  2  1  0  0  0
  2 17  2  0  0  0
  2 18  1  0  0  0
  3  8  2  0  0  0
  9  3  1  0  0  0
  5  4  2  0  0  0
  6  5  1  0  0  0
  8  5  1  0  0  0
  6  7  1  0  0  0
 10  6  1  0  0  0
  9 10  2  0  0  0
 11  9  1  0  0  0
 11 12  2  0  0  0
 13 11  1  0  0  0
 14 13  1  0  0  0
 15 14  4  0  0  0
 14 20  4  0  0  0
 15 16  4  0  0  0
 16 19  4  0  0  0
  1 21  1  0  0  0
  3 22  1  0  0  0
  7 23  1  0  0  0
  7 24  1  0  0  0
  7 25  1  0  0  0
  8 26  1  0  0  0
 10 27  1  0  0  0
 13 28  1  0  0  0
 15 29  1  0  0  0
 18 30  1  0  0  0
 19 31  1  0  0  0
 20 32  1  0  0  0
M  END
$$$$
