5ut4_ligand
  -I-interpret- 

 66 71  0  0  0  0  0  0  0  0999 V2000
   -8.3330   11.7960   24.0670 F   0  0  0  0  0
   -7.7250   11.6760   22.8450 C   0  0  0  0  0
   -7.2680   10.4110   22.3940 C   0  0  0  0  0
   -6.6380   10.3290   21.1430 C   0  0  0  0  0
   -6.4820   11.4780   20.3350 C   0  0  0  0  0
   -6.9500   12.7200   20.7780 C   0  0  0  0  0
   -7.5610   12.8050   22.0440 C   0  0  0  0  0
   -6.7820   14.0240   19.9380 C   0  0  0  0  0
   -7.8890   14.9000   19.7120 C   0  0  0  0  0
   -9.1450   14.5990   20.1990 N   0  0  0  0  0
  -10.1660   15.4180   19.9870 C   0  0  0  0  0
   -9.9690   16.6000   19.2340 C   0  0  0  0  0
   -8.7510   16.8950   18.7590 N   0  0  0  0  0
   -7.7060   16.0630   18.9820 C   0  0  0  0  0
   -6.3860   16.3970   18.4520 C   0  0  0  0  0
   -5.3040   15.5490   18.6790 C   0  0  0  0  0
   -5.4920   14.3610   19.4290 C   0  0  0  0  0
  -11.5990   15.0690   20.5200 C   0  0  0  0  0
  -12.7900   15.6150   20.0220 C   0  0  0  0  0
  -13.8000   15.0550   20.7020 N   0  0  0  0  0
  -13.3090   14.1470   21.6460 N   0  0  0  0  0
  -11.9460   14.1440   21.5420 C   0  0  0  0  0
  -15.2220   15.3790   20.4520 C   0  0  0  0  0
  -16.1090   14.3080   19.8890 C   0  0  0  0  0
  -17.4190   13.9880   20.6250 C   0  0  0  0  0
  -17.8420   15.0760   21.5230 N   0  3  0  0  0
  -16.7590   15.3670   22.4950 C   0  0  0  0  0
  -15.5420   15.9660   21.7900 C   0  0  0  0  0
   -6.1920    9.1470   20.6980 F   0  0  0  0  0
   -7.4420    9.1480   23.3040 C   0  0  0  0  0
   -8.5510    8.4670   23.1320 N   0  3  0  0  0
   -8.7930    8.0490   21.8270 C   0  0  0  0  0
  -10.0660    7.2040   21.6950 C   0  0  0  0  0
  -11.1440    7.8160   22.2920 O   0  0  0  0  0
  -10.8900    8.1440   23.6250 C   0  0  0  0  0
   -9.6430    9.0170   23.7720 C   0  0  0  0  0
   -5.9953   11.3963   19.3631 H   0  0  0  0  0
   -7.9123   13.7719   22.4043 H   0  0  0  0  0
  -10.8070   17.2697   19.0406 H   0  0  0  0  0
   -6.2473   17.3126   17.8771 H   0  0  0  0  0
   -4.3196   15.7975   18.2825 H   0  0  0  0  0
   -4.6458   13.7005   19.6182 H   0  0  0  0  0
  -12.8784   16.3574   19.2288 H   0  0  0  0  0
  -11.2540   13.5439   22.1329 H   0  0  0  0  0
  -15.4131   16.0417   19.6080 H   0  0  0  0  0
  -15.5204   13.3920   19.9390 H   0  0  0  0  0
  -16.4126   14.6730   18.9078 H   0  0  0  0  0
  -17.2553   13.0967   21.2307 H   0  0  0  0  0
  -18.1991   13.8471   19.8769 H   0  0  0  0  0
  -18.6828   14.7930   22.0264 H   0  0  0  0  0
  -18.0386   15.9125   20.9735 H   0  0  0  0  0
  -16.4619   14.4364   22.9786 H   0  0  0  0  0
  -17.1284   16.0842   23.2280 H   0  0  0  0  0
  -15.7669   17.0192   21.6220 H   0  0  0  0  0
  -14.6826   15.7676   22.4304 H   0  0  0  0  0
   -7.4599    9.5099   24.3320 H   0  0  0  0  0
   -6.6244    8.4726   23.0521 H   0  0  0  0  0
   -8.3795    7.5882   23.6207 H   0  0  0  0  0
   -7.9507    7.4318   21.5144 H   0  0  0  0  0
   -8.9200    8.9394   21.2112 H   0  0  0  0  0
   -9.8967    6.2467   22.1881 H   0  0  0  0  0
  -10.2860    7.0758   20.6352 H   0  0  0  0  0
  -10.7262    7.2194   24.1785 H   0  0  0  0  0
  -11.7443    8.7025   24.0075 H   0  0  0  0  0
   -9.8503    9.9875   23.3211 H   0  0  0  0  0
   -9.4094    9.1032   24.8332 H   0  0  0  0  0
  1  2  1  0  0  0
  2  3  4  0  0  0
  2  7  4  0  0  0
  3  4  4  0  0  0
  3 30  1  0  0  0
  4  5  4  0  0  0
  4 29  1  0  0  0
  5  6  4  0  0  0
  6  7  4  0  0  0
  6  8  1  0  0  0
  8  9  4  0  0  0
  8 17  4  0  0  0
  9 10  4  0  0  0
  9 14  4  0  0  0
 10 11  4  0  0  0
 11 12  4  0  0  0
 11 18  1  0  0  0
 12 13  4  0  0  0
 13 14  4  0  0  0
 14 15  4  0  0  0
 15 16  4  0  0  0
 16 17  4  0  0  0
 18 19  4  0  0  0
 18 22  4  0  0  0
 19 20  4  0  0  0
 20 21  4  0  0  0
 20 23  1  0  0  0
 21 22  4  0  0  0
 23 24  1  0  0  0
 23 28  1  0  0  0
 24 25  1  0  0  0
 25 26  1  0  0  0
 26 27  1  0  0  0
 27 28  1  0  0  0
 30 31  1  0  0  0
 31 32  1  0  0  0
 31 36  1  0  0  0
 32 33  1  0  0  0
 33 34  1  0  0  0
 34 35  1  0  0  0
 35 36  1  0  0  0
  5 37  1  0  0  0
  7 38  1  0  0  0
 12 39  1  0  0  0
 15 40  1  0  0  0
 16 41  1  0  0  0
 17 42  1  0  0  0
 19 43  1  0  0  0
 22 44  1  0  0  0
 23 45  1  0  0  0
 24 46  1  0  0  0
 24 47  1  0  0  0
 25 48  1  0  0  0
 25 49  1  0  0  0
 26 50  1  0  0  0
 26 51  1  0  0  0
 27 52  1  0  0  0
 27 53  1  0  0  0
 28 54  1  0  0  0
 28 55  1  0  0  0
 30 56  1  0  0  0
 30 57  1  0  0  0
 31 58  1  0  0  0
 32 59  1  0  0  0
 32 60  1  0  0  0
 33 61  1  0  0  0
 33 62  1  0  0  0
 35 63  1  0  0  0
 35 64  1  0  0  0
 36 65  1  0  0  0
 36 66  1  0  0  0
M  END
$$$$
