4h3c_ligand
  -I-interpret- 

 55 55  0  0  0  0  0  0  0  0999 V2000
   43.6830   20.4740   66.3350 O   0  0  0  0  0
   42.6770   19.7970   66.6280 C   0  0  0  0  0
   42.5280   19.3790   67.7810 O   0  0  0  0  0
   41.6050   19.5150   65.5700 C   0  0  0  0  0
   40.4940   18.7410   65.7990 O   0  0  0  0  0
   41.9010   20.0800   64.2100 C   0  0  0  0  0
   40.9090   19.8850   63.1320 C   0  0  0  0  0
   39.9280   19.1950   63.3140 O   0  0  0  0  0
   41.3030   20.4400   61.9370 C   0  0  0  0  0
   42.0540   21.5930   61.9350 C   0  0  0  0  0
   41.0030   19.8130   60.7610 C   0  0  0  0  0
   41.4290   20.3640   59.5830 C   0  0  0  0  0
   42.1800   21.4970   59.5750 C   0  0  0  0  0
   42.4740   22.1340   60.7410 C   0  0  0  0  0
   43.2100   23.2430   60.6060 O   0  0  0  0  0
   43.2670   24.2760   61.5180 C   0  0  0  0  0
   44.2270   25.3180   60.9270 C   0  0  0  0  0
   43.5100   26.2040   59.9430 C   0  0  0  0  0
   44.3410   27.4100   59.6110 C   0  0  0  0  0
   43.8490   28.1040   58.3850 C   0  0  0  0  0
   44.9010   29.1130   58.0510 C   0  0  0  0  0
   44.9940   29.4090   56.5850 C   0  0  0  0  0
   46.2790   30.1530   56.4750 C   0  0  0  0  0
   46.8820   30.0560   55.1250 C   0  0  0  0  0
   47.5590   31.3570   54.8470 C   0  0  0  0  0
   43.6446   20.7171   65.4071 H   0  0  0  0  0
   40.6504   19.5527   66.0948 H   0  0  0  0  0
   40.4756   18.4745   66.7211 H   0  0  0  0  0
   42.7945   19.5549   63.8724 H   0  0  0  0  0
   41.9539   21.1589   64.3558 H   0  0  0  0  0
   42.3156   22.0765   62.8762 H   0  0  0  0  0
   40.4312   18.8850   60.7609 H   0  0  0  0  0
   41.1627   19.8883   58.6391 H   0  0  0  0  0
   42.5484   21.8971   58.6304 H   0  0  0  0  0
   43.6182   23.9243   62.4881 H   0  0  0  0  0
   42.2792   24.7043   61.6883 H   0  0  0  0  0
   45.0353   24.7999   60.4110 H   0  0  0  0  0
   44.6193   25.9346   61.7357 H   0  0  0  0  0
   42.5705   26.5346   60.3860 H   0  0  0  0  0
   43.3273   25.6395   59.0287 H   0  0  0  0  0
   45.3643   27.0809   59.4302 H   0  0  0  0  0
   44.2803   28.1075   60.4464 H   0  0  0  0  0
   42.8808   28.5757   58.5532 H   0  0  0  0  0
   43.6910   27.4038   57.5647 H   0  0  0  0  0
   45.8612   28.7046   58.3662 H   0  0  0  0  0
   44.6400   30.0415   58.5587 H   0  0  0  0  0
   44.1424   29.9793   56.2141 H   0  0  0  0  0
   44.9726   28.5093   55.9700 H   0  0  0  0  0
   46.9801   29.7173   57.1868 H   0  0  0  0  0
   46.0751   31.2048   56.6757 H   0  0  0  0  0
   46.1153   29.8555   54.3766 H   0  0  0  0  0
   47.5979   29.2351   55.0833 H   0  0  0  0  0
   46.8248   32.1619   54.8819 H   0  0  0  0  0
   48.3285   31.5326   55.5987 H   0  0  0  0  0
   48.0163   31.3232   53.8581 H   0  0  0  0  0
  1  2  1  0  0  0
  2  3  2  0  0  0
  2  4  1  0  0  0
  4  5  1  0  0  0
  4  6  1  0  0  0
  6  7  1  0  0  0
  7  8  2  0  0  0
  7  9  1  0  0  0
  9 10  4  0  0  0
  9 11  4  0  0  0
 10 14  4  0  0  0
 11 12  4  0  0  0
 12 13  4  0  0  0
 13 14  4  0  0  0
 14 15  1  0  0  0
 15 16  1  0  0  0
 16 17  1  0  0  0
 17 18  1  0  0  0
 18 19  1  0  0  0
 19 20  1  0  0  0
 20 21  1  0  0  0
 21 22  1  0  0  0
 22 23  1  0  0  0
 23 24  1  0  0  0
 24 25  1  0  0  0
  1 26  1  0  0  0
  4 27  1  0  0  0
  5 28  1  0  0  0
  6 29  1  0  0  0
  6 30  1  0  0  0
 10 31  1  0  0  0
 11 32  1  0  0  0
 12 33  1  0  0  0
 13 34  1  0  0  0
 16 35  1  0  0  0
 16 36  1  0  0  0
 17 37  1  0  0  0
 17 38  1  0  0  0
 18 39  1  0  0  0
 18 40  1  0  0  0
 19 41  1  0  0  0
 19 42  1  0  0  0
 20 43  1  0  0  0
 20 44  1  0  0  0
 21 45  1  0  0  0
 21 46  1  0  0  0
 22 47  1  0  0  0
 22 48  1  0  0  0
 23 49  1  0  0  0
 23 50  1  0  0  0
 24 51  1  0  0  0
 24 52  1  0  0  0
 25 53  1  0  0  0
 25 54  1  0  0  0
 25 55  1  0  0  0
M  END
$$$$
