5swh_ligand
  -I-interpret- 

 56 58  0  0  0  0  0  0  0  0999 V2000
  -12.3890  -35.5720    5.8700 C   0  0  0  0  0
  -10.5040  -36.7560    5.9290 C   0  0  0  0  0
   -9.8980  -35.8360    6.7930 C   0  0  0  0  0
   -8.6520  -36.4210    7.1870 C   0  0  0  0  0
   -7.6880  -35.7510    8.0850 C   0  0  0  0  0
   -6.7270  -34.8860    7.5820 C   0  0  0  0  0
   -6.0930  -38.3090    6.3140 C   0  0  0  0  0
   -6.1090  -37.4650    5.1140 C   0  0  0  0  0
   -5.1470  -39.4930    6.0840 C   0  0  0  0  0
   -2.9250  -40.3180    6.8290 C   0  0  0  0  0
   -1.5570  -39.7220    7.1260 C   0  0  0  0  0
   -2.8390  -41.4360    5.8090 C   0  0  0  0  0
   -9.4330  -38.2690    4.2740 C   0  0  0  0  0
   -9.8440  -39.7250    4.2030 C   0  0  0  0  0
   -5.5680  -40.5680    5.6540 O   0  0  0  0  0
   -3.8530  -39.2720    6.3720 N   0  0  0  0  0
   -6.1630  -36.8250    4.1740 N   0  0  0  0  0
   -7.5330  -38.7600    6.6890 C   0  0  0  0  0
   -8.5760  -37.6460    6.5740 C   0  0  0  0  0
   -9.5930  -37.7690    5.6500 N   0  0  0  0  0
   -8.9660  -40.4180    3.3040 O   0  0  0  0  0
   -9.4810  -41.6850    2.8750 C   0  0  0  0  0
  -11.7540  -36.6670    5.4450 N   0  0  0  0  0
  -11.9370  -34.6010    6.6680 N   0  0  0  0  0
  -10.6800  -34.7050    7.1470 C   0  0  0  0  0
  -10.2380  -33.7290    7.9390 N   0  0  0  0  0
   -7.7700  -35.9340    9.4600 C   0  0  0  0  0
   -6.9210  -35.2600   10.3170 C   0  0  0  0  0
   -5.9810  -34.4080    9.7940 C   0  0  0  0  0
   -4.8990  -33.5760   10.8720 Cl  0  0  0  0  0
   -5.8710  -34.2100    8.4350 C   0  0  0  0  0
  -13.4141  -35.4548    5.5184 H   0  0  0  0  0
   -6.6450  -34.7372    6.5053 H   0  0  0  0  0
   -5.7187  -37.7390    7.1643 H   0  0  0  0  0
   -3.3069  -40.7471    7.7553 H   0  0  0  0  0
   -0.9018  -40.4984    7.5210 H   0  0  0  0  0
   -1.1310  -39.3179    6.2077 H   0  0  0  0  0
   -1.6615  -38.9242    7.8614 H   0  0  0  0  0
   -2.4241  -41.0467    4.8792 H   0  0  0  0  0
   -2.1949  -42.2273    6.1926 H   0  0  0  0  0
   -3.8363  -41.8351    5.6243 H   0  0  0  0  0
  -10.0634  -37.6846    3.6038 H   0  0  0  0  0
   -8.3884  -38.1756    3.9769 H   0  0  0  0  0
  -10.8701  -39.7990    3.8429 H   0  0  0  0  0
   -9.7806  -40.1725    5.1949 H   0  0  0  0  0
   -3.4932  -38.3233    6.2676 H   0  0  0  0  0
   -7.5131  -39.0816    7.7303 H   0  0  0  0  0
   -7.8195  -39.5480    5.9925 H   0  0  0  0  0
   -9.6361  -42.3255    3.7432 H   0  0  0  0  0
  -10.4292  -41.5344    2.3589 H   0  0  0  0  0
   -8.7679  -42.1552    2.1978 H   0  0  0  0  0
   -9.2943  -33.7722    8.3236 H   0  0  0  0  0
  -10.8434  -32.9386    8.1608 H   0  0  0  0  0
   -8.5139  -36.6183    9.8680 H   0  0  0  0  0
   -6.9970  -35.4033   11.3949 H   0  0  0  0  0
   -5.1190  -33.5292    8.0360 H   0  0  0  0  0
 23  1  4  0  0  0
  1 24  4  0  0  0
  3  2  4  0  0  0
  2 20  4  0  0  0
  2 23  4  0  0  0
  4  3  4  0  0  0
  3 25  4  0  0  0
  4  5  1  0  0  0
 19  4  4  0  0  0
  5  6  4  0  0  0
  5 27  4  0  0  0
  6 31  4  0  0  0
  7  8  1  0  0  0
  7  9  1  0  0  0
 18  7  1  0  0  0
  8 17  3  0  0  0
  9 15  2  0  0  0
  9 16  1  0  0  0
 10 11  1  0  0  0
 10 12  1  0  0  0
 16 10  1  0  0  0
 13 14  1  0  0  0
 20 13  1  0  0  0
 14 21  1  0  0  0
 18 19  1  0  0  0
 19 20  4  0  0  0
 21 22  1  0  0  0
 24 25  4  0  0  0
 25 26  1  0  0  0
 27 28  4  0  0  0
 28 29  4  0  0  0
 29 30  1  0  0  0
 29 31  4  0  0  0
  1 32  1  0  0  0
  6 33  1  0  0  0
  7 34  1  0  0  0
 10 35  1  0  0  0
 11 36  1  0  0  0
 11 37  1  0  0  0
 11 38  1  0  0  0
 12 39  1  0  0  0
 12 40  1  0  0  0
 12 41  1  0  0  0
 13 42  1  0  0  0
 13 43  1  0  0  0
 14 44  1  0  0  0
 14 45  1  0  0  0
 16 46  1  0  0  0
 18 47  1  0  0  0
 18 48  1  0  0  0
 22 49  1  0  0  0
 22 50  1  0  0  0
 22 51  1  0  0  0
 26 52  1  0  0  0
 26 53  1  0  0  0
 27 54  1  0  0  0
 28 55  1  0  0  0
 31 56  1  0  0  0
M  END
$$$$
