2wbd_ligand
  -I-interpret- 

 33 34  0  0  0  0  0  0  0  0999 V2000
   34.8610   13.8410  -23.2290 C   0  0  0  0  0
   36.2530   13.8000  -23.2130 C   0  0  0  0  0
   34.1510   13.5390  -22.0780 C   0  0  0  0  0
   39.3890   10.9120  -22.4290 C   0  0  0  0  0
   39.0970   10.5930  -21.2920 O   0  0  0  0  0
   39.8530   10.0460  -23.3190 N   0  0  0  0  0
   40.0740    8.8140  -22.9060 C   0  0  0  0  0
   39.3080   14.5630  -22.5550 O   0  0  0  0  0
   41.0480    6.7670  -22.8370 C   0  0  0  0  0
   40.3050    6.5600  -21.7110 C   0  0  0  0  0
   36.2350   13.1840  -20.8980 C   0  0  0  0  0
   39.0730   13.3430  -20.6190 O   0  0  0  0  0
   40.1840    5.0270  -20.5840 Br  0  0  0  0  0
   39.4330    8.0370  -21.4850 S   0  0  0  0  0
   40.9340    7.9280  -23.4190 N   0  0  0  0  0
   39.2490   12.1390  -22.8640 N   0  0  0  0  0
   38.6890   13.4090  -21.9990 S   0  0  0  0  0
   36.9340   13.4640  -22.0550 C   0  0  0  0  0
   34.8430   13.2160  -20.9070 C   0  0  0  0  0
   34.1110   12.9330  -19.6110 C   0  0  0  0  0
   33.2690   11.7020  -19.7290 C   0  0  0  0  0
   34.3321   14.1096  -24.1434 H   0  0  0  0  0
   36.8111   14.0343  -24.1195 H   0  0  0  0  0
   33.0611   13.5532  -22.0856 H   0  0  0  0  0
   40.0318   10.3220  -24.2845 H   0  0  0  0  0
   41.7081    5.9951  -23.2325 H   0  0  0  0  0
   36.7707   12.9388  -19.9809 H   0  0  0  0  0
   39.5138   12.3196  -23.8323 H   0  0  0  0  0
   33.4631   13.7794  -19.3831 H   0  0  0  0  0
   34.8457   12.7798  -18.8205 H   0  0  0  0  0
   32.5350   11.8401  -20.5229 H   0  0  0  0  0
   33.9055   10.8493  -19.9652 H   0  0  0  0  0
   32.7552   11.5229  -18.7845 H   0  0  0  0  0
  2  1  4  0  0  0
  1  3  4  0  0  0
 18  2  4  0  0  0
 19  3  4  0  0  0
  4  5  2  0  0  0
  4  6  1  0  0  0
 16  4  1  0  0  0
  6  7  1  0  0  0
  7 14  4  0  0  0
  7 15  4  0  0  0
 17  8  2  0  0  0
  9 10  4  0  0  0
 15  9  4  0  0  0
 10 13  1  0  0  0
 14 10  4  0  0  0
 18 11  4  0  0  0
 11 19  4  0  0  0
 17 12  2  0  0  0
 17 16  1  0  0  0
 17 18  1  0  0  0
 19 20  1  0  0  0
 20 21  1  0  0  0
  1 22  1  0  0  0
  2 23  1  0  0  0
  3 24  1  0  0  0
  6 25  1  0  0  0
  9 26  1  0  0  0
 11 27  1  0  0  0
 16 28  1  0  0  0
 20 29  1  0  0  0
 20 30  1  0  0  0
 21 31  1  0  0  0
 21 32  1  0  0  0
 21 33  1  0  0  0
M  END
$$$$
