4blb_ligand
  -I-interpret- 

115116  0  0  0  0  0  0  0  0999 V2000
   46.2930   -6.1420  -55.1900 N   0  3  0  0  0
   47.3430   -5.9910  -54.1830 C   0  0  0  0  0
   48.5930   -6.8010  -54.5580 C   0  0  0  0  0
   49.5900   -6.7840  -53.8300 O   0  0  0  0  0
   46.8390   -6.4310  -52.7920 C   0  0  0  0  0
   45.8620   -5.5460  -52.2720 O   0  0  0  0  0
   48.5380   -7.4950  -55.6950 N   0  0  0  0  0
   49.6560   -8.3220  -56.1650 C   0  0  0  0  0
   49.8790   -8.2550  -57.6780 C   0  0  0  0  0
   48.9360   -8.0780  -58.4470 O   0  0  0  0  0
   49.4360   -9.7780  -55.7540 C   0  0  0  0  0
   50.7010  -10.6030  -55.7260 C   0  0  0  0  0
   51.5410  -10.6000  -54.6250 C   0  0  0  0  0
   51.0520  -11.3950  -56.8090 C   0  0  0  0  0
   52.7000  -11.3650  -54.6100 C   0  0  0  0  0
   52.2050  -12.1610  -56.8020 C   0  0  0  0  0
   53.0250  -12.1420  -55.6980 C   0  0  0  0  0
   54.1750  -12.8950  -55.6680 O   0  0  0  0  0
   51.1390   -8.3940  -58.0910 N   0  0  0  0  0
   51.5140   -8.3010  -59.4940 C   0  0  0  0  0
   52.1830   -9.5490  -60.0580 C   0  0  0  0  0
   52.9580  -10.2180  -59.3700 O   0  0  0  0  0
   51.8770   -9.8570  -61.3170 N   0  0  0  0  0
   52.5070  -10.9660  -62.0340 C   0  0  0  0  0
   53.0320  -10.4800  -63.3880 C   0  0  0  0  0
   52.2530  -10.0620  -64.2390 O   0  0  0  0  0
   51.5110  -12.1050  -62.2430 C   0  0  0  0  0
   50.6470  -12.3790  -61.0520 C   0  0  0  0  0
   50.8930  -13.4010  -60.1640 N   0  0  0  0  0
   49.5290  -11.7550  -60.6090 C   0  0  0  0  0
   49.9670  -13.4010  -59.2240 C   0  0  0  0  0
   49.1240  -12.4100  -59.4710 N   0  0  0  0  0
   54.3410  -10.5660  -63.6020 N   0  0  0  0  0
   54.9630   -9.9240  -64.7650 C   0  0  0  0  0
   55.5850  -10.8730  -65.7820 C   0  0  0  0  0
   56.3660  -11.7590  -65.4330 O   0  0  0  0  0
   56.0160   -8.9180  -64.3020 C   0  0  0  0  0
   55.5440   -7.8780  -63.2800 C   0  0  0  0  0
   56.4670   -7.8150  -62.0980 C   0  0  0  0  0
   55.4750   -6.5230  -63.9680 C   0  0  0  0  0
   55.2150  -10.6600  -67.0460 N   0  0  0  0  0
   55.7650  -11.3840  -68.1960 C   0  0  0  0  0
   55.5450  -12.8840  -68.0840 C   0  0  0  0  0
   56.4080  -13.6810  -68.4370 O   0  0  0  0  0
   57.2540  -11.0830  -68.3580 C   0  0  0  0  0
   57.4620   -9.7170  -68.6850 O   0  0  0  0  0
   54.3720  -13.2570  -67.5890 N   0  0  0  0  0
   54.0490  -14.6510  -67.3320 C   0  0  0  0  0
   54.0150  -15.4410  -68.6360 C   0  0  0  0  0
   54.2490  -16.6480  -68.6430 O   0  0  0  0  0
   52.6940  -14.8010  -66.6330 C   0  0  0  0  0
   51.5680  -14.2820  -67.5250 C   0  0  0  0  0
   52.6990  -14.0210  -65.3190 C   0  0  0  0  0
   50.2380  -14.6350  -67.0300 C   0  0  0  0  0
   53.6570  -14.7600  -69.7200 N   0  0  0  0  0
   53.7020  -15.3420  -71.0500 C   0  0  0  0  0
   54.9660  -14.9460  -71.8020 C   0  0  0  0  0
   55.5007  -13.8175  -71.6340 O   0  0  0  0  0
   55.4870  -15.7627  -72.6077 O   0  0  0  0  0
   46.6497   -5.8455  -56.0985 H   0  0  0  0  0
   46.0078   -7.1201  -55.2381 H   0  0  0  0  0
   45.4918   -5.5653  -54.9332 H   0  0  0  0  0
   47.6090   -4.9346  -54.1467 H   0  0  0  0  0
   47.6889   -6.4367  -52.1096 H   0  0  0  0  0
   46.3847   -7.4167  -52.8921 H   0  0  0  0  0
   45.5775   -5.8564  -51.4092 H   0  0  0  0  0
   47.6889   -7.4497  -56.2583 H   0  0  0  0  0
   50.5512   -7.9153  -55.6945 H   0  0  0  0  0
   48.7721  -10.2269  -56.4928 H   0  0  0  0  0
   49.0302   -9.7718  -54.7424 H   0  0  0  0  0
   51.2891   -9.9889  -53.7583 H   0  0  0  0  0
   50.4050  -11.4148  -57.6860 H   0  0  0  0  0
   53.3520  -11.3499  -53.7366 H   0  0  0  0  0
   52.4612  -12.7749  -57.6654 H   0  0  0  0  0
   54.2618  -13.3776  -56.4933 H   0  0  0  0  0
   51.8665   -8.5720  -57.3985 H   0  0  0  0  0
   52.2363   -7.4889  -59.5764 H   0  0  0  0  0
   50.5941   -8.1510  -60.0592 H   0  0  0  0  0
   51.1751   -9.2972  -61.8010 H   0  0  0  0  0
   53.3397  -11.3370  -61.4364 H   0  0  0  0  0
   52.0877  -13.0086  -62.4407 H   0  0  0  0  0
   50.8528  -11.8147  -63.0619 H   0  0  0  0  0
   49.0423  -10.8950  -61.0689 H   0  0  0  0  0
   49.9063  -14.0973  -58.3876 H   0  0  0  0  0
   54.9230  -11.0873  -62.9463 H   0  0  0  0  0
   54.1418   -9.4334  -65.2876 H   0  0  0  0  0
   56.3197   -8.3614  -65.1886 H   0  0  0  0  0
   56.7990   -9.4967  -63.8120 H   0  0  0  0  0
   54.5598   -8.1630  -62.9081 H   0  0  0  0  0
   56.4991   -8.7898  -61.6114 H   0  0  0  0  0
   57.4674   -7.5420  -62.4339 H   0  0  0  0  0
   56.1024   -7.0676  -61.3934 H   0  0  0  0  0
   56.4634   -6.2562  -64.3422 H   0  0  0  0  0
   54.7720   -6.5745  -64.7994 H   0  0  0  0  0
   55.1403   -5.7708  -63.2536 H   0  0  0  0  0
   54.5053   -9.9492  -67.2233 H   0  0  0  0  0
   55.2305  -11.0363  -69.0800 H   0  0  0  0  0
   57.6509  -11.7007  -69.1636 H   0  0  0  0  0
   57.7598  -11.2992  -67.4170 H   0  0  0  0  0
   58.4028   -9.5519  -68.7816 H   0  0  0  0  0
   53.6741  -12.5425  -67.3820 H   0  0  0  0  0
   54.8280  -15.0412  -66.6770 H   0  0  0  0  0
   52.5261  -15.8590  -66.4317 H   0  0  0  0  0
   51.6875  -14.7361  -68.5086 H   0  0  0  0  0
   51.6363  -13.1944  -67.5469 H   0  0  0  0  0
   53.4843  -14.4093  -64.6704 H   0  0  0  0  0
   52.8840  -12.9667  -65.5245 H   0  0  0  0  0
   51.7323  -14.1326  -64.8280 H   0  0  0  0  0
   50.1470  -15.7200  -66.9785 H   0  0  0  0  0
   50.0968  -14.2097  -66.0364 H   0  0  0  0  0
   49.4823  -14.2375  -67.7075 H   0  0  0  0  0
   53.3400  -13.7963  -69.6142 H   0  0  0  0  0
   52.8421  -14.9770  -71.6116 H   0  0  0  0  0
   53.6911  -16.4272  -70.9483 H   0  0  0  0  0
   54.9902  -13.3147  -70.9951 H   0  0  0  0  0
  1  2  1  0  0  0
  2  3  1  0  0  0
  2  5  1  0  0  0
  3  4  2  0  0  0
  3  7  1  0  0  0
  5  6  1  0  0  0
  7  8  1  0  0  0
  8  9  1  0  0  0
  8 11  1  0  0  0
  9 10  2  0  0  0
  9 19  1  0  0  0
 11 12  1  0  0  0
 12 13  4  0  0  0
 12 14  4  0  0  0
 13 15  4  0  0  0
 14 16  4  0  0  0
 15 17  4  0  0  0
 16 17  4  0  0  0
 17 18  1  0  0  0
 19 20  1  0  0  0
 20 21  1  0  0  0
 21 22  2  0  0  0
 21 23  1  0  0  0
 23 24  1  0  0  0
 24 25  1  0  0  0
 24 27  1  0  0  0
 25 26  2  0  0  0
 25 33  1  0  0  0
 27 28  1  0  0  0
 28 29  4  0  0  0
 28 30  4  0  0  0
 29 31  4  0  0  0
 30 32  4  0  0  0
 31 32  4  0  0  0
 33 34  1  0  0  0
 34 35  1  0  0  0
 34 37  1  0  0  0
 35 36  2  0  0  0
 35 41  1  0  0  0
 37 38  1  0  0  0
 38 39  1  0  0  0
 38 40  1  0  0  0
 41 42  1  0  0  0
 42 43  1  0  0  0
 42 45  1  0  0  0
 43 44  2  0  0  0
 43 47  1  0  0  0
 45 46  1  0  0  0
 47 48  1  0  0  0
 48 49  1  0  0  0
 48 51  1  0  0  0
 49 50  2  0  0  0
 49 55  1  0  0  0
 51 52  1  0  0  0
 51 53  1  0  0  0
 52 54  1  0  0  0
 55 56  1  0  0  0
 56 57  1  0  0  0
 57 58  1  0  0  0
 57 59  2  0  0  0
  1 60  1  0  0  0
  1 61  1  0  0  0
  1 62  1  0  0  0
  2 63  1  0  0  0
  5 64  1  0  0  0
  5 65  1  0  0  0
  6 66  1  0  0  0
  7 67  1  0  0  0
  8 68  1  0  0  0
 11 69  1  0  0  0
 11 70  1  0  0  0
 13 71  1  0  0  0
 14 72  1  0  0  0
 15 73  1  0  0  0
 16 74  1  0  0  0
 18 75  1  0  0  0
 19 76  1  0  0  0
 20 77  1  0  0  0
 20 78  1  0  0  0
 23 79  1  0  0  0
 24 80  1  0  0  0
 27 81  1  0  0  0
 27 82  1  0  0  0
 30 83  1  0  0  0
 31 84  1  0  0  0
 33 85  1  0  0  0
 34 86  1  0  0  0
 37 87  1  0  0  0
 37 88  1  0  0  0
 38 89  1  0  0  0
 39 90  1  0  0  0
 39 91  1  0  0  0
 39 92  1  0  0  0
 40 93  1  0  0  0
 40 94  1  0  0  0
 40 95  1  0  0  0
 41 96  1  0  0  0
 42 97  1  0  0  0
 45 98  1  0  0  0
 45 99  1  0  0  0
 46100  1  0  0  0
 47101  1  0  0  0
 48102  1  0  0  0
 51103  1  0  0  0
 52104  1  0  0  0
 52105  1  0  0  0
 53106  1  0  0  0
 53107  1  0  0  0
 53108  1  0  0  0
 54109  1  0  0  0
 54110  1  0  0  0
 54111  1  0  0  0
 55112  1  0  0  0
 56113  1  0  0  0
 56114  1  0  0  0
 58115  1  0  0  0
M  END
$$$$
