### 
### Created by X-TOOL on Mon Sep 10 21:13:14 2018
### 

@<TRIPOS>MOLECULE
4blb_ligand
  115   116     1     0     0
SMALL
GAST_HUCK


@<TRIPOS>ATOM
      1 N          46.2930   -6.1420  -55.1900 N.4       1 SER         0.2396
      2 CA         47.3430   -5.9910  -54.1830 C.3       1 SER         0.0885
      3 C          48.5930   -6.8010  -54.5580 C.2       1 SER         0.2291
      4 O          49.5900   -6.7840  -53.8300 O.2       1 SER        -0.3906
      5 CB         46.8390   -6.4310  -52.7920 C.3       1 SER         0.1041
      6 OG         45.8620   -5.5460  -52.2720 O.3       1 SER        -0.3870
      7 N          48.5380   -7.4950  -55.6950 N.am      1 TYR        -0.2594
      8 CA         49.6560   -8.3220  -56.1650 C.3       1 TYR         0.1391
      9 C          49.8790   -8.2550  -57.6780 C.2       1 TYR         0.2055
     10 O          48.9360   -8.0780  -58.4470 O.2       1 TYR        -0.3942
     11 CB         49.4360   -9.7780  -55.7540 C.3       1 TYR         0.0164
     12 CG         50.7010  -10.6030  -55.7260 C.ar      1 TYR        -0.0493
     13 CD1        51.5410  -10.6000  -54.6250 C.ar      1 TYR        -0.0685
     14 CD2        51.0520  -11.3950  -56.8090 C.ar      1 TYR        -0.0685
     15 CE1        52.7000  -11.3650  -54.6100 C.ar      1 TYR        -0.0398
     16 CE2        52.2050  -12.1610  -56.8020 C.ar      1 TYR        -0.0398
     17 CZ         53.0250  -12.1420  -55.6980 C.ar      1 TYR         0.0805
     18 OH         54.1750  -12.8950  -55.6680 O.3       1 TYR        -0.3376
     19 N          51.1390   -8.3940  -58.0910 N.am      1 GLY        -0.2663
     20 CA         51.5140   -8.3010  -59.4940 C.3       1 GLY         0.1201
     21 C          52.1830   -9.5490  -60.0580 C.2       1 GLY         0.2008
     22 O          52.9580  -10.2180  -59.3700 O.2       1 GLY        -0.3947
     23 N          51.8770   -9.8570  -61.3170 N.am      1 HIS        -0.2627
     24 CA         52.5070  -10.9660  -62.0340 C.3       1 HIS         0.1369
     25 C          53.0320  -10.4800  -63.3880 C.2       1 HIS         0.2054
     26 O          52.2530  -10.0620  -64.2390 O.2       1 HIS        -0.3942
     27 CB         51.5110  -12.1050  -62.2430 C.3       1 HIS         0.0145
     28 CG         50.6470  -12.3790  -61.0520 C.2       1 HIS        -0.0027
     29 ND1        50.8930  -13.4010  -60.1640 N.2       1 HIS        -0.3252
     30 CD2        49.5290  -11.7550  -60.6090 C.2       1 HIS         0.0291
     31 CE1        49.9670  -13.4010  -59.2240 C.2       1 HIS         0.0907
     32 NE2        49.1240  -12.4100  -59.4710 N.pl3     1 HIS        -0.2752
     33 N          54.3410  -10.5660  -63.6020 N.am      1 LEU        -0.2636
     34 CA         54.9630   -9.9240  -64.7650 C.3       1 LEU         0.1312
     35 C          55.5850  -10.8730  -65.7820 C.2       1 LEU         0.2040
     36 O          56.3660  -11.7590  -65.4330 O.2       1 LEU        -0.3944
     37 CB         56.0160   -8.9180  -64.3020 C.3       1 LEU        -0.0101
     38 CG         55.5440   -7.8780  -63.2800 C.3       1 LEU        -0.0425
     39 CD1        56.4670   -7.8150  -62.0980 C.3       1 LEU        -0.0625
     40 CD2        55.4750   -6.5230  -63.9680 C.3       1 LEU        -0.0625
     41 N          55.2150  -10.6600  -67.0460 N.am      1 SER        -0.2616
     42 CA         55.7650  -11.3840  -68.1960 C.3       1 SER         0.1539
     43 C          55.5450  -12.8840  -68.0840 C.2       1 SER         0.2062
     44 O          56.4080  -13.6810  -68.4370 O.2       1 SER        -0.3943
     45 CB         57.2540  -11.0830  -68.3580 C.3       1 SER         0.0843
     46 OG         57.4620   -9.7170  -68.6850 O.3       1 SER        -0.3903
     47 N          54.3720  -13.2570  -67.5890 N.am      1 ILE        -0.2634
     48 CA         54.0490  -14.6510  -67.3320 C.3       1 ILE         0.1334
     49 C          54.0150  -15.4410  -68.6360 C.2       1 ILE         0.2034
     50 O          54.2490  -16.6480  -68.6430 O.2       1 ILE        -0.3944
     51 CB         52.6940  -14.8010  -66.6330 C.3       1 ILE        -0.0037
     52 CG1        51.5680  -14.2820  -67.5250 C.3       1 ILE        -0.0491
     53 CG2        52.6990  -14.0210  -65.3190 C.3       1 ILE        -0.0582
     54 CD1        50.2380  -14.6350  -67.0300 C.3       1 ILE        -0.0648
     55 N          53.6570  -14.7600  -69.7200 N.am      1 GLY        -0.2722
     56 CA         53.7020  -15.3420  -71.0500 C.3       1 GLY         0.0833
     57 C          54.9660  -14.9460  -71.8020 C.2       1 GLY         0.0570
     58 O          55.5007  -13.8175  -71.6340 O.co2     1 GLY        -0.5669
     59 O          55.4870  -15.7627  -72.6077 O.co2     1 GLY        -0.5669
     60 H1         45.4869   -5.6011  -54.9186 H         1 SER         0.2016
     61 H2         46.0359   -7.1138  -55.2643 H         1 SER         0.2016
     62 H3         46.6325   -5.8151  -56.0810 H         1 SER         0.2016
     63 H4         47.6200   -4.9276  -54.1331 H         1 SER         0.1122
     64 H5         47.6930   -6.4623  -52.0994 H         1 SER         0.0640
     65 H6         46.3982   -7.4353  -52.8763 H         1 SER         0.0640
     66 H7         46.2358   -4.6765  -52.1896 H         1 SER         0.2099
     67 H8         47.7055   -7.4506  -56.2473 H         1 TYR         0.1886
     68 H9         50.5699   -7.9552  -55.6749 H         1 TYR         0.0821
     69 H10        48.7380  -10.2382  -56.4689 H         1 TYR         0.0453
     70 H11        48.9918   -9.7907  -54.7478 H         1 TYR         0.0453
     71 H12        51.2904   -9.9922  -53.7631 H         1 TYR         0.0530
     72 H13        50.4086  -11.4147  -57.6812 H         1 TYR         0.0530
     73 H14        53.3484  -11.3500  -53.7414 H         1 TYR         0.0525
     74 H15        52.4598  -12.7716  -57.6607 H         1 TYR         0.0525
     75 H16        54.7465  -12.6266  -56.3777 H         1 TYR         0.2458
     76 H17        51.8522   -8.5685  -57.4121 H         1 GLY         0.1881
     77 H18        52.2110   -7.4576  -59.6073 H         1 GLY         0.0763
     78 H19        50.6037   -8.1057  -60.0799 H         1 GLY         0.0763
     79 H20        51.1888   -9.3081  -61.7915 H         1 HIS         0.1884
     80 H21        53.3520  -11.3393  -61.4368 H         1 HIS         0.0817
     81 H22        52.0747  -13.0194  -62.4800 H         1 HIS         0.0420
     82 H23        50.8602  -11.8453  -63.0909 H         1 HIS         0.0420
     83 H24        49.0427  -10.8958  -61.0685 H         1 HIS         0.0729
     84 H25        49.9064  -14.0967  -58.3884 H         1 HIS         0.1199
     85 H26        48.2993  -12.1694  -58.9028 H         1 HIS         0.2361
     86 H27        54.9115  -11.0771  -62.9592 H         1 LEU         0.1883
     87 H28        54.1684   -9.3705  -65.2867 H         1 LEU         0.0800
     88 H29        56.3795   -8.3782  -65.1888 H         1 LEU         0.0315
     89 H30        56.8455   -9.4820  -63.8504 H         1 LEU         0.0315
     90 H31        54.5399   -8.1549  -62.9264 H         1 LEU         0.0298
     91 H32        56.1001   -7.0610  -61.3861 H         1 LEU         0.0232
     92 H33        57.4770   -7.5396  -62.4357 H         1 LEU         0.0232
     93 H34        56.5003   -8.7982  -61.6059 H         1 LEU         0.0232
     94 H35        54.7959   -6.5842  -64.8311 H         1 LEU         0.0232
     95 H36        56.4794   -6.2346  -64.3115 H         1 LEU         0.0232
     96 H37        55.0998   -5.7704  -63.2589 H         1 LEU         0.0232
     97 H38        54.5192   -9.9631  -67.2198 H         1 SER         0.1884
     98 H39        55.2426  -11.0313  -69.0975 H         1 SER         0.0823
     99 H40        57.6633  -11.7122  -69.1621 H         1 SER         0.0606
    100 H41        57.7722  -11.3104  -67.4147 H         1 SER         0.0606
    101 H42        57.1129   -9.1698  -67.9914 H         1 SER         0.2097
    102 H43        53.6878  -12.5565  -67.3861 H         1 ILE         0.1883
    103 H44        54.8293  -15.0716  -66.6807 H         1 ILE         0.0803
    104 H45        52.5195  -15.8659  -66.4196 H         1 ILE         0.0345
    105 H46        51.6924  -14.7094  -68.5309 H         1 ILE         0.0267
    106 H47        51.6417  -13.1859  -67.5806 H         1 ILE         0.0267
    107 H48        53.5093  -14.3931  -64.6748 H         1 ILE         0.0235
    108 H49        51.7338  -14.1558  -64.8089 H         1 ILE         0.0235
    109 H50        52.8576  -12.9526  -65.5274 H         1 ILE         0.0235
    110 H51        49.4744  -14.2344  -67.7129 H         1 ILE         0.0230
    111 H52        50.0942  -14.2063  -66.0272 H         1 ILE         0.0230
    112 H53        50.1449  -15.7298  -66.9776 H         1 ILE         0.0230
    113 H54        53.3462  -13.8152  -69.6163 H         1 GLY         0.1873
    114 H55        52.8267  -14.9959  -71.6192 H         1 GLY         0.0689
    115 H56        53.6708  -16.4378  -70.9597 H         1 GLY         0.0689
@<TRIPOS>BOND
     1    1    2 1  
     2    2    3 1  
     3    2    5 1  
     4    3    4 2  
     5    3    7 am 
     6    5    6 1  
     7    7    8 1  
     8    8    9 1  
     9    8   11 1  
    10    9   10 2  
    11    9   19 am 
    12   11   12 1  
    13   12   13 ar 
    14   12   14 ar 
    15   13   15 ar 
    16   14   16 ar 
    17   15   17 ar 
    18   16   17 ar 
    19   17   18 1  
    20   19   20 1  
    21   20   21 1  
    22   21   22 2  
    23   21   23 am 
    24   23   24 1  
    25   24   25 1  
    26   24   27 1  
    27   25   26 2  
    28   25   33 am 
    29   27   28 1  
    30   28   29 1  
    31   28   30 2  
    32   29   31 2  
    33   30   32 1  
    34   31   32 1  
    35   33   34 1  
    36   34   35 1  
    37   34   37 1  
    38   35   36 2  
    39   35   41 am 
    40   37   38 1  
    41   38   39 1  
    42   38   40 1  
    43   41   42 1  
    44   42   43 1  
    45   42   45 1  
    46   43   44 2  
    47   43   47 am 
    48   45   46 1  
    49   47   48 1  
    50   48   49 1  
    51   48   51 1  
    52   49   50 2  
    53   49   55 am 
    54   51   52 1  
    55   51   53 1  
    56   52   54 1  
    57   55   56 1  
    58   56   57 1  
    59   57   58 ar 
    60   57   59 ar 
    61    1   60 1  
    62    1   61 1  
    63    1   62 1  
    64    2   63 1  
    65    5   64 1  
    66    5   65 1  
    67    6   66 1  
    68    7   67 1  
    69    8   68 1  
    70   11   69 1  
    71   11   70 1  
    72   13   71 1  
    73   14   72 1  
    74   15   73 1  
    75   16   74 1  
    76   18   75 1  
    77   19   76 1  
    78   20   77 1  
    79   20   78 1  
    80   23   79 1  
    81   24   80 1  
    82   27   81 1  
    83   27   82 1  
    84   30   83 1  
    85   31   84 1  
    86   32   85 1  
    87   33   86 1  
    88   34   87 1  
    89   37   88 1  
    90   37   89 1  
    91   38   90 1  
    92   39   91 1  
    93   39   92 1  
    94   39   93 1  
    95   40   94 1  
    96   40   95 1  
    97   40   96 1  
    98   41   97 1  
    99   42   98 1  
   100   45   99 1  
   101   45  100 1  
   102   46  101 1  
   103   47  102 1  
   104   48  103 1  
   105   51  104 1  
   106   52  105 1  
   107   52  106 1  
   108   53  107 1  
   109   53  108 1  
   110   53  109 1  
   111   54  110 1  
   112   54  111 1  
   113   54  112 1  
   114   55  113 1  
   115   56  114 1  
   116   56  115 1  
@<TRIPOS>SUBSTRUCTURE
     1 SER         1

