5hvp_ligand
  -I-interpret- 

102101  0  0  0  0  0  0  0  0999 V2000
    4.9490   27.7580    6.7930 C   0  0  0  0  0
    4.8000   26.6780    7.3930 O   0  0  0  0  0
    4.1710   29.0120    7.1160 C   0  0  0  0  0
    5.9300   27.8410    5.8690 N   0  0  0  0  0
    6.6880   26.5740    5.6270 C   0  0  0  0  0
    8.1830   26.7930    5.8600 C   0  0  0  0  0
    8.6900   27.9100    5.6750 O   0  0  0  0  0
    6.5290   26.1780    4.1390 C   0  0  0  0  0
    7.6860   25.2560    3.6850 C   0  0  0  0  0
    5.1660   25.5630    3.8050 C   0  0  0  0  0
    8.8380   25.6700    6.1850 N   0  0  0  0  0
   10.3010   25.6890    6.4340 C   0  0  0  0  0
   10.9780   24.5530    5.7000 C   0  0  0  0  0
   10.5690   23.3860    5.7170 O   0  0  0  0  0
   10.4180   25.5900    7.9830 C   0  0  0  0  0
   11.7990   25.1850    8.4800 C   0  0  0  0  0
    9.8950   26.9110    8.6210 C   0  0  0  0  0
   12.1260   24.8780    5.0080 N   0  0  0  0  0
   12.8460   23.6430    4.4970 C   0  0  0  0  0
   12.2280   23.4170    3.0920 C   0  0  0  0  0
   10.7750   23.8680    2.8430 C   0  0  0  0  0
   10.4850   24.2640    1.3860 C   0  0  0  0  0
    9.7060   22.8460    3.3260 C   0  0  0  0  0
   14.3770   23.7830    4.6590 C   0  0  0  0  0
   14.6900   25.0860    5.2140 O   0  0  0  0  0
   15.0730   22.7550    5.6340 C   0  0  0  0  0
   14.7670   21.2860    5.3040 C   0  0  0  0  0
   13.6660   20.7390    5.5240 O   0  0  0  0  0
   15.8270   20.6740    4.7660 N   0  0  0  0  0
   16.2270   19.2820    5.0450 C   0  0  0  0  0
   17.7040   19.1620    5.3970 C   0  0  0  0  0
   18.6570   19.7380    4.8550 O   0  0  0  0  0
   15.8550   18.4330    3.7970 C   0  0  0  0  0
   17.9130   18.3890    6.4650 N   0  0  0  0  0
   19.2160   17.9340    6.9520 C   0  0  0  0  0
   19.4160   18.4410    8.4250 C   0  0  0  0  0
   19.4920   19.9880    8.5850 C   0  0  0  0  0
   18.0690   20.5930    8.5530 C   0  0  0  0  0
   20.2460   20.4040    9.8540 C   0  0  0  0  0
   19.2480   16.4000    6.7170 C   0  0  0  0  0
   18.0830   15.7450    7.2880 O   0  0  0  0  0
   19.3170   15.9940    5.2110 C   0  0  0  0  0
   20.3470   14.8580    5.0010 C   0  0  0  0  0
   20.9360   14.3020    5.9360 O   0  0  0  0  0
   20.5730   14.5520    3.7030 O   0  0  0  0  0
    3.1062   28.8226    6.9799 H   0  0  0  0  0
    4.3609   29.2996    8.1501 H   0  0  0  0  0
    4.4865   29.8154    6.4503 H   0  0  0  0  0
    6.1395   28.7063    5.3712 H   0  0  0  0  0
    6.3039   25.8087    6.3014 H   0  0  0  0  0
    6.5783   27.1089    3.5741 H   0  0  0  0  0
    7.6038   24.2951    4.1929 H   0  0  0  0  0
    7.6269   25.1050    2.6071 H   0  0  0  0  0
    8.6393   25.7209    3.9363 H   0  0  0  0  0
    5.0902   25.4139    2.7279 H   0  0  0  0  0
    5.0671   24.6041    4.3137 H   0  0  0  0  0
    4.3745   26.2350    4.1367 H   0  0  0  0  0
    8.3250   24.7918    6.2622 H   0  0  0  0  0
   10.8016   26.5838    6.0641 H   0  0  0  0  0
    9.7853   24.7663    8.3135 H   0  0  0  0  0
   12.0565   24.2059    8.0760 H   0  0  0  0  0
   12.5327   25.9202    8.1495 H   0  0  0  0  0
   11.7930   25.1399    9.5691 H   0  0  0  0  0
   10.4927   27.7484    8.2610 H   0  0  0  0  0
    8.8522   27.0603    8.3409 H   0  0  0  0  0
    9.9753   26.8456    9.7061 H   0  0  0  0  0
   12.4519   25.8328    4.8577 H   0  0  0  0  0
   12.7029   22.7214    5.0611 H   0  0  0  0  0
   12.2165   22.3354    2.9575 H   0  0  0  0  0
   12.8326   24.0210    2.4154 H   0  0  0  0  0
   10.6886   24.7634    3.4586 H   0  0  0  0  0
   11.1334   25.0922    1.1000 H   0  0  0  0  0
   10.6742   23.4109    0.7344 H   0  0  0  0  0
    9.4425   24.5687    1.2943 H   0  0  0  0  0
    9.8455   21.9009    2.8012 H   0  0  0  0  0
    9.8157   22.6870    4.3987 H   0  0  0  0  0
    8.7104   23.2366    3.1153 H   0  0  0  0  0
   14.7526   23.6068    3.6510 H   0  0  0  0  0
   15.6411   25.1701    5.3135 H   0  0  0  0  0
   14.6937   22.9494    6.6372 H   0  0  0  0  0
   16.1500   22.8929    5.5381 H   0  0  0  0  0
   16.4013   21.2091    4.1147 H   0  0  0  0  0
   15.6968   18.9139    5.9234 H   0  0  0  0  0
   14.7806   18.4949    3.6242 H   0  0  0  0  0
   16.3870   18.8166    2.9264 H   0  0  0  0  0
   16.1375   17.3943    3.9684 H   0  0  0  0  0
   17.0909   18.0885    6.9886 H   0  0  0  0  0
   20.0773   18.3454    6.4256 H   0  0  0  0  0
   20.3708   18.0423    8.7677 H   0  0  0  0  0
   18.5468   18.1086    8.9925 H   0  0  0  0  0
   20.0619   20.3834    7.7442 H   0  0  0  0  0
   17.5948   20.3529    7.6014 H   0  0  0  0  0
   17.4797   20.1757    9.3695 H   0  0  0  0  0
   18.1331   21.6753    8.6656 H   0  0  0  0  0
   19.7363   19.9977   10.7276 H   0  0  0  0  0
   21.2643   20.0172    9.8133 H   0  0  0  0  0
   20.2715   21.4917    9.9198 H   0  0  0  0  0
   20.1630   16.0736    7.2113 H   0  0  0  0  0
   18.1360   14.8005    7.1244 H   0  0  0  0  0
   19.6221   16.8608    4.6247 H   0  0  0  0  0
   18.3347   15.6438    4.8938 H   0  0  0  0  0
   20.0143   15.0978    3.1448 H   0  0  0  0  0
  1  2  2  0  0  0
  1  3  1  0  0  0
  1  4  1  0  0  0
  4  5  1  0  0  0
  5  6  1  0  0  0
  5  8  1  0  0  0
  6  7  2  0  0  0
  6 11  1  0  0  0
  8  9  1  0  0  0
  8 10  1  0  0  0
 11 12  1  0  0  0
 12 13  1  0  0  0
 12 15  1  0  0  0
 13 14  2  0  0  0
 13 18  1  0  0  0
 15 16  1  0  0  0
 15 17  1  0  0  0
 18 19  1  0  0  0
 19 20  1  0  0  0
 19 24  1  0  0  0
 20 21  1  0  0  0
 21 22  1  0  0  0
 21 23  1  0  0  0
 24 25  1  0  0  0
 24 26  1  0  0  0
 26 27  1  0  0  0
 27 28  2  0  0  0
 27 29  1  0  0  0
 29 30  1  0  0  0
 30 31  1  0  0  0
 30 33  1  0  0  0
 31 32  2  0  0  0
 31 34  1  0  0  0
 34 35  1  0  0  0
 35 36  1  0  0  0
 35 40  1  0  0  0
 36 37  1  0  0  0
 37 38  1  0  0  0
 37 39  1  0  0  0
 40 41  1  0  0  0
 40 42  1  0  0  0
 42 43  1  0  0  0
 43 44  2  0  0  0
 43 45  1  0  0  0
  3 46  1  0  0  0
  3 47  1  0  0  0
  3 48  1  0  0  0
  4 49  1  0  0  0
  5 50  1  0  0  0
  8 51  1  0  0  0
  9 52  1  0  0  0
  9 53  1  0  0  0
  9 54  1  0  0  0
 10 55  1  0  0  0
 10 56  1  0  0  0
 10 57  1  0  0  0
 11 58  1  0  0  0
 12 59  1  0  0  0
 15 60  1  0  0  0
 16 61  1  0  0  0
 16 62  1  0  0  0
 16 63  1  0  0  0
 17 64  1  0  0  0
 17 65  1  0  0  0
 17 66  1  0  0  0
 18 67  1  0  0  0
 19 68  1  0  0  0
 20 69  1  0  0  0
 20 70  1  0  0  0
 21 71  1  0  0  0
 22 72  1  0  0  0
 22 73  1  0  0  0
 22 74  1  0  0  0
 23 75  1  0  0  0
 23 76  1  0  0  0
 23 77  1  0  0  0
 24 78  1  0  0  0
 25 79  1  0  0  0
 26 80  1  0  0  0
 26 81  1  0  0  0
 29 82  1  0  0  0
 30 83  1  0  0  0
 33 84  1  0  0  0
 33 85  1  0  0  0
 33 86  1  0  0  0
 34 87  1  0  0  0
 35 88  1  0  0  0
 36 89  1  0  0  0
 36 90  1  0  0  0
 37 91  1  0  0  0
 38 92  1  0  0  0
 38 93  1  0  0  0
 38 94  1  0  0  0
 39 95  1  0  0  0
 39 96  1  0  0  0
 39 97  1  0  0  0
 40 98  1  0  0  0
 41 99  1  0  0  0
 42100  1  0  0  0
 42101  1  0  0  0
 45102  1  0  0  0
M  END
$$$$
