### 
### Created by X-TOOL on Mon Sep 10 21:12:44 2018
### 

@<TRIPOS>MOLECULE
5hvp_ligand
  101   100     1     0     0
SMALL
GAST_HUCK


@<TRIPOS>ATOM
      1 C           4.9490   27.7580    6.7930 C.2       1 ACE         0.1751
      2 O           4.8000   26.6780    7.3930 O.2       1 ACE        -0.3972
      3 CH3         4.1710   29.0120    7.1160 C.3       1 ACE         0.0258
      4 N           5.9300   27.8410    5.8690 N.am      1 VAL        -0.2656
      5 CA          6.6880   26.5740    5.6270 C.3       1 VAL         0.1332
      6 C           8.1830   26.7930    5.8600 C.2       1 VAL         0.2042
      7 O           8.6900   27.9100    5.6750 O.2       1 VAL        -0.3944
      8 CB          6.5290   26.1780    4.1390 C.3       1 VAL        -0.0063
      9 CG1         7.6860   25.2560    3.6850 C.3       1 VAL        -0.0584
     10 CG2         5.1660   25.5630    3.8050 C.3       1 VAL        -0.0584
     11 N           8.8380   25.6700    6.1850 N.am      1 VAL        -0.2635
     12 CA         10.3010   25.6890    6.4340 C.3       1 VAL         0.1331
     13 C          10.9780   24.5530    5.7000 C.2       1 VAL         0.2022
     14 O          10.5690   23.3860    5.7170 O.2       1 VAL        -0.3945
     15 CB         10.4180   25.5900    7.9830 C.3       1 VAL        -0.0063
     16 CG1        11.7990   25.1850    8.4800 C.3       1 VAL        -0.0584
     17 CG2         9.8950   26.9110    8.6210 C.3       1 VAL        -0.0584
     18 N          12.1260   24.8780    5.0080 N.am      1 STA        -0.2793
     19 CA         12.8460   23.6430    4.4970 C.3       1 STA         0.0703
     20 CB         12.2280   23.4170    3.0920 C.3       1 STA        -0.0250
     21 CG         10.7750   23.8680    2.8430 C.3       1 STA        -0.0446
     22 CD1        10.4850   24.2640    1.3860 C.3       1 STA        -0.0626
     23 CD2         9.7060   22.8460    3.3260 C.3       1 STA        -0.0626
     24 CH         14.3770   23.7830    4.6590 C.3       1 STA         0.0947
     25 OH         14.6900   25.0860    5.2140 O.3       1 STA        -0.3872
     26 CM         15.0730   22.7550    5.6340 C.3       1 STA         0.0655
     27 C          14.7670   21.2860    5.3040 C.2       1 STA         0.1808
     28 O          13.6660   20.7390    5.5240 O.2       1 STA        -0.3968
     29 N          15.8270   20.6740    4.7660 N.am      1 ALA        -0.2658
     30 CA         16.2270   19.2820    5.0450 C.3       1 ALA         0.1280
     31 C          17.7040   19.1620    5.3970 C.2       1 ALA         0.2017
     32 O          18.6570   19.7380    4.8550 O.2       1 ALA        -0.3945
     33 CB         15.8550   18.4330    3.7970 C.3       1 ALA        -0.0244
     34 N          17.9130   18.3890    6.4650 N.am      1 STA        -0.2794
     35 CA         19.2160   17.9340    6.9520 C.3       1 STA         0.0697
     36 CB         19.4160   18.4410    8.4250 C.3       1 STA        -0.0250
     37 CG         19.4920   19.9880    8.5850 C.3       1 STA        -0.0446
     38 CD1        18.0690   20.5930    8.5530 C.3       1 STA        -0.0626
     39 CD2        20.2460   20.4040    9.8540 C.3       1 STA        -0.0626
     40 CH         19.2480   16.4000    6.7170 C.3       1 STA         0.0894
     41 OH         18.0830   15.7450    7.2880 O.3       1 STA        -0.3878
     42 CM         19.3170   15.9940    5.2110 C.3       1 STA         0.0284
     43 C          20.3470   14.8580    5.0010 C.2       1 STA         0.0373
     44 O          20.9360   14.3020    5.9360 O.co2     1 STA        -0.5689
     45 OXT        20.5730   14.5520    3.7030 O.co2     1 STA        -0.5689
     46 H1          4.4885   29.8236    6.4448 H         1 ACE         0.0467
     47 H2          4.3618   29.3034    8.1594 H         1 ACE         0.0467
     48 H3          3.0962   28.8222    6.9790 H         1 ACE         0.0467
     49 H4          6.1354   28.6893    5.3809 H         1 VAL         0.1883
     50 H5          6.3096   25.7780    6.2852 H         1 VAL         0.0802
     51 H6          6.6061   27.1072    3.5554 H         1 VAL         0.0343
     52 H7          7.5491   24.9901    2.6264 H         1 VAL         0.0234
     53 H8          7.6870   24.3411    4.2957 H         1 VAL         0.0234
     54 H9          8.6443   25.7814    3.8101 H         1 VAL         0.0234
     55 H10         4.3663   26.2403    4.1393 H         1 VAL         0.0234
     56 H11         5.0648   24.5951    4.3178 H         1 VAL         0.0234
     57 H12         5.0882   25.4121    2.7182 H         1 VAL         0.0234
     58 H13         8.3351   24.8090    6.2606 H         1 VAL         0.1883
     59 H14        10.7373   26.6375    6.0877 H         1 VAL         0.0802
     60 H15         9.7353   24.7886    8.3018 H         1 VAL         0.0343
     61 H16        11.7942   25.1391    9.5790 H         1 VAL         0.0234
     62 H17        12.5404   25.9263    8.1472 H         1 VAL         0.0234
     63 H18        12.0600   24.1970    8.0730 H         1 VAL         0.0234
     64 H19         8.8976   27.1426    8.2190 H         1 VAL         0.0234
     65 H20        10.5864   27.7325    8.3820 H         1 VAL         0.0234
     66 H21         9.8315   26.7910    9.7126 H         1 VAL         0.0234
     67 H22        12.4455   25.8141    4.8607 H         1 STA         0.1856
     68 H23        12.5599   22.7810    5.1175 H         1 STA         0.0583
     69 H24        12.2714   22.3368    2.8887 H         1 STA         0.0291
     70 H25        12.8617   23.9519    2.3693 H         1 STA         0.0291
     71 H26        10.6371   24.7761    3.4483 H         1 STA         0.0296
     72 H27         9.4331   24.5717    1.2921 H         1 STA         0.0232
     73 H28        10.6755   23.4039    0.7273 H         1 STA         0.0232
     74 H29        11.1388   25.0998    1.0961 H         1 STA         0.0232
     75 H30         9.9139   22.5630    4.3684 H         1 STA         0.0232
     76 H31         9.7411   21.9500    2.6889 H         1 STA         0.0232
     77 H32         8.7072   23.3024    3.2623 H         1 STA         0.0232
     78 H33        14.8289   23.6811    3.6613 H         1 STA         0.0642
     79 H34        15.6312   25.1692    5.3124 H         1 STA         0.2101
     80 H35        14.7282   22.9598    6.6583 H         1 STA         0.0529
     81 H36        16.1613   22.9043    5.5767 H         1 STA         0.0529
     82 H37        16.3901   21.1986    4.1275 H         1 ALA         0.1882
     83 H38        15.6475   18.9162    5.9054 H         1 ALA         0.0797
     84 H39        16.1396   17.3844    3.9688 H         1 ALA         0.0277
     85 H40        16.3913   18.8191    2.9177 H         1 ALA         0.0277
     86 H41        14.7708   18.4946    3.6215 H         1 ALA         0.0277
     87 H42        17.1070   18.0944    6.9784 H         1 STA         0.1855
     88 H43        20.0131   18.3838    6.3419 H         1 STA         0.0583
     89 H44        20.3533   18.0120    8.8090 H         1 STA         0.0291
     90 H45        18.5716   18.0768    9.0286 H         1 STA         0.0291
     91 H46        20.0488   20.3869    7.7243 H         1 STA         0.0296
     92 H47        18.1324   21.6853    8.6666 H         1 STA         0.0232
     93 H48        17.4732   20.1727    9.3766 H         1 STA         0.0232
     94 H49        17.5893   20.3514    7.5930 H         1 STA         0.0232
     95 H50        21.2516   19.9583    9.8457 H         1 STA         0.0232
     96 H51        19.6962   20.0519   10.7393 H         1 STA         0.0232
     97 H52        20.3311   21.5002    9.8872 H         1 STA         0.0232
     98 H53        20.1476   16.0120    7.2171 H         1 STA         0.0635
     99 H54        17.2961   16.0936    6.8856 H         1 STA         0.2100
    100 H55        19.6159   16.8682    4.6140 H         1 STA         0.0456
    101 H56        18.3254   15.6482    4.8838 H         1 STA         0.0456
@<TRIPOS>BOND
     1    1    2 2  
     2    1    3 1  
     3    1    4 am 
     4    4    5 1  
     5    5    6 1  
     6    5    8 1  
     7    6    7 2  
     8    6   11 am 
     9    8    9 1  
    10    8   10 1  
    11   11   12 1  
    12   12   13 1  
    13   12   15 1  
    14   13   14 2  
    15   13   18 am 
    16   15   16 1  
    17   15   17 1  
    18   18   19 1  
    19   19   20 1  
    20   19   24 1  
    21   20   21 1  
    22   21   22 1  
    23   21   23 1  
    24   24   25 1  
    25   24   26 1  
    26   26   27 1  
    27   27   28 2  
    28   27   29 am 
    29   29   30 1  
    30   30   31 1  
    31   30   33 1  
    32   31   32 2  
    33   31   34 am 
    34   34   35 1  
    35   35   36 1  
    36   35   40 1  
    37   36   37 1  
    38   37   38 1  
    39   37   39 1  
    40   40   41 1  
    41   40   42 1  
    42   42   43 1  
    43   43   44 ar 
    44   43   45 ar 
    45    3   46 1  
    46    3   47 1  
    47    3   48 1  
    48    4   49 1  
    49    5   50 1  
    50    8   51 1  
    51    9   52 1  
    52    9   53 1  
    53    9   54 1  
    54   10   55 1  
    55   10   56 1  
    56   10   57 1  
    57   11   58 1  
    58   12   59 1  
    59   15   60 1  
    60   16   61 1  
    61   16   62 1  
    62   16   63 1  
    63   17   64 1  
    64   17   65 1  
    65   17   66 1  
    66   18   67 1  
    67   19   68 1  
    68   20   69 1  
    69   20   70 1  
    70   21   71 1  
    71   22   72 1  
    72   22   73 1  
    73   22   74 1  
    74   23   75 1  
    75   23   76 1  
    76   23   77 1  
    77   24   78 1  
    78   25   79 1  
    79   26   80 1  
    80   26   81 1  
    81   29   82 1  
    82   30   83 1  
    83   33   84 1  
    84   33   85 1  
    85   33   86 1  
    86   34   87 1  
    87   35   88 1  
    88   36   89 1  
    89   36   90 1  
    90   37   91 1  
    91   38   92 1  
    92   38   93 1  
    93   38   94 1  
    94   39   95 1  
    95   39   96 1  
    96   39   97 1  
    97   40   98 1  
    98   41   99 1  
    99   42  100 1  
   100   42  101 1  
@<TRIPOS>SUBSTRUCTURE
     1 ACE         1

