6r49_ligand
  -I-interpret- 

 44 47  0  0  0  0  0  0  0  0999 V2000
  -10.8870   10.9890  -13.0660 C   0  0  0  0  0
   -9.8120   13.8060  -17.0910 C   0  0  0  0  0
  -11.9990   15.7290  -17.0180 C   0  0  0  0  0
  -12.2350   14.3520  -16.8200 C   0  0  0  0  0
   -8.3380    8.8960  -19.0710 C   0  0  0  0  0
   -9.6030    9.0240  -18.1930 C   0  0  0  0  0
   -9.6940    7.8470  -17.2120 C   0  0  0  0  0
   -9.6960   10.4520  -17.4940 C   0  0  0  0  0
  -11.0410   11.1170  -17.8410 C   0  0  0  0  0
  -11.5250   11.9400  -16.6320 C   0  0  0  0  0
  -12.8970   11.6770  -16.4330 O   0  0  0  0  0
  -10.7350   11.3310  -15.5290 N   0  0  0  0  0
  -10.6390   11.9250  -14.2140 C   0  0  0  0  0
  -11.9580   12.0990  -13.4980 C   0  0  0  0  0
   -9.6760   10.5320  -15.9340 C   0  0  0  0  0
   -8.8760   10.0510  -15.1430 O   0  0  0  0  0
  -11.1750   13.4200  -16.8440 C   0  0  0  0  0
   -8.5600   12.7590  -17.1360 C   0  0  0  0  0
   -8.6270   11.4400  -17.9270 N   0  3  0  0  0
   -9.6260   15.1990  -17.2880 C   0  0  0  0  0
  -10.6850   16.1510  -17.2570 C   0  0  0  0  0
  -10.3871   10.6182  -12.1712 H   0  0  0  0  0
  -10.8381    9.9252  -12.8336 H   0  0  0  0  0
  -12.8189   16.4465  -16.9858 H   0  0  0  0  0
  -13.2525   14.0022  -16.6456 H   0  0  0  0  0
   -7.4536    8.8947  -18.4338 H   0  0  0  0  0
   -8.3819    7.9647  -19.6357 H   0  0  0  0  0
   -8.2892    9.7386  -19.7607 H   0  0  0  0  0
  -10.4832    8.9650  -18.8331 H   0  0  0  0  0
   -8.8765    7.9103  -16.4938 H   0  0  0  0  0
  -10.6469    7.8883  -16.6844 H   0  0  0  0  0
   -9.6230    6.9096  -17.7636 H   0  0  0  0  0
  -11.7776   10.3501  -18.0803 H   0  0  0  0  0
  -10.9139   11.7723  -18.7027 H   0  0  0  0  0
  -13.2131   12.1839  -15.6815 H   0  0  0  0  0
   -9.8222   12.6045  -14.4573 H   0  0  0  0  0
  -12.5746   12.8829  -13.0583 H   0  0  0  0  0
  -13.0218   12.1959  -13.7151 H   0  0  0  0  0
   -8.4623   12.4320  -16.1008 H   0  0  0  0  0
   -7.7744   13.3209  -17.6412 H   0  0  0  0  0
   -8.8486   11.6959  -18.8892 H   0  0  0  0  0
   -7.7318   10.9738  -17.7797 H   0  0  0  0  0
   -8.6148   15.5612  -17.4737 H   0  0  0  0  0
  -10.4729   17.2078  -17.4192 H   0  0  0  0  0
 13  1  1  0  0  0
  1 14  1  0  0  0
 17  2  4  0  0  0
  2 18  1  0  0  0
  2 20  4  0  0  0
  4  3  4  0  0  0
  3 21  4  0  0  0
 17  4  4  0  0  0
  6  5  1  0  0  0
  6  7  1  0  0  0
  8  6  1  0  0  0
  9  8  1  0  0  0
  8 15  1  0  0  0
  8 19  1  0  0  0
 10  9  1  0  0  0
 10 11  1  0  0  0
 12 10  1  0  0  0
 10 17  1  0  0  0
 12 13  1  0  0  0
 12 15  1  0  0  0
 13 14  1  0  0  0
 15 16  2  0  0  0
 18 19  1  0  0  0
 20 21  4  0  0  0
  1 22  1  0  0  0
  1 23  1  0  0  0
  3 24  1  0  0  0
  4 25  1  0  0  0
  5 26  1  0  0  0
  5 27  1  0  0  0
  5 28  1  0  0  0
  6 29  1  0  0  0
  7 30  1  0  0  0
  7 31  1  0  0  0
  7 32  1  0  0  0
  9 33  1  0  0  0
  9 34  1  0  0  0
 11 35  1  0  0  0
 13 36  1  0  0  0
 14 37  1  0  0  0
 14 38  1  0  0  0
 18 39  1  0  0  0
 18 40  1  0  0  0
 19 41  1  0  0  0
 19 42  1  0  0  0
 20 43  1  0  0  0
 21 44  1  0  0  0
M  END
$$$$
