### 
### Created by X-TOOL on Mon Aug  2 16:15:36 2021
### 

@<TRIPOS>MOLECULE
6oah_ligand
   47    50     1     0     0
SMALL
GAST_HUCK


@<TRIPOS>ATOM
      1 C4          2.7760   39.9680   -6.6670 C.ar      1 M2V         0.1295
      2 C5          3.2800   38.7010   -6.5540 C.ar      1 M2V         0.0469
      3 C6          4.4710   38.5480   -5.9240 C.ar      1 M2V         0.1085
      4 N1          5.1460   39.6030   -5.4240 N.ar      1 M2V        -0.2773
      5 N3          3.4240   41.0550   -6.1870 N.ar      1 M2V        -0.2639
      6 CAN         1.9650   34.6580   -7.2050 C.ar      1 M2V        -0.0453
      7 CAO         1.6760   33.3100   -7.4670 C.ar      1 M2V         0.0422
      8 CLAZ       -0.0300   32.8240   -7.7420 Cl        1 M2V        -0.0768
      9 CAP         2.7010   32.3630   -7.5050 C.ar      1 M2V        -0.0310
     10 CAS         2.4230   31.0120   -7.7620 C.3       1 M2V        -0.0300
     11 CAQ         4.0040   32.7930   -7.2780 C.ar      1 M2V        -0.0587
     12 CAR         4.2850   34.1390   -7.0160 C.ar      1 M2V        -0.0591
     13 CAM         3.2740   35.1070   -6.9870 C.ar      1 M2V        -0.0122
     14 CAJ         3.5440   36.4080   -6.7110 C.2       1 M2V         0.0373
     15 SAK         4.8620   36.9010   -5.9180 S.3       1 M2V        -0.0140
     16 CAI         2.7780   37.4980   -6.9780 C.2       1 M2V        -0.0456
     17 C2          4.6440   40.9030   -5.5430 C.ar      1 M2V         0.0586
     18 NAA         1.5900   40.1430   -7.2920 N.pl3     1 M2V        -0.2805
     19 CAB         0.7980   41.4050   -7.1790 C.3       1 M2V         0.1218
     20 PBA        -0.6910   41.1420   -6.1320 P.3       1 M2V         0.0872
     21 OBC        -0.7030   39.5730   -5.6760 O.co2     1 M2V        -0.5606
     22 OBD        -1.9290   41.3820   -7.1850 O.co2     1 M2V        -0.5606
     23 OBB        -0.7020   42.0360   -4.9580 O.co2     1 M2V        -0.5606
     24 CAL         0.3120   41.9220   -8.5540 C.3       1 M2V         0.0202
     25 CAT         1.3990   42.1920   -9.3780 C.ar      1 M2V        -0.0394
     26 CAU         1.6620   41.3520  -10.4510 C.ar      1 M2V        -0.0602
     27 CAV         2.7450   41.6100  -11.2700 C.ar      1 M2V        -0.0686
     28 CAW         3.5700   42.7080  -11.0370 C.ar      1 M2V        -0.0687
     29 CAX         3.3140   43.5540   -9.9620 C.ar      1 M2V        -0.0686
     30 CAY         2.2260   43.2930   -9.1340 C.ar      1 M2V        -0.0602
     31 H1          1.1511   35.3732   -7.1703 H         1 M2V         0.0612
     32 H2          3.3600   30.4359   -7.7486 H         1 M2V         0.0397
     33 H3          1.9482   30.9168   -8.7496 H         1 M2V         0.0397
     34 H4          1.7430   30.6241   -6.9893 H         1 M2V         0.0397
     35 H5          4.8150   32.0742   -7.3044 H         1 M2V         0.0561
     36 H6          5.3101   34.4391   -6.8311 H         1 M2V         0.0608
     37 H7          1.8238   37.4206   -7.4970 H         1 M2V         0.0448
     38 H8          5.1849   41.7558   -5.1489 H         1 M2V         0.1012
     39 H9          1.2174   39.3756   -7.8692 H         1 M2V         0.1885
     40 H10         1.4361   42.1720   -6.7158 H         1 M2V         0.0781
     41 H11        -0.2721   42.8429   -8.4100 H         1 M2V         0.0464
     42 H12        -0.3208   41.1565   -9.0268 H         1 M2V         0.0464
     43 H13         1.0221   40.4989  -10.6455 H         1 M2V         0.0557
     44 H14         2.9550   40.9499  -12.1038 H         1 M2V         0.0599
     45 H15         4.4109   42.9034  -11.6926 H         1 M2V         0.0559
     46 H16         3.9551   44.4071   -9.7715 H         1 M2V         0.0599
     47 H17         2.0185   43.9472   -8.2949 H         1 M2V         0.0557
@<TRIPOS>BOND
     1    2    1 ar 
     2    1    5 ar 
     3    1   18 1  
     4    3    2 ar 
     5    2   16 1  
     6    3    4 ar 
     7   15    3 1  
     8    4   17 ar 
     9   17    5 ar 
    10    6    7 ar 
    11   13    6 ar 
    12    7    8 1  
    13    7    9 ar 
    14    9   10 1  
    15   11    9 ar 
    16   12   11 ar 
    17   13   12 ar 
    18   14   13 1  
    19   14   15 1  
    20   14   16 2  
    21   18   19 1  
    22   19   20 1  
    23   19   24 1  
    24   20   21 ar 
    25   20   22 ar 
    26   20   23 ar 
    27   24   25 1  
    28   25   26 ar 
    29   25   30 ar 
    30   26   27 ar 
    31   27   28 ar 
    32   28   29 ar 
    33   29   30 ar 
    34    6   31 1  
    35   10   32 1  
    36   10   33 1  
    37   10   34 1  
    38   11   35 1  
    39   12   36 1  
    40   16   37 1  
    41   17   38 1  
    42   18   39 1  
    43   19   40 1  
    44   24   41 1  
    45   24   42 1  
    46   26   43 1  
    47   27   44 1  
    48   28   45 1  
    49   29   46 1  
    50   30   47 1  
@<TRIPOS>SUBSTRUCTURE
     1 M2V         1

