6oah_ligand
  -I-interpret- 

 49 52  0  0  0  0  0  0  0  0999 V2000
    2.7760   39.9680   -6.6670 C   0  0  0  0  0
    3.2800   38.7010   -6.5540 C   0  0  0  0  0
    4.4710   38.5480   -5.9240 C   0  0  0  0  0
    5.1460   39.6030   -5.4240 N   0  0  0  0  0
    3.4240   41.0550   -6.1870 N   0  0  0  0  0
    1.9650   34.6580   -7.2050 C   0  0  0  0  0
    1.6760   33.3100   -7.4670 C   0  0  0  0  0
   -0.0300   32.8240   -7.7420 Cl  0  0  0  0  0
    2.7010   32.3630   -7.5050 C   0  0  0  0  0
    2.4230   31.0120   -7.7620 C   0  0  0  0  0
    4.0040   32.7930   -7.2780 C   0  0  0  0  0
    4.2850   34.1390   -7.0160 C   0  0  0  0  0
    3.2740   35.1070   -6.9870 C   0  0  0  0  0
    3.5440   36.4080   -6.7110 C   0  0  0  0  0
    4.8620   36.9010   -5.9180 S   0  0  0  0  0
    2.7780   37.4980   -6.9780 C   0  0  0  0  0
    4.6440   40.9030   -5.5430 C   0  0  0  0  0
    1.5900   40.1430   -7.2920 N   0  0  0  0  0
    0.7980   41.4050   -7.1790 C   0  0  0  0  0
   -0.6910   41.1420   -6.1320 P   0  0  0  0  0
   -0.7030   39.5730   -5.6760 O   0  0  0  0  0
   -1.9290   41.3820   -7.1850 O   0  0  0  0  0
   -0.7020   42.0360   -4.9580 O   0  0  0  0  0
    0.3120   41.9220   -8.5540 C   0  0  0  0  0
    1.3990   42.1920   -9.3780 C   0  0  0  0  0
    1.6620   41.3520  -10.4510 C   0  0  0  0  0
    2.7450   41.6100  -11.2700 C   0  0  0  0  0
    3.5700   42.7080  -11.0370 C   0  0  0  0  0
    3.3140   43.5540   -9.9620 C   0  0  0  0  0
    2.2260   43.2930   -9.1340 C   0  0  0  0  0
    1.1466   35.3771   -7.1701 H   0  0  0  0  0
    1.7492   30.6289   -6.9957 H   0  0  0  0  0
    1.9525   30.9190   -8.7408 H   0  0  0  0  0
    3.3521   30.4422   -7.7485 H   0  0  0  0  0
    4.8195   32.0703   -7.3045 H   0  0  0  0  0
    5.3158   34.4407   -6.8301 H   0  0  0  0  0
    1.8229   37.4206   -7.4975 H   0  0  0  0  0
    5.1879   41.7605   -5.1467 H   0  0  0  0  0
    1.2211   39.3830   -7.8636 H   0  0  0  0  0
    1.4670   42.1414   -6.7339 H   0  0  0  0  0
   -0.6955   39.0140   -6.4565 H   0  0  0  0  0
   -1.8499   40.7649   -7.9161 H   0  0  0  0  0
   -0.2610   42.8377   -8.4083 H   0  0  0  0  0
   -0.3095   41.1588   -9.0224 H   0  0  0  0  0
    1.0185   40.4942  -10.6466 H   0  0  0  0  0
    2.9561   40.9462  -12.1084 H   0  0  0  0  0
    4.4155   42.9044  -11.6962 H   0  0  0  0  0
    3.9586   44.4118   -9.7705 H   0  0  0  0  0
    2.0173   43.9508   -8.2903 H   0  0  0  0  0
  2  1  4  0  0  0
  1  5  4  0  0  0
  1 18  1  0  0  0
  3  2  4  0  0  0
  2 16  4  0  0  0
  3  4  4  0  0  0
 15  3  4  0  0  0
  4 17  4  0  0  0
 17  5  4  0  0  0
  6  7  4  0  0  0
 13  6  4  0  0  0
  7  8  1  0  0  0
  7  9  4  0  0  0
  9 10  1  0  0  0
 11  9  4  0  0  0
 12 11  4  0  0  0
 13 12  4  0  0  0
 14 13  1  0  0  0
 14 15  4  0  0  0
 14 16  4  0  0  0
 18 19  1  0  0  0
 19 20  1  0  0  0
 19 24  1  0  0  0
 20 21  1  0  0  0
 20 22  1  0  0  0
 20 23  2  0  0  0
 24 25  1  0  0  0
 25 26  4  0  0  0
 25 30  4  0  0  0
 26 27  4  0  0  0
 27 28  4  0  0  0
 28 29  4  0  0  0
 29 30  4  0  0  0
  6 31  1  0  0  0
 10 32  1  0  0  0
 10 33  1  0  0  0
 10 34  1  0  0  0
 11 35  1  0  0  0
 12 36  1  0  0  0
 16 37  1  0  0  0
 17 38  1  0  0  0
 18 39  1  0  0  0
 19 40  1  0  0  0
 21 41  1  0  0  0
 22 42  1  0  0  0
 24 43  1  0  0  0
 24 44  1  0  0  0
 26 45  1  0  0  0
 27 46  1  0  0  0
 28 47  1  0  0  0
 29 48  1  0  0  0
 30 49  1  0  0  0
M  END
$$$$
