3p1d_ligand
  -I-interpret- 

 16 16  0  0  0  0  0  0  0  0999 V2000
  -19.6060   25.2500   -2.0040 C   0  0  0  0  0
  -21.1240   27.0230   -0.1990 O   0  0  0  0  0
  -17.6390   27.7430    0.0850 C   0  0  0  0  0
  -19.0480   27.9300    0.6150 C   0  0  0  0  0
  -17.7060   26.5340   -0.8160 C   0  0  0  0  0
  -19.8920   27.0000   -0.2290 C   0  0  0  0  0
  -19.1250   26.2710   -1.0420 N   0  0  0  0  0
  -20.1365   24.4655   -1.4643 H   0  0  0  0  0
  -20.2794   25.7180   -2.7221 H   0  0  0  0  0
  -18.7544   24.8187   -2.5302 H   0  0  0  0  0
  -16.9230   27.5996    0.8942 H   0  0  0  0  0
  -17.2942   28.6252   -0.4544 H   0  0  0  0  0
  -19.3799   28.9656    0.5411 H   0  0  0  0  0
  -19.1205   27.6987    1.6777 H   0  0  0  0  0
  -17.2157   25.6752   -0.3576 H   0  0  0  0  0
  -17.1858   26.7160   -1.7564 H   0  0  0  0  0
  7  1  1  0  0  0
  6  2  2  0  0  0
  3  4  1  0  0  0
  5  3  1  0  0  0
  4  6  1  0  0  0
  5  7  1  0  0  0
  6  7  1  0  0  0
  1  8  1  0  0  0
  1  9  1  0  0  0
  1 10  1  0  0  0
  3 11  1  0  0  0
  3 12  1  0  0  0
  4 13  1  0  0  0
  4 14  1  0  0  0
  5 15  1  0  0  0
  5 16  1  0  0  0
M  END
$$$$
