3bqc_ligand
  -I-interpret- 

 30 32  0  0  0  0  0  0  0  0999 V2000
   17.2750  -55.2520  -46.7350 C   0  0  0  0  0
   17.5810  -54.8170  -47.9680 O   0  0  0  0  0
   17.1170  -56.6000  -46.4770 C   0  0  0  0  0
   16.8190  -57.0170  -45.1860 C   0  0  0  0  0
   16.6520  -58.3280  -44.9400 O   0  0  0  0  0
   16.7100  -56.0910  -44.1530 C   0  0  0  0  0
   16.8650  -54.7230  -44.4290 C   0  0  0  0  0
   16.7320  -53.7680  -43.4080 C   0  0  0  0  0
   16.4610  -54.1460  -42.2520 O   0  0  0  0  0
   16.8940  -52.3970  -43.7010 C   0  0  0  0  0
   16.7690  -51.4310  -42.6790 C   0  0  0  0  0
   16.9290  -50.0660  -42.9330 C   0  0  0  0  0
   16.7870  -49.0010  -41.8050 C   0  0  0  0  0
   17.2270  -49.6490  -44.2210 C   0  0  0  0  0
   17.3440  -50.5950  -45.2510 C   0  0  0  0  0
   17.6240  -50.1390  -46.4930 O   0  0  0  0  0
   17.1940  -51.9750  -45.0100 C   0  0  0  0  0
   17.3120  -52.9400  -46.0350 C   0  0  0  0  0
   17.5610  -52.6180  -47.2040 O   0  0  0  0  0
   17.1490  -54.3020  -45.7280 C   0  0  0  0  0
   17.6508  -53.8596  -47.9602 H   0  0  0  0  0
   17.2252  -57.3298  -47.2794 H   0  0  0  0  0
   16.4528  -58.4550  -44.0095 H   0  0  0  0  0
   16.5056  -56.4255  -43.1359 H   0  0  0  0  0
   16.5416  -51.7586  -41.6646 H   0  0  0  0  0
   15.7856  -49.0571  -41.3781 H   0  0  0  0  0
   17.5261  -49.1959  -41.0279 H   0  0  0  0  0
   16.9503  -48.0074  -42.2225 H   0  0  0  0  0
   17.3700  -48.5895  -44.4331 H   0  0  0  0  0
   17.6770  -50.8805  -47.1005 H   0  0  0  0  0
  1  2  1  0  0  0
  1  3  4  0  0  0
  1 20  4  0  0  0
  3  4  4  0  0  0
  4  5  1  0  0  0
  4  6  4  0  0  0
  6  7  4  0  0  0
  7  8  1  0  0  0
  7 20  4  0  0  0
  8  9  2  0  0  0
  8 10  1  0  0  0
 10 11  4  0  0  0
 10 17  4  0  0  0
 11 12  4  0  0  0
 12 13  1  0  0  0
 12 14  4  0  0  0
 14 15  4  0  0  0
 15 16  1  0  0  0
 15 17  4  0  0  0
 17 18  1  0  0  0
 18 19  2  0  0  0
 18 20  1  0  0  0
  2 21  1  0  0  0
  3 22  1  0  0  0
  5 23  1  0  0  0
  6 24  1  0  0  0
 11 25  1  0  0  0
 13 26  1  0  0  0
 13 27  1  0  0  0
 13 28  1  0  0  0
 14 29  1  0  0  0
 16 30  1  0  0  0
M  END
$$$$
