3qai_ligand
  -I-interpret- 

 58 63  0  0  0  0  0  0  0  0999 V2000
   -2.7790   -1.1480   13.6760 C   0  0  0  0  0
   -1.9960   -0.8440   15.3130 S   0  0  0  0  0
   -2.7570    0.5800   16.0730 C   0  0  0  0  0
   -2.8040    1.7910   15.4040 C   0  0  0  0  0
   -3.4320    2.9080   15.9690 C   0  0  0  0  0
   -4.0100    2.7730   17.2200 C   0  0  0  0  0
   -3.9690    1.5420   17.9030 C   0  0  0  0  0
   -3.3580    0.3900   17.3540 C   0  0  0  0  0
   -3.1740   -0.9250   17.9200 N   0  0  0  0  0
   -4.1570   -1.5200   18.8140 C   0  0  0  0  0
   -5.1910   -0.7810   19.2370 N   0  0  0  0  0
   -6.1800   -1.3870   20.0790 C   0  0  0  0  0
   -6.1370   -2.6820   20.4960 N   0  0  0  0  0
   -5.0590   -3.4430   20.0640 C   0  0  0  0  0
   -4.9730   -4.8760   20.4930 C   0  0  0  0  0
   -3.9170   -5.6320   20.0800 N   0  0  0  0  0
   -2.9910   -4.9900   19.2610 C   0  0  0  0  0
   -2.9830   -3.7230   18.8170 N   0  0  0  0  0
   -4.0480   -2.9340   19.2350 C   0  0  0  0  0
   -5.9900   -5.2690   21.3250 N   0  0  0  0  0
   -6.2080   -6.6770   21.7550 C   0  0  0  0  0
   -6.1350   -7.8710   20.8400 C   0  0  0  0  0
   -7.3910   -8.4730   20.1840 C   0  0  0  0  0
   -6.7090   -9.2250   21.3050 C   0  0  0  0  0
   -7.2560   -0.6010   20.6170 N   0  0  0  0  0
   -8.4850   -0.9880   21.4310 C   0  0  0  0  0
   -8.9610    0.4870   21.3580 C   0  0  0  0  0
   -9.2230    1.0490   22.7920 C   0  0  0  0  0
  -10.6880    1.0870   22.4560 N   0  3  0  0  0
  -10.3290    1.1370   20.9910 C   0  0  0  0  0
   -7.7990    0.7920   20.3650 C   0  0  0  0  0
   -3.8447   -1.3317   13.8129 H   0  0  0  0  0
   -2.6384   -0.2743   13.0396 H   0  0  0  0  0
   -2.3162   -2.0174   13.2091 H   0  0  0  0  0
   -2.3439    1.8767   14.4196 H   0  0  0  0  0
   -3.4649    3.8592   15.4377 H   0  0  0  0  0
   -4.5023    3.6291   17.6814 H   0  0  0  0  0
   -4.4247    1.4743   18.8908 H   0  0  0  0  0
   -2.3322   -1.4518   17.6872 H   0  0  0  0  0
   -2.1524   -5.6046   18.9336 H   0  0  0  0  0
   -6.6334   -4.5559   21.6685 H   0  0  0  0  0
   -7.2562   -6.6727   22.0538 H   0  0  0  0  0
   -5.3722   -6.8484   22.4334 H   0  0  0  0  0
   -5.1793   -7.5030   20.4667 H   0  0  0  0  0
   -7.7645   -8.6757   19.1803 H   0  0  0  0  0
   -8.3982   -8.1546   19.9154 H   0  0  0  0  0
   -6.9820   -9.7146   22.2398 H   0  0  0  0  0
   -6.3501  -10.2342   21.5067 H   0  0  0  0  0
   -8.3788   -1.4904   22.3925 H   0  0  0  0  0
   -9.1358   -1.7985   21.1030 H   0  0  0  0  0
   -8.7048    1.9380   23.1514 H   0  0  0  0  0
   -8.8619    0.5245   23.6767 H   0  0  0  0  0
  -11.2940    1.7985   22.8645 H   0  0  0  0  0
  -11.3185    0.3674   22.8097 H   0  0  0  0  0
  -10.9788    0.6939   20.2363 H   0  0  0  0  0
  -10.3767    2.0709   20.4309 H   0  0  0  0  0
   -8.0100    1.1305   19.3506 H   0  0  0  0  0
   -7.1657    1.6682   20.5038 H   0  0  0  0  0
  1  2  1  0  0  0
  2  3  1  0  0  0
  3  4  4  0  0  0
  3  8  4  0  0  0
  4  5  4  0  0  0
  5  6  4  0  0  0
  6  7  4  0  0  0
  7  8  4  0  0  0
  8  9  1  0  0  0
  9 10  1  0  0  0
 10 11  4  0  0  0
 10 19  4  0  0  0
 11 12  4  0  0  0
 12 13  4  0  0  0
 12 25  1  0  0  0
 13 14  4  0  0  0
 14 15  4  0  0  0
 14 19  4  0  0  0
 15 16  4  0  0  0
 15 20  1  0  0  0
 16 17  4  0  0  0
 17 18  4  0  0  0
 18 19  4  0  0  0
 20 21  1  0  0  0
 21 22  1  0  0  0
 22 23  1  0  0  0
 22 24  1  0  0  0
 23 24  1  0  0  0
 25 26  1  0  0  0
 25 31  1  0  0  0
 26 27  1  0  0  0
 27 28  1  0  0  0
 27 30  1  0  0  0
 27 31  1  0  0  0
 28 29  1  0  0  0
 29 30  1  0  0  0
  1 32  1  0  0  0
  1 33  1  0  0  0
  1 34  1  0  0  0
  4 35  1  0  0  0
  5 36  1  0  0  0
  6 37  1  0  0  0
  7 38  1  0  0  0
  9 39  1  0  0  0
 17 40  1  0  0  0
 20 41  1  0  0  0
 21 42  1  0  0  0
 21 43  1  0  0  0
 22 44  1  0  0  0
 23 45  1  0  0  0
 23 46  1  0  0  0
 24 47  1  0  0  0
 24 48  1  0  0  0
 26 49  1  0  0  0
 26 50  1  0  0  0
 28 51  1  0  0  0
 28 52  1  0  0  0
 29 53  1  0  0  0
 29 54  1  0  0  0
 30 55  1  0  0  0
 30 56  1  0  0  0
 31 57  1  0  0  0
 31 58  1  0  0  0
M  END
$$$$
