5nhf_ligand
  -I-interpret- 

 54 58  0  0  0  0  0  0  0  0999 V2000
   -9.8360   16.9170   36.1490 C   0  0  0  0  0
  -10.0100   16.6950   37.5070 C   0  0  0  0  0
   -9.0000   16.1190   38.2690 C   0  0  0  0  0
  -10.9770   16.3350   41.3690 C   0  0  0  0  0
  -12.4750   16.6090   41.4070 C   0  0  0  0  0
  -13.1020   15.2970   41.0700 C   0  0  0  0  0
  -12.5110   14.2960   40.3190 C   0  0  0  0  0
  -13.4570   13.2330   40.2190 C   0  0  0  0  0
  -14.5820   13.6480   40.9040 C   0  0  0  0  0
  -15.8590   12.9500   41.1120 C   0  0  0  0  0
  -16.1020   11.6800   40.6050 C   0  0  0  0  0
  -17.3300   11.1220   40.9050 C   0  0  0  0  0
  -17.9450   12.9900   42.0480 C   0  0  0  0  0
  -17.6570   16.0980   45.4040 C   0  0  0  0  0
  -19.7570   16.8260   44.6290 C   0  0  0  0  0
  -20.0040   15.5500   43.8570 C   0  0  0  0  0
  -11.1540   14.4360   39.8070 C   0  0  0  0  0
  -10.5820   13.5510   39.1740 O   0  0  0  0  0
  -10.5710   15.6120   40.1530 N   0  0  0  0  0
   -9.1840   15.8680   39.7470 C   0  0  0  0  0
   -7.8000   15.7990   37.6440 C   0  0  0  0  0
   -7.6210   16.0370   36.2880 C   0  0  0  0  0
   -8.6400   16.5910   35.5410 C   0  0  0  0  0
  -14.3630   14.9060   41.4160 N   0  0  0  0  0
  -16.7690   13.6160   41.8400 N   0  0  0  0  0
  -18.2820   11.7620   41.6050 N   0  0  0  0  0
  -18.8640   13.6420   42.7890 N   0  0  0  0  0
  -18.6730   14.9280   43.4620 C   0  0  0  0  0
  -18.9470   16.5850   45.7880 O   0  0  0  0  0
  -17.7670   14.7770   44.6800 C   0  0  0  0  0
  -10.6451   17.3497   35.5606 H   0  0  0  0  0
  -10.9499   16.9755   37.9824 H   0  0  0  0  0
  -10.7249   15.7160   42.2300 H   0  0  0  0  0
  -10.4579   17.2934   41.3813 H   0  0  0  0  0
  -12.7654   17.3929   40.7075 H   0  0  0  0  0
  -12.7986   16.9792   42.3798 H   0  0  0  0  0
  -13.3193   12.2821   39.7042 H   0  0  0  0  0
  -15.3632   11.1515   40.0025 H   0  0  0  0  0
  -17.5372   10.1104   40.5558 H   0  0  0  0  0
  -17.0572   15.9540   46.3026 H   0  0  0  0  0
  -17.1951   16.8244   44.7354 H   0  0  0  0  0
  -20.7173   17.2266   44.9538 H   0  0  0  0  0
  -19.2342   17.5286   43.9801 H   0  0  0  0  0
  -20.5797   15.7751   42.9592 H   0  0  0  0  0
  -20.5601   14.8505   44.4812 H   0  0  0  0  0
   -8.8610   16.7702   40.2664 H   0  0  0  0  0
   -8.6097   14.9747   39.9927 H   0  0  0  0  0
   -6.9909   15.3564   38.2250 H   0  0  0  0  0
   -6.6730   15.7855   35.8124 H   0  0  0  0  0
   -8.5014   16.7707   34.4749 H   0  0  0  0  0
  -19.7767   13.1980   42.8899 H   0  0  0  0  0
  -18.1867   15.6000   42.7548 H   0  0  0  0  0
  -18.1902   14.0316   45.3533 H   0  0  0  0  0
  -16.7758   14.4612   44.3545 H   0  0  0  0  0
  2  1  4  0  0  0
  1 23  4  0  0  0
  3  2  4  0  0  0
 20  3  1  0  0  0
  3 21  4  0  0  0
  5  4  1  0  0  0
  4 19  1  0  0  0
  6  5  1  0  0  0
  6  7  4  0  0  0
 24  6  4  0  0  0
  8  7  4  0  0  0
  7 17  1  0  0  0
  9  8  4  0  0  0
 10  9  1  0  0  0
  9 24  4  0  0  0
 10 11  4  0  0  0
 25 10  4  0  0  0
 12 11  4  0  0  0
 26 12  4  0  0  0
 13 25  4  0  0  0
 13 26  4  0  0  0
 27 13  1  0  0  0
 29 14  1  0  0  0
 14 30  1  0  0  0
 16 15  1  0  0  0
 15 29  1  0  0  0
 28 16  1  0  0  0
 17 18  2  0  0  0
 17 19  1  0  0  0
 19 20  1  0  0  0
 21 22  4  0  0  0
 22 23  4  0  0  0
 27 28  1  0  0  0
 28 30  1  0  0  0
  1 31  1  0  0  0
  2 32  1  0  0  0
  4 33  1  0  0  0
  4 34  1  0  0  0
  5 35  1  0  0  0
  5 36  1  0  0  0
  8 37  1  0  0  0
 11 38  1  0  0  0
 12 39  1  0  0  0
 14 40  1  0  0  0
 14 41  1  0  0  0
 15 42  1  0  0  0
 15 43  1  0  0  0
 16 44  1  0  0  0
 16 45  1  0  0  0
 20 46  1  0  0  0
 20 47  1  0  0  0
 21 48  1  0  0  0
 22 49  1  0  0  0
 23 50  1  0  0  0
 27 51  1  0  0  0
 28 52  1  0  0  0
 30 53  1  0  0  0
 30 54  1  0  0  0
M  END
$$$$
