4z22_ligand
  -I-interpret- 

 53 57  0  0  0  0  0  0  0  0999 V2000
   -1.4740    2.6380  -30.3280 C   0  0  0  0  0
   -0.7910    3.3320  -31.3190 C   0  0  0  0  0
   -0.0630    4.4670  -30.9890 C   0  0  0  0  0
   -0.0170    4.9110  -29.6720 C   0  0  0  0  0
   -0.6990    4.2160  -28.6790 C   0  0  0  0  0
   -1.4260    3.0780  -29.0080 C   0  0  0  0  0
   -2.1540    2.3350  -27.9550 C   0  0  0  0  0
   -1.3310    2.1600  -26.8000 O   0  0  0  0  0
   -3.3720    3.1240  -27.5040 C   0  0  0  0  0
   -3.4520    2.9030  -26.0030 C   0  0  0  0  0
   -2.1040    2.3190  -25.6060 C   0  0  0  0  0
   -1.3990    3.2780  -24.6560 C   0  0  0  0  0
   -0.1490    2.6850  -24.1710 N   0  0  0  0  0
    1.0810    3.0980  -24.7180 C   0  0  0  0  0
    1.1140    3.9690  -25.6160 O   0  0  0  0  0
   -0.1550    1.7000  -23.1590 C   0  0  0  0  0
   -1.3190    1.2820  -22.6100 N   0  0  0  0  0
    1.0070    1.1670  -22.7270 N   0  0  0  0  0
    2.1940    1.5550  -23.2440 C   0  0  0  0  0
    3.3640    0.9760  -22.7660 C   0  0  0  0  0
    2.2540    2.5230  -24.2440 C   0  0  0  0  0
    3.4850    2.9090  -24.7620 C   0  0  0  0  0
    4.6550    2.3300  -24.2810 C   0  0  0  0  0
    4.5940    1.3580  -23.2860 C   0  0  0  0  0
    5.8390    0.7370  -22.7580 C   0  0  0  0  0
    5.8010   -0.5290  -22.1820 C   0  0  0  0  0
    6.9640   -1.1100  -21.6840 C   0  0  0  0  0
    8.1700   -0.4240  -21.7610 C   0  0  0  0  0
    8.2070    0.8420  -22.3350 C   0  0  0  0  0
    7.0440    1.4220  -22.8330 C   0  0  0  0  0
   -2.0483    1.7477  -30.5843 H   0  0  0  0  0
   -0.8266    2.9864  -32.3522 H   0  0  0  0  0
    0.4745    5.0121  -31.7650 H   0  0  0  0  0
    0.5538    5.8041  -29.4178 H   0  0  0  0  0
   -0.6635    4.5626  -27.6462 H   0  0  0  0  0
   -2.4395    1.3714  -28.3770 H   0  0  0  0  0
   -4.2783    2.7908  -28.0096 H   0  0  0  0  0
   -3.2819    4.1816  -27.7518 H   0  0  0  0  0
   -4.2706    2.2327  -25.7409 H   0  0  0  0  0
   -3.6563    3.8330  -25.4726 H   0  0  0  0  0
   -2.2287    1.3592  -25.1047 H   0  0  0  0  0
   -2.0505    3.4806  -23.8060 H   0  0  0  0  0
   -1.1722    4.2027  -25.1867 H   0  0  0  0  0
   -2.2037    1.6789  -22.9265 H   0  0  0  0  0
    0.9892    0.4567  -21.9952 H   0  0  0  0  0
    3.3160    0.2207  -21.9816 H   0  0  0  0  0
    3.5335    3.6655  -25.5452 H   0  0  0  0  0
    5.6202    2.6376  -24.6834 H   0  0  0  0  0
    4.8559   -1.0686  -22.1204 H   0  0  0  0  0
    6.9286   -2.1022  -21.2341 H   0  0  0  0  0
    9.0828   -0.8762  -21.3732 H   0  0  0  0  0
    9.1515    1.3828  -22.3952 H   0  0  0  0  0
    7.0794    2.4145  -23.2821 H   0  0  0  0  0
  1  2  4  0  0  0
  1  6  4  0  0  0
  2  3  4  0  0  0
  3  4  4  0  0  0
  4  5  4  0  0  0
  5  6  4  0  0  0
  6  7  1  0  0  0
  7  8  1  0  0  0
  7  9  1  0  0  0
  8 11  1  0  0  0
  9 10  1  0  0  0
 10 11  1  0  0  0
 11 12  1  0  0  0
 12 13  1  0  0  0
 13 14  1  0  0  0
 13 16  4  0  0  0
 14 15  2  0  0  0
 14 21  1  0  0  0
 16 17  2  0  0  0
 16 18  1  0  0  0
 18 19  1  0  0  0
 19 20  4  0  0  0
 19 21  4  0  0  0
 20 24  4  0  0  0
 21 22  4  0  0  0
 22 23  4  0  0  0
 23 24  4  0  0  0
 24 25  1  0  0  0
 25 26  4  0  0  0
 25 30  4  0  0  0
 26 27  4  0  0  0
 27 28  4  0  0  0
 28 29  4  0  0  0
 29 30  4  0  0  0
  1 31  1  0  0  0
  2 32  1  0  0  0
  3 33  1  0  0  0
  4 34  1  0  0  0
  5 35  1  0  0  0
  7 36  1  0  0  0
  9 37  1  0  0  0
  9 38  1  0  0  0
 10 39  1  0  0  0
 10 40  1  0  0  0
 11 41  1  0  0  0
 12 42  1  0  0  0
 12 43  1  0  0  0
 17 44  1  0  0  0
 18 45  1  0  0  0
 20 46  1  0  0  0
 22 47  1  0  0  0
 23 48  1  0  0  0
 26 49  1  0  0  0
 27 50  1  0  0  0
 28 51  1  0  0  0
 29 52  1  0  0  0
 30 53  1  0  0  0
M  END
$$$$
