5ti5_ligand
  -I-interpret- 

 38 40  0  0  0  0  0  0  0  0999 V2000
  -12.6190   -3.9520   -1.7380 C   0  0  0  0  0
  -13.3150   -6.9670    1.4410 C   0  0  0  0  0
  -12.3330   -8.9230    2.5010 C   0  0  0  0  0
   -9.3540   -9.0840    4.8480 C   0  0  0  0  0
   -8.6160   -6.4040    5.1340 C   0  0  0  0  0
   -8.4400   -7.0230    3.8950 C   0  0  0  0  0
   -7.9800   -8.0770    1.1950 O   0  0  0  0  0
   -8.5900   -9.1570    2.2100 S   0  0  0  0  0
  -10.1470   -9.6450    1.7040 N   0  0  0  0  0
  -11.2030   -8.7960    1.6720 C   0  0  0  0  0
  -11.1440   -7.7500    0.7270 C   0  0  0  0  0
  -12.1950   -6.8140    0.5870 C   0  0  0  0  0
  -12.0760   -5.7920   -0.3420 N   0  0  0  0  0
  -10.8480   -5.5020   -1.0150 C   0  0  0  0  0
  -11.1150   -4.2430   -1.8710 C   0  0  0  0  0
  -13.0570   -4.9280   -0.7380 C   0  0  0  0  0
  -14.2440   -4.9150   -0.3380 O   0  0  0  0  0
  -13.3890   -8.0110    2.3770 C   0  0  0  0  0
   -8.8090   -8.3680    3.7640 C   0  0  0  0  0
   -9.5290   -8.4510    6.0900 C   0  0  0  0  0
   -9.1550   -7.1010    6.2350 C   0  0  0  0  0
   -8.1040   -4.6350    5.2710 Br  0  0  0  0  0
   -7.6070  -10.4090    2.3390 O   0  0  0  0  0
  -13.1527   -4.0479   -2.6835 H   0  0  0  0  0
  -12.8254   -2.9233   -1.4425 H   0  0  0  0  0
  -14.1391   -6.2572    1.3697 H   0  0  0  0  0
  -12.3863   -9.7266    3.2355 H   0  0  0  0  0
   -9.6397  -10.1285    4.7232 H   0  0  0  0  0
   -8.0255   -6.4730    3.0501 H   0  0  0  0  0
  -10.2874  -10.6130    1.4147 H   0  0  0  0  0
  -10.2654   -7.6609    0.0881 H   0  0  0  0  0
  -10.5316   -6.3403   -1.6357 H   0  0  0  0  0
  -10.0401   -5.3305   -0.3037 H   0  0  0  0  0
  -10.5174   -3.3983   -1.5283 H   0  0  0  0  0
  -10.8347   -4.4061   -2.9116 H   0  0  0  0  0
  -14.2711   -8.1121    3.0093 H   0  0  0  0  0
   -9.9500   -8.9992    6.9328 H   0  0  0  0  0
   -9.2815   -6.5975    7.1934 H   0  0  0  0  0
  1 15  1  0  0  0
 16  1  1  0  0  0
 12  2  4  0  0  0
  2 18  4  0  0  0
 10  3  4  0  0  0
 18  3  4  0  0  0
 19  4  4  0  0  0
  4 20  4  0  0  0
  6  5  4  0  0  0
  5 21  4  0  0  0
  5 22  1  0  0  0
 19  6  4  0  0  0
  8  7  2  0  0  0
  9  8  1  0  0  0
  8 19  1  0  0  0
  8 23  2  0  0  0
 10  9  1  0  0  0
 11 10  4  0  0  0
 12 11  4  0  0  0
 13 12  1  0  0  0
 13 14  1  0  0  0
 13 16  1  0  0  0
 14 15  1  0  0  0
 16 17  2  0  0  0
 20 21  4  0  0  0
  1 24  1  0  0  0
  1 25  1  0  0  0
  2 26  1  0  0  0
  3 27  1  0  0  0
  4 28  1  0  0  0
  6 29  1  0  0  0
  9 30  1  0  0  0
 11 31  1  0  0  0
 14 32  1  0  0  0
 14 33  1  0  0  0
 15 34  1  0  0  0
 15 35  1  0  0  0
 18 36  1  0  0  0
 20 37  1  0  0  0
 21 38  1  0  0  0
M  END
$$$$
