4rj3_ligand
  -I-interpret- 

 57 61  0  0  0  0  0  0  0  0999 V2000
   -2.3450  -22.6170   45.4860 C   0  0  0  0  0
   -3.6380  -23.4510   45.4010 C   0  0  0  0  0
   -5.1520  -25.8380   42.4660 C   0  0  0  0  0
   -2.3460  -25.4700   46.3290 C   0  0  0  0  0
   -1.0650  -24.6430   46.2100 C   0  0  0  0  0
   -3.7540  -25.6610   44.3160 C   0  0  0  0  0
   -4.5480  -27.0440   42.1300 C   0  0  0  0  0
   -3.5180  -27.5330   42.9440 C   0  0  0  0  0
   -1.4380  -23.2000   46.5820 C   0  0  0  0  0
    0.2140  -22.3920   48.1140 C   0  0  0  0  0
   -0.2580  -22.4110   46.7630 O   0  0  0  0  0
   -3.3920  -24.9180   45.4350 N   0  0  0  0  0
   -4.7310  -25.1820   43.5500 N   0  0  0  0  0
   -3.1450  -26.8200   44.0210 N   0  0  0  0  0
   -2.9430  -28.7480   42.5730 N   0  0  0  0  0
   -1.8690  -29.4060   43.1850 C   0  0  0  0  0
   -1.0250  -28.7740   44.1020 C   0  0  0  0  0
    0.0200  -29.4840   44.6720 C   0  0  0  0  0
    0.1980  -30.8370   44.2880 C   0  0  0  0  0
    1.3590  -31.3150   45.0450 C   0  0  0  0  0
    1.7880  -30.2920   45.7960 C   0  0  0  0  0
    1.0070  -29.1760   45.5810 N   0  0  0  0  0
    1.1420  -27.8710   46.2450 C   0  0  0  0  0
    0.4300  -27.9550   47.6230 C   0  0  0  0  0
    1.1990  -26.9940   48.5740 C   0  0  0  0  0
    2.3590  -26.4120   47.7140 C   0  0  0  0  0
    2.5790  -27.5040   46.6410 C   0  0  0  0  0
   -0.6890  -31.4060   43.3650 C   0  0  0  0  0
   -1.6780  -30.6830   42.8470 N   0  0  0  0  0
   -2.5919  -21.5831   45.7274 H   0  0  0  0  0
   -1.8265  -22.6476   44.5277 H   0  0  0  0  0
   -4.1193  -23.2186   44.4511 H   0  0  0  0  0
   -4.2515  -23.1987   46.2659 H   0  0  0  0  0
   -5.9578  -25.4337   41.8533 H   0  0  0  0  0
   -2.7004  -25.4353   47.3592 H   0  0  0  0  0
   -2.1355  -26.5000   46.0409 H   0  0  0  0  0
   -0.6623  -24.6925   45.1983 H   0  0  0  0  0
   -0.2901  -25.0280   46.8729 H   0  0  0  0  0
   -4.8700  -27.5993   41.2490 H   0  0  0  0  0
   -1.9822  -23.1900   47.5264 H   0  0  0  0  0
   -0.5588  -21.9781   48.7617 H   0  0  0  0  0
    0.4486  -23.4085   48.4299 H   0  0  0  0  0
    1.1104  -21.7750   48.1757 H   0  0  0  0  0
   -3.3522  -29.2113   41.7616 H   0  0  0  0  0
   -1.1874  -27.7293   44.3673 H   0  0  0  0  0
    1.7917  -32.3146   45.0044 H   0  0  0  0  0
    2.6351  -30.3356   46.4806 H   0  0  0  0  0
    0.7451  -27.1486   45.5318 H   0  0  0  0  0
    0.4395  -28.9752   48.0066 H   0  0  0  0  0
   -0.6180  -27.6672   47.5399 H   0  0  0  0  0
    1.5735  -27.5146   49.4554 H   0  0  0  0  0
    0.5513  -26.2074   48.9611 H   0  0  0  0  0
    3.2561  -26.2073   48.2982 H   0  0  0  0  0
    2.1189  -25.4397   47.2838 H   0  0  0  0  0
    3.1809  -27.1618   45.7991 H   0  0  0  0  0
    3.1525  -28.3552   47.0079 H   0  0  0  0  0
   -0.5679  -32.4481   43.0694 H   0  0  0  0  0
  2  1  1  0  0  0
  1  9  1  0  0  0
 12  2  1  0  0  0
  3  7  4  0  0  0
 13  3  4  0  0  0
  4  5  1  0  0  0
 12  4  1  0  0  0
  5  9  1  0  0  0
  6 12  1  0  0  0
  6 13  4  0  0  0
  6 14  4  0  0  0
  7  8  4  0  0  0
  8 14  4  0  0  0
  8 15  1  0  0  0
  9 11  1  0  0  0
 11 10  1  0  0  0
 15 16  1  0  0  0
 16 17  4  0  0  0
 16 29  4  0  0  0
 17 18  4  0  0  0
 18 19  4  0  0  0
 18 22  4  0  0  0
 19 20  4  0  0  0
 19 28  4  0  0  0
 20 21  4  0  0  0
 21 22  4  0  0  0
 22 23  1  0  0  0
 23 24  1  0  0  0
 23 27  1  0  0  0
 24 25  1  0  0  0
 25 26  1  0  0  0
 26 27  1  0  0  0
 28 29  4  0  0  0
  1 30  1  0  0  0
  1 31  1  0  0  0
  2 32  1  0  0  0
  2 33  1  0  0  0
  3 34  1  0  0  0
  4 35  1  0  0  0
  4 36  1  0  0  0
  5 37  1  0  0  0
  5 38  1  0  0  0
  7 39  1  0  0  0
  9 40  1  0  0  0
 10 41  1  0  0  0
 10 42  1  0  0  0
 10 43  1  0  0  0
 15 44  1  0  0  0
 17 45  1  0  0  0
 20 46  1  0  0  0
 21 47  1  0  0  0
 23 48  1  0  0  0
 24 49  1  0  0  0
 24 50  1  0  0  0
 25 51  1  0  0  0
 25 52  1  0  0  0
 26 53  1  0  0  0
 26 54  1  0  0  0
 27 55  1  0  0  0
 27 56  1  0  0  0
 28 57  1  0  0  0
M  END
$$$$
