3sm0_ligand
  -I-interpret- 

 49 52  0  0  0  0  0  0  0  0999 V2000
   19.0630   18.2860   16.1730 N   0  0  0  0  0
   14.1100   14.7760   17.7000 N   0  3  0  0  0
   16.3410   16.9230   19.9570 C   0  0  0  0  0
   15.0170   16.4290   19.3650 C   0  0  0  0  0
   15.2400   15.1070   18.5950 C   0  0  0  0  0
   12.7590   14.9490   18.2860 C   0  0  0  0  0
   11.6470   14.7750   17.1870 C   0  0  0  0  0
    9.3200   15.2820   16.7140 C   0  0  0  0  0
   16.6590   16.9100   21.3200 C   0  0  0  0  0
   18.1460   17.2660   23.2810 C   0  0  0  0  0
   18.9290   17.7730   20.9300 C   0  0  0  0  0
   18.2510   18.1030   14.9560 C   0  0  0  0  0
   18.5790   17.9880   17.4040 C   0  0  0  0  0
   17.3720   17.5130   17.7540 N   0  0  0  0  0
   17.3560   17.3770   19.1110 C   0  0  0  0  0
   10.2290   14.7440   17.8190 C   0  0  0  0  0
   10.1580   16.2290   15.8440 C   0  0  0  0  0
   11.6350   16.0450   16.2770 C   0  0  0  0  0
   15.7170   16.4820   22.2000 N   0  0  0  0  0
   15.9490   16.4450   23.4810 C   0  0  0  0  0
   17.1190   16.8180   24.0640 N   0  0  0  0  0
   19.2160   17.6130   23.7710 O   0  0  0  0  0
   17.9200   17.3230   21.7950 C   0  0  0  0  0
   18.5920   17.7800   19.5800 C   0  0  0  0  0
   19.3140   18.1460   18.5180 N   0  0  0  0  0
   20.0134   18.6461   16.0866 H   0  0  0  0  0
   14.2021   13.7865   17.4700 H   0  0  0  0  0
   14.1680   15.4182   16.9096 H   0  0  0  0  0
   14.6290   17.1817   18.6787 H   0  0  0  0  0
   14.3059   16.2569   20.1730 H   0  0  0  0  0
   16.1332   15.2218   17.9809 H   0  0  0  0  0
   15.3368   14.3041   19.3258 H   0  0  0  0  0
   12.6840   15.9519   18.7063 H   0  0  0  0  0
   12.6114   14.1938   19.0580 H   0  0  0  0  0
   11.8659   13.8510   16.6519 H   0  0  0  0  0
    8.4709   15.8127   17.1448 H   0  0  0  0  0
    8.9258   14.4624   16.1131 H   0  0  0  0  0
   19.9066   18.0940   21.2897 H   0  0  0  0  0
   17.9688   17.0542   14.8633 H   0  0  0  0  0
   17.3533   18.7175   15.0239 H   0  0  0  0  0
   18.8327   18.4025   14.0842 H   0  0  0  0  0
   10.1694   15.3398   18.7298 H   0  0  0  0  0
    9.9414   13.7428   18.1398 H   0  0  0  0  0
    9.8402   17.2628   15.9793 H   0  0  0  0  0
   10.0323   15.9970   14.7864 H   0  0  0  0  0
   12.2922   15.9258   15.4156 H   0  0  0  0  0
   12.0080   16.9208   16.8080 H   0  0  0  0  0
   15.1492   16.0902   24.1310 H   0  0  0  0  0
   17.2296   16.7641   25.0766 H   0  0  0  0  0
  1 12  1  0  0  0
 13  1  1  0  0  0
  5  2  1  0  0  0
  2  6  1  0  0  0
  3  4  1  0  0  0
  3  9  4  0  0  0
 15  3  4  0  0  0
  4  5  1  0  0  0
  6  7  1  0  0  0
  7 16  1  0  0  0
  7 18  1  0  0  0
 16  8  1  0  0  0
  8 17  1  0  0  0
  9 19  1  0  0  0
  9 23  4  0  0  0
 10 21  1  0  0  0
 10 22  2  0  0  0
 23 10  1  0  0  0
 23 11  4  0  0  0
 11 24  4  0  0  0
 14 13  4  0  0  0
 13 25  4  0  0  0
 14 15  4  0  0  0
 15 24  4  0  0  0
 17 18  1  0  0  0
 19 20  2  0  0  0
 20 21  1  0  0  0
 24 25  4  0  0  0
  1 26  1  0  0  0
  2 27  1  0  0  0
  2 28  1  0  0  0
  4 29  1  0  0  0
  4 30  1  0  0  0
  5 31  1  0  0  0
  5 32  1  0  0  0
  6 33  1  0  0  0
  6 34  1  0  0  0
  7 35  1  0  0  0
  8 36  1  0  0  0
  8 37  1  0  0  0
 11 38  1  0  0  0
 12 39  1  0  0  0
 12 40  1  0  0  0
 12 41  1  0  0  0
 16 42  1  0  0  0
 16 43  1  0  0  0
 17 44  1  0  0  0
 17 45  1  0  0  0
 18 46  1  0  0  0
 18 47  1  0  0  0
 20 48  1  0  0  0
 21 49  1  0  0  0
M  END
$$$$
