4u93_ligand
  -I-interpret- 

 46 49  0  0  0  0  0  0  0  0999 V2000
   24.8490   22.3840   10.0560 F   0  0  0  0  0
   26.0370   22.9900   10.2460 C   0  0  0  0  0
   26.3390   23.5050   11.5060 C   0  0  0  0  0
   27.5600   24.1350   11.7130 C   0  0  0  0  0
   27.8350   24.6740   13.0750 C   0  0  0  0  0
   29.0770   24.5500   13.5970 N   0  0  0  0  0
   29.3740   25.0230   14.8370 C   0  0  0  0  0
   30.6430   24.8830   15.3270 O   0  0  0  0  0
   31.6530   24.3150   14.4800 C   0  0  0  0  0
   28.3940   25.6480   15.6190 C   0  0  0  0  0
   27.1190   25.7830   15.0930 C   0  0  0  0  0
   26.8320   25.2830   13.8190 C   0  0  0  0  0
   26.9290   23.0990    9.1890 C   0  0  0  0  0
   28.1490   23.7390    9.3930 C   0  0  0  0  0
   28.4750   24.2530   10.6570 C   0  0  0  0  0
   29.8070   24.9180   10.7920 C   0  0  0  0  0
   30.0420   25.8170    9.6630 N   0  0  0  0  0
   31.2250   26.3580    9.4130 C   0  0  0  0  0
   31.3550   27.2070    8.5270 O   0  0  0  0  0
   30.9440   23.8830   10.7570 C   0  0  0  0  0
   32.3000   24.5780   10.7280 C   0  0  0  0  0
   33.3650   23.9990   11.3360 N   0  0  0  0  0
   34.5800   24.6060   11.2940 C   0  0  0  0  0
   35.6340   23.9910   11.8840 N   0  0  0  0  0
   34.7380   25.8190   10.7020 N   0  0  0  0  0
   33.7070   26.4230   10.0850 C   0  0  0  0  0
   32.4460   25.8070   10.1030 C   0  0  0  0  0
   33.9880   27.7630    9.4500 C   0  0  0  0  0
   25.6226   23.4141   12.3225 H   0  0  0  0  0
   31.3568   23.3071   14.1892 H   0  0  0  0  0
   31.7678   24.9326   13.5892 H   0  0  0  0  0
   32.5987   24.2754   15.0206 H   0  0  0  0  0
   28.6286   26.0190   16.6167 H   0  0  0  0  0
   26.3400   26.2788   15.6722 H   0  0  0  0  0
   25.8250   25.3707   13.4111 H   0  0  0  0  0
   26.6780   22.6887    8.2108 H   0  0  0  0  0
   28.8533   23.8409    8.5674 H   0  0  0  0  0
   29.7974   25.4565   11.7396 H   0  0  0  0  0
   29.2629   26.0366    9.0424 H   0  0  0  0  0
   30.8398   23.2736    9.8593 H   0  0  0  0  0
   30.8842   23.2618   11.6506 H   0  0  0  0  0
   35.5057   23.0912   12.3470 H   0  0  0  0  0
   36.5555   24.4280   11.8650 H   0  0  0  0  0
   34.3270   28.4620   10.2146 H   0  0  0  0  0
   34.7622   27.6489    8.6913 H   0  0  0  0  0
   33.0770   28.1425    8.9871 H   0  0  0  0  0
  1  2  1  0  0  0
  2  3  4  0  0  0
  2 13  4  0  0  0
  3  4  4  0  0  0
  4  5  1  0  0  0
  4 15  4  0  0  0
  5  6  4  0  0  0
  5 12  4  0  0  0
  6  7  4  0  0  0
  7  8  1  0  0  0
  7 10  4  0  0  0
  8  9  1  0  0  0
 10 11  4  0  0  0
 11 12  4  0  0  0
 13 14  4  0  0  0
 14 15  4  0  0  0
 15 16  1  0  0  0
 16 17  1  0  0  0
 16 20  1  0  0  0
 17 18  1  0  0  0
 18 19  2  0  0  0
 18 27  1  0  0  0
 20 21  1  0  0  0
 21 22  4  0  0  0
 21 27  4  0  0  0
 22 23  4  0  0  0
 23 24  1  0  0  0
 23 25  4  0  0  0
 25 26  4  0  0  0
 26 27  4  0  0  0
 26 28  1  0  0  0
  3 29  1  0  0  0
  9 30  1  0  0  0
  9 31  1  0  0  0
  9 32  1  0  0  0
 10 33  1  0  0  0
 11 34  1  0  0  0
 12 35  1  0  0  0
 13 36  1  0  0  0
 14 37  1  0  0  0
 16 38  1  0  0  0
 17 39  1  0  0  0
 20 40  1  0  0  0
 20 41  1  0  0  0
 24 42  1  0  0  0
 24 43  1  0  0  0
 28 44  1  0  0  0
 28 45  1  0  0  0
 28 46  1  0  0  0
M  END
$$$$
