5c4u_ligand
  -I-interpret- 

 43 46  0  0  0  0  0  0  0  0999 V2000
  -37.2960   18.0950   33.4050 C   0  0  0  0  0
  -38.5760   18.6070   33.5460 C   0  0  0  0  0
  -40.3860   20.2270   33.0070 C   0  0  0  0  0
  -35.9950   24.9060   33.4260 C   0  0  0  0  0
  -34.4800   26.0800   35.4810 C   0  0  0  0  0
  -34.5690   23.0510   33.5520 F   0  0  0  0  0
  -34.9670   24.2330   34.0590 C   0  0  0  0  0
  -34.2010   24.7890   35.0480 C   0  0  0  0  0
  -33.5590   26.7710   36.4540 C   0  0  0  0  0
  -32.4690   26.2150   36.7530 O   0  0  0  0  0
  -33.8840   27.9130   36.8390 O   0  0  0  0  0
  -35.5990   26.7430   34.9390 C   0  0  0  0  0
  -36.0370   27.9310   35.4120 O   0  0  0  0  0
  -36.3310   26.1710   33.9130 C   0  0  0  0  0
  -36.8030   24.3200   32.3310 C   0  0  0  0  0
  -37.6040   25.0150   31.3570 C   0  0  0  0  0
  -37.6440   26.2980   30.9490 N   0  0  0  0  0
  -38.3480   26.5700   29.8370 C   0  0  0  0  0
  -37.0160   23.0110   32.3290 N   0  0  0  0  0
  -37.9570   22.7930   31.3260 N   0  0  0  0  0
  -38.2930   23.9770   30.6890 C   0  0  0  0  0
  -39.0040   24.2900   29.5340 C   0  0  0  0  0
  -39.0280   25.6090   29.1010 C   0  0  0  0  0
  -38.4860   21.5150   31.0520 C   0  0  0  0  0
  -39.2290   21.3530   30.0960 O   0  0  0  0  0
  -38.0810   20.3350   31.9110 C   0  0  0  0  0
  -38.9830   19.7190   32.8080 C   0  0  0  0  0
  -40.4500   21.5580   33.0790 F   0  0  0  0  0
  -40.9450   19.7550   34.1200 F   0  0  0  0  0
  -41.1920   19.8900   32.0160 F   0  0  0  0  0
  -36.3990   18.6910   32.5330 C   0  0  0  0  0
  -36.7920   19.8080   31.8100 C   0  0  0  0  0
  -35.6210   20.5950   30.8090 Cl  0  0  0  0  0
  -36.9939   17.2208   33.9818 H   0  0  0  0  0
  -39.2719   18.1363   34.2405 H   0  0  0  0  0
  -33.3805   24.2249   35.4915 H   0  0  0  0  0
  -32.4335   25.3449   36.3489 H   0  0  0  0  0
  -36.8059   28.2104   34.9096 H   0  0  0  0  0
  -37.1745   26.7109   33.4827 H   0  0  0  0  0
  -38.3874   27.6037   29.4934 H   0  0  0  0  0
  -39.5321   23.5141   28.9798 H   0  0  0  0  0
  -39.5719   25.8855   28.1978 H   0  0  0  0  0
  -35.3938   18.2859   32.4162 H   0  0  0  0  0
  2  1  4  0  0  0
  1 31  4  0  0  0
 27  2  4  0  0  0
 27  3  1  0  0  0
  3 28  1  0  0  0
  3 29  1  0  0  0
  3 30  1  0  0  0
  4  7  4  0  0  0
  4 14  4  0  0  0
 15  4  1  0  0  0
  8  5  4  0  0  0
  5  9  1  0  0  0
 12  5  4  0  0  0
  7  6  1  0  0  0
  7  8  4  0  0  0
  9 10  1  0  0  0
  9 11  2  0  0  0
 12 13  1  0  0  0
 14 12  4  0  0  0
 16 15  4  0  0  0
 19 15  4  0  0  0
 16 17  4  0  0  0
 21 16  4  0  0  0
 17 18  4  0  0  0
 23 18  4  0  0  0
 20 19  4  0  0  0
 20 21  4  0  0  0
 24 20  1  0  0  0
 21 22  4  0  0  0
 22 23  4  0  0  0
 24 25  2  0  0  0
 26 24  1  0  0  0
 26 27  4  0  0  0
 26 32  4  0  0  0
 31 32  4  0  0  0
 32 33  1  0  0  0
  1 34  1  0  0  0
  2 35  1  0  0  0
  8 36  1  0  0  0
 10 37  1  0  0  0
 13 38  1  0  0  0
 14 39  1  0  0  0
 18 40  1  0  0  0
 22 41  1  0  0  0
 23 42  1  0  0  0
 31 43  1  0  0  0
M  END
$$$$
