6jad_ligand
  -I-interpret- 

 45 46  0  0  0  0  0  0  0  0999 V2000
   -6.4910  -32.4090  -14.3490 C   0  0  0  0  0
   -7.7550  -32.1320  -13.5120 C   0  0  0  0  0
   -8.6600  -31.1230  -14.1820 C   0  0  0  0  0
   -7.8270  -29.8730  -14.3990 C   0  0  0  0  0
   -6.5460  -30.1910  -15.1640 C   0  0  0  0  0
   -5.6530  -28.9620  -15.1810 C   0  0  0  0  0
   -8.4540  -33.3500  -13.2830 O   0  0  0  0  0
   -9.8550  -30.8560  -13.3680 O   0  0  0  0  0
   -8.6380  -28.8420  -15.0340 O   0  0  0  0  0
   -5.8000  -31.1980  -14.5150 O   0  0  0  0  0
   -4.4910  -29.1160  -16.0120 O   0  0  0  0  0
   -4.0040  -37.1430  -15.1260 O   0  0  0  0  0
   -6.0990  -36.8010  -14.0810 C   0  0  0  0  0
   -5.4380  -36.2550  -12.9140 O   0  0  0  0  0
   -5.2610  -36.4960  -15.3150 C   0  0  0  0  0
   -5.0260  -35.0900  -15.3950 O   0  0  0  0  0
   -5.9160  -36.8960  -16.6130 C   0  0  0  0  0
   -6.8610  -37.9620  -16.4720 O   0  0  0  0  0
   -6.5190  -35.5740  -17.1020 C   0  0  0  0  0
   -6.8050  -35.6240  -18.5390 O   0  0  0  0  0
   -5.4680  -34.5790  -16.6540 C   0  0  0  0  0
   -5.8790  -33.1140  -16.5400 C   0  0  0  0  0
   -6.9410  -32.9480  -15.5860 O   0  0  0  0  0
   -5.8065  -33.1135  -13.8766 H   0  0  0  0  0
   -7.4434  -31.7062  -12.5582 H   0  0  0  0  0
   -9.0333  -31.4998  -15.1342 H   0  0  0  0  0
   -7.5046  -29.4791  -13.4352 H   0  0  0  0  0
   -6.8373  -30.5110  -16.1644 H   0  0  0  0  0
   -5.3086  -28.7906  -14.1611 H   0  0  0  0  0
   -6.2382  -28.1348  -15.5826 H   0  0  0  0  0
   -7.8670  -33.9794  -12.8578 H   0  0  0  0  0
  -10.3521  -31.6695  -13.2550 H   0  0  0  0  0
   -9.4261  -28.6873  -14.5081 H   0  0  0  0  0
   -3.9687  -28.3111  -15.9822 H   0  0  0  0  0
   -3.4416  -36.9753  -15.8858 H   0  0  0  0  0
   -7.0864  -36.3517  -14.1875 H   0  0  0  0  0
   -6.2091  -37.8797  -13.9695 H   0  0  0  0  0
   -5.9624  -36.4446  -12.1326 H   0  0  0  0  0
   -5.2200  -37.3265  -17.3329 H   0  0  0  0  0
   -7.2401  -38.1676  -17.3297 H   0  0  0  0  0
   -7.4978  -35.3110  -16.7009 H   0  0  0  0  0
   -7.1808  -34.7861  -18.8187 H   0  0  0  0  0
   -4.7023  -34.5155  -17.4272 H   0  0  0  0  0
   -6.2286  -32.7727  -17.5144 H   0  0  0  0  0
   -5.0176  -32.5346  -16.2077 H   0  0  0  0  0
  1  2  1  0  0  0
  1 10  1  0  0  0
 23  1  1  0  0  0
  2  3  1  0  0  0
  2  7  1  0  0  0
  3  4  1  0  0  0
  3  8  1  0  0  0
  5  4  1  0  0  0
  4  9  1  0  0  0
  5  6  1  0  0  0
 10  5  1  0  0  0
  6 11  1  0  0  0
 15 12  1  0  0  0
 13 14  1  0  0  0
 15 13  1  0  0  0
 16 15  1  0  0  0
 17 15  1  0  0  0
 21 16  1  0  0  0
 17 18  1  0  0  0
 19 17  1  0  0  0
 19 20  1  0  0  0
 21 19  1  0  0  0
 22 21  1  0  0  0
 22 23  1  0  0  0
  1 24  1  0  0  0
  2 25  1  0  0  0
  3 26  1  0  0  0
  4 27  1  0  0  0
  5 28  1  0  0  0
  6 29  1  0  0  0
  6 30  1  0  0  0
  7 31  1  0  0  0
  8 32  1  0  0  0
  9 33  1  0  0  0
 11 34  1  0  0  0
 12 35  1  0  0  0
 13 36  1  0  0  0
 13 37  1  0  0  0
 14 38  1  0  0  0
 17 39  1  0  0  0
 18 40  1  0  0  0
 19 41  1  0  0  0
 20 42  1  0  0  0
 21 43  1  0  0  0
 22 44  1  0  0  0
 22 45  1  0  0  0
M  END
$$$$
