5vsd_ligand
  -I-interpret- 

 59 61  0  0  0  0  0  0  0  0999 V2000
  -21.0180  -14.9740    3.0730 C   0  0  0  0  0
  -21.2150  -13.7620    2.4240 C   0  0  0  0  0
  -21.9630  -12.7650    3.0380 C   0  0  0  0  0
  -22.4020  -17.0890    8.7260 C   0  0  0  0  0
  -22.5050  -12.9780    4.2620 N   0  0  0  0  0
  -21.5700  -15.1570    4.2980 N   0  0  0  0  0
  -23.4230  -13.2890    6.8920 C   0  0  0  0  0
  -22.3010  -14.1680    4.8790 C   0  0  0  0  0
  -18.7750  -17.9990    1.1840 C   0  0  0  0  0
  -19.7090  -13.2770   -1.5170 C   0  0  0  0  0
  -24.3710   -6.7390    3.1970 C   0  0  0  0  0
  -20.2750  -15.9800    2.4560 C   0  0  0  0  0
  -20.6620  -13.5300    1.1600 C   0  0  0  0  0
  -22.4890  -15.7220    8.0620 C   0  0  0  0  0
  -22.9590  -15.7760    6.6120 C   0  0  0  0  0
  -22.2970   -9.7600    3.8870 C   0  0  0  0  0
  -24.2620  -10.4410    2.5900 C   0  0  0  0  0
  -22.7060   -8.2970    3.8120 C   0  0  0  0  0
  -24.6960   -8.9830    2.4660 C   0  0  0  0  0
  -19.7090  -15.7490    1.1990 C   0  0  0  0  0
  -19.9150  -14.5410    0.5520 C   0  0  0  0  0
  -22.7500  -10.3490    2.5650 C   0  0  0  0  0
  -22.8750  -14.4020    6.1280 N   0  0  0  0  0
  -22.0870  -11.6270    2.3110 N   0  0  0  0  0
  -24.1530   -8.1430    3.5570 N   0  3  0  0  0
  -18.9570  -16.7180    0.5700 O   0  0  0  0  0
  -19.3510  -14.3630   -0.6780 O   0  0  0  0  0
  -23.3859  -17.5580    8.7195 H   0  0  0  0  0
  -21.6968  -17.7136    8.1777 H   0  0  0  0  0
  -22.0612  -16.9709    9.7546 H   0  0  0  0  0
  -22.6339  -12.5644    7.0928 H   0  0  0  0  0
  -24.2180  -12.8127    6.3183 H   0  0  0  0  0
  -23.8256  -13.6602    7.8344 H   0  0  0  0  0
  -18.2847  -17.8715    2.1491 H   0  0  0  0  0
  -19.7461  -18.4727    1.3281 H   0  0  0  0  0
  -18.1562  -18.6243    0.5404 H   0  0  0  0  0
  -20.7744  -13.3286   -1.7412 H   0  0  0  0  0
  -19.4885  -12.3385   -1.0083 H   0  0  0  0  0
  -19.1382  -13.3321   -2.4440 H   0  0  0  0  0
  -24.0520   -6.1003    4.0207 H   0  0  0  0  0
  -23.7922   -6.4999    2.3049 H   0  0  0  0  0
  -25.4304   -6.5764    2.9987 H   0  0  0  0  0
  -20.1364  -16.9411    2.9512 H   0  0  0  0  0
  -20.8120  -12.5745    0.6574 H   0  0  0  0  0
  -21.4870  -15.2930    8.0649 H   0  0  0  0  0
  -23.2174  -15.1336    8.6199 H   0  0  0  0  0
  -23.9732  -16.1675    6.5336 H   0  0  0  0  0
  -22.3434  -16.4495    6.0158 H   0  0  0  0  0
  -22.7511  -10.2681    4.7377 H   0  0  0  0  0
  -21.2242   -9.8770    4.0402 H   0  0  0  0  0
  -24.6604  -11.0698    1.7938 H   0  0  0  0  0
  -24.6415  -10.9196    3.4928 H   0  0  0  0  0
  -22.1622   -7.8314    2.9900 H   0  0  0  0  0
  -22.4753   -7.8277    4.7684 H   0  0  0  0  0
  -25.7841   -8.9474    2.5202 H   0  0  0  0  0
  -24.3178   -8.5960    1.5198 H   0  0  0  0  0
  -22.4627   -9.7102    1.7298 H   0  0  0  0  0
  -21.6240  -11.6717    1.4032 H   0  0  0  0  0
  -24.6376   -8.4419    4.4033 H   0  0  0  0  0
  2  1  4  0  0  0
  1  6  4  0  0  0
  1 12  4  0  0  0
  3  2  4  0  0  0
  2 13  4  0  0  0
  3  5  4  0  0  0
 24  3  1  0  0  0
 14  4  1  0  0  0
  5  8  4  0  0  0
  8  6  4  0  0  0
 23  7  1  0  0  0
  8 23  1  0  0  0
 26  9  1  0  0  0
 27 10  1  0  0  0
 25 11  1  0  0  0
 12 20  4  0  0  0
 13 21  4  0  0  0
 15 14  1  0  0  0
 23 15  1  0  0  0
 16 18  1  0  0  0
 22 16  1  0  0  0
 17 19  1  0  0  0
 22 17  1  0  0  0
 18 25  1  0  0  0
 19 25  1  0  0  0
 21 20  4  0  0  0
 20 26  1  0  0  0
 21 27  1  0  0  0
 22 24  1  0  0  0
  4 28  1  0  0  0
  4 29  1  0  0  0
  4 30  1  0  0  0
  7 31  1  0  0  0
  7 32  1  0  0  0
  7 33  1  0  0  0
  9 34  1  0  0  0
  9 35  1  0  0  0
  9 36  1  0  0  0
 10 37  1  0  0  0
 10 38  1  0  0  0
 10 39  1  0  0  0
 11 40  1  0  0  0
 11 41  1  0  0  0
 11 42  1  0  0  0
 12 43  1  0  0  0
 13 44  1  0  0  0
 14 45  1  0  0  0
 14 46  1  0  0  0
 15 47  1  0  0  0
 15 48  1  0  0  0
 16 49  1  0  0  0
 16 50  1  0  0  0
 17 51  1  0  0  0
 17 52  1  0  0  0
 18 53  1  0  0  0
 18 54  1  0  0  0
 19 55  1  0  0  0
 19 56  1  0  0  0
 22 57  1  0  0  0
 24 58  1  0  0  0
 25 59  1  0  0  0
M  END
$$$$
