2idw_ligand
  -I-interpret- 

 75 78  0  0  0  0  0  0  0  0999 V2000
   15.3690   36.5220   17.9520 N   0  0  0  0  0
   15.9710   35.5180   17.2530 C   0  0  0  0  0
   15.5780   34.1640   17.3890 C   0  0  0  0  0
   16.2710   33.1730   16.6660 C   0  0  0  0  0
   17.3250   33.5760   15.8080 C   0  0  0  0  0
   17.7210   34.8920   15.7080 C   0  0  0  0  0
   17.0080   35.8800   16.3990 C   0  0  0  0  0
   18.3100   32.3420   14.8990 S   0  0  0  0  0
   17.4960   31.2130   14.4070 O   0  0  0  0  0
   19.0020   33.1840   13.9170 O   0  0  0  0  0
   19.5470   31.7050   15.8720 N   0  0  0  0  0
   20.3850   32.7190   16.5390 C   0  0  0  0  0
   21.8640   32.3260   16.5690 C   0  0  0  0  0
   22.4090   32.2810   15.1420 C   0  0  0  0  0
   22.5990   33.3500   17.4220 C   0  0  0  0  0
   19.2170   30.4480   16.6290 C   0  0  0  0  0
   20.0820   29.3110   16.0150 C   0  0  0  0  0
   19.9920   28.1990   16.9290 O   0  0  0  0  0
   19.6830   28.8680   14.6060 C   0  0  0  0  0
   20.6790   27.9400   14.0990 N   0  0  0  0  0
   21.5310   28.2870   13.1310 C   0  0  0  0  0
   21.6160   29.3430   12.5260 O   0  0  0  0  0
   22.3860   27.2350   12.8840 O   0  0  0  0  0
   23.2070   27.3160   11.7000 C   0  0  0  0  0
   24.5260   26.6250   12.0470 C   0  0  0  0  0
   24.2540   25.2370   11.9650 O   0  0  0  0  0
   23.2570   25.0460   10.9730 C   0  0  0  0  0
   22.2290   24.2290   11.5270 O   0  0  0  0  0
   20.9860   24.9640   11.5690 C   0  0  0  0  0
   21.1760   26.1630   10.6050 C   0  0  0  0  0
   22.6530   26.3780   10.6130 C   0  0  0  0  0
   18.3040   28.1780   14.5230 C   0  0  0  0  0
   17.8700   26.3610   12.8110 C   0  0  0  0  0
   17.5890   25.9580   11.5090 C   0  0  0  0  0
   17.4630   26.8810   10.4860 C   0  0  0  0  0
   17.5580   28.2440   10.8030 C   0  0  0  0  0
   17.8340   28.6820   12.0820 C   0  0  0  0  0
   17.9850   27.7310   13.1140 C   0  0  0  0  0
   14.6092   36.3090   18.5983 H   0  0  0  0  0
   15.6785   37.4861   17.8286 H   0  0  0  0  0
   14.7504   33.8923   18.0443 H   0  0  0  0  0
   16.0030   32.1210   16.7641 H   0  0  0  0  0
   18.5819   35.1619   15.0963 H   0  0  0  0  0
   17.2652   36.9311   16.2678 H   0  0  0  0  0
   20.0410   32.8163   17.5687 H   0  0  0  0  0
   20.2950   33.6509   15.9809 H   0  0  0  0  0
   22.0035   31.3352   17.0015 H   0  0  0  0  0
   21.8491   31.5461   14.5636 H   0  0  0  0  0
   22.3031   33.2639   14.6828 H   0  0  0  0  0
   23.4622   32.0010   15.1653 H   0  0  0  0  0
   22.4786   34.3403   16.9829 H   0  0  0  0  0
   22.1849   33.3455   18.4303 H   0  0  0  0  0
   23.6580   33.0950   17.4616 H   0  0  0  0  0
   18.1556   30.2141   16.5464 H   0  0  0  0  0
   19.4329   30.5679   17.6907 H   0  0  0  0  0
   21.0961   29.6908   15.8909 H   0  0  0  0  0
   20.5130   27.4664   16.5922 H   0  0  0  0  0
   19.6218   29.7801   14.0123 H   0  0  0  0  0
   20.7288   27.0001   14.4921 H   0  0  0  0  0
   23.2687   28.3569   11.3823 H   0  0  0  0  0
   24.8775   26.9069   13.0395 H   0  0  0  0  0
   25.3241   26.9183   11.3650 H   0  0  0  0  0
   23.6944   24.5818   10.0891 H   0  0  0  0  0
   20.7560   25.2992   12.5804 H   0  0  0  0  0
   20.1446   24.3403   11.2672 H   0  0  0  0  0
   20.6212   27.0469   10.9197 H   0  0  0  0  0
   20.7858   25.9652    9.6067 H   0  0  0  0  0
   22.8893   26.8111    9.6411 H   0  0  0  0  0
   17.5433   28.8929   14.8366 H   0  0  0  0  0
   18.3213   27.2983   15.1664 H   0  0  0  0  0
   18.0010   25.6162   13.5960 H   0  0  0  0  0
   17.4661   24.8970   11.2914 H   0  0  0  0  0
   17.2941   26.5569    9.4591 H   0  0  0  0  0
   17.4090   28.9808   10.0137 H   0  0  0  0  0
   17.9340   29.7468   12.2923 H   0  0  0  0  0
  2  1  1  0  0  0
  3  2  4  0  0  0
  7  2  4  0  0  0
  4  3  4  0  0  0
  5  4  4  0  0  0
  5  6  4  0  0  0
  8  5  1  0  0  0
  6  7  4  0  0  0
  8  9  2  0  0  0
  8 10  2  0  0  0
 11  8  1  0  0  0
 11 12  1  0  0  0
 16 11  1  0  0  0
 12 13  1  0  0  0
 13 14  1  0  0  0
 13 15  1  0  0  0
 17 16  1  0  0  0
 17 18  1  0  0  0
 19 17  1  0  0  0
 19 20  1  0  0  0
 32 19  1  0  0  0
 20 21  1  0  0  0
 21 22  2  0  0  0
 21 23  1  0  0  0
 23 24  1  0  0  0
 24 25  1  0  0  0
 24 31  1  0  0  0
 25 26  1  0  0  0
 27 26  1  0  0  0
 27 28  1  0  0  0
 31 27  1  0  0  0
 29 28  1  0  0  0
 30 29  1  0  0  0
 31 30  1  0  0  0
 38 32  1  0  0  0
 33 34  4  0  0  0
 33 38  4  0  0  0
 34 35  4  0  0  0
 35 36  4  0  0  0
 36 37  4  0  0  0
 37 38  4  0  0  0
  1 39  1  0  0  0
  1 40  1  0  0  0
  3 41  1  0  0  0
  4 42  1  0  0  0
  6 43  1  0  0  0
  7 44  1  0  0  0
 12 45  1  0  0  0
 12 46  1  0  0  0
 13 47  1  0  0  0
 14 48  1  0  0  0
 14 49  1  0  0  0
 14 50  1  0  0  0
 15 51  1  0  0  0
 15 52  1  0  0  0
 15 53  1  0  0  0
 16 54  1  0  0  0
 16 55  1  0  0  0
 17 56  1  0  0  0
 18 57  1  0  0  0
 19 58  1  0  0  0
 20 59  1  0  0  0
 24 60  1  0  0  0
 25 61  1  0  0  0
 25 62  1  0  0  0
 27 63  1  0  0  0
 29 64  1  0  0  0
 29 65  1  0  0  0
 30 66  1  0  0  0
 30 67  1  0  0  0
 31 68  1  0  0  0
 32 69  1  0  0  0
 32 70  1  0  0  0
 33 71  1  0  0  0
 34 72  1  0  0  0
 35 73  1  0  0  0
 36 74  1  0  0  0
 37 75  1  0  0  0
M  END
$$$$
