### 
### Created by X-TOOL on Mon Sep 10 21:13:20 2018
### 

@<TRIPOS>MOLECULE
4w5j_ligand
   81    86     1     0     0
SMALL
GAST_HUCK


@<TRIPOS>ATOM
      1 PA         59.9670   -0.2880   27.2460 P.3       1 AP5         0.2978
      2 O1A        58.7670   -0.2170   26.4030 O.co2     1 AP5        -0.6127
      3 O2A        60.9390    0.7530   26.8720 O.co2     1 AP5        -0.6127
      4 O3A        59.4650   -0.1300   28.7060 O.3       1 AP5        -0.1265
      5 PB         59.9780    0.7730   29.9000 P.3       1 AP5         0.3361
      6 O1B        61.3300    1.3790   29.7020 O.co2     1 AP5        -0.6079
      7 O2B        59.9230   -0.0610   31.1690 O.co2     1 AP5        -0.6079
      8 O3B        59.0000    1.9660   30.0260 O.3       1 AP5        -0.1210
      9 PG         57.4150    1.9290   30.0390 P.3       1 AP5         0.3367
     10 O1G        56.8100    2.1670   28.6570 O.co2     1 AP5        -0.6078
     11 O2G        56.8580    0.6890   30.7280 O.co2     1 AP5        -0.6078
     12 O3G        57.1840    3.1740   30.9520 O.3       1 AP5        -0.1210
     13 PD         57.2120    4.7310   30.5310 P.3       1 AP5         0.3361
     14 O1D        58.2480    5.4230   31.3790 O.co2     1 AP5        -0.6079
     15 O2D        57.3740    5.0460   29.0570 O.co2     1 AP5        -0.6079
     16 O3D        55.7700    5.1020   31.0770 O.3       1 AP5        -0.1265
     17 PE         54.5100    5.8730   30.5070 P.3       1 AP5         0.2978
     18 O1E        54.9740    7.1920   29.9000 O.co2     1 AP5        -0.6127
     19 O2E        53.6800    5.0180   29.6150 O.co2     1 AP5        -0.6127
     20 O5F        60.6150   -1.7510   27.1380 O.3       1 AP5        -0.2476
     21 C5F        59.7290   -2.8990   27.3100 C.3       1 AP5         0.1128
     22 C4F        60.6020   -4.1450   27.1810 C.3       1 AP5         0.1189
     23 O4F        61.2190   -4.1500   26.0290 O.3       1 AP5        -0.3364
     24 C3F        61.7510   -4.0380   28.1990 C.3       1 AP5         0.1149
     25 O3F        61.3700   -4.4390   29.4210 O.3       1 AP5        -0.3864
     26 C2F        62.7710   -4.9990   27.5660 C.3       1 AP5         0.1385
     27 O2F        62.2490   -6.3710   27.7580 O.3       1 AP5        -0.3836
     28 C1F        62.7130   -4.6540   26.3180 C.3       1 AP5         0.2010
     29 N9A        63.5870   -3.5720   25.9980 N.pl3     1 AP5        -0.1919
     30 C8A        63.1810   -2.3200   25.7040 C.2       1 AP5         0.1123
     31 N7A        64.2800   -1.5670   25.4390 N.2       1 AP5        -0.2958
     32 C5A        65.3720   -2.3720   25.5700 C.ar      1 AP5         0.1045
     33 C6A        66.7410   -2.1470   25.4170 C.ar      1 AP5         0.1298
     34 N6A        67.4000   -0.9270   25.0700 N.pl3     1 AP5        -0.3152
     35 N1A        67.6020   -3.1600   25.6150 N.ar      1 AP5        -0.2698
     36 C2A        67.1490   -4.3990   25.9580 C.ar      1 AP5         0.0533
     37 N3A        65.8140   -4.6160   26.1080 N.ar      1 AP5        -0.2714
     38 C4A        64.9380   -3.5990   25.9070 C.ar      1 AP5         0.1613
     39 O5J        53.6720    6.1370   31.8340 O.3       1 AP5        -0.2476
     40 C5J        53.4160    4.9970   32.6770 C.3       1 AP5         0.1128
     41 C4J        52.0490    5.1450   33.3850 C.3       1 AP5         0.1189
     42 O4J        52.0790    6.1150   34.2810 O.3       1 AP5        -0.3364
     43 C3J        50.9470    5.5260   32.3780 C.3       1 AP5         0.1149
     44 O3J        49.7360    4.9820   32.7460 O.3       1 AP5        -0.3864
     45 C2J        50.9390    7.0680   32.4950 C.3       1 AP5         0.1385
     46 O2J        49.6380    7.5880   31.9990 O.3       1 AP5        -0.3836
     47 C1J        51.1460    7.3000   33.7660 C.3       1 AP5         0.2010
     48 N9B        51.9200    8.4990   33.9980 N.pl3     1 AP5        -0.1919
     49 C8B        52.9180    9.0490   33.2680 C.2       1 AP5         0.1123
     50 N7B        53.3550   10.1690   33.9070 N.2       1 AP5        -0.2958
     51 C5B        52.6080   10.2800   35.0540 C.ar      1 AP5         0.1045
     52 C6B        52.6610   11.2440   36.0510 C.ar      1 AP5         0.1298
     53 N6B        53.4620   12.4420   36.2750 N.pl3     1 AP5        -0.3152
     54 N1B        51.8370   11.1680   37.0980 N.ar      1 AP5        -0.2698
     55 C2B        50.9340   10.1500   37.2060 C.ar      1 AP5         0.0533
     56 N3B        50.8730    9.1810   36.2140 N.ar      1 AP5        -0.2714
     57 C4B        51.7290    9.2670   35.1390 C.ar      1 AP5         0.1613
     58 H          58.9510   -2.8982   26.5324 H         1 AP5         0.0648
     59 H          59.2556   -2.8681   28.3024 H         1 AP5         0.0648
     60 H          60.0034   -5.0564   27.3260 H         1 AP5         0.0651
     61 H          62.1454   -3.0129   28.2590 H         1 AP5         0.0648
     62 H          61.0878   -5.3452   29.3820 H         1 AP5         0.2100
     63 H          63.7833   -4.8938   27.9834 H         1 AP5         0.0676
     64 H          62.1541   -6.5454   28.6871 H         1 AP5         0.2101
     65 H          62.9576   -5.5216   25.6876 H         1 AP5         0.0996
     66 H          62.1492   -1.9724   25.6827 H         1 AP5         0.1349
     67 H          68.4266   -0.9008   24.9903 H         1 AP5         0.1820
     68 H          66.8483   -0.0741   24.8996 H         1 AP5         0.1820
     69 H          67.8513   -5.2104   26.1111 H         1 AP5         0.0996
     70 H          54.2099    4.9210   33.4345 H         1 AP5         0.0648
     71 H          53.4082    4.0855   32.0613 H         1 AP5         0.0648
     72 H          51.7960    4.1927   33.8740 H         1 AP5         0.0651
     73 H          51.2018    5.2022   31.3581 H         1 AP5         0.0648
     74 H          49.0732    5.2296   32.1121 H         1 AP5         0.2100
     75 H          51.7508    7.5089   31.8978 H         1 AP5         0.0676
     76 H          49.5231    7.3357   31.0903 H         1 AP5         0.2101
     77 H          50.1907    7.3421   34.3097 H         1 AP5         0.0996
     78 H          53.3063    8.6610   32.3275 H         1 AP5         0.1349
     79 H          53.3099   13.0129   37.1187 H         1 AP5         0.1820
     80 H          54.1798   12.7172   35.5895 H         1 AP5         0.1820
     81 H          50.2691   10.0987   38.0606 H         1 AP5         0.0996
@<TRIPOS>BOND
     1    1    2 ar 
     2    1    3 ar 
     3    1    4 1  
     4    1   20 1  
     5    4    5 1  
     6    5    6 ar 
     7    5    7 ar 
     8    5    8 1  
     9    8    9 1  
    10    9   10 ar 
    11    9   11 ar 
    12    9   12 1  
    13   12   13 1  
    14   13   14 ar 
    15   13   15 ar 
    16   13   16 1  
    17   16   17 1  
    18   17   18 ar 
    19   17   19 ar 
    20   17   39 1  
    21   20   21 1  
    22   21   22 1  
    23   22   23 1  
    24   22   24 1  
    25   23   28 1  
    26   24   25 1  
    27   24   26 1  
    28   26   27 1  
    29   26   28 1  
    30   28   29 1  
    31   29   30 1  
    32   29   38 1  
    33   30   31 2  
    34   31   32 1  
    35   32   33 ar 
    36   32   38 ar 
    37   33   34 1  
    38   33   35 ar 
    39   35   36 ar 
    40   36   37 ar 
    41   37   38 ar 
    42   39   40 1  
    43   40   41 1  
    44   41   42 1  
    45   41   43 1  
    46   42   47 1  
    47   43   44 1  
    48   43   45 1  
    49   45   46 1  
    50   45   47 1  
    51   47   48 1  
    52   48   49 1  
    53   48   57 1  
    54   49   50 2  
    55   50   51 1  
    56   51   52 ar 
    57   51   57 ar 
    58   52   53 1  
    59   52   54 ar 
    60   54   55 ar 
    61   55   56 ar 
    62   56   57 ar 
    63   21   58 1  
    64   21   59 1  
    65   22   60 1  
    66   24   61 1  
    67   25   62 1  
    68   26   63 1  
    69   27   64 1  
    70   28   65 1  
    71   30   66 1  
    72   34   67 1  
    73   34   68 1  
    74   36   69 1  
    75   40   70 1  
    76   40   71 1  
    77   41   72 1  
    78   43   73 1  
    79   44   74 1  
    80   45   75 1  
    81   46   76 1  
    82   47   77 1  
    83   49   78 1  
    84   53   79 1  
    85   53   80 1  
    86   55   81 1  
@<TRIPOS>SUBSTRUCTURE
     1 AP5         1

