4w5j_ligand
  -I-interpret- 

 86 91  0  0  0  0  0  0  0  0999 V2000
   59.9670   -0.2880   27.2460 P   0  0  0  0  0
   58.7670   -0.2170   26.4030 O   0  0  0  0  0
   60.9390    0.7530   26.8720 O   0  0  0  0  0
   59.4650   -0.1300   28.7060 O   0  0  0  0  0
   59.9780    0.7730   29.9000 P   0  0  0  0  0
   61.3300    1.3790   29.7020 O   0  0  0  0  0
   59.9230   -0.0610   31.1690 O   0  0  0  0  0
   59.0000    1.9660   30.0260 O   0  0  0  0  0
   57.4150    1.9290   30.0390 P   0  0  0  0  0
   56.8100    2.1670   28.6570 O   0  0  0  0  0
   56.8580    0.6890   30.7280 O   0  0  0  0  0
   57.1840    3.1740   30.9520 O   0  0  0  0  0
   57.2120    4.7310   30.5310 P   0  0  0  0  0
   58.2480    5.4230   31.3790 O   0  0  0  0  0
   57.3740    5.0460   29.0570 O   0  0  0  0  0
   55.7700    5.1020   31.0770 O   0  0  0  0  0
   54.5100    5.8730   30.5070 P   0  0  0  0  0
   54.9740    7.1920   29.9000 O   0  0  0  0  0
   53.6800    5.0180   29.6150 O   0  0  0  0  0
   60.6150   -1.7510   27.1380 O   0  0  0  0  0
   59.7290   -2.8990   27.3100 C   0  0  0  0  0
   60.6020   -4.1450   27.1810 C   0  0  0  0  0
   61.2190   -4.1500   26.0290 O   0  0  0  0  0
   61.7510   -4.0380   28.1990 C   0  0  0  0  0
   61.3700   -4.4390   29.4210 O   0  0  0  0  0
   62.7710   -4.9990   27.5660 C   0  0  0  0  0
   62.2490   -6.3710   27.7580 O   0  0  0  0  0
   62.7130   -4.6540   26.3180 C   0  0  0  0  0
   63.5870   -3.5720   25.9980 N   0  0  0  0  0
   63.1810   -2.3200   25.7040 C   0  0  0  0  0
   64.2800   -1.5670   25.4390 N   0  0  0  0  0
   65.3720   -2.3720   25.5700 C   0  0  0  0  0
   66.7410   -2.1470   25.4170 C   0  0  0  0  0
   67.4000   -0.9270   25.0700 N   0  0  0  0  0
   67.6020   -3.1600   25.6150 N   0  0  0  0  0
   67.1490   -4.3990   25.9580 C   0  0  0  0  0
   65.8140   -4.6160   26.1080 N   0  0  0  0  0
   64.9380   -3.5990   25.9070 C   0  0  0  0  0
   53.6720    6.1370   31.8340 O   0  0  0  0  0
   53.4160    4.9970   32.6770 C   0  0  0  0  0
   52.0490    5.1450   33.3850 C   0  0  0  0  0
   52.0790    6.1150   34.2810 O   0  0  0  0  0
   50.9470    5.5260   32.3780 C   0  0  0  0  0
   49.7360    4.9820   32.7460 O   0  0  0  0  0
   50.9390    7.0680   32.4950 C   0  0  0  0  0
   49.6380    7.5880   31.9990 O   0  0  0  0  0
   51.1460    7.3000   33.7660 C   0  0  0  0  0
   51.9200    8.4990   33.9980 N   0  0  0  0  0
   52.9180    9.0490   33.2680 C   0  0  0  0  0
   53.3550   10.1690   33.9070 N   0  0  0  0  0
   52.6080   10.2800   35.0540 C   0  0  0  0  0
   52.6610   11.2440   36.0510 C   0  0  0  0  0
   53.4620   12.4420   36.2750 N   0  0  0  0  0
   51.8370   11.1680   37.0980 N   0  0  0  0  0
   50.9340   10.1500   37.2060 C   0  0  0  0  0
   50.8730    9.1810   36.2140 N   0  0  0  0  0
   51.7290    9.2670   35.1390 C   0  0  0  0  0
   61.7123    0.6849   27.4368 H   0  0  0  0  0
   59.0443   -0.4351   31.2669 H   0  0  0  0  0
   57.1957    2.9572   28.2718 H   0  0  0  0  0
   56.6961    4.5862   28.5563 H   0  0  0  0  0
   55.4992    7.6723   30.5443 H   0  0  0  0  0
   58.9386   -2.8974   26.5594 H   0  0  0  0  0
   59.2348   -2.8680   28.2811 H   0  0  0  0  0
   59.9620   -5.0171   27.3150 H   0  0  0  0  0
   62.1247   -3.0275   28.3640 H   0  0  0  0  0
   62.1095   -4.3588   30.0279 H   0  0  0  0  0
   63.7834   -4.9650   27.9684 H   0  0  0  0  0
   62.8620   -7.0021   27.3738 H   0  0  0  0  0
   63.0072   -5.5169   25.7205 H   0  0  0  0  0
   62.1482   -1.9721   25.6827 H   0  0  0  0  0
   66.8537   -0.0823   24.9013 H   0  0  0  0  0
   68.4166   -0.9011   24.9911 H   0  0  0  0  0
   67.8552   -5.2149   26.1119 H   0  0  0  0  0
   54.2005    4.9300   33.4308 H   0  0  0  0  0
   53.4013    4.0972   32.0620 H   0  0  0  0  0
   51.8414    4.1836   33.8549 H   0  0  0  0  0
   51.1189    5.1648   31.3641 H   0  0  0  0  0
   49.0662    5.2322   32.1054 H   0  0  0  0  0
   51.6987    7.5694   31.8954 H   0  0  0  0  0
   49.6293    8.5453   32.0701 H   0  0  0  0  0
   50.1772    7.3922   34.2569 H   0  0  0  0  0
   53.3067    8.6606   32.3266 H   0  0  0  0  0
   54.1728   12.7145   35.5961 H   0  0  0  0  0
   53.3114   13.0073   37.1105 H   0  0  0  0  0
   50.2654   10.0984   38.0653 H   0  0  0  0  0
  1  2  2  0  0  0
  1  3  1  0  0  0
  1  4  1  0  0  0
  1 20  1  0  0  0
  4  5  1  0  0  0
  5  6  2  0  0  0
  5  7  1  0  0  0
  5  8  1  0  0  0
  8  9  1  0  0  0
  9 10  1  0  0  0
  9 11  2  0  0  0
  9 12  1  0  0  0
 12 13  1  0  0  0
 13 14  2  0  0  0
 13 15  1  0  0  0
 13 16  1  0  0  0
 16 17  1  0  0  0
 17 18  1  0  0  0
 17 19  2  0  0  0
 17 39  1  0  0  0
 20 21  1  0  0  0
 21 22  1  0  0  0
 22 23  1  0  0  0
 22 24  1  0  0  0
 23 28  1  0  0  0
 24 25  1  0  0  0
 24 26  1  0  0  0
 26 27  1  0  0  0
 26 28  1  0  0  0
 28 29  1  0  0  0
 29 30  4  0  0  0
 29 38  4  0  0  0
 30 31  4  0  0  0
 31 32  4  0  0  0
 32 33  4  0  0  0
 32 38  4  0  0  0
 33 34  1  0  0  0
 33 35  4  0  0  0
 35 36  4  0  0  0
 36 37  4  0  0  0
 37 38  4  0  0  0
 39 40  1  0  0  0
 40 41  1  0  0  0
 41 42  1  0  0  0
 41 43  1  0  0  0
 42 47  1  0  0  0
 43 44  1  0  0  0
 43 45  1  0  0  0
 45 46  1  0  0  0
 45 47  1  0  0  0
 47 48  1  0  0  0
 48 49  4  0  0  0
 48 57  4  0  0  0
 49 50  4  0  0  0
 50 51  4  0  0  0
 51 52  4  0  0  0
 51 57  4  0  0  0
 52 53  1  0  0  0
 52 54  4  0  0  0
 54 55  4  0  0  0
 55 56  4  0  0  0
 56 57  4  0  0  0
  3 58  1  0  0  0
  7 59  1  0  0  0
 10 60  1  0  0  0
 15 61  1  0  0  0
 18 62  1  0  0  0
 21 63  1  0  0  0
 21 64  1  0  0  0
 22 65  1  0  0  0
 24 66  1  0  0  0
 25 67  1  0  0  0
 26 68  1  0  0  0
 27 69  1  0  0  0
 28 70  1  0  0  0
 30 71  1  0  0  0
 34 72  1  0  0  0
 34 73  1  0  0  0
 36 74  1  0  0  0
 40 75  1  0  0  0
 40 76  1  0  0  0
 41 77  1  0  0  0
 43 78  1  0  0  0
 44 79  1  0  0  0
 45 80  1  0  0  0
 46 81  1  0  0  0
 47 82  1  0  0  0
 49 83  1  0  0  0
 53 84  1  0  0  0
 53 85  1  0  0  0
 55 86  1  0  0  0
M  END
$$$$
