2nmx_ligand
  -I-interpret- 

 30 30  0  0  0  0  0  0  0  0999 V2000
  -17.1190   -0.3350  -19.2180 C   0  0  0  0  0
  -17.2670   -1.1950  -18.1260 C   0  0  0  0  0
  -17.8370   -0.6910  -16.9680 C   0  0  0  0  0
  -18.2630    0.6470  -16.8510 C   0  0  0  0  0
  -18.1000    1.4990  -17.9670 C   0  0  0  0  0
  -17.5280    1.0280  -19.1630 C   0  0  0  0  0
  -16.3990   -0.9430  -20.7100 S   0  0  0  0  0
  -16.0470    0.1710  -21.5580 O   0  0  0  0  0
  -17.3810   -1.8790  -21.2420 O   0  0  0  0  0
  -15.0290   -1.7550  -20.3310 N   0  0  0  0  0
  -18.8660    1.1360  -15.5610 C   0  0  0  0  0
  -17.7940    1.6190  -14.5950 C   0  0  0  0  0
  -18.4260    2.0720  -13.3570 N   0  0  0  0  0
  -18.7940    3.3740  -13.1580 C   0  0  0  0  0
  -19.4340    3.6210  -11.8050 C   0  0  0  0  0
  -18.6280    4.2840  -13.9800 O   0  0  0  0  0
  -16.9428   -2.2340  -18.1839 H   0  0  0  0  0
  -17.9608   -1.3561  -16.1134 H   0  0  0  0  0
  -18.4227    2.5380  -17.8999 H   0  0  0  0  0
  -17.4016    1.6869  -20.0221 H   0  0  0  0  0
  -14.1302   -1.4351  -20.6918 H   0  0  0  0  0
  -15.0742   -2.5808  -19.7341 H   0  0  0  0  0
  -19.4046    0.3104  -15.0958 H   0  0  0  0  0
  -19.5318    1.9696  -15.7842 H   0  0  0  0  0
  -17.2424    2.4441  -15.0456 H   0  0  0  0  0
  -17.1065    0.8021  -14.3755 H   0  0  0  0  0
  -18.5985    1.3931  -12.6156 H   0  0  0  0  0
  -18.8390    4.3463  -11.2500 H   0  0  0  0  0
  -20.4426    4.0092  -11.9470 H   0  0  0  0  0
  -19.4787    2.6844  -11.2492 H   0  0  0  0  0
  1  2  4  0  0  0
  1  6  4  0  0  0
  1  7  1  0  0  0
  2  3  4  0  0  0
  3  4  4  0  0  0
  4  5  4  0  0  0
  4 11  1  0  0  0
  5  6  4  0  0  0
  7  8  2  0  0  0
  7  9  2  0  0  0
  7 10  1  0  0  0
 11 12  1  0  0  0
 12 13  1  0  0  0
 13 14  1  0  0  0
 14 15  1  0  0  0
 14 16  2  0  0  0
  2 17  1  0  0  0
  3 18  1  0  0  0
  5 19  1  0  0  0
  6 20  1  0  0  0
 10 21  1  0  0  0
 10 22  1  0  0  0
 11 23  1  0  0  0
 11 24  1  0  0  0
 12 25  1  0  0  0
 12 26  1  0  0  0
 13 27  1  0  0  0
 15 28  1  0  0  0
 15 29  1  0  0  0
 15 30  1  0  0  0
M  END
$$$$
