6ami_ligand
  -I-interpret- 

 27 28  0  0  0  0  0  0  0  0999 V2000
   77.8200   17.4010  193.2730 N   0  3  0  0  0
   78.9350   17.5970  194.2620 C   0  0  0  0  0
   78.7950   18.8620  195.1150 C   0  0  0  0  0
   78.1220   19.8250  194.7500 O   0  0  0  0  0
   80.2920   17.5900  193.5470 C   0  0  0  0  0
   80.4050   18.5520  192.4140 C   0  0  0  0  0
   80.4540   19.9140  192.4810 C   0  0  0  0  0
   80.4950   18.2120  191.0320 C   0  0  0  0  0
   80.5590   20.4450  191.2180 N   0  0  0  0  0
   80.5900   19.4210  190.3080 C   0  0  0  0  0
   80.5060   16.9980  190.3330 C   0  0  0  0  0
   80.6920   19.4530  188.9100 C   0  0  0  0  0
   80.6070   17.0260  188.9480 C   0  0  0  0  0
   80.6990   18.2480  188.2500 C   0  0  0  0  0
   79.3660   18.9590  196.2030 O   0  0  0  0  0
   76.9262   17.4082  193.7643 H   0  0  0  0  0
   77.8386   18.1560  192.5874 H   0  0  0  0  0
   77.9413   16.5063  192.7986 H   0  0  0  0  0
   78.8722   16.7561  194.9527 H   0  0  0  0  0
   80.4253   16.5919  193.1298 H   0  0  0  0  0
   81.0404   17.8797  194.2846 H   0  0  0  0  0
   80.4155   20.4958  193.4019 H   0  0  0  0  0
   80.4366   16.0496  190.8658 H   0  0  0  0  0
   80.7629   20.3962  188.3684 H   0  0  0  0  0
   80.6153   16.0886  188.3918 H   0  0  0  0  0
   80.7774   18.2362  187.1629 H   0  0  0  0  0
   79.8560   18.1524  196.3790 H   0  0  0  0  0
  1  2  1  0  0  0
  2  3  1  0  0  0
  2  5  1  0  0  0
  3  4  2  0  0  0
  3 15  1  0  0  0
  5  6  1  0  0  0
  6  7  4  0  0  0
  6  8  4  0  0  0
  7  9  4  0  0  0
  8 10  4  0  0  0
  8 11  4  0  0  0
  9 10  4  0  0  0
 10 12  4  0  0  0
 11 13  4  0  0  0
 12 14  4  0  0  0
 13 14  4  0  0  0
  1 16  1  0  0  0
  1 17  1  0  0  0
  1 18  1  0  0  0
  2 19  1  0  0  0
  5 20  1  0  0  0
  5 21  1  0  0  0
  7 22  1  0  0  0
 11 23  1  0  0  0
 12 24  1  0  0  0
 13 25  1  0  0  0
 14 26  1  0  0  0
 15 27  1  0  0  0
M  END
$$$$
