1ezf_ligand
  -I-interpret- 

 71 74  0  0  0  0  0  0  0  0999 V2000
   -9.8250   43.3230   32.4290 C   0  0  0  0  0
  -10.8190   42.5380   33.3050 C   0  0  0  0  0
  -10.2330   41.8570   34.5510 C   0  0  0  0  0
  -10.2640   42.5110   35.8050 C   0  0  0  0  0
   -9.7560   41.8760   36.9520 C   0  0  0  0  0
   -9.2170   40.5750   36.8490 C   0  0  0  0  0
   -9.1820   39.9110   35.6060 C   0  0  0  0  0
   -8.6750   38.5990   35.5140 C   0  0  0  0  0
   -8.6630   37.9340   34.2770 C   0  0  0  0  0
   -9.1480   38.5740   33.1260 C   0  0  0  0  0
   -9.6550   39.8770   33.2120 C   0  0  0  0  0
   -9.6850   40.5540   34.4480 C   0  0  0  0  0
  -11.9650   43.3530   33.6390 O   0  0  0  0  0
  -12.5400   44.0730   32.5250 C   0  0  0  0  0
  -13.9540   44.5680   32.9380 C   0  0  0  0  0
  -14.4520   45.7140   32.0960 C   0  0  0  0  0
  -13.6840   46.6030   31.7710 O   0  0  0  0  0
  -15.7550   45.7020   31.7270 N   0  0  0  0  0
  -16.2950   46.7880   30.9000 C   0  0  0  0  0
  -16.8620   46.2850   29.5470 C   0  0  0  0  0
  -17.6300   47.3780   28.8310 C   0  0  0  0  0
  -18.9440   47.1510   28.6390 O   0  0  0  0  0
  -17.0870   48.4140   28.4520 O   0  0  0  0  0
  -17.3750   47.5360   31.6510 C   0  0  0  0  0
  -18.3330   46.8370   32.2850 O   0  0  0  0  0
  -17.3720   48.7610   31.6660 O   0  0  0  0  0
  -12.5580   43.2290   31.2560 C   0  0  0  0  0
  -13.6180   42.7150   30.9310 O   0  0  0  0  0
  -11.3870   43.0760   30.5430 N   0  0  0  0  0
  -10.1390   43.5610   31.0700 C   0  0  0  0  0
   -9.2300   44.2480   30.2510 C   0  0  0  0  0
   -8.0360   44.7280   30.7840 C   0  0  0  0  0
   -7.7310   44.5240   32.1440 C   0  0  0  0  0
   -6.2490   45.1490   32.8000 Cl  0  0  0  0  0
   -8.6210   43.8120   32.9640 C   0  0  0  0  0
  -11.4260   42.4940   29.1890 C   0  0  0  0  0
  -11.1420   40.9710   28.9980 C   0  0  0  0  0
  -12.2030   40.1100   29.7570 C   0  0  0  0  0
  -11.1940   40.5860   27.4850 C   0  0  0  0  0
   -9.7300   40.5860   29.5540 C   0  0  0  0  0
  -11.1293   41.7025   32.6775 H   0  0  0  0  0
  -10.6844   43.5137   35.8825 H   0  0  0  0  0
   -9.7781   42.3853   37.9155 H   0  0  0  0  0
   -8.8249   40.0802   37.7376 H   0  0  0  0  0
   -8.2918   38.0999   36.4040 H   0  0  0  0  0
   -8.2757   36.9173   34.2107 H   0  0  0  0  0
   -9.1302   38.0577   32.1662 H   0  0  0  0  0
  -10.0294   40.3715   32.3157 H   0  0  0  0  0
  -11.9219   44.9380   32.2847 H   0  0  0  0  0
  -13.8932   44.9177   33.9686 H   0  0  0  0  0
  -14.6463   43.7364   32.8062 H   0  0  0  0  0
  -16.3617   44.9377   32.0240 H   0  0  0  0  0
  -15.4616   47.4555   30.6807 H   0  0  0  0  0
  -17.5409   45.4550   29.7425 H   0  0  0  0  0
  -16.0293   45.9754   28.9155 H   0  0  0  0  0
  -19.1759   46.2934   29.0028 H   0  0  0  0  0
  -18.1744   45.8978   32.1654 H   0  0  0  0  0
   -9.4584   44.4061   29.1970 H   0  0  0  0  0
   -7.3340   45.2642   30.1454 H   0  0  0  0  0
   -8.3788   43.6390   34.0126 H   0  0  0  0  0
  -10.6222   42.9949   28.6495 H   0  0  0  0  0
  -12.4570   42.6263   28.8608 H   0  0  0  0  0
  -12.1658   40.3446   30.8208 H   0  0  0  0  0
  -13.1964   40.3346   29.3687 H   0  0  0  0  0
  -11.9841   39.0525   29.6090 H   0  0  0  0  0
  -12.1830   40.8134   27.0873 H   0  0  0  0  0
  -10.4419   41.1566   26.9402 H   0  0  0  0  0
  -10.9932   39.5203   27.3755 H   0  0  0  0  0
   -8.9650   41.1528   29.0233 H   0  0  0  0  0
   -9.6840   40.8188   30.6179 H   0  0  0  0  0
   -9.5614   39.5193   29.4066 H   0  0  0  0  0
  1 35  4  0  0  0
  1 30  4  0  0  0
  1  2  1  0  0  0
  2 13  1  0  0  0
  2  3  1  0  0  0
  3 12  4  0  0  0
  3  4  4  0  0  0
  4  5  4  0  0  0
  5  6  4  0  0  0
  6  7  4  0  0  0
  7 12  4  0  0  0
  7  8  4  0  0  0
  8  9  4  0  0  0
  9 10  4  0  0  0
 10 11  4  0  0  0
 11 12  4  0  0  0
 13 14  1  0  0  0
 14 27  1  0  0  0
 14 15  1  0  0  0
 15 16  1  0  0  0
 16 18  1  0  0  0
 16 17  2  0  0  0
 18 19  1  0  0  0
 19 24  1  0  0  0
 19 20  1  0  0  0
 20 21  1  0  0  0
 21 23  2  0  0  0
 21 22  1  0  0  0
 24 26  2  0  0  0
 24 25  1  0  0  0
 27 29  1  0  0  0
 27 28  2  0  0  0
 29 36  1  0  0  0
 29 30  1  0  0  0
 30 31  4  0  0  0
 31 32  4  0  0  0
 32 33  4  0  0  0
 33 35  4  0  0  0
 33 34  1  0  0  0
 36 37  1  0  0  0
 37 40  1  0  0  0
 37 39  1  0  0  0
 37 38  1  0  0  0
  2 41  1  0  0  0
  4 42  1  0  0  0
  5 43  1  0  0  0
  6 44  1  0  0  0
  8 45  1  0  0  0
  9 46  1  0  0  0
 10 47  1  0  0  0
 11 48  1  0  0  0
 14 49  1  0  0  0
 15 50  1  0  0  0
 15 51  1  0  0  0
 18 52  1  0  0  0
 19 53  1  0  0  0
 20 54  1  0  0  0
 20 55  1  0  0  0
 22 56  1  0  0  0
 25 57  1  0  0  0
 31 58  1  0  0  0
 32 59  1  0  0  0
 35 60  1  0  0  0
 36 61  1  0  0  0
 36 62  1  0  0  0
 38 63  1  0  0  0
 38 64  1  0  0  0
 38 65  1  0  0  0
 39 66  1  0  0  0
 39 67  1  0  0  0
 39 68  1  0  0  0
 40 69  1  0  0  0
 40 70  1  0  0  0
 40 71  1  0  0  0
M  END
$$$$
