4qw3_ligand
  -I-interpret- 

 53 54  0  0  0  0  0  0  0  0999 V2000
   62.9770 -133.0020   36.1800 N   0  0  0  0  0
   62.4900 -134.2160   36.4910 C   0  0  0  0  0
   62.5010 -135.2390   35.5460 C   0  0  0  0  0
   63.0250 -135.0020   34.2710 N   0  0  0  0  0
   63.5300 -133.7370   33.9550 C   0  0  0  0  0
   63.5050 -132.7320   34.9130 C   0  0  0  0  0
   61.9830 -134.4160   37.7700 C   0  0  0  0  0
   61.4350 -133.4890   38.3640 O   0  0  0  0  0
   62.1440 -135.6450   38.2930 N   0  0  0  0  0
   61.6910 -135.9480   39.6570 C   0  0  0  0  0
   60.9790 -137.2740   39.7340 C   0  0  0  0  0
   59.8300 -137.1430   38.9360 C   0  0  0  0  0
   59.7010 -137.8680   37.7480 C   0  0  0  0  0
   58.5590 -137.7350   36.9620 C   0  0  0  0  0
   57.5340 -136.8820   37.3550 C   0  0  0  0  0
   57.6530 -136.1600   38.5380 C   0  0  0  0  0
   58.7930 -136.2910   39.3260 C   0  0  0  0  0
   62.9370 -135.9940   40.5240 C   0  0  0  0  0
   64.0460 -136.1450   40.0120 O   0  0  0  0  0
   62.7190 -135.8300   41.8360 N   0  0  0  0  0
   63.8380 -135.8190   42.7840 C   0  0  0  0  0
   63.9000 -134.4920   43.5080 C   0  0  0  0  0
   63.9550 -133.3430   42.4810 C   0  0  0  0  0
   63.8120 -132.0150   43.2350 C   0  0  0  0  0
   65.2710 -133.3670   41.6860 C   0  0  0  0  0
   63.6930 -136.9310   43.8330 B   0  0  0  0  0
   62.4230 -136.8380   44.4840 O   0  0  0  0  0
   63.8120 -138.2210   43.2270 O   0  0  0  0  0
   62.1024 -136.2214   35.7992 H   0  0  0  0  0
   63.9402 -133.5412   32.9643 H   0  0  0  0  0
   63.8937 -131.7407   34.6796 H   0  0  0  0  0
   62.5862 -136.3756   37.7353 H   0  0  0  0  0
   60.9827 -135.1885   39.9879 H   0  0  0  0  0
   60.7191 -137.5236   40.7627 H   0  0  0  0  0
   61.6153 -138.0851   39.3800 H   0  0  0  0  0
   60.4988 -138.5414   37.4349 H   0  0  0  0  0
   58.4685 -138.3018   36.0353 H   0  0  0  0  0
   56.6408 -136.7794   36.7387 H   0  0  0  0  0
   56.8515 -135.4899   38.8488 H   0  0  0  0  0
   58.8775 -135.7251   40.2538 H   0  0  0  0  0
   61.7656 -135.7117   42.1787 H   0  0  0  0  0
   64.7495 -135.9814   42.2087 H   0  0  0  0  0
   64.7929 -134.4620   44.1325 H   0  0  0  0  0
   63.0129 -134.3781   44.1311 H   0  0  0  0  0
   63.1420 -133.4606   41.7646 H   0  0  0  0  0
   62.8587 -131.9994   43.7632 H   0  0  0  0  0
   64.6275 -131.9158   43.9514 H   0  0  0  0  0
   63.8486 -131.1894   42.5243 H   0  0  0  0  0
   66.1108 -133.2598   42.3726 H   0  0  0  0  0
   65.3546 -134.3140   41.1527 H   0  0  0  0  0
   65.2772 -132.5442   40.9711 H   0  0  0  0  0
   62.3468 -137.5385   45.1360 H   0  0  0  0  0
   63.7184 -138.8993   43.8999 H   0  0  0  0  0
  1  2  4  0  0  0
  1  6  4  0  0  0
  2  3  4  0  0  0
  2  7  1  0  0  0
  3  4  4  0  0  0
  4  5  4  0  0  0
  5  6  4  0  0  0
  7  8  2  0  0  0
  7  9  1  0  0  0
  9 10  1  0  0  0
 10 11  1  0  0  0
 10 18  1  0  0  0
 11 12  1  0  0  0
 12 13  4  0  0  0
 12 17  4  0  0  0
 13 14  4  0  0  0
 14 15  4  0  0  0
 15 16  4  0  0  0
 16 17  4  0  0  0
 18 19  2  0  0  0
 18 20  1  0  0  0
 20 21  1  0  0  0
 21 22  1  0  0  0
 21 26  1  0  0  0
 22 23  1  0  0  0
 23 24  1  0  0  0
 23 25  1  0  0  0
 26 27  1  0  0  0
 26 28  1  0  0  0
  3 29  1  0  0  0
  5 30  1  0  0  0
  6 31  1  0  0  0
  9 32  1  0  0  0
 10 33  1  0  0  0
 11 34  1  0  0  0
 11 35  1  0  0  0
 13 36  1  0  0  0
 14 37  1  0  0  0
 15 38  1  0  0  0
 16 39  1  0  0  0
 17 40  1  0  0  0
 20 41  1  0  0  0
 21 42  1  0  0  0
 22 43  1  0  0  0
 22 44  1  0  0  0
 23 45  1  0  0  0
 24 46  1  0  0  0
 24 47  1  0  0  0
 24 48  1  0  0  0
 25 49  1  0  0  0
 25 50  1  0  0  0
 25 51  1  0  0  0
 27 52  1  0  0  0
 28 53  1  0  0  0
M  END
$$$$
