### 
### Created by X-TOOL on Mon Sep 10 21:13:23 2018
### 

@<TRIPOS>MOLECULE
4qw3_ligand
   53    54     1     0     0
SMALL
GAST_HUCK


@<TRIPOS>ATOM
      1 N1         62.9770 -133.0020   36.1800 N.ar      1 BO2        -0.2509
      2 C2         62.4900 -134.2160   36.4910 C.ar      1 BO2         0.1532
      3 C3         62.5010 -135.2390   35.5460 C.ar      1 BO2         0.0620
      4 N4         63.0250 -135.0020   34.2710 N.ar      1 BO2        -0.2653
      5 C5         63.5300 -133.7370   33.9550 C.ar      1 BO2         0.0462
      6 C6         63.5050 -132.7320   34.9130 C.ar      1 BO2         0.0475
      7 C7         61.9830 -134.4160   37.7700 C.2       1 BO2         0.2349
      8 O8         61.4350 -133.4890   38.3640 O.2       1 BO2        -0.3755
      9 N9         62.1440 -135.6450   38.2930 N.am      1 BO2        -0.2600
     10 C10        61.6910 -135.9480   39.6570 C.3       1 BO2         0.1378
     11 C11        60.9790 -137.2740   39.7340 C.3       1 BO2         0.0213
     12 C12        59.8300 -137.1430   38.9360 C.ar      1 BO2        -0.0385
     13 C13        59.7010 -137.8680   37.7480 C.ar      1 BO2        -0.0601
     14 C14        58.5590 -137.7350   36.9620 C.ar      1 BO2        -0.0686
     15 C15        57.5340 -136.8820   37.3550 C.ar      1 BO2        -0.0687
     16 C16        57.6530 -136.1600   38.5380 C.ar      1 BO2        -0.0686
     17 C17        58.7930 -136.2910   39.3260 C.ar      1 BO2        -0.0601
     18 C18        62.9370 -135.9940   40.5240 C.2       1 BO2         0.1755
     19 O19        64.0460 -136.1450   40.0120 O.2       1 BO2        -0.3969
     20 N20        62.7190 -135.8300   41.8360 N.am      1 BO2        -0.4361
     21 C21        63.8380 -135.8190   42.7840 C.3       1 BO2        -0.2261
     22 C22        63.9000 -134.4920   43.5080 C.3       1 BO2        -0.1585
     23 C23        63.9550 -133.3430   42.4810 C.3       1 BO2        -0.0721
     24 C24        63.8120 -132.0150   43.2350 C.3       1 BO2        -0.0649
     25 C25        65.2710 -133.3670   41.6860 C.3       1 BO2        -0.0649
     26 B26        63.6930 -136.9310   43.8330 B         1 BO2         3.0000
     27 O27        62.4230 -136.8380   44.4840 O.3       1 BO2        -0.8710
     28 O28        63.8120 -138.2210   43.2270 O.3       1 BO2        -0.8710
     29 H          62.1046 -136.2160   35.7979 H         1 BO2         0.0978
     30 H          63.9379 -133.5423   32.9697 H         1 BO2         0.0958
     31 H          63.8915 -131.7462   34.6809 H         1 BO2         0.0941
     32 H          62.5776 -136.3613   37.7462 H         1 BO2         0.1883
     33 H          61.0138 -135.1550   40.0070 H         1 BO2         0.0823
     34 H          60.6987 -137.4976   40.7739 H         1 BO2         0.0474
     35 H          61.6235 -138.0771   39.3472 H         1 BO2         0.0474
     36 H          60.4945 -138.5377   37.4366 H         1 BO2         0.0557
     37 H          58.4690 -138.2986   36.0404 H         1 BO2         0.0599
     38 H          56.6457 -136.7800   36.7421 H         1 BO2         0.0559
     39 H          56.8559 -135.4936   38.8471 H         1 BO2         0.0599
     40 H          58.8770 -135.7282   40.2486 H         1 BO2         0.0557
     41 H          61.7843 -135.7140   42.1719 H         1 BO2         0.1459
     42 H          64.7788 -135.9780   42.2367 H         1 BO2        -0.1822
     43 H          64.8001 -134.4615   44.1396 H         1 BO2        -0.0063
     44 H          63.0058 -134.3769   44.1382 H         1 BO2        -0.0063
     45 H          63.1171 -133.4514   41.7766 H         1 BO2         0.0272
     46 H          63.8488 -131.1809   42.5188 H         1 BO2         0.0232
     47 H          64.6344 -131.9136   43.9584 H         1 BO2         0.0232
     48 H          62.8502 -131.9979   43.7685 H         1 BO2         0.0232
     49 H          65.3590 -134.3243   41.1514 H         1 BO2         0.0232
     50 H          66.1191 -133.2538   42.3773 H         1 BO2         0.0232
     51 H          65.2763 -132.5402   40.9605 H         1 BO2         0.0232
     52 H          62.3596 -137.5125   45.1500 H         1 BO2        -0.1290
     53 H          63.7447 -138.8916   43.8965 H         1 BO2        -0.1290
@<TRIPOS>BOND
     1    1    2 ar 
     2    1    6 ar 
     3    2    3 ar 
     4    2    7 1  
     5    3    4 ar 
     6    4    5 ar 
     7    5    6 ar 
     8    7    8 2  
     9    7    9 am 
    10    9   10 1  
    11   10   11 1  
    12   10   18 1  
    13   11   12 1  
    14   12   13 ar 
    15   12   17 ar 
    16   13   14 ar 
    17   14   15 ar 
    18   15   16 ar 
    19   16   17 ar 
    20   18   19 2  
    21   18   20 am 
    22   20   21 1  
    23   21   22 1  
    24   21   26 1  
    25   22   23 1  
    26   23   24 1  
    27   23   25 1  
    28   26   27 1  
    29   26   28 1  
    30    3   29 1  
    31    5   30 1  
    32    6   31 1  
    33    9   32 1  
    34   10   33 1  
    35   11   34 1  
    36   11   35 1  
    37   13   36 1  
    38   14   37 1  
    39   15   38 1  
    40   16   39 1  
    41   17   40 1  
    42   20   41 1  
    43   21   42 1  
    44   22   43 1  
    45   22   44 1  
    46   23   45 1  
    47   24   46 1  
    48   24   47 1  
    49   24   48 1  
    50   25   49 1  
    51   25   50 1  
    52   25   51 1  
    53   27   52 1  
    54   28   53 1  
@<TRIPOS>SUBSTRUCTURE
     1 BO2         1

