2i6b_ligand
  -I-interpret- 

 54 57  0  0  0  0  0  0  0  0999 V2000
    5.4310   -2.7960   30.0430 C   0  0  0  0  0
    4.4190   -3.0710   29.2520 N   0  0  0  0  0
    4.7550   -3.0830   27.9580 C   0  0  0  0  0
    5.9930   -2.8350   27.4290 C   0  0  0  0  0
    6.9530   -2.5590   28.3860 C   0  0  0  0  0
    6.6810   -2.5210   29.6860 N   0  0  0  0  0
    6.2730   -2.9550   26.0070 C   0  0  0  0  0
    6.2180   -4.2190   25.5030 C   0  0  0  0  0
    6.4990   -4.4980   24.1820 C   0  0  0  0  0
    6.8320   -3.5190   23.2900 C   0  0  0  0  0
    6.8550   -2.2340   23.7990 C   0  0  0  0  0
    6.5930   -1.9570   25.1290 C   0  0  0  0  0
    0.7700   -3.2230   25.0930 C   0  0  0  0  0
   -0.0470   -3.0390   24.0520 N   0  0  0  0  0
    0.5830   -2.9290   22.8590 C   0  0  0  0  0
    1.9640   -2.9820   22.7140 C   0  0  0  0  0
    2.7630   -3.1410   23.8310 C   0  0  0  0  0
    2.1300   -3.2900   25.0350 C   0  0  0  0  0
    0.6130   -2.5050   20.4470 C   0  0  0  0  0
   -0.2360   -2.9250   19.2490 C   0  0  0  0  0
   -1.5580   -2.4180   19.4650 O   0  0  0  0  0
   -2.1700   -3.0110   20.5860 C   0  0  0  0  0
   -1.5180   -2.4170   21.8120 C   0  0  0  0  0
   -0.1540   -2.7770   21.6690 N   0  0  0  0  0
    3.7200   -3.3910   27.0540 C   0  0  0  0  0
    2.8540   -3.4130   26.1980 C   0  0  0  0  0
    7.1100   -3.9290   21.9500 N   0  0  0  0  0
    7.6530   -2.9050   21.0350 C   0  0  0  0  0
    8.0330   -5.0450   22.1150 C   0  0  0  0  0
    8.2440   -2.2920   27.9870 N   0  0  0  0  0
    5.2218   -2.7931   31.1127 H   0  0  0  0  0
    5.9423   -5.0385   26.1667 H   0  0  0  0  0
    6.4539   -5.5317   23.8393 H   0  0  0  0  0
    7.0883   -1.4079   23.1273 H   0  0  0  0  0
    6.6425   -0.9270   25.4823 H   0  0  0  0  0
    0.3084   -3.3288   26.0747 H   0  0  0  0  0
    2.4148   -2.8987   21.7251 H   0  0  0  0  0
    3.8504   -3.1474   23.7558 H   0  0  0  0  0
    0.8531   -1.4437   20.3831 H   0  0  0  0  0
    1.5483   -3.0646   20.4587 H   0  0  0  0  0
   -0.2531   -4.0107   19.1537 H   0  0  0  0  0
    0.1813   -2.5249   18.3249 H   0  0  0  0  0
   -2.0418   -4.0933   20.5675 H   0  0  0  0  0
   -3.2425   -2.8164   20.5874 H   0  0  0  0  0
   -1.9535   -2.7901   22.7389 H   0  0  0  0  0
   -1.6605   -1.3385   21.8798 H   0  0  0  0  0
    6.9426   -2.0828   20.9493 H   0  0  0  0  0
    8.5977   -2.5310   21.4298 H   0  0  0  0  0
    7.8181   -3.3480   20.0529 H   0  0  0  0  0
    8.9265   -4.7018   22.6364 H   0  0  0  0  0
    7.5507   -5.8308   22.6964 H   0  0  0  0  0
    8.3095   -5.4341   21.1351 H   0  0  0  0  0
    8.4832   -2.2992   26.9955 H   0  0  0  0  0
    8.9609   -2.0870   28.6831 H   0  0  0  0  0
  2  1  4  0  0  0
  1  6  4  0  0  0
  3  2  4  0  0  0
  3  4  4  0  0  0
 25  3  1  0  0  0
  4  5  4  0  0  0
  4  7  1  0  0  0
  5  6  4  0  0  0
  5 30  1  0  0  0
  7  8  4  0  0  0
  7 12  4  0  0  0
  8  9  4  0  0  0
  9 10  4  0  0  0
 11 10  4  0  0  0
 10 27  1  0  0  0
 12 11  4  0  0  0
 13 14  4  0  0  0
 18 13  4  0  0  0
 14 15  4  0  0  0
 16 15  4  0  0  0
 15 24  1  0  0  0
 17 16  4  0  0  0
 18 17  4  0  0  0
 26 18  1  0  0  0
 19 20  1  0  0  0
 24 19  1  0  0  0
 20 21  1  0  0  0
 22 21  1  0  0  0
 23 22  1  0  0  0
 24 23  1  0  0  0
 25 26  3  0  0  0
 27 28  1  0  0  0
 27 29  1  0  0  0
  1 31  1  0  0  0
  8 32  1  0  0  0
  9 33  1  0  0  0
 11 34  1  0  0  0
 12 35  1  0  0  0
 13 36  1  0  0  0
 16 37  1  0  0  0
 17 38  1  0  0  0
 19 39  1  0  0  0
 19 40  1  0  0  0
 20 41  1  0  0  0
 20 42  1  0  0  0
 22 43  1  0  0  0
 22 44  1  0  0  0
 23 45  1  0  0  0
 23 46  1  0  0  0
 28 47  1  0  0  0
 28 48  1  0  0  0
 28 49  1  0  0  0
 29 50  1  0  0  0
 29 51  1  0  0  0
 29 52  1  0  0  0
 30 53  1  0  0  0
 30 54  1  0  0  0
M  END
$$$$
