3atw_ligand
  -I-interpret- 

 80 81  0  0  0  0  0  0  0  0999 V2000
    1.3530   11.1600  -17.3980 C   0  0  0  0  0
    0.3890   10.6860  -16.7880 O   0  0  0  0  0
    1.2430   11.4550  -18.8950 C   0  0  0  0  0
    2.5500   11.4260  -16.8530 N   0  0  0  0  0
    2.8270   11.2310  -15.4130 C   0  0  0  0  0
    2.3830   12.5170  -14.7190 C   0  0  0  0  0
    2.8630   13.6030  -15.0400 O   0  0  0  0  0
    4.2980   10.9480  -15.1460 C   0  0  0  0  0
    4.6590    9.7580  -15.8340 O   0  0  0  0  0
    4.5910   10.8060  -13.6500 C   0  0  0  0  0
    1.4330   12.3540  -13.8100 N   0  0  0  0  0
    0.8610   13.4810  -13.0770 C   0  0  0  0  0
    1.2580   13.3890  -11.5960 C   0  0  0  0  0
    1.0530   12.3550  -10.9530 O   0  0  0  0  0
   -0.6850   13.4840  -13.2370 C   0  0  0  0  0
   -1.3000   14.7570  -12.6490 C   0  0  0  0  0
   -1.1310   13.3280  -14.7010 C   0  0  0  0  0
    1.8070   14.5110  -11.1140 N   0  0  0  0  0
    2.2280   14.6740   -9.7220 C   0  0  0  0  0
    0.9520   15.0170   -8.9890 C   0  0  0  0  0
    0.1940   15.8720   -9.4530 O   0  0  0  0  0
    3.2310   15.8360   -9.5350 C   0  0  0  0  0
    4.5880   15.6290  -10.2380 C   0  0  0  0  0
    5.5550   16.7300   -9.7520 C   0  0  0  0  0
    6.9970   16.5970  -10.2990 C   0  0  0  0  0
    7.5580   15.1740  -10.1630 C   0  0  0  0  0
    6.5690   14.0670  -10.6210 C   0  0  0  0  0
    5.1840   14.2260   -9.9680 C   0  0  0  0  0
    0.7050   14.3290   -7.8840 N   0  0  0  0  0
   -0.5370   14.6110   -7.1330 C   0  0  0  0  0
   -1.1760   13.2910   -6.6470 C   0  0  0  0  0
   -2.0440   12.6880   -7.7480 C   0  0  0  0  0
   -2.4800   11.4310   -7.8000 N   0  0  0  0  0
   -2.5180   13.3210   -8.8180 C   0  0  0  0  0
   -3.2140   11.2910   -8.9040 C   0  0  0  0  0
   -3.2380   12.4640   -9.5380 N   0  0  0  0  0
   -0.2040   15.6050   -5.9990 C   0  0  0  0  0
   -0.9250   15.7820   -5.0190 O   0  0  0  0  0
    0.8631   16.2698   -6.0825 O   0  0  0  0  0
    1.0204   10.5321  -19.4305 H   0  0  0  0  0
    0.4437   12.1765  -19.0641 H   0  0  0  0  0
    2.1869   11.8659  -19.2534 H   0  0  0  0  0
    3.2965   11.7756  -17.4538 H   0  0  0  0  0
    2.2882   10.3625  -15.0343 H   0  0  0  0  0
    4.8885   11.7907  -15.5056 H   0  0  0  0  0
    4.4702    9.8608  -16.7696 H   0  0  0  0  0
    4.0166    9.9723  -13.2461 H   0  0  0  0  0
    5.6552   10.6194  -13.5056 H   0  0  0  0  0
    4.3091   11.7255  -13.1370 H   0  0  0  0  0
    1.0905   11.4130  -13.6160 H   0  0  0  0  0
    1.2494   14.4154  -13.4821 H   0  0  0  0  0
   -1.0459   12.6170  -12.6836 H   0  0  0  0  0
   -1.0595   14.8184  -11.5876 H   0  0  0  0  0
   -0.8946   15.6270  -13.1657 H   0  0  0  0  0
   -2.3821   14.7286  -12.7766 H   0  0  0  0  0
   -0.7322   14.1533  -15.2909 H   0  0  0  0  0
   -0.7559   12.3835  -15.0951 H   0  0  0  0  0
   -2.2198   13.3371  -14.7507 H   0  0  0  0  0
    1.9391   15.2955  -11.7523 H   0  0  0  0  0
    2.7295   13.7748   -9.3640 H   0  0  0  0  0
    3.4337   15.9136   -8.4668 H   0  0  0  0  0
    2.7762   16.7238   -9.9745 H   0  0  0  0  0
    4.4381   15.6962  -11.3156 H   0  0  0  0  0
    5.6146   16.6487   -8.6667 H   0  0  0  0  0
    5.1628   17.6822  -10.1090 H   0  0  0  0  0
    7.6359   17.2638   -9.7199 H   0  0  0  0  0
    6.9753   16.8466  -11.3598 H   0  0  0  0  0
    7.7690   15.0062   -9.1069 H   0  0  0  0  0
    8.4392   15.1085  -10.8013 H   0  0  0  0  0
    6.9772   13.1009  -10.3242 H   0  0  0  0  0
    6.4475   14.1438  -11.7015 H   0  0  0  0  0
    4.5139   13.4784  -10.3925 H   0  0  0  0  0
    5.2931   14.0983   -8.8910 H   0  0  0  0  0
    1.3595   13.6180   -7.5575 H   0  0  0  0  0
   -1.2890   15.0812   -7.7666 H   0  0  0  0  0
   -1.7973   13.4955   -5.7751 H   0  0  0  0  0
   -0.3856   12.5859   -6.3897 H   0  0  0  0  0
   -2.3451   14.3687   -9.0643 H   0  0  0  0  0
   -3.7086   10.3766   -9.2316 H   0  0  0  0  0
    1.3238   16.0332   -6.8908 H   0  0  0  0  0
  1  2  2  0  0  0
  1  3  1  0  0  0
  1  4  1  0  0  0
  4  5  1  0  0  0
  5  6  1  0  0  0
  5  8  1  0  0  0
  6  7  2  0  0  0
  6 11  1  0  0  0
  8  9  1  0  0  0
  8 10  1  0  0  0
 11 12  1  0  0  0
 12 13  1  0  0  0
 12 15  1  0  0  0
 13 14  2  0  0  0
 13 18  1  0  0  0
 15 16  1  0  0  0
 15 17  1  0  0  0
 18 19  1  0  0  0
 19 20  1  0  0  0
 19 22  1  0  0  0
 20 21  2  0  0  0
 20 29  1  0  0  0
 22 23  1  0  0  0
 23 24  1  0  0  0
 23 28  1  0  0  0
 24 25  1  0  0  0
 25 26  1  0  0  0
 26 27  1  0  0  0
 27 28  1  0  0  0
 29 30  1  0  0  0
 30 31  1  0  0  0
 30 37  1  0  0  0
 31 32  1  0  0  0
 32 33  4  0  0  0
 32 34  4  0  0  0
 33 35  4  0  0  0
 34 36  4  0  0  0
 35 36  4  0  0  0
 37 38  2  0  0  0
 37 39  1  0  0  0
  3 40  1  0  0  0
  3 41  1  0  0  0
  3 42  1  0  0  0
  4 43  1  0  0  0
  5 44  1  0  0  0
  8 45  1  0  0  0
  9 46  1  0  0  0
 10 47  1  0  0  0
 10 48  1  0  0  0
 10 49  1  0  0  0
 11 50  1  0  0  0
 12 51  1  0  0  0
 15 52  1  0  0  0
 16 53  1  0  0  0
 16 54  1  0  0  0
 16 55  1  0  0  0
 17 56  1  0  0  0
 17 57  1  0  0  0
 17 58  1  0  0  0
 18 59  1  0  0  0
 19 60  1  0  0  0
 22 61  1  0  0  0
 22 62  1  0  0  0
 23 63  1  0  0  0
 24 64  1  0  0  0
 24 65  1  0  0  0
 25 66  1  0  0  0
 25 67  1  0  0  0
 26 68  1  0  0  0
 26 69  1  0  0  0
 27 70  1  0  0  0
 27 71  1  0  0  0
 28 72  1  0  0  0
 28 73  1  0  0  0
 29 74  1  0  0  0
 30 75  1  0  0  0
 31 76  1  0  0  0
 31 77  1  0  0  0
 34 78  1  0  0  0
 35 79  1  0  0  0
 39 80  1  0  0  0
M  END
$$$$
