2h15_ligand
  -I-interpret- 

 44 46  0  0  0  0  0  0  0  0999 V2000
   -5.9730    6.2820   13.1580 C   0  0  0  0  0
   -4.7800    5.4260   12.7050 C   0  0  0  0  0
   -3.6980    6.2740   12.0100 C   0  0  0  0  0
   -4.2050    4.7510   13.8330 O   0  0  0  0  0
   -5.2540    4.4350   11.8230 O   0  0  0  0  0
   -5.3600    3.1990   12.5460 C   0  0  0  0  0
   -5.0790    2.1240   11.4660 C   0  0  0  0  0
   -4.9300    0.7730   11.9800 O   0  0  0  0  0
   -4.1180    0.1070   11.0170 C   0  0  0  0  0
   -4.9860   -0.6930   10.0430 C   0  0  0  0  0
   -3.1520   -0.8040   11.7480 C   0  0  0  0  0
   -3.3680    1.1240   10.2760 O   0  0  0  0  0
   -3.7350    2.3980   10.8030 C   0  0  0  0  0
   -2.6520    2.8460   11.8040 C   0  0  0  0  0
   -3.0240    2.8230   13.2180 O   0  0  0  0  0
   -4.3090    3.3770   13.6260 C   0  0  0  0  0
   -4.8130    2.9000   14.9690 C   0  0  0  0  0
   -4.5530    1.4760   15.0850 N   0  0  0  0  0
   -5.3700    0.8250   16.3620 S   0  0  0  0  0
   -4.7400    1.1670   17.6670 O   0  0  0  0  0
   -6.7990    1.2430   16.4470 O   0  0  0  0  0
   -5.1920   -0.7630   16.1050 N   0  0  0  0  0
   -6.4363    6.7469   12.2877 H   0  0  0  0  0
   -6.7016    5.6487   13.6642 H   0  0  0  0  0
   -5.6245    7.0555   13.8423 H   0  0  0  0  0
   -2.8696    5.6310   11.7127 H   0  0  0  0  0
   -4.1237    6.7516   11.1275 H   0  0  0  0  0
   -3.3378    7.0373   12.6997 H   0  0  0  0  0
   -6.2960    2.9182   13.0288 H   0  0  0  0  0
   -5.9429    2.1843   10.8041 H   0  0  0  0  0
   -5.6813   -0.0201    9.5411 H   0  0  0  0  0
   -4.3483   -1.1766    9.3030 H   0  0  0  0  0
   -5.5445   -1.4500   10.5936 H   0  0  0  0  0
   -2.4964   -1.2906   11.0259 H   0  0  0  0  0
   -2.5546   -0.2147   12.4436 H   0  0  0  0  0
   -3.7128   -1.5595   12.2983 H   0  0  0  0  0
   -3.8147    3.2002   10.0694 H   0  0  0  0  0
   -2.4317    3.8866   11.5659 H   0  0  0  0  0
   -1.8291    2.1394   11.6960 H   0  0  0  0  0
   -5.8834    3.0888   15.0511 H   0  0  0  0  0
   -4.3012    3.4361   15.7682 H   0  0  0  0  0
   -3.9451    0.9476   14.4592 H   0  0  0  0  0
   -4.7091   -1.3401   16.7936 H   0  0  0  0  0
   -5.5627   -1.1867   15.2544 H   0  0  0  0  0
  1  2  1  0  0  0
  2  3  1  0  0  0
  2  4  1  0  0  0
  2  5  1  0  0  0
  4 16  1  0  0  0
  5  6  1  0  0  0
  6  7  1  0  0  0
  6 16  1  0  0  0
  7  8  1  0  0  0
  7 13  1  0  0  0
  8  9  1  0  0  0
  9 10  1  0  0  0
  9 11  1  0  0  0
  9 12  1  0  0  0
 12 13  1  0  0  0
 13 14  1  0  0  0
 14 15  1  0  0  0
 15 16  1  0  0  0
 16 17  1  0  0  0
 17 18  1  0  0  0
 18 19  1  0  0  0
 19 20  2  0  0  0
 19 21  2  0  0  0
 19 22  1  0  0  0
  1 23  1  0  0  0
  1 24  1  0  0  0
  1 25  1  0  0  0
  3 26  1  0  0  0
  3 27  1  0  0  0
  3 28  1  0  0  0
  6 29  1  0  0  0
  7 30  1  0  0  0
 10 31  1  0  0  0
 10 32  1  0  0  0
 10 33  1  0  0  0
 11 34  1  0  0  0
 11 35  1  0  0  0
 11 36  1  0  0  0
 13 37  1  0  0  0
 14 38  1  0  0  0
 14 39  1  0  0  0
 17 40  1  0  0  0
 17 41  1  0  0  0
 18 42  1  0  0  0
 22 43  1  0  0  0
 22 44  1  0  0  0
M  END
$$$$
