1xoz_ligand
  -I-interpret- 

 47 52  0  0  0  0  0  0  0  0999 V2000
   42.8220   37.8770   10.1470 C   0  0  0  0  0
   42.9660   38.2730   11.5040 C   0  0  0  0  0
   43.8200   37.6730   12.4150 C   0  0  0  0  0
   44.5670   36.6040   11.8900 C   0  0  0  0  0
   45.5670   35.7220   12.5090 C   0  0  0  0  0
   45.9500   34.8780   11.5180 C   0  0  0  0  0
   45.3070   35.1450   10.3960 N   0  0  0  0  0
   44.4430   36.1950   10.5540 C   0  0  0  0  0
   43.5880   36.7990    9.6480 C   0  0  0  0  0
   46.9640   33.8340   11.7720 C   0  0  0  0  0
   47.2580   33.5750   13.1710 N   0  0  0  0  0
   48.1380   32.5760   13.3970 C   0  0  0  0  0
   48.6650   31.9330   12.5250 O   0  0  0  0  0
   48.4930   32.2400   14.7760 C   0  0  0  0  0
   48.1260   33.1800   15.8350 N   0  0  0  0  0
   47.2490   34.1540   15.6280 C   0  0  0  0  0
   46.8900   34.9790   16.4840 O   0  0  0  0  0
   46.6300   34.3090   14.2750 C   0  0  0  0  0
   46.0970   35.7020   13.9150 C   0  0  0  0  0
   48.7160   33.0530   17.1550 C   0  0  0  0  0
   48.2060   34.2980   10.9340 C   0  0  0  0  0
   48.7360   33.4820    9.8960 C   0  0  0  0  0
   49.8220   33.8410    9.1280 C   0  0  0  0  0
   50.4030   35.0570    9.4070 C   0  0  0  0  0
   51.4800   35.6170    8.7840 O   0  0  0  0  0
   51.8080   36.6900    9.6600 C   0  0  0  0  0
   50.6580   37.0270   10.4910 O   0  0  0  0  0
   49.9300   35.8680   10.3900 C   0  0  0  0  0
   48.8280   35.5130   11.1710 C   0  0  0  0  0
   42.1245   38.4018    9.4942 H   0  0  0  0  0
   42.3607   39.1094   11.8535 H   0  0  0  0  0
   43.9055   38.0018   13.4507 H   0  0  0  0  0
   43.5103   36.4639    8.6137 H   0  0  0  0  0
   46.5979   32.8538   11.4667 H   0  0  0  0  0
   49.5823   32.2026   14.7907 H   0  0  0  0  0
   47.9417   31.3267   14.9996 H   0  0  0  0  0
   45.7107   33.7440   14.4288 H   0  0  0  0  0
   45.2882   35.9572   14.5997 H   0  0  0  0  0
   46.9116   36.4219   13.9944 H   0  0  0  0  0
   48.4668   32.0766   17.5706 H   0  0  0  0  0
   49.7989   33.1511   17.0785 H   0  0  0  0  0
   48.3239   33.8363   17.8037 H   0  0  0  0  0
   48.2579   32.5227    9.6980 H   0  0  0  0  0
   50.2025   33.1935    8.3380 H   0  0  0  0  0
   52.0901   37.5613    9.0689 H   0  0  0  0  0
   52.6366   36.3885   10.3008 H   0  0  0  0  0
   48.4639   36.1797   11.9527 H   0  0  0  0  0
  1  2  4  0  0  0
  1  9  4  0  0  0
  2  3  4  0  0  0
  3  4  4  0  0  0
  4  5  4  0  0  0
  4  8  4  0  0  0
  5  6  4  0  0  0
  5 19  1  0  0  0
  6  7  4  0  0  0
  6 10  1  0  0  0
  7  8  4  0  0  0
  8  9  4  0  0  0
 10 11  1  0  0  0
 10 21  1  0  0  0
 11 12  1  0  0  0
 11 18  1  0  0  0
 12 13  2  0  0  0
 12 14  1  0  0  0
 14 15  1  0  0  0
 15 16  1  0  0  0
 15 20  1  0  0  0
 16 17  2  0  0  0
 16 18  1  0  0  0
 18 19  1  0  0  0
 21 22  4  0  0  0
 21 29  4  0  0  0
 22 23  4  0  0  0
 23 24  4  0  0  0
 24 25  1  0  0  0
 24 28  4  0  0  0
 25 26  1  0  0  0
 26 27  1  0  0  0
 27 28  1  0  0  0
 28 29  4  0  0  0
  1 30  1  0  0  0
  2 31  1  0  0  0
  3 32  1  0  0  0
  9 33  1  0  0  0
 10 34  1  0  0  0
 14 35  1  0  0  0
 14 36  1  0  0  0
 18 37  1  0  0  0
 19 38  1  0  0  0
 19 39  1  0  0  0
 20 40  1  0  0  0
 20 41  1  0  0  0
 20 42  1  0  0  0
 22 43  1  0  0  0
 23 44  1  0  0  0
 26 45  1  0  0  0
 26 46  1  0  0  0
 29 47  1  0  0  0
M  END
$$$$
