2w47_ligand
  -I-interpret- 

 40 41  0  0  0  0  0  0  0  0999 V2000
   -1.6660   16.2910    9.7560 C   0  0  0  0  0
   -2.1860   17.5440    9.0590 C   0  0  0  0  0
   -1.7040   17.5670    7.6140 C   0  0  0  0  0
   -0.1890   17.5130    7.6320 C   0  0  0  0  0
    0.4560   16.7810    8.5700 C   0  0  0  0  0
    1.7680   16.5540    8.4920 C   0  0  0  0  0
   -2.2090   15.1360    9.1100 O   0  0  0  0  0
   -3.6130   17.5680    9.1240 O   0  0  0  0  0
   -2.1830   18.7470    6.9540 O   0  0  0  0  0
   -0.2350   16.2310    9.7290 O   0  0  0  0  0
    2.3230   15.8720    9.3980 O   0  0  0  0  0
   -3.6910   12.0660    8.3570 C   0  0  0  0  0
   -2.3940   12.5410    7.6960 C   0  0  0  0  0
   -1.3470   12.9050    8.7520 C   0  0  0  0  0
   -1.9160   13.8990    9.7670 C   0  0  0  0  0
   -3.1940   13.3090   10.3790 C   0  0  0  0  0
   -3.8160   14.2420   11.3830 C   0  0  0  0  0
   -3.4930   10.7820    8.9700 O   0  0  0  0  0
   -1.8890   11.5220    6.8280 O   0  0  0  0  0
   -0.1720   13.4310    8.1210 O   0  0  0  0  0
   -4.1350   13.0210    9.3320 O   0  0  0  0  0
   -3.1310   14.6390   12.3520 O   0  0  0  0  0
   -5.0070   14.5950   11.2200 O   0  0  0  0  0
    2.4090   17.0340    7.5220 O   0  0  0  0  0
   -1.9793   16.3223   10.7995 H   0  0  0  0  0
   -1.8019   18.4322    9.5607 H   0  0  0  0  0
   -2.0906   16.7118    7.0598 H   0  0  0  0  0
    0.3829   18.0658    6.8867 H   0  0  0  0  0
   -3.8907   17.5529   10.0428 H   0  0  0  0  0
   -3.1430   18.7488    6.9609 H   0  0  0  0  0
    1.6644   15.6008   10.0416 H   0  0  0  0  0
   -4.4595   11.9729    7.5897 H   0  0  0  0  0
   -2.6101   13.4343    7.1100 H   0  0  0  0  0
   -1.0726   12.0002    9.2943 H   0  0  0  0  0
   -1.1888   14.0841   10.5576 H   0  0  0  0  0
   -2.9254   12.3923   10.9040 H   0  0  0  0  0
   -4.3119   10.4950    9.3806 H   0  0  0  0  0
   -1.0764   11.8267    6.4175 H   0  0  0  0  0
    0.4769   13.6555    8.7919 H   0  0  0  0  0
   -5.3550   14.1854   10.4245 H   0  0  0  0  0
  1  2  1  0  0  0
  7  1  1  0  0  0
  1 10  1  0  0  0
  2  3  1  0  0  0
  2  8  1  0  0  0
  3  4  1  0  0  0
  3  9  1  0  0  0
  5  4  2  0  0  0
  5  6  1  0  0  0
 10  5  1  0  0  0
  6 11  1  0  0  0
  6 24  2  0  0  0
 15  7  1  0  0  0
 13 12  1  0  0  0
 12 18  1  0  0  0
 12 21  1  0  0  0
 14 13  1  0  0  0
 13 19  1  0  0  0
 14 15  1  0  0  0
 14 20  1  0  0  0
 15 16  1  0  0  0
 16 17  1  0  0  0
 16 21  1  0  0  0
 17 22  2  0  0  0
 17 23  1  0  0  0
  1 25  1  0  0  0
  2 26  1  0  0  0
  3 27  1  0  0  0
  4 28  1  0  0  0
  8 29  1  0  0  0
  9 30  1  0  0  0
 11 31  1  0  0  0
 12 32  1  0  0  0
 13 33  1  0  0  0
 14 34  1  0  0  0
 15 35  1  0  0  0
 16 36  1  0  0  0
 18 37  1  0  0  0
 19 38  1  0  0  0
 20 39  1  0  0  0
 23 40  1  0  0  0
M  END
$$$$
