3vsw_ligand
  -I-interpret- 

 88 89  0  0  0  0  0  0  0  0999 V2000
  176.5800  198.7880   97.1730 C   0  0  0  0  0
  177.8080  199.3830   96.6860 N   0  3  0  0  0
  178.3310  198.9100   95.4420 C   0  0  0  0  0
  177.2820  198.9760   94.3060 C   0  0  0  0  0
  175.9920  198.3630   94.7180 N   0  0  0  0  0
  175.5790  198.4560   96.0430 C   0  0  0  0  0
  175.2060  197.7210   93.7900 C   0  0  0  0  0
  174.4500  198.4750   92.8700 C   0  0  0  0  0
  173.5990  197.8190   91.9430 C   0  0  0  0  0
  173.4130  196.4010   92.0510 C   0  0  0  0  0
  174.2030  195.6480   92.9510 C   0  0  0  0  0
  175.1480  196.3080   93.7650 C   0  0  0  0  0
  174.5050  199.8160   92.8560 O   0  0  0  0  0
  174.8110  200.6770   91.8000 C   0  0  0  0  0
  175.4900  201.9500   92.3220 C   0  0  0  0  0
  175.6610  202.9240   91.1530 C   0  0  0  0  0
  176.9660  202.8150   90.6200 O   0  0  0  0  0
  177.4200  204.0990   90.2380 C   0  0  0  0  0
  178.7000  199.9980   97.6170 C   0  0  0  0  0
  178.1020  201.1680   98.4370 C   0  0  0  0  0
  178.8050  201.3100   99.8230 C   0  0  0  0  0
  178.2790  202.4010   97.6550 N   0  3  0  0  0
  178.0570  202.2010  100.8490 C   0  0  0  0  0
  180.1060  201.8390   99.6330 O   0  0  0  0  0
  178.7280  202.6910  102.1670 C   0  0  0  0  0
  179.1150  201.4750  103.0320 C   0  0  0  0  0
  180.3890  201.1080  103.2090 N   0  0  0  0  0
  178.2230  200.8050  103.5710 O   0  0  0  0  0
  177.8910  203.7810  102.9520 C   0  0  0  0  0
  180.7950  199.7620  103.6290 C   0  0  0  0  0
  181.4990  199.6380  104.9890 C   0  0  0  0  0
  182.5280  200.8040  105.0580 C   0  0  0  0  0
  183.6160  200.7610  104.2380 N   0  0  0  0  0
  180.4810  199.7660  106.1580 C   0  0  0  0  0
  182.2980  198.3020  105.1040 C   0  0  0  0  0
  182.3520  201.7530  105.8150 O   0  0  0  0  0
  178.5950  204.3260  104.2460 C   0  0  0  0  0
  177.3000  204.9630  102.1520 C   0  0  0  0  0
  174.4290  198.2580   96.3830 O   0  0  0  0  0
  176.1031  199.5085   97.8375 H   0  0  0  0  0
  176.8390  197.8540   97.6717 H   0  0  0  0  0
  177.4060  200.2595   96.3536 H   0  0  0  0  0
  178.6265  197.8689   95.5715 H   0  0  0  0  0
  179.1729  199.5441   95.1643 H   0  0  0  0  0
  177.6674  198.4248   93.4482 H   0  0  0  0  0
  177.1037  200.0232   94.0616 H   0  0  0  0  0
  173.0939  198.3847   91.1601 H   0  0  0  0  0
  172.6616  195.9027   91.4385 H   0  0  0  0  0
  174.0827  194.5666   93.0152 H   0  0  0  0  0
  175.8367  195.7260   94.3775 H   0  0  0  0  0
  173.8881  200.9524   91.2896 H   0  0  0  0  0
  175.4904  200.1693   91.1153 H   0  0  0  0  0
  176.4632  201.7048   92.7473 H   0  0  0  0  0
  174.8775  202.4062   93.0997 H   0  0  0  0  0
  175.5026  203.9422   91.5084 H   0  0  0  0  0
  174.9351  202.6832   90.3764 H   0  0  0  0  0
  176.7491  204.5108   89.4841 H   0  0  0  0  0
  177.4334  204.7526   91.1102 H   0  0  0  0  0
  178.4262  204.0196   89.8264 H   0  0  0  0  0
  179.5204  200.4149   97.0329 H   0  0  0  0  0
  178.9810  199.2270   98.3344 H   0  0  0  0  0
  177.0461  200.9761   98.6279 H   0  0  0  0  0
  178.8223  200.3056  100.2460 H   0  0  0  0  0
  177.8926  203.1896   98.1738 H   0  0  0  0  0
  179.2732  202.5566   97.4882 H   0  0  0  0  0
  177.7936  202.3089   96.7626 H   0  0  0  0  0
  177.2462  201.5617  101.1983 H   0  0  0  0  0
  177.8727  203.1236  100.2986 H   0  0  0  0  0
  180.5415  201.9277  100.4839 H   0  0  0  0  0
  179.6391  203.2241  101.8955 H   0  0  0  0  0
  181.1181  201.8017  103.0429 H   0  0  0  0  0
  177.0318  203.1690  103.2266 H   0  0  0  0  0
  181.5191  199.4247  102.8874 H   0  0  0  0  0
  179.8731  199.1873  103.7178 H   0  0  0  0  0
  184.2940  201.5230  104.2498 H   0  0  0  0  0
  183.7522  199.9668  103.6126 H   0  0  0  0  0
  179.9897  200.7376  106.1055 H   0  0  0  0  0
  179.7351  198.9754  106.0767 H   0  0  0  0  0
  181.0073  199.6744  107.1081 H   0  0  0  0  0
  181.6143  197.4605  104.9923 H   0  0  0  0  0
  183.0544  198.2639  104.3201 H   0  0  0  0  0
  182.7813  198.2520  106.0797 H   0  0  0  0  0
  178.7732  203.5012  104.9359 H   0  0  0  0  0
  179.5451  204.7862  103.9747 H   0  0  0  0  0
  177.9535  205.0675  104.7222 H   0  0  0  0  0
  178.1082  205.5175  101.6751 H   0  0  0  0  0
  176.6208  204.5808  101.3899 H   0  0  0  0  0
  176.7554  205.6217  102.8285 H   0  0  0  0  0
  1  2  1  0  0  0
  1  6  1  0  0  0
  2  3  1  0  0  0
  2 19  1  0  0  0
  3  4  1  0  0  0
  4  5  1  0  0  0
  5  6  1  0  0  0
  5  7  1  0  0  0
  6 39  2  0  0  0
  7  8  4  0  0  0
  7 12  4  0  0  0
  8  9  4  0  0  0
  8 13  1  0  0  0
  9 10  4  0  0  0
 10 11  4  0  0  0
 11 12  4  0  0  0
 13 14  1  0  0  0
 14 15  1  0  0  0
 15 16  1  0  0  0
 16 17  1  0  0  0
 17 18  1  0  0  0
 19 20  1  0  0  0
 20 21  1  0  0  0
 20 22  1  0  0  0
 21 23  1  0  0  0
 21 24  1  0  0  0
 23 25  1  0  0  0
 25 26  1  0  0  0
 25 29  1  0  0  0
 26 27  1  0  0  0
 26 28  2  0  0  0
 27 30  1  0  0  0
 29 37  1  0  0  0
 29 38  1  0  0  0
 30 31  1  0  0  0
 31 32  1  0  0  0
 31 34  1  0  0  0
 31 35  1  0  0  0
 32 33  1  0  0  0
 32 36  2  0  0  0
  1 40  1  0  0  0
  1 41  1  0  0  0
  2 42  1  0  0  0
  3 43  1  0  0  0
  3 44  1  0  0  0
  4 45  1  0  0  0
  4 46  1  0  0  0
  9 47  1  0  0  0
 10 48  1  0  0  0
 11 49  1  0  0  0
 12 50  1  0  0  0
 14 51  1  0  0  0
 14 52  1  0  0  0
 15 53  1  0  0  0
 15 54  1  0  0  0
 16 55  1  0  0  0
 16 56  1  0  0  0
 18 57  1  0  0  0
 18 58  1  0  0  0
 18 59  1  0  0  0
 19 60  1  0  0  0
 19 61  1  0  0  0
 20 62  1  0  0  0
 21 63  1  0  0  0
 22 64  1  0  0  0
 22 65  1  0  0  0
 22 66  1  0  0  0
 23 67  1  0  0  0
 23 68  1  0  0  0
 24 69  1  0  0  0
 25 70  1  0  0  0
 27 71  1  0  0  0
 29 72  1  0  0  0
 30 73  1  0  0  0
 30 74  1  0  0  0
 33 75  1  0  0  0
 33 76  1  0  0  0
 34 77  1  0  0  0
 34 78  1  0  0  0
 34 79  1  0  0  0
 35 80  1  0  0  0
 35 81  1  0  0  0
 35 82  1  0  0  0
 37 83  1  0  0  0
 37 84  1  0  0  0
 37 85  1  0  0  0
 38 86  1  0  0  0
 38 87  1  0  0  0
 38 88  1  0  0  0
M  END
$$$$
