### 
### Created by X-TOOL on Mon Sep 10 21:13:11 2018
### 

@<TRIPOS>MOLECULE
3vsw_ligand
   87    88     1     0     0
SMALL
GAST_HUCK


@<TRIPOS>ATOM
      1 C1        176.5800  198.7880   97.1730 C.3       1 R31        -0.0119
      2 N2        177.8080  199.3830   96.6860 N.4       1 R31         0.4195
      3 C3        178.3310  198.9100   95.4420 C.3       1 R31        -0.0839
      4 C4        177.2820  198.9760   94.3060 C.3       1 R31         0.0352
      5 N5        175.9920  198.3630   94.7180 N.am      1 R31        -0.2262
      6 C6        175.5790  198.4560   96.0430 C.2       1 R31         0.1828
      7 C7        175.2060  197.7210   93.7900 C.ar      1 R31         0.0990
      8 C8        174.4500  198.4750   92.8700 C.ar      1 R31         0.1127
      9 C9        173.5990  197.8190   91.9430 C.ar      1 R31        -0.0461
     10 C10       173.4130  196.4010   92.0510 C.ar      1 R31        -0.0862
     11 C11       174.2030  195.6480   92.9510 C.ar      1 R31        -0.0868
     12 C12       175.1480  196.3080   93.7650 C.ar      1 R31        -0.0491
     13 O13       174.5050  199.8160   92.8560 O.3       1 R31        -0.3242
     14 C14       174.8110  200.6770   91.8000 C.3       1 R31         0.0693
     15 C15       175.4900  201.9500   92.3220 C.3       1 R31        -0.0020
     16 C16       175.6610  202.9240   91.1530 C.3       1 R31         0.0497
     17 O17       176.9660  202.8150   90.6200 O.3       1 R31        -0.3829
     18 C18       177.4200  204.0990   90.2380 C.3       1 R31         0.0364
     19 C19       178.7000  199.9980   97.6170 C.3       1 R31        -0.0627
     20 C20       178.1020  201.1680   98.4370 C.3       1 R31        -0.0163
     21 C21       178.8050  201.3100   99.8230 C.3       1 R31         0.0979
     22 N22       178.2790  202.4010   97.6550 N.4       1 R31         0.2211
     23 C23       178.0570  202.2010  100.8490 C.3       1 R31        -0.0016
     24 O24       180.1060  201.8390   99.6330 O.3       1 R31        -0.3861
     25 C25       178.7280  202.6910  102.1670 C.3       1 R31         0.0534
     26 C26       179.1150  201.4750  103.0320 C.2       1 R31         0.1793
     27 N27       180.3890  201.1080  103.2090 N.am      1 R31        -0.2873
     28 O28       178.2230  200.8050  103.5710 O.2       1 R31        -0.3968
     29 C29       177.8910  203.7810  102.9520 C.3       1 R31        -0.0269
     30 C30       180.7950  199.7620  103.6290 C.3       1 R31         0.0429
     31 C31       181.4990  199.6380  104.9890 C.3       1 R31         0.0654
     32 C32       182.5280  200.8040  105.0580 C.2       1 R31         0.2007
     33 N33       183.6160  200.7610  104.2380 N.am      1 R31        -0.2997
     34 C34       180.4810  199.7660  106.1580 C.3       1 R31        -0.0513
     35 C35       182.2980  198.3020  105.1040 C.3       1 R31        -0.0513
     36 O36       182.3520  201.7530  105.8150 O.2       1 R31        -0.3445
     37 C37       178.5950  204.3260  104.2460 C.3       1 R31        -0.0603
     38 C38       177.3000  204.9630  102.1520 C.3       1 R31        -0.0603
     39 O39       174.4290  198.2580   96.3830 O.2       1 R31        -0.3883
     40 H         176.1031  199.5085   97.8375 H         1 R31         0.0262
     41 H         176.8390  197.8540   97.6717 H         1 R31         0.0262
     42 H         178.6265  197.8689   95.5715 H         1 R31         0.0044
     43 H         179.1729  199.5441   95.1643 H         1 R31         0.0044
     44 H         177.6674  198.4248   93.4482 H         1 R31         0.0561
     45 H         177.1037  200.0232   94.0616 H         1 R31         0.0561
     46 H         173.0939  198.3847   91.1601 H         1 R31         0.0495
     47 H         172.6616  195.9027   91.4385 H         1 R31         0.0460
     48 H         174.0827  194.5666   93.0152 H         1 R31         0.0484
     49 H         175.8367  195.7260   94.3775 H         1 R31         0.0466
     50 H         173.8881  200.9524   91.2896 H         1 R31         0.0609
     51 H         175.4904  200.1693   91.1153 H         1 R31         0.0609
     52 H         176.4632  201.7048   92.7473 H         1 R31         0.0313
     53 H         174.8775  202.4062   93.0997 H         1 R31         0.0313
     54 H         175.5026  203.9422   91.5084 H         1 R31         0.0560
     55 H         174.9351  202.6832   90.3764 H         1 R31         0.0560
     56 H         176.7491  204.5108   89.4841 H         1 R31         0.0523
     57 H         177.4334  204.7526   91.1102 H         1 R31         0.0523
     58 H         178.4262  204.0196   89.8264 H         1 R31         0.0523
     59 H         179.5204  200.4149   97.0329 H         1 R31         0.0075
     60 H         178.9810  199.2270   98.3344 H         1 R31         0.0075
     61 H         177.0461  200.9761   98.6279 H         1 R31         0.0855
     62 H         178.8223  200.3056  100.2460 H         1 R31         0.0651
     63 H         177.8926  203.1896   98.1738 H         1 R31         0.1997
     64 H         179.2732  202.5566   97.4882 H         1 R31         0.1997
     65 H         177.7936  202.3089   96.7626 H         1 R31         0.1997
     66 H         177.2462  201.5617  101.1983 H         1 R31         0.0319
     67 H         177.8727  203.1236  100.2986 H         1 R31         0.0319
     68 H         180.5813  201.2967   98.9993 H         1 R31         0.2100
     69 H         179.6391  203.2241  101.8955 H         1 R31         0.0541
     70 H         181.1181  201.8017  103.0429 H         1 R31         0.1849
     71 H         177.0318  203.1690  103.2266 H         1 R31         0.0322
     72 H         181.5191  199.4247  102.8874 H         1 R31         0.0511
     73 H         179.8731  199.1873  103.7178 H         1 R31         0.0511
     74 H         184.2940  201.5230  104.2498 H         1 R31         0.1820
     75 H         183.7522  199.9668  103.6126 H         1 R31         0.1820
     76 H         179.9897  200.7376  106.1055 H         1 R31         0.0222
     77 H         179.7351  198.9754  106.0767 H         1 R31         0.0222
     78 H         181.0073  199.6744  107.1081 H         1 R31         0.0222
     79 H         181.6143  197.4605  104.9923 H         1 R31         0.0222
     80 H         183.0544  198.2639  104.3201 H         1 R31         0.0222
     81 H         182.7813  198.2520  106.0797 H         1 R31         0.0222
     82 H         178.7732  203.5012  104.9359 H         1 R31         0.0234
     83 H         179.5451  204.7862  103.9747 H         1 R31         0.0234
     84 H         177.9535  205.0675  104.7222 H         1 R31         0.0234
     85 H         178.1082  205.5175  101.6751 H         1 R31         0.0234
     86 H         176.6208  204.5808  101.3899 H         1 R31         0.0234
     87 H         176.7554  205.6217  102.8285 H         1 R31         0.0234
@<TRIPOS>BOND
     1    1    2 1  
     2    1    6 1  
     3    2    3 1  
     4    2   19 1  
     5    3    4 1  
     6    4    5 1  
     7    5    6 am 
     8    5    7 1  
     9    6   39 2  
    10    7    8 ar 
    11    7   12 ar 
    12    8    9 ar 
    13    8   13 1  
    14    9   10 ar 
    15   10   11 ar 
    16   11   12 ar 
    17   13   14 1  
    18   14   15 1  
    19   15   16 1  
    20   16   17 1  
    21   17   18 1  
    22   19   20 1  
    23   20   21 1  
    24   20   22 1  
    25   21   23 1  
    26   21   24 1  
    27   23   25 1  
    28   25   26 1  
    29   25   29 1  
    30   26   27 am 
    31   26   28 2  
    32   27   30 1  
    33   29   37 1  
    34   29   38 1  
    35   30   31 1  
    36   31   32 1  
    37   31   34 1  
    38   31   35 1  
    39   32   33 am 
    40   32   36 2  
    41    1   40 1  
    42    1   41 1  
    43    3   42 1  
    44    3   43 1  
    45    4   44 1  
    46    4   45 1  
    47    9   46 1  
    48   10   47 1  
    49   11   48 1  
    50   12   49 1  
    51   14   50 1  
    52   14   51 1  
    53   15   52 1  
    54   15   53 1  
    55   16   54 1  
    56   16   55 1  
    57   18   56 1  
    58   18   57 1  
    59   18   58 1  
    60   19   59 1  
    61   19   60 1  
    62   20   61 1  
    63   21   62 1  
    64   22   63 1  
    65   22   64 1  
    66   22   65 1  
    67   23   66 1  
    68   23   67 1  
    69   24   68 1  
    70   25   69 1  
    71   27   70 1  
    72   29   71 1  
    73   30   72 1  
    74   30   73 1  
    75   33   74 1  
    76   33   75 1  
    77   34   76 1  
    78   34   77 1  
    79   34   78 1  
    80   35   79 1  
    81   35   80 1  
    82   35   81 1  
    83   37   82 1  
    84   37   83 1  
    85   37   84 1  
    86   38   85 1  
    87   38   86 1  
    88   38   87 1  
@<TRIPOS>SUBSTRUCTURE
     1 R31         1

