3rxh_ligand
  -I-interpret- 

 17 17  0  0  0  0  0  0  0  0999 V2000
   -1.8620  -12.8960   18.3310 N   0  3  0  0  0
   -2.0360  -13.9460   17.3470 C   0  0  0  0  0
   -1.4510  -13.5410   15.9970 C   0  0  0  0  0
   -1.4540  -14.7300   15.0680 C   0  0  0  0  0
   -2.3860  -15.7060   15.0300 N   0  0  0  0  0
   -0.5010  -15.0280   14.1030 C   0  0  0  0  0
   -2.0330  -16.5910   14.0710 C   0  0  0  0  0
   -0.8770  -16.1810   13.5060 N   0  0  0  0  0
   -2.2619  -13.1954   19.2203 H   0  0  0  0  0
   -0.8671  -12.7057   18.4511 H   0  0  0  0  0
   -2.3349  -12.0506   18.0116 H   0  0  0  0  0
   -3.1027  -14.1318   17.2219 H   0  0  0  0  0
   -1.5180  -14.8391   17.6964 H   0  0  0  0  0
   -0.4278  -13.1916   16.1354 H   0  0  0  0  0
   -2.0542  -12.7422   15.5655 H   0  0  0  0  0
    0.3869  -14.4403   13.8698 H   0  0  0  0  0
   -2.5897  -17.4877   13.7987 H   0  0  0  0  0
  1  2  1  0  0  0
  2  3  1  0  0  0
  3  4  1  0  0  0
  4  5  4  0  0  0
  4  6  4  0  0  0
  5  7  4  0  0  0
  6  8  4  0  0  0
  7  8  4  0  0  0
  1  9  1  0  0  0
  1 10  1  0  0  0
  1 11  1  0  0  0
  2 12  1  0  0  0
  2 13  1  0  0  0
  3 14  1  0  0  0
  3 15  1  0  0  0
  6 16  1  0  0  0
  7 17  1  0  0  0
M  END
$$$$
