3kc3_ligand
  -I-interpret- 

 39 43  0  0  0  0  0  0  0  0999 V2000
   -8.2630   61.6110   -6.9080 C   0  0  0  0  0
   -6.9460   61.9610   -7.1100 C   0  0  0  0  0
   -8.8130   60.4690   -7.4320 C   0  0  0  0  0
   -6.0680   61.1860   -7.8570 C   0  0  0  0  0
   -7.6450   51.3230  -11.6390 C   0  0  0  0  0
   -7.4630   50.1710  -12.3830 C   0  0  0  0  0
   -8.1420   58.4300   -8.8800 C   0  0  0  0  0
   -5.4570   54.9720  -12.1090 C   0  0  0  0  0
   -6.9830   55.7840  -10.4140 C   0  0  0  0  0
   -3.8190   56.7050  -12.6410 C   0  0  0  0  0
   -7.9730   59.6620   -8.1800 C   0  0  0  0  0
   -6.6440   60.0420   -8.3710 C   0  0  0  0  0
   -7.0280   52.4680  -12.0770 C   0  0  0  0  0
   -6.5400   54.7840  -11.2700 C   0  0  0  0  0
   -4.9130   56.2340  -11.9460 C   0  0  0  0  0
   -6.4330   57.0550  -10.2840 C   0  0  0  0  0
   -6.9040   58.1400   -9.4380 C   0  0  0  0  0
   -5.3410   57.2750  -11.0970 C   0  0  0  0  0
   -6.1770   51.2600  -13.8670 C   0  0  0  0  0
   -5.4280   51.2150  -15.0520 N   0  0  0  0  0
   -4.5600   58.3630  -11.2720 N   0  0  0  0  0
   -6.7430   50.0980  -13.5050 N   0  0  0  0  0
   -3.6560   57.9940  -12.2010 N   0  0  0  0  0
   -6.2790   52.4410  -13.1990 N   0  0  0  0  0
   -7.2390   53.5820  -11.2660 N   0  0  0  0  0
   -5.9800   59.1210   -9.1350 O   0  0  0  0  0
   -8.8929   62.2677   -6.3079 H   0  0  0  0  0
   -6.5773   62.8851   -6.6648 H   0  0  0  0  0
   -9.8589   60.2099   -7.2677 H   0  0  0  0  0
   -5.0247   61.4554   -8.0214 H   0  0  0  0  0
   -8.2568   51.3214  -10.7369 H   0  0  0  0  0
   -7.9413   49.2581  -12.0280 H   0  0  0  0  0
   -9.0543   57.8388   -8.9601 H   0  0  0  0  0
   -5.0811   54.2242  -12.8072 H   0  0  0  0  0
   -7.8422   55.5510   -9.7851 H   0  0  0  0  0
   -3.2173   56.1714  -13.3767 H   0  0  0  0  0
   -5.3456   50.3404  -15.5703 H   0  0  0  0  0
   -4.9657   52.0569  -15.3954 H   0  0  0  0  0
   -7.9974   53.5063  -10.5881 H   0  0  0  0  0
  2  1  4  0  0  0
  3  1  4  0  0  0
  4  2  4  0  0  0
 11  3  4  0  0  0
 12  4  4  0  0  0
  6  5  4  0  0  0
  5 13  4  0  0  0
 22  6  4  0  0  0
  7 11  4  0  0  0
 17  7  4  0  0  0
 14  8  4  0  0  0
  8 15  4  0  0  0
 14  9  4  0  0  0
  9 16  4  0  0  0
 15 10  4  0  0  0
 10 23  4  0  0  0
 12 11  4  0  0  0
 26 12  4  0  0  0
 13 24  4  0  0  0
 13 25  1  0  0  0
 25 14  1  0  0  0
 15 18  4  0  0  0
 16 17  1  0  0  0
 16 18  4  0  0  0
 17 26  4  0  0  0
 18 21  4  0  0  0
 19 20  1  0  0  0
 19 22  4  0  0  0
 19 24  4  0  0  0
 21 23  4  0  0  0
  1 27  1  0  0  0
  2 28  1  0  0  0
  3 29  1  0  0  0
  4 30  1  0  0  0
  5 31  1  0  0  0
  6 32  1  0  0  0
  7 33  1  0  0  0
  8 34  1  0  0  0
  9 35  1  0  0  0
 10 36  1  0  0  0
 20 37  1  0  0  0
 20 38  1  0  0  0
 25 39  1  0  0  0
M  END
$$$$
