3gkz_ligand
  -I-interpret- 

 27 27  0  0  0  0  0  0  0  0999 V2000
   -2.4400   -2.0580   15.3790 N   0  3  0  0  0
   -2.9850   -3.4260   15.5530 C   0  0  0  0  0
   -1.8660   -4.4250   15.2400 C   0  0  0  0  0
   -3.4840   -3.6220   17.0080 C   0  0  0  0  0
   -4.2340   -4.9300   17.1960 C   0  0  0  0  0
   -3.6000   -6.0350   17.8080 C   0  0  0  0  0
   -5.5720   -5.0410   16.7720 C   0  0  0  0  0
   -4.3030   -7.2380   17.9860 C   0  0  0  0  0
   -6.2780   -6.2490   16.9510 C   0  0  0  0  0
   -5.6430   -7.3480   17.5590 C   0  0  0  0  0
   -3.5180   -1.0470   15.3790 C   0  0  0  0  0
   -1.9531   -2.0137   14.4838 H   0  0  0  0  0
   -1.8080   -1.8590   16.1545 H   0  0  0  0  0
   -3.8294   -3.5830   14.8819 H   0  0  0  0  0
   -1.0356   -4.2656   15.9278 H   0  0  0  0  0
   -2.2448   -5.4406   15.3548 H   0  0  0  0  0
   -1.5245   -4.2769   14.2155 H   0  0  0  0  0
   -4.1681   -2.8061   17.2412 H   0  0  0  0  0
   -2.6127   -3.6374   17.6627 H   0  0  0  0  0
   -2.5656   -5.9537   18.1418 H   0  0  0  0  0
   -6.0647   -4.1893   16.3031 H   0  0  0  0  0
   -3.8112   -8.0898   18.4559 H   0  0  0  0  0
   -7.3130   -6.3311   16.6192 H   0  0  0  0  0
   -6.1857   -8.2827   17.6997 H   0  0  0  0  0
   -4.2076   -1.2531   14.5605 H   0  0  0  0  0
   -4.0542   -1.0895   16.3270 H   0  0  0  0  0
   -3.0844   -0.0554   15.2495 H   0  0  0  0  0
  1  2  1  0  0  0
  1 11  1  0  0  0
  2  3  1  0  0  0
  2  4  1  0  0  0
  4  5  1  0  0  0
  5  6  4  0  0  0
  5  7  4  0  0  0
  6  8  4  0  0  0
  7  9  4  0  0  0
  8 10  4  0  0  0
  9 10  4  0  0  0
  1 12  1  0  0  0
  1 13  1  0  0  0
  2 14  1  0  0  0
  3 15  1  0  0  0
  3 16  1  0  0  0
  3 17  1  0  0  0
  4 18  1  0  0  0
  4 19  1  0  0  0
  6 20  1  0  0  0
  7 21  1  0  0  0
  8 22  1  0  0  0
  9 23  1  0  0  0
 10 24  1  0  0  0
 11 25  1  0  0  0
 11 26  1  0  0  0
 11 27  1  0  0  0
M  END
$$$$
