5hbe_ligand
  -I-interpret- 

 51 55  0  0  0  0  0  0  0  0999 V2000
   -3.8920   16.5010  -14.2660 C   0  0  0  0  0
   -3.3470   15.2320  -12.4320 C   0  0  0  0  0
   -4.6920   14.7850  -13.0380 C   0  0  0  0  0
   -4.5880   13.3970  -13.6650 C   0  0  0  0  0
   -4.5050   12.2850  -12.6130 C   0  0  0  0  0
   -6.3080   11.3150  -11.1690 C   0  0  0  0  0
   -7.1740   10.6270  -12.0370 C   0  0  0  0  0
   -6.9510    9.7200   -9.4450 C   0  0  0  0  0
   -6.2050   10.8280   -9.8330 C   0  0  0  0  0
   -5.3190   11.4770   -8.8440 C   0  0  0  0  0
   -3.9510   11.5100   -9.0810 C   0  0  0  0  0
   -1.5890   12.2180   -8.3410 C   0  0  0  0  0
   -3.5670   12.7230   -7.0350 C   0  0  0  0  0
   -3.8190   17.3000  -15.1750 O   0  0  0  0  0
   -2.9070   16.2640  -13.3820 N   0  0  0  0  0
   -5.5600   12.4230  -11.5930 N   0  0  0  0  0
   -5.7410   13.7450  -10.9710 C   0  0  0  0  0
   -5.8250   14.8550  -12.0210 C   0  0  0  0  0
   -7.4190   11.0890  -13.6940 Cl  0  0  0  0  0
   -7.8740    9.5340  -11.5540 C   0  0  0  0  0
   -7.7510    9.1140  -10.3030 N   0  0  0  0  0
   -3.0920   12.1220   -8.1890 C   0  0  0  0  0
   -1.2090   13.4490   -7.0670 S   0  0  0  0  0
   -0.1660   13.0030   -6.2200 O   0  0  0  0  0
   -1.2350   14.7520   -7.6240 O   0  0  0  0  0
   -2.6210   13.3320   -6.2010 N   0  0  0  0  0
   -2.8360   13.8210   -4.8400 C   0  0  0  0  0
   -4.9640   12.6950   -6.8020 C   0  0  0  0  0
   -5.8240   12.0860   -7.6900 C   0  0  0  0  0
   -4.9790   15.7660  -14.0640 O   0  0  0  0  0
   -2.6326   14.4162  -12.3216 H   0  0  0  0  0
   -3.4366   15.5987  -11.4095 H   0  0  0  0  0
   -3.6770   13.3644  -14.2627 H   0  0  0  0  0
   -5.4837   13.2292  -14.2630 H   0  0  0  0  0
   -3.5363   12.3513  -12.1176 H   0  0  0  0  0
   -4.6345   11.3260  -13.1147 H   0  0  0  0  0
   -6.8745    9.3485   -8.4231 H   0  0  0  0  0
   -3.5499   11.0470   -9.9826 H   0  0  0  0  0
   -1.2582   12.4947   -9.3421 H   0  0  0  0  0
   -1.0661   11.2698   -8.2158 H   0  0  0  0  0
   -1.9982   16.7270  -13.3721 H   0  0  0  0  0
   -4.8834   13.9434  -10.3281 H   0  0  0  0  0
   -6.6727   13.7348  -10.4055 H   0  0  0  0  0
   -6.7662   14.7386  -12.5582 H   0  0  0  0  0
   -5.7539   15.8121  -11.5043 H   0  0  0  0  0
   -8.5483    9.0016  -12.2248 H   0  0  0  0  0
   -2.1402   13.3253   -4.1630 H   0  0  0  0  0
   -2.6681   14.8976   -4.8114 H   0  0  0  0  0
   -3.8594   13.6033   -4.5345 H   0  0  0  0  0
   -5.3661   13.1638   -5.9038 H   0  0  0  0  0
   -6.8961   12.0787   -7.4936 H   0  0  0  0  0
  1 14  2  0  0  0
  1 15  1  0  0  0
 30  1  1  0  0  0
  3  2  1  0  0  0
  2 15  1  0  0  0
  4  3  1  0  0  0
  3 18  1  0  0  0
  3 30  1  0  0  0
  5  4  1  0  0  0
 16  5  1  0  0  0
  6  7  4  0  0  0
  6  9  4  0  0  0
  6 16  1  0  0  0
  7 19  1  0  0  0
  7 20  4  0  0  0
  9  8  4  0  0  0
  8 21  4  0  0  0
  9 10  1  0  0  0
 10 11  4  0  0  0
 10 29  4  0  0  0
 11 22  4  0  0  0
 22 12  1  0  0  0
 12 23  1  0  0  0
 22 13  4  0  0  0
 13 26  1  0  0  0
 13 28  4  0  0  0
 16 17  1  0  0  0
 17 18  1  0  0  0
 20 21  4  0  0  0
 23 24  2  0  0  0
 23 25  2  0  0  0
 23 26  1  0  0  0
 26 27  1  0  0  0
 28 29  4  0  0  0
  2 31  1  0  0  0
  2 32  1  0  0  0
  4 33  1  0  0  0
  4 34  1  0  0  0
  5 35  1  0  0  0
  5 36  1  0  0  0
  8 37  1  0  0  0
 11 38  1  0  0  0
 12 39  1  0  0  0
 12 40  1  0  0  0
 15 41  1  0  0  0
 17 42  1  0  0  0
 17 43  1  0  0  0
 18 44  1  0  0  0
 18 45  1  0  0  0
 20 46  1  0  0  0
 27 47  1  0  0  0
 27 48  1  0  0  0
 27 49  1  0  0  0
 28 50  1  0  0  0
 29 51  1  0  0  0
M  END
$$$$
