2ovy_ligand
  -I-interpret- 

 51 55  0  0  0  0  0  0  0  0999 V2000
   13.9590   16.1610   44.5920 C   0  0  0  0  0
   12.0060   19.0470   45.7600 C   0  0  0  0  0
   12.5570   18.0960   44.9150 C   0  0  0  0  0
   13.2230   18.0720   47.5500 C   0  0  0  0  0
   11.8950   23.3740   43.0850 C   0  0  0  0  0
    9.7640   21.9240   45.6790 C   0  0  0  0  0
   10.6730   20.4200   44.0260 C   0  0  0  0  0
   10.6630   20.9470   46.4250 C   0  0  0  0  0
   13.1030   24.1270   40.7020 C   0  0  0  0  0
   11.5130   17.3400   40.4480 C   0  0  0  0  0
   12.5830   16.8580   41.2580 O   0  0  0  0  0
   12.7170   17.0120   42.6710 C   0  0  0  0  0
   12.1730   18.0320   43.5300 C   0  0  0  0  0
   12.3470   19.0080   47.0900 N   0  0  0  0  0
   13.7210   17.1220   46.7300 N   0  0  0  0  0
   13.3800   17.1520   45.4190 C   0  0  0  0  0
   13.6110   16.0720   43.2330 C   0  0  0  0  0
   14.0600   15.0480   42.4400 O   0  0  0  0  0
   15.3810   14.5080   42.5800 C   0  0  0  0  0
   11.1540   20.0490   45.3550 N   0  0  0  0  0
   10.2590   21.9000   44.2580 C   0  0  0  0  0
   11.3030   22.9210   44.2210 O   0  0  0  0  0
   11.7440   22.6450   41.9220 N   0  0  0  0  0
   12.3610   22.9510   40.7450 C   0  0  0  0  0
   12.1780   22.1300   39.6400 C   0  0  0  0  0
   12.6480   22.5260   38.4270 C   0  0  0  0  0
   13.4200   23.7210   38.3730 C   0  0  0  0  0
   13.6390   24.5390   39.4890 C   0  0  0  0  0
   13.1710   24.8980   41.8600 N   0  0  0  0  0
   12.6630   24.5480   43.0610 C   0  0  0  0  0
   14.6809   15.4607   45.0121 H   0  0  0  0  0
   13.5268   18.0902   48.5966 H   0  0  0  0  0
    9.8121   22.9253   46.1070 H   0  0  0  0  0
    8.7140   21.6394   45.7462 H   0  0  0  0  0
    9.8629   19.7893   43.6600 H   0  0  0  0  0
   11.4147   20.2895   43.2380 H   0  0  0  0  0
   10.1355   20.4102   47.2135 H   0  0  0  0  0
   11.4725   21.4456   46.9581 H   0  0  0  0  0
   10.5760   16.8960   40.7842 H   0  0  0  0  0
   11.4540   18.4250   40.5343 H   0  0  0  0  0
   11.6940   17.0662   39.4086 H   0  0  0  0  0
   11.4669   18.7590   43.1288 H   0  0  0  0  0
   16.1144   15.2951   42.4047 H   0  0  0  0  0
   15.5052   14.1118   43.5878 H   0  0  0  0  0
   15.5240   13.7081   41.8535 H   0  0  0  0  0
    9.5731   22.1496   43.4485 H   0  0  0  0  0
   11.6617   21.1757   39.7442 H   0  0  0  0  0
   12.4407   21.9480   37.5264 H   0  0  0  0  0
   13.8608   24.0128   37.4198 H   0  0  0  0  0
   14.2090   25.4646   39.4082 H   0  0  0  0  0
   12.8389   25.1418   43.9580 H   0  0  0  0  0
 16  1  4  0  0  0
  1 17  4  0  0  0
  2  3  4  0  0  0
  2 14  4  0  0  0
 20  2  1  0  0  0
  3 13  4  0  0  0
  3 16  4  0  0  0
 14  4  4  0  0  0
  4 15  4  0  0  0
  5 22  1  0  0  0
 23  5  4  0  0  0
  5 30  4  0  0  0
  6  8  1  0  0  0
 21  6  1  0  0  0
  7 20  1  0  0  0
 21  7  1  0  0  0
 20  8  1  0  0  0
 24  9  4  0  0  0
  9 28  4  0  0  0
  9 29  4  0  0  0
 11 10  1  0  0  0
 12 11  1  0  0  0
 13 12  4  0  0  0
 12 17  4  0  0  0
 16 15  4  0  0  0
 17 18  1  0  0  0
 18 19  1  0  0  0
 22 21  1  0  0  0
 23 24  4  0  0  0
 24 25  4  0  0  0
 25 26  4  0  0  0
 26 27  4  0  0  0
 27 28  4  0  0  0
 29 30  4  0  0  0
  1 31  1  0  0  0
  4 32  1  0  0  0
  6 33  1  0  0  0
  6 34  1  0  0  0
  7 35  1  0  0  0
  7 36  1  0  0  0
  8 37  1  0  0  0
  8 38  1  0  0  0
 10 39  1  0  0  0
 10 40  1  0  0  0
 10 41  1  0  0  0
 13 42  1  0  0  0
 19 43  1  0  0  0
 19 44  1  0  0  0
 19 45  1  0  0  0
 21 46  1  0  0  0
 25 47  1  0  0  0
 26 48  1  0  0  0
 27 49  1  0  0  0
 28 50  1  0  0  0
 30 51  1  0  0  0
M  END
$$$$
