3ggc_ligand
  -I-interpret- 

 32 33  0  0  0  0  0  0  0  0999 V2000
   19.0370   10.7990   14.7110 O   0  0  0  0  0
   17.9180   11.0060   13.7180 P   0  0  0  0  0
   16.9520    9.8490   13.5900 O   0  0  0  0  0
   18.4090   11.5320   12.3880 O   0  0  0  0  0
   16.9100   12.3520   14.3970 C   0  0  0  0  0
   16.5860   12.1190   15.8720 C   0  0  0  0  0
   15.6780   13.1350   16.3140 O   0  0  0  0  0
   15.2460   12.9720   17.6650 C   0  0  0  0  0
   16.4340   12.8020   18.6090 C   0  0  0  0  0
   17.2580   14.0140   18.6990 N   0  0  0  0  0
   18.4640   14.1770   18.1330 C   0  0  0  0  0
   18.9360   15.4090   18.4300 N   0  0  0  0  0
   16.9560   15.1360   19.3670 C   0  0  0  0  0
   18.0080   16.0210   19.1950 C   0  0  0  0  0
   15.8880   15.5130   20.1110 N   0  0  0  0  0
   15.8460   16.7290   20.6750 C   0  0  0  0  0
   16.8540   17.6010   20.5250 N   0  0  0  0  0
   17.9440   17.2740   19.7910 C   0  0  0  0  0
   18.9690   18.1620   19.6380 O   0  0  0  0  0
   16.2783   10.0663   12.9415 H   0  0  0  0  0
   17.6627   11.6459   11.7950 H   0  0  0  0  0
   15.9738   12.3971   13.8406 H   0  0  0  0  0
   17.4715   13.2822   14.3094 H   0  0  0  0  0
   17.5018   12.1616   16.4615 H   0  0  0  0  0
   16.1299   11.1371   15.9983 H   0  0  0  0  0
   14.6235   12.0793   17.7255 H   0  0  0  0  0
   14.6906   13.8616   17.9620 H   0  0  0  0  0
   17.0595   11.9979   18.2213 H   0  0  0  0  0
   16.0449   12.5850   19.6038 H   0  0  0  0  0
   18.9821   13.4326   17.5284 H   0  0  0  0  0
   14.9761   17.0141   21.2666 H   0  0  0  0  0
   16.7991   18.5183   20.9676 H   0  0  0  0  0
  1  2  2  0  0  0
  2  3  1  0  0  0
  2  4  1  0  0  0
  2  5  1  0  0  0
  5  6  1  0  0  0
  6  7  1  0  0  0
  7  8  1  0  0  0
  8  9  1  0  0  0
  9 10  1  0  0  0
 10 11  4  0  0  0
 10 13  4  0  0  0
 11 12  4  0  0  0
 12 14  4  0  0  0
 13 14  4  0  0  0
 13 15  1  0  0  0
 14 18  1  0  0  0
 15 16  2  0  0  0
 16 17  1  0  0  0
 17 18  1  0  0  0
 18 19  2  0  0  0
  3 20  1  0  0  0
  4 21  1  0  0  0
  5 22  1  0  0  0
  5 23  1  0  0  0
  6 24  1  0  0  0
  6 25  1  0  0  0
  8 26  1  0  0  0
  8 27  1  0  0  0
  9 28  1  0  0  0
  9 29  1  0  0  0
 11 30  1  0  0  0
 16 31  1  0  0  0
 17 32  1  0  0  0
M  END
$$$$
