### 
### Created by X-TOOL on Mon Sep 10 21:13:02 2018
### 

@<TRIPOS>MOLECULE
3ggc_ligand
   30    31     1     0     0
SMALL
GAST_HUCK


@<TRIPOS>ATOM
      1 OAD        19.0370   10.7990   14.7110 O.co2     1 H26        -0.5622
      2 PAT        17.9180   11.0060   13.7180 P.3       1 H26         0.0600
      3 OAE        16.9520    9.8490   13.5900 O.co2     1 H26        -0.5622
      4 OAC        18.4090   11.5320   12.3880 O.co2     1 H26        -0.5622
      5 CAJ        16.9100   12.3520   14.3970 C.3       1 H26         0.0430
      6 CAH        16.5860   12.1190   15.8720 C.3       1 H26         0.0627
      7 OAN        15.6780   13.1350   16.3140 O.3       1 H26        -0.3756
      8 CAG        15.2460   12.9720   17.6650 C.3       1 H26         0.0755
      9 CAI        16.4340   12.8020   18.6090 C.3       1 H26         0.0828
     10 N9         17.2580   14.0140   18.6990 N.pl3     1 H26        -0.2316
     11 C8         18.4640   14.1770   18.1330 C.2       1 H26         0.0980
     12 N7         18.9360   15.4090   18.4300 N.2       1 H26        -0.3156
     13 C4         16.9560   15.1360   19.3670 C.2       1 H26         0.1334
     14 C5         18.0080   16.0210   19.1950 C.2       1 H26         0.1043
     15 N3         15.8880   15.5130   20.1110 N.2       1 H26        -0.2684
     16 C2         15.8460   16.7290   20.6750 C.2       1 H26         0.1273
     17 N1         16.8540   17.6010   20.5250 N.am      1 H26        -0.2042
     18 C6         17.9440   17.2740   19.7910 C.2       1 H26         0.2200
     19 O6         18.9690   18.1620   19.6380 O.2       1 H26        -0.4066
     20 H1         15.9695   12.4154   13.8301 H         1 H26         0.0474
     21 H2         17.4627   13.2979   14.2975 H         1 H26         0.0474
     22 H3         17.5110   12.1671   16.4653 H         1 H26         0.0574
     23 H4         16.1217   11.1296   15.9962 H         1 H26         0.0574
     24 H5         14.6048   12.0807   17.7314 H         1 H26         0.0588
     25 H6         14.6718   13.8601   17.9676 H         1 H26         0.0588
     26 H7         17.0607   11.9757   18.2423 H         1 H26         0.0641
     27 H8         16.0553   12.5576   19.6124 H         1 H26         0.0641
     28 H9         18.9816   13.4333   17.5289 H         1 H26         0.1212
     29 H10        14.9769   17.0139   21.2661 H         1 H26         0.1493
     30 H11        16.8002   18.5003   20.9589 H         1 H26         0.2557
@<TRIPOS>BOND
     1    1    2 ar 
     2    2    3 ar 
     3    2    4 ar 
     4    2    5 1  
     5    5    6 1  
     6    6    7 1  
     7    7    8 1  
     8    8    9 1  
     9    9   10 1  
    10   10   11 1  
    11   10   13 1  
    12   11   12 2  
    13   12   14 1  
    14   13   14 2  
    15   13   15 1  
    16   14   18 1  
    17   15   16 2  
    18   16   17 am 
    19   17   18 am 
    20   18   19 2  
    21    5   20 1  
    22    5   21 1  
    23    6   22 1  
    24    6   23 1  
    25    8   24 1  
    26    8   25 1  
    27    9   26 1  
    28    9   27 1  
    29   11   28 1  
    30   16   29 1  
    31   17   30 1  
@<TRIPOS>SUBSTRUCTURE
     1 H26         1

