187l_ligand
  -I-interpret- 

 18 18  0  0  0  0  0  0  0  0999 V2000
   26.6450    6.1410    4.6680 C   0  0  0  0  0
   26.7810    5.6710    3.4440 C   0  0  0  0  0
   27.2700    6.4720    2.4350 C   0  0  0  0  0
   27.5830    7.7750    2.6860 C   0  0  0  0  0
   27.4420    8.2660    3.9390 C   0  0  0  0  0
   26.9790    7.4340    4.9470 C   0  0  0  0  0
   26.1370    5.2260    5.7700 C   0  0  0  0  0
   28.1020    8.6640    1.5520 C   0  0  0  0  0
   26.5041    4.6391    3.2280 H   0  0  0  0  0
   27.4069    6.0630    1.4340 H   0  0  0  0  0
   27.6900    9.3054    4.1539 H   0  0  0  0  0
   26.8817    7.8137    5.9641 H   0  0  0  0  0
   25.1428    4.8630    5.5096 H   0  0  0  0  0
   26.8163    4.3808    5.8807 H   0  0  0  0  0
   26.0888    5.7803    6.7073 H   0  0  0  0  0
   29.0236    8.2405    1.1528 H   0  0  0  0  0
   27.3530    8.7171    0.7619 H   0  0  0  0  0
   28.2974    9.6648    1.9371 H   0  0  0  0  0
  1  2  4  0  0  0
  1  6  4  0  0  0
  1  7  1  0  0  0
  2  3  4  0  0  0
  3  4  4  0  0  0
  4  5  4  0  0  0
  4  8  1  0  0  0
  5  6  4  0  0  0
  2  9  1  0  0  0
  3 10  1  0  0  0
  5 11  1  0  0  0
  6 12  1  0  0  0
  7 13  1  0  0  0
  7 14  1  0  0  0
  7 15  1  0  0  0
  8 16  1  0  0  0
  8 17  1  0  0  0
  8 18  1  0  0  0
M  END
$$$$
