5o1i_ligand
  -I-interpret- 

 40 42  0  0  0  0  0  0  0  0999 V2000
   90.2750   93.3590  -46.7560 N   0  0  0  0  0
   90.1430   91.4940  -48.2510 N   0  0  0  0  0
   91.5110   92.6050  -43.3940 C   0  0  0  0  0
   91.4840   93.8640  -42.7770 C   0  0  0  0  0
   91.0490   95.0020  -43.4650 C   0  0  0  0  0
   90.4380   92.0830  -47.0500 C   0  0  0  0  0
   90.1490   96.1700  -45.5030 C   0  0  0  0  0
   93.5670   90.2010  -41.7010 C   0  0  0  0  0
   89.5300   92.2730  -49.3270 C   0  0  0  0  0
   91.8290   89.7690  -48.7760 C   0  0  0  0  0
   90.6140   94.9330  -44.8010 C   0  0  0  0  0
   90.6480   93.6670  -45.4510 C   0  0  0  0  0
   91.0990   92.5540  -44.7340 C   0  0  0  0  0
   91.0390   91.1570  -45.7290 S   0  0  0  0  0
   92.0640   94.0910  -40.7350 I   0  0  0  0  0
   91.0100   96.2140  -42.8190 O   0  0  0  0  0
   90.0260   97.2110  -44.7780 O   0  0  0  0  0
   89.9520   96.1080  -46.7570 O   0  0  0  0  0
   92.0190   91.4750  -42.7100 N   0  0  0  0  0
   93.3490   91.3910  -42.3460 C   0  0  0  0  0
   92.3360   89.5140  -41.6850 C   0  0  0  0  0
   91.4110   90.3090  -42.3200 C   0  0  0  0  0
   90.3690   90.0720  -48.4890 C   0  0  0  0  0
   88.0220   92.0900  -49.3810 C   0  0  0  0  0
   94.5108   89.8529  -41.2812 H   0  0  0  0  0
   89.9473   91.9304  -50.2739 H   0  0  0  0  0
   89.7373   93.3272  -49.1431 H   0  0  0  0  0
   92.1451   90.3179  -49.6630 H   0  0  0  0  0
   92.4363   90.0730  -47.9234 H   0  0  0  0  0
   91.9500   88.6993  -48.9468 H   0  0  0  0  0
   90.6916   96.8878  -43.4242 H   0  0  0  0  0
   90.2317   96.9909  -43.8665 H   0  0  0  0  0
   94.1057   92.1509  -42.5409 H   0  0  0  0  0
   92.1513   88.5322  -41.2490 H   0  0  0  0  0
   90.3644   90.0540  -42.4864 H   0  0  0  0  0
   89.7817   89.7740  -49.3575 H   0  0  0  0  0
   90.0771   89.5255  -47.5922 H   0  0  0  0  0
   87.7907   91.0382  -49.5495 H   0  0  0  0  0
   87.5841   92.4129  -48.4365 H   0  0  0  0  0
   87.6136   92.6881  -50.1956 H   0  0  0  0  0
  6  1  4  0  0  0
 12  1  4  0  0  0
  6  2  1  0  0  0
  2  9  1  0  0  0
  2 23  1  0  0  0
  3  4  4  0  0  0
  3 13  4  0  0  0
 19  3  1  0  0  0
  4  5  4  0  0  0
  4 15  1  0  0  0
  5 11  4  0  0  0
  5 16  1  0  0  0
 14  6  4  0  0  0
 11  7  1  0  0  0
  7 17  1  0  0  0
  7 18  2  0  0  0
 20  8  4  0  0  0
  8 21  4  0  0  0
  9 24  1  0  0  0
 23 10  1  0  0  0
 12 11  4  0  0  0
 13 12  4  0  0  0
 13 14  4  0  0  0
 19 20  4  0  0  0
 19 22  4  0  0  0
 21 22  4  0  0  0
  8 25  1  0  0  0
  9 26  1  0  0  0
  9 27  1  0  0  0
 10 28  1  0  0  0
 10 29  1  0  0  0
 10 30  1  0  0  0
 16 31  1  0  0  0
 17 32  1  0  0  0
 20 33  1  0  0  0
 21 34  1  0  0  0
 22 35  1  0  0  0
 23 36  1  0  0  0
 23 37  1  0  0  0
 24 38  1  0  0  0
 24 39  1  0  0  0
 24 40  1  0  0  0
M  END
$$$$
