5mrh_ligand
  -I-interpret- 

 28 28  0  0  0  0  0  0  0  0999 V2000
  -28.7180   39.2740   11.5380 C   0  0  0  0  0
  -28.9020   40.4540   12.5710 C   0  0  0  0  0
  -29.6510   41.5840   11.9450 C   0  0  0  0  0
  -29.6000   39.9280   13.8470 C   0  0  0  0  0
  -30.6000   40.9430   14.4550 C   0  0  0  0  0
  -32.7510   39.3310   14.6870 C   0  0  0  0  0
  -33.8500   39.3670   13.6850 C   0  0  0  0  0
  -31.9140   40.3990   14.3050 N   0  3  0  0  0
  -33.8210   40.6150   13.0580 N   0  0  0  0  0
  -32.6380   41.2680   13.4280 N   0  3  0  0  0
  -34.6220   38.4730   13.4570 O   0  0  0  0  0
  -28.1070   38.4913   11.9875 H   0  0  0  0  0
  -29.6946   38.8680   11.2744 H   0  0  0  0  0
  -28.2258   39.6511   10.6415 H   0  0  0  0  0
  -27.9249   40.8403   12.8612 H   0  0  0  0  0
  -30.6511   41.2479   11.6711 H   0  0  0  0  0
  -29.7249   42.4072   12.6557 H   0  0  0  0  0
  -29.1219   41.9189   11.0528 H   0  0  0  0  0
  -28.8277   39.7370   14.5921 H   0  0  0  0  0
  -30.1606   39.0341   13.5733 H   0  0  0  0  0
  -30.5254   41.9028   13.9437 H   0  0  0  0  0
  -30.3767   41.1120   15.5084 H   0  0  0  0  0
  -32.2273   38.3751   14.6950 H   0  0  0  0  0
  -33.1167   39.4347   15.7086 H   0  0  0  0  0
  -31.4241   39.7759   14.9469 H   0  0  0  0  0
  -34.5390   40.9875   12.4365 H   0  0  0  0  0
  -32.0793   41.4831   12.6022 H   0  0  0  0  0
  -32.8514   42.1477   13.8982 H   0  0  0  0  0
  2  1  1  0  0  0
  2  3  1  0  0  0
  4  2  1  0  0  0
  5  4  1  0  0  0
  8  5  1  0  0  0
  6  7  1  0  0  0
  6  8  1  0  0  0
  7  9  1  0  0  0
  7 11  2  0  0  0
  8 10  1  0  0  0
  9 10  1  0  0  0
  1 12  1  0  0  0
  1 13  1  0  0  0
  1 14  1  0  0  0
  2 15  1  0  0  0
  3 16  1  0  0  0
  3 17  1  0  0  0
  3 18  1  0  0  0
  4 19  1  0  0  0
  4 20  1  0  0  0
  5 21  1  0  0  0
  5 22  1  0  0  0
  6 23  1  0  0  0
  6 24  1  0  0  0
  8 25  1  0  0  0
  9 26  1  0  0  0
 10 27  1  0  0  0
 10 28  1  0  0  0
M  END
$$$$
