2fgi_ligand
  -I-interpret- 

 80 82  0  0  0  0  0  0  0  0999 V2000
    9.7300    6.0540   29.1360 C   0  0  0  0  0
   11.1620    5.7790   28.6910 C   0  0  0  0  0
   13.0390    4.6910   30.8380 C   0  0  0  0  0
   12.8670    4.0160   29.4650 C   0  0  0  0  0
   10.8880    3.3130   27.9900 C   0  0  0  0  0
   10.4530    3.8870   26.6560 C   0  0  0  0  0
    9.4540    2.9910   25.9730 C   0  0  0  0  0
    8.9500    3.6270   24.6840 C   0  0  0  0  0
    7.1310    3.0720   22.9050 C   0  0  0  0  0
    5.7400    2.2150   21.2950 C   0  0  0  0  0
    6.0240    3.3180   20.4860 C   0  0  0  0  0
    6.9000    4.3240   20.9760 C   0  0  0  0  0
    5.4770    3.4670   19.1980 C   0  0  0  0  0
    5.8210    4.5680   18.4330 C   0  0  0  0  0
    6.6830    5.4990   18.9790 C   0  0  0  0  0
    5.2980    4.6730   17.1530 C   0  0  0  0  0
    5.8270    3.8790   16.1330 C   0  0  0  0  0
    5.3200    3.9650   14.8510 C   0  0  0  0  0
    4.2880    4.8070   14.5410 C   0  0  0  0  0
    3.7620    5.5890   15.5520 C   0  0  0  0  0
    4.2470    5.5340   16.8560 C   0  0  0  0  0
    5.0810    2.5360   12.8020 C   0  0  0  0  0
    1.7620    6.2110   14.1600 C   0  0  0  0  0
    7.9120    7.6430   18.4980 C   0  0  0  0  0
    9.2370    8.8210   20.2280 C   0  0  0  0  0
   10.5680    8.7190   19.5510 C   0  0  0  0  0
    8.6280   10.1930   19.9490 C   0  0  0  0  0
    9.4340    8.6440   21.7060 C   0  0  0  0  0
   11.4990    4.3260   28.9210 N   0  3  0  0  0
    7.7510    2.9590   24.1820 N   0  0  0  0  0
    6.3230    2.0940   22.5420 N   0  0  0  0  0
    7.4290    4.1450   22.1800 N   0  0  0  0  0
    7.1900    5.3550   20.2030 N   0  0  0  0  0
    7.0700    6.6520   18.2320 N   0  0  0  0  0
    8.3600    7.7640   19.7500 N   0  0  0  0  0
    5.8570    3.1510   13.8580 O   0  0  0  0  0
    2.6890    6.4300   15.2610 O   0  0  0  0  0
    8.2250    8.4490   17.6210 O   0  0  0  0  0
    9.0460    5.4295   28.5613 H   0  0  0  0  0
    9.6300    5.8238   30.1967 H   0  0  0  0  0
    9.4938    7.1046   28.9670 H   0  0  0  0  0
   11.8447    6.4029   29.2679 H   0  0  0  0  0
   11.2598    6.0079   27.6298 H   0  0  0  0  0
   12.9272    5.7696   30.7277 H   0  0  0  0  0
   12.2806    4.3141   31.5243 H   0  0  0  0  0
   14.0305    4.4654   31.2307 H   0  0  0  0  0
   13.6249    4.3923   28.7779 H   0  0  0  0  0
   12.9785    2.9372   29.5742 H   0  0  0  0  0
    9.9970    2.9196   28.4793 H   0  0  0  0  0
   11.6494    2.5602   27.7858 H   0  0  0  0  0
   11.3303    3.9791   26.0158 H   0  0  0  0  0
    9.9861    4.8562   26.8315 H   0  0  0  0  0
    8.6078    2.8339   26.6418 H   0  0  0  0  0
    9.9377    2.0444   25.7322 H   0  0  0  0  0
    9.7322    3.5393   23.9300 H   0  0  0  0  0
    8.7014    4.6681   24.8900 H   0  0  0  0  0
    5.0545    1.4453   20.9405 H   0  0  0  0  0
    4.7869    2.7202   18.8054 H   0  0  0  0  0
    6.6427    3.1891   16.3493 H   0  0  0  0  0
    3.8920    4.8598   13.5268 H   0  0  0  0  0
    3.8083    6.1581   17.6345 H   0  0  0  0  0
    4.3268    1.8825   13.2405 H   0  0  0  0  0
    4.5928    3.3120   12.2125 H   0  0  0  0  0
    5.7411    1.9520   12.1607 H   0  0  0  0  0
    2.3112    6.2128   13.2185 H   0  0  0  0  0
    1.2654    5.2495   14.2906 H   0  0  0  0  0
    1.0177    7.0073   14.1495 H   0  0  0  0  0
   11.0146    7.7501   19.7745 H   0  0  0  0  0
   10.4349    8.8193   18.4738 H   0  0  0  0  0
   11.2203    9.5135   19.9134 H   0  0  0  0  0
    8.4825   10.3130   18.8754 H   0  0  0  0  0
    7.6677   10.2732   20.4583 H   0  0  0  0  0
    9.3006   10.9688   20.3147 H   0  0  0  0  0
    8.4692    8.7039   22.2096 H   0  0  0  0  0
    9.8852    7.6703   21.8971 H   0  0  0  0  0
   10.0901    9.4297   22.0805 H   0  0  0  0  0
   10.9309    4.1560   29.7509 H   0  0  0  0  0
    7.2951    2.3238   24.8371 H   0  0  0  0  0
    6.6138    6.7289   17.3229 H   0  0  0  0  0
    8.0635    7.0590   20.4249 H   0  0  0  0  0
  2  1  1  0  0  0
 29  2  1  0  0  0
  5 29  1  0  0  0
 29  4  1  0  0  0
  4  3  1  0  0  0
  6  5  1  0  0  0
  7  6  1  0  0  0
  8  7  1  0  0  0
 30  8  1  0  0  0
  9 30  1  0  0  0
 31  9  4  0  0  0
 32  9  4  0  0  0
 12 32  4  0  0  0
 33 12  4  0  0  0
 11 12  4  0  0  0
 13 11  4  0  0  0
 11 10  4  0  0  0
 10 31  4  0  0  0
 14 13  4  0  0  0
 16 14  1  0  0  0
 14 15  4  0  0  0
 15 33  4  0  0  0
 15 34  1  0  0  0
 34 24  1  0  0  0
 24 35  1  0  0  0
 24 38  2  0  0  0
 35 25  1  0  0  0
 25 28  1  0  0  0
 25 27  1  0  0  0
 25 26  1  0  0  0
 16 21  4  0  0  0
 17 16  4  0  0  0
 18 17  4  0  0  0
 36 18  1  0  0  0
 18 19  4  0  0  0
 19 20  4  0  0  0
 20 37  1  0  0  0
 20 21  4  0  0  0
 37 23  1  0  0  0
 36 22  1  0  0  0
  1 39  1  0  0  0
  1 40  1  0  0  0
  1 41  1  0  0  0
  2 42  1  0  0  0
  2 43  1  0  0  0
  3 44  1  0  0  0
  3 45  1  0  0  0
  3 46  1  0  0  0
  4 47  1  0  0  0
  4 48  1  0  0  0
  5 49  1  0  0  0
  5 50  1  0  0  0
  6 51  1  0  0  0
  6 52  1  0  0  0
  7 53  1  0  0  0
  7 54  1  0  0  0
  8 55  1  0  0  0
  8 56  1  0  0  0
 10 57  1  0  0  0
 13 58  1  0  0  0
 17 59  1  0  0  0
 19 60  1  0  0  0
 21 61  1  0  0  0
 22 62  1  0  0  0
 22 63  1  0  0  0
 22 64  1  0  0  0
 23 65  1  0  0  0
 23 66  1  0  0  0
 23 67  1  0  0  0
 26 68  1  0  0  0
 26 69  1  0  0  0
 26 70  1  0  0  0
 27 71  1  0  0  0
 27 72  1  0  0  0
 27 73  1  0  0  0
 28 74  1  0  0  0
 28 75  1  0  0  0
 28 76  1  0  0  0
 29 77  1  0  0  0
 30 78  1  0  0  0
 34 79  1  0  0  0
 35 80  1  0  0  0
M  END
$$$$
