3fum_ligand
  -I-interpret- 

 45 47  0  0  0  0  0  0  0  0999 V2000
  -27.1110   -0.3150   -1.5110 C   0  0  0  0  0
  -28.1710   -0.1470   -0.6170 C   0  0  0  0  0
  -27.9010    0.5350    0.5600 C   0  0  0  0  0
  -26.6120    1.0170    0.8040 C   0  0  0  0  0
  -25.5680    0.8570   -0.0960 C   0  0  0  0  0
  -25.8240    0.2040   -1.2730 C   0  0  0  0  0
  -24.6990   -0.0210   -2.2340 C   0  0  0  0  0
  -25.1410   -1.1170   -3.0620 O   0  0  0  0  0
  -24.1390    1.0830   -3.0920 C   0  0  0  0  0
  -23.7850    0.8120   -4.4140 C   0  0  0  0  0
  -23.2530    1.7700   -5.2400 C   0  0  0  0  0
  -23.0390    2.9810   -4.7410 N   0  0  0  0  0
  -23.3370    3.2930   -3.4720 C   0  0  0  0  0
  -23.8820    2.3530   -2.6040 C   0  0  0  0  0
  -28.8360    0.7540    1.5350 O   0  0  0  0  0
  -30.1870    0.9140    1.2060 C   0  0  0  0  0
  -30.8960    1.8310    2.1880 C   0  0  0  0  0
  -32.0240    2.3380    1.4070 N   0  3  0  0  0
  -33.3710    1.9340    1.7270 C   0  0  0  0  0
  -34.2220    2.7990    0.7780 C   0  0  0  0  0
  -33.3240    3.7760    0.0550 C   0  0  0  0  0
  -31.8980    3.2600    0.2810 C   0  0  0  0  0
  -27.2876   -0.8713   -2.4316 H   0  0  0  0  0
  -29.1662   -0.5347   -0.8348 H   0  0  0  0  0
  -26.4187    1.5404    1.7403 H   0  0  0  0  0
  -24.5722    1.2401    0.1271 H   0  0  0  0  0
  -23.8281   -0.1781   -1.5977 H   0  0  0  0  0
  -25.4957   -1.8142   -2.5055 H   0  0  0  0  0
  -23.9361   -0.1946   -4.8039 H   0  0  0  0  0
  -23.0125    1.5424   -6.2785 H   0  0  0  0  0
  -23.1482    4.3047   -3.1128 H   0  0  0  0  0
  -24.1009    2.6091   -1.5674 H   0  0  0  0  0
  -30.6678   -0.0637    1.2386 H   0  0  0  0  0
  -30.2496    1.3583    0.2126 H   0  0  0  0  0
  -30.2520    2.6253    2.5655 H   0  0  0  0  0
  -31.2081    1.3169    3.0970 H   0  0  0  0  0
  -31.0246    2.2802    1.6028 H   0  0  0  0  0
  -33.6209    2.0852    2.7772 H   0  0  0  0  0
  -33.5370    0.8654    1.5902 H   0  0  0  0  0
  -34.9690    3.3460    1.3533 H   0  0  0  0  0
  -34.7249    2.1593    0.0527 H   0  0  0  0  0
  -33.4480    4.7904    0.4341 H   0  0  0  0  0
  -33.5661    3.8331   -1.0062 H   0  0  0  0  0
  -31.4918    2.7730   -0.6055 H   0  0  0  0  0
  -31.1964    4.0681    0.4880 H   0  0  0  0  0
  1  2  4  0  0  0
  1  6  4  0  0  0
  2  3  4  0  0  0
  3  4  4  0  0  0
  3 15  1  0  0  0
  4  5  4  0  0  0
  5  6  4  0  0  0
  6  7  1  0  0  0
  7  8  1  0  0  0
  7  9  1  0  0  0
  9 10  4  0  0  0
  9 14  4  0  0  0
 10 11  4  0  0  0
 11 12  4  0  0  0
 12 13  4  0  0  0
 13 14  4  0  0  0
 15 16  1  0  0  0
 16 17  1  0  0  0
 17 18  1  0  0  0
 18 19  1  0  0  0
 18 22  1  0  0  0
 19 20  1  0  0  0
 20 21  1  0  0  0
 21 22  1  0  0  0
  1 23  1  0  0  0
  2 24  1  0  0  0
  4 25  1  0  0  0
  5 26  1  0  0  0
  7 27  1  0  0  0
  8 28  1  0  0  0
 10 29  1  0  0  0
 11 30  1  0  0  0
 13 31  1  0  0  0
 14 32  1  0  0  0
 16 33  1  0  0  0
 16 34  1  0  0  0
 17 35  1  0  0  0
 17 36  1  0  0  0
 18 37  1  0  0  0
 19 38  1  0  0  0
 19 39  1  0  0  0
 20 40  1  0  0  0
 20 41  1  0  0  0
 21 42  1  0  0  0
 21 43  1  0  0  0
 22 44  1  0  0  0
 22 45  1  0  0  0
M  END
$$$$
