3v8s_ligand
  -I-interpret- 

 36 38  0  0  0  0  0  0  0  0999 V2000
  -43.7130    0.2100   35.5230 C   0  0  0  0  0
  -46.4180    3.1460   30.6340 N   0  0  0  0  0
  -46.3030    3.1620   29.2010 C   0  0  0  0  0
  -45.5000    4.0420   27.0780 C   0  0  0  0  0
  -47.0350    2.1300   27.1010 C   0  0  0  0  0
  -47.0610    2.1930   28.4960 C   0  0  0  0  0
  -44.5190    4.3300   31.3050 O   0  0  0  0  0
  -45.5500    3.7450   31.5960 C   0  0  0  0  0
  -45.8990    3.6130   32.9650 N   0  0  0  0  0
  -45.0380    4.1810   33.9540 C   0  0  0  0  0
  -45.1920    3.6770   35.3450 C   0  0  0  0  0
  -45.0400    2.2120   35.5930 C   0  0  0  0  0
  -46.0920    1.4910   36.1420 C   0  0  0  0  0
  -45.9540    0.1280   36.3790 C   0  0  0  0  0
  -44.7630   -0.5140   36.0710 C   0  0  0  0  0
  -43.8470    1.5700   35.2820 C   0  0  0  0  0
  -45.5270    4.1080   28.4900 C   0  0  0  0  0
  -46.2530    3.0700   26.3880 C   0  0  0  0  0
  -46.0510    3.2760   25.0540 N   0  0  0  0  0
  -45.2200    4.2860   24.8570 N   0  0  0  0  0
  -44.8350    4.8030   26.0210 C   0  0  0  0  0
  -42.7770   -0.2931   35.2804 H   0  0  0  0  0
  -47.2214    2.6431   31.0109 H   0  0  0  0  0
  -47.6075    1.3694   26.5701 H   0  0  0  0  0
  -47.6748    1.4848   29.0526 H   0  0  0  0  0
  -46.7497    3.1212   33.2384 H   0  0  0  0  0
  -45.2833    5.2424   33.9910 H   0  0  0  0  0
  -44.0231    3.9222   33.6521 H   0  0  0  0  0
  -46.2215    3.9071   35.6192 H   0  0  0  0  0
  -44.3862    4.1467   35.9091 H   0  0  0  0  0
  -47.0272    1.9942   36.3875 H   0  0  0  0  0
  -46.7821   -0.4368   36.8071 H   0  0  0  0  0
  -44.6524   -1.5820   36.2585 H   0  0  0  0  0
  -43.0195    2.1330   34.8503 H   0  0  0  0  0
  -44.9607    4.8732   29.0210 H   0  0  0  0  0
  -44.1503    5.6395   26.1609 H   0  0  0  0  0
  1 15  4  0  0  0
 16  1  4  0  0  0
  2  3  1  0  0  0
  8  2  1  0  0  0
  3  6  4  0  0  0
  3 17  4  0  0  0
 17  4  4  0  0  0
  4 18  4  0  0  0
  4 21  4  0  0  0
  6  5  4  0  0  0
  5 18  4  0  0  0
  8  7  2  0  0  0
  9  8  1  0  0  0
 10  9  1  0  0  0
 11 10  1  0  0  0
 12 11  1  0  0  0
 12 13  4  0  0  0
 12 16  4  0  0  0
 13 14  4  0  0  0
 14 15  4  0  0  0
 18 19  4  0  0  0
 19 20  4  0  0  0
 20 21  4  0  0  0
  1 22  1  0  0  0
  2 23  1  0  0  0
  5 24  1  0  0  0
  6 25  1  0  0  0
  9 26  1  0  0  0
 10 27  1  0  0  0
 10 28  1  0  0  0
 11 29  1  0  0  0
 11 30  1  0  0  0
 13 31  1  0  0  0
 14 32  1  0  0  0
 15 33  1  0  0  0
 16 34  1  0  0  0
 17 35  1  0  0  0
 21 36  1  0  0  0
M  END
$$$$
