4x13_ligand
  -I-interpret- 

130134  0  0  0  0  0  0  0  0999 V2000
   19.8680   24.2490   10.0540 C   0  0  0  0  0
   18.9580   25.4050   10.5050 C   0  0  0  0  0
   17.6910   24.9150   11.2230 C   0  0  0  0  0
   18.0340   24.3510   12.5990 C   0  0  0  0  0
   18.8390   25.3630   13.4200 C   0  0  0  0  0
   20.0710   25.7280   12.6310 C   0  0  0  0  0
   20.9770   26.7250   13.3340 C   0  0  0  0  0
   22.1110   27.2360   12.4640 C   0  0  0  0  0
   23.1930   27.8910   13.3200 C   0  0  0  0  0
   19.2660   25.4160   15.8400 C   0  0  0  0  0
   19.6720   24.5940   17.0360 C   0  0  0  0  0
   19.2140   24.7740   14.6810 N   0  0  0  0  0
   19.3890   23.1350    9.7200 O   0  0  0  0  0
   21.1010   24.4430    9.9870 O   0  0  0  0  0
   16.8430   23.9640   13.2970 O   0  0  0  0  0
   19.6510   26.2820   11.3890 O   0  0  0  0  0
   20.2250   27.8600   13.7480 O   0  0  0  0  0
   22.6410   26.1770   11.6750 O   0  0  0  0  0
   24.2990   28.2050   12.4690 O   0  0  0  0  0
   19.0210   26.5960   15.9450 O   0  0  0  0  0
   18.6510   24.6360    5.7180 C   0  0  0  0  0
   19.3930   25.3080    4.5610 C   0  0  0  0  0
   20.7640   25.7490    5.0280 C   0  0  0  0  0
   20.6160   26.5930    6.2790 C   0  0  0  0  0
   19.7780   25.8940    7.3390 C   0  0  0  0  0
   19.5220   26.7580    8.5660 C   0  0  0  0  0
   19.5600   24.4020    3.4840 O   0  0  0  0  0
   21.3970   26.4830    4.0010 O   0  0  0  0  0
   19.9330   27.7610    5.9480 O   0  0  0  0  0
   18.5310   25.5060    6.8180 O   0  0  0  0  0
   18.5000   26.1580    9.3590 O   0  0  0  0  0
   14.2620   21.8330    6.3170 C   0  0  0  0  0
   14.9180   22.5580    7.4730 C   0  0  0  0  0
   15.8420   23.6610    6.9860 C   0  0  0  0  0
   16.8060   23.1460    5.9250 C   0  0  0  0  0
   16.0500   22.3790    4.8630 C   0  0  0  0  0
   16.9930   21.7730    3.8300 C   0  0  0  0  0
   13.8780   22.6980    9.6920 C   0  0  0  0  0
   12.7710   23.3040   10.5110 C   0  0  0  0  0
   13.9140   23.0590    8.4010 N   0  0  0  0  0
   16.5480   24.2100    8.0750 O   0  0  0  0  0
   17.3630   24.2430    5.2460 O   0  0  0  0  0
   15.2720   21.3610    5.4590 O   0  0  0  0  0
   17.7440   20.7220    4.3870 O   0  0  0  0  0
   14.6800   21.9160   10.2300 O   0  0  0  0  0
   10.2220   19.1980    5.9980 C   0  0  0  0  0
   11.3520   19.8100    6.8180 C   0  0  0  0  0
   12.4820   20.2940    5.9490 C   0  0  0  0  0
   12.9410   19.1280    5.0960 C   0  0  0  0  0
   11.7490   18.5540    4.3130 C   0  0  0  0  0
   12.1850   17.3290    3.5180 C   0  0  0  0  0
   10.8800   20.9190    7.5260 O   0  0  0  0  0
   13.4730   20.7420    6.8400 O   0  0  0  0  0
   13.5290   18.1270    5.9140 O   0  0  0  0  0
   10.7050   18.1580    5.1810 O   0  0  0  0  0
   11.0930   16.7510    2.8410 O   0  0  0  0  0
    6.6780   16.1000    6.6430 C   0  0  0  0  0
    7.9870   16.7430    7.0580 C   0  0  0  0  0
    8.1160   18.1090    6.3950 C   0  0  0  0  0
    6.8650   18.9610    6.6410 C   0  0  0  0  0
    6.8970   20.2410    5.8270 C   0  0  0  0  0
    5.5370   17.0340    7.0330 C   0  0  0  0  0
    4.2720   16.4400    6.7260 O   0  0  0  0  0
    6.5470   14.8280    7.2870 O   0  0  0  0  0
    9.0980   15.8990    6.7270 O   0  0  0  0  0
    9.2620   18.7570    6.9680 O   0  0  0  0  0
    5.6700   18.2560    6.3090 O   0  0  0  0  0
    7.3460   21.2740    6.6990 O   0  0  0  0  0
   17.2292   24.1291   10.6254 H   0  0  0  0  0
   17.0090   25.7562   11.3472 H   0  0  0  0  0
   18.6520   23.4643   12.4576 H   0  0  0  0  0
   18.2444   26.2546   13.6188 H   0  0  0  0  0
   20.6559   24.8173   12.5025 H   0  0  0  0  0
   21.4047   26.1834   14.1777 H   0  0  0  0  0
   21.7213   27.9970   11.7879 H   0  0  0  0  0
   23.5082   27.2128   14.1129 H   0  0  0  0  0
   22.8072   28.7974   13.7865 H   0  0  0  0  0
   20.5866   25.0045   17.4639 H   0  0  0  0  0
   18.8767   24.6213   17.7809 H   0  0  0  0  0
   19.8453   23.5637   16.7253 H   0  0  0  0  0
   19.4590   23.7839   14.6818 H   0  0  0  0  0
   18.4354   23.1521    9.8297 H   0  0  0  0  0
   16.3540   23.3308   12.7665 H   0  0  0  0  0
   19.4956   27.5742   14.3029 H   0  0  0  0  0
   23.3565   26.5127   11.1300 H   0  0  0  0  0
   24.9929   28.6188   12.9875 H   0  0  0  0  0
   19.2112   23.7651    6.0583 H   0  0  0  0  0
   18.8069   26.1650    4.2292 H   0  0  0  0  0
   21.3785   24.8795    5.2613 H   0  0  0  0  0
   21.6170   26.7814    6.6672 H   0  0  0  0  0
   20.3617   25.0246    7.6415 H   0  0  0  0  0
   19.2045   27.7525    8.2526 H   0  0  0  0  0
   20.4375   26.8408    9.1518 H   0  0  0  0  0
   20.0266   24.8399    2.7683 H   0  0  0  0  0
   22.2662   26.7623    4.2979 H   0  0  0  0  0
   19.8326   28.3049    6.7326 H   0  0  0  0  0
   13.6047   22.4979    5.7567 H   0  0  0  0  0
   15.5396   21.8436    8.0128 H   0  0  0  0  0
   15.2343   24.4410    6.5272 H   0  0  0  0  0
   17.5527   22.5257    6.4207 H   0  0  0  0  0
   15.3956   23.0829    4.3488 H   0  0  0  0  0
   17.6781   22.5476    3.4855 H   0  0  0  0  0
   16.4003   21.3794    3.0042 H   0  0  0  0  0
   12.1428   22.5099   10.9145 H   0  0  0  0  0
   13.2006   23.8807   11.3301 H   0  0  0  0  0
   12.1704   23.9589    9.8797 H   0  0  0  0  0
   13.2097   23.7108    8.0552 H   0  0  0  0  0
   17.1295   24.9058    7.7599 H   0  0  0  0  0
   18.3285   20.3583    3.7179 H   0  0  0  0  0
    9.7673   19.9043    5.3034 H   0  0  0  0  0
   11.7122   19.0274    7.4857 H   0  0  0  0  0
   12.2127   21.1029    5.2698 H   0  0  0  0  0
   13.6906   19.4768    4.3856 H   0  0  0  0  0
   11.3914   19.3399    3.6477 H   0  0  0  0  0
   12.5976   16.5931    4.2082 H   0  0  0  0  0
   12.9291   17.6360    2.7830 H   0  0  0  0  0
   11.5970   21.2983    8.0394 H   0  0  0  0  0
   13.8159   17.3940    5.3644 H   0  0  0  0  0
   11.3930   15.9832    2.3490 H   0  0  0  0  0
    6.6519   15.9372    5.5655 H   0  0  0  0  0
    7.9914   16.8768    8.1397 H   0  0  0  0  0
    8.2269   17.9892    5.3173 H   0  0  0  0  0
    6.8658   19.1970    7.7051 H   0  0  0  0  0
    5.9084   20.4721    5.4302 H   0  0  0  0  0
    7.5650   20.1391    4.9717 H   0  0  0  0  0
    5.5839   17.2215    8.1057 H   0  0  0  0  0
    3.5676   17.0416    6.9781 H   0  0  0  0  0
    5.7181   14.4213    7.0240 H   0  0  0  0  0
    9.9143   16.3253    6.9983 H   0  0  0  0  0
    7.3800   22.1045    6.2186 H   0  0  0  0  0
  2  1  1  0  0  0
  1 13  1  0  0  0
  1 14  2  0  0  0
  2  3  1  0  0  0
  2 16  1  0  0  0
 31  2  1  0  0  0
  3  4  1  0  0  0
  4  5  1  0  0  0
  4 15  1  0  0  0
  6  5  1  0  0  0
  5 12  1  0  0  0
  6  7  1  0  0  0
 16  6  1  0  0  0
  7  8  1  0  0  0
  7 17  1  0  0  0
  8  9  1  0  0  0
  8 18  1  0  0  0
  9 19  1  0  0  0
 10 11  1  0  0  0
 12 10  1  0  0  0
 10 20  2  0  0  0
 21 22  1  0  0  0
 21 30  1  0  0  0
 42 21  1  0  0  0
 22 23  1  0  0  0
 22 27  1  0  0  0
 23 24  1  0  0  0
 23 28  1  0  0  0
 25 24  1  0  0  0
 24 29  1  0  0  0
 25 26  1  0  0  0
 30 25  1  0  0  0
 26 31  1  0  0  0
 32 33  1  0  0  0
 32 43  1  0  0  0
 53 32  1  0  0  0
 33 34  1  0  0  0
 33 40  1  0  0  0
 34 35  1  0  0  0
 34 41  1  0  0  0
 36 35  1  0  0  0
 35 42  1  0  0  0
 36 37  1  0  0  0
 43 36  1  0  0  0
 37 44  1  0  0  0
 38 39  1  0  0  0
 40 38  1  0  0  0
 38 45  2  0  0  0
 46 47  1  0  0  0
 46 55  1  0  0  0
 66 46  1  0  0  0
 47 48  1  0  0  0
 47 52  1  0  0  0
 48 49  1  0  0  0
 48 53  1  0  0  0
 50 49  1  0  0  0
 49 54  1  0  0  0
 50 51  1  0  0  0
 55 50  1  0  0  0
 51 56  1  0  0  0
 58 57  1  0  0  0
 57 62  1  0  0  0
 57 64  1  0  0  0
 59 58  1  0  0  0
 58 65  1  0  0  0
 59 60  1  0  0  0
 59 66  1  0  0  0
 60 61  1  0  0  0
 60 67  1  0  0  0
 61 68  1  0  0  0
 62 63  1  0  0  0
 62 67  1  0  0  0
  3 69  1  0  0  0
  3 70  1  0  0  0
  4 71  1  0  0  0
  5 72  1  0  0  0
  6 73  1  0  0  0
  7 74  1  0  0  0
  8 75  1  0  0  0
  9 76  1  0  0  0
  9 77  1  0  0  0
 11 78  1  0  0  0
 11 79  1  0  0  0
 11 80  1  0  0  0
 12 81  1  0  0  0
 13 82  1  0  0  0
 15 83  1  0  0  0
 17 84  1  0  0  0
 18 85  1  0  0  0
 19 86  1  0  0  0
 21 87  1  0  0  0
 22 88  1  0  0  0
 23 89  1  0  0  0
 24 90  1  0  0  0
 25 91  1  0  0  0
 26 92  1  0  0  0
 26 93  1  0  0  0
 27 94  1  0  0  0
 28 95  1  0  0  0
 29 96  1  0  0  0
 32 97  1  0  0  0
 33 98  1  0  0  0
 34 99  1  0  0  0
 35100  1  0  0  0
 36101  1  0  0  0
 37102  1  0  0  0
 37103  1  0  0  0
 39104  1  0  0  0
 39105  1  0  0  0
 39106  1  0  0  0
 40107  1  0  0  0
 41108  1  0  0  0
 44109  1  0  0  0
 46110  1  0  0  0
 47111  1  0  0  0
 48112  1  0  0  0
 49113  1  0  0  0
 50114  1  0  0  0
 51115  1  0  0  0
 51116  1  0  0  0
 52117  1  0  0  0
 54118  1  0  0  0
 56119  1  0  0  0
 57120  1  0  0  0
 58121  1  0  0  0
 59122  1  0  0  0
 60123  1  0  0  0
 61124  1  0  0  0
 61125  1  0  0  0
 62126  1  0  0  0
 63127  1  0  0  0
 64128  1  0  0  0
 65129  1  0  0  0
 68130  1  0  0  0
M  END
$$$$
