6oja_ligand
  -I-interpret- 

 21 20  0  0  0  0  0  0  0  0999 V2000
   50.6110   -8.4570  -30.7950 N   0  3  0  0  0
   50.0660   -9.3550  -31.8380 C   0  0  0  0  0
   50.5880  -10.7480  -31.6030 C   0  0  0  0  0
   49.8790  -11.7440  -31.7660 O   0  0  0  0  0
   50.4760   -8.8930  -33.2190 C   0  0  0  0  0
   49.8890   -9.7170  -34.3330 C   0  0  0  0  0
   50.4590   -9.1320  -35.9550 S   0  0  0  0  0
   49.6810   -7.5250  -36.0590 C   0  0  0  0  0
   51.7660  -10.8970  -31.2110 O   0  0  0  0  0
   50.3206   -8.7900  -29.8757 H   0  0  0  0  0
   51.6295   -8.4525  -30.8502 H   0  0  0  0  0
   50.2571   -7.5119  -30.9430 H   0  0  0  0  0
   48.9776   -9.3407  -31.7803 H   0  0  0  0  0
   51.5603   -8.9834  -33.2839 H   0  0  0  0  0
   50.1123   -7.8729  -33.3422 H   0  0  0  0  0
   48.8031   -9.6304  -34.2943 H   0  0  0  0  0
   50.2076  -10.7515  -34.2051 H   0  0  0  0  0
   48.5989   -7.6422  -36.0013 H   0  0  0  0  0
   50.0249   -6.9022  -35.2332 H   0  0  0  0  0
   49.9468   -7.0547  -37.0057 H   0  0  0  0  0
   52.1869  -10.0378  -31.1322 H   0  0  0  0  0
  1  2  1  0  0  0
  2  3  1  0  0  0
  2  5  1  0  0  0
  3  4  2  0  0  0
  3  9  1  0  0  0
  5  6  1  0  0  0
  6  7  1  0  0  0
  7  8  1  0  0  0
  1 10  1  0  0  0
  1 11  1  0  0  0
  1 12  1  0  0  0
  2 13  1  0  0  0
  5 14  1  0  0  0
  5 15  1  0  0  0
  6 16  1  0  0  0
  6 17  1  0  0  0
  8 18  1  0  0  0
  8 19  1  0  0  0
  8 20  1  0  0  0
  9 21  1  0  0  0
M  END
$$$$
