6bl2_ligand
  -I-interpret- 

 58 62  0  0  0  0  0  0  0  0999 V2000
   35.2150  218.8930   44.7120 C   0  0  0  0  0
   35.8400  218.6680   43.5020 C   0  0  0  0  0
   36.6470  219.6380   42.9460 C   0  0  0  0  0
   36.8510  220.8530   43.5890 C   0  0  0  0  0
   37.7600  221.9610   43.0640 C   0  0  0  0  0
   39.1430  222.7700   45.1130 C   0  0  0  0  0
   36.5370  225.3670   44.1680 C   0  0  0  0  0
   35.1490  224.5170   42.5580 C   0  0  0  0  0
   36.9950  223.2700   43.2390 C   0  0  0  0  0
   32.6050  225.9370   40.3510 C   0  0  0  0  0
   31.6460  226.9280   40.2050 C   0  0  0  0  0
   31.1220  227.5400   41.3270 C   0  0  0  0  0
   32.5220  226.1890   42.7200 C   0  0  0  0  0
   38.0820  221.7830   41.5700 C   0  0  0  0  0
   39.4630  220.5700   39.8190 C   0  0  0  0  0
   31.5570  227.1690   42.5860 C   0  0  0  0  0
   36.2080  221.0430   44.8060 C   0  0  0  0  0
   35.3860  220.0900   45.3740 C   0  0  0  0  0
   37.3620  224.2620   44.1360 C   0  0  0  0  0
   33.0580  225.5650   41.6060 C   0  0  0  0  0
   40.0950  220.2590   42.2410 C   0  0  0  0  0
   34.7350  220.3540   46.6830 C   0  0  0  0  0
   38.5680  224.1670   45.0090 C   0  0  0  0  0
   39.0900  220.7080   41.2190 C   0  0  0  0  0
   39.9410  220.7160   43.6790 C   0  0  0  0  0
   39.1300  222.0210   43.7870 C   0  0  0  0  0
   41.2980  220.7510   44.3580 C   0  0  0  0  0
   39.7430  220.4180   38.7070 N   0  0  0  0  0
   35.4390  225.5150   43.4120 N   0  0  0  0  0
   35.8970  223.4130   42.4740 N   0  0  0  0  0
   34.0220  224.5390   41.7120 N   0  0  0  0  0
   35.3350  221.1780   47.4360 O   0  0  0  0  0
   40.9910  219.5000   41.8920 O   0  0  0  0  0
   33.6500  219.7530   46.9410 O   0  0  0  0  0
   34.5822  218.1193   45.1468 H   0  0  0  0  0
   35.6950  217.7199   42.9841 H   0  0  0  0  0
   37.1320  219.4491   41.9883 H   0  0  0  0  0
   38.5281  222.2094   45.8171 H   0  0  0  0  0
   40.1810  222.8611   45.4328 H   0  0  0  0  0
   36.7947  226.1741   44.8537 H   0  0  0  0  0
   33.0078  225.4441   39.4662 H   0  0  0  0  0
   31.3079  227.2221   39.2114 H   0  0  0  0  0
   30.3646  228.3165   41.2198 H   0  0  0  0  0
   32.8654  225.9038   43.7144 H   0  0  0  0  0
   38.5194  222.7257   41.2412 H   0  0  0  0  0
   37.1475  221.4877   41.0930 H   0  0  0  0  0
   31.1395  227.6487   43.4712 H   0  0  0  0  0
   36.3589  221.9842   45.3347 H   0  0  0  0  0
   39.3371  224.8018   44.5689 H   0  0  0  0  0
   38.2662  224.4684   46.0121 H   0  0  0  0  0
   38.4024  219.8726   41.3508 H   0  0  0  0  0
   39.3423  219.9897   44.2287 H   0  0  0  0  0
   39.7397  222.7102   43.2027 H   0  0  0  0  0
   41.7366  219.7533   44.3422 H   0  0  0  0  0
   41.9505  221.4446   43.8276 H   0  0  0  0  0
   41.1780  221.0802   45.3901 H   0  0  0  0  0
   33.8884  223.7256   41.1113 H   0  0  0  0  0
   36.1333  221.4853   47.0003 H   0  0  0  0  0
  2  1  4  0  0  0
 18  1  4  0  0  0
  3  2  4  0  0  0
  4  3  4  0  0  0
  5  4  1  0  0  0
  4 17  4  0  0  0
  9  5  1  0  0  0
  5 14  1  0  0  0
  5 26  1  0  0  0
 23  6  1  0  0  0
 26  6  1  0  0  0
  7 19  4  0  0  0
 29  7  4  0  0  0
  8 29  4  0  0  0
  8 30  4  0  0  0
 31  8  1  0  0  0
  9 19  4  0  0  0
 30  9  4  0  0  0
 10 11  4  0  0  0
 20 10  4  0  0  0
 11 12  4  0  0  0
 16 12  4  0  0  0
 13 16  4  0  0  0
 20 13  4  0  0  0
 14 24  1  0  0  0
 24 15  1  0  0  0
 15 28  3  0  0  0
 17 18  4  0  0  0
 18 22  1  0  0  0
 19 23  1  0  0  0
 20 31  1  0  0  0
 24 21  1  0  0  0
 21 25  1  0  0  0
 21 33  2  0  0  0
 22 32  1  0  0  0
 22 34  2  0  0  0
 25 26  1  0  0  0
 25 27  1  0  0  0
  1 35  1  0  0  0
  2 36  1  0  0  0
  3 37  1  0  0  0
  6 38  1  0  0  0
  6 39  1  0  0  0
  7 40  1  0  0  0
 10 41  1  0  0  0
 11 42  1  0  0  0
 12 43  1  0  0  0
 13 44  1  0  0  0
 14 45  1  0  0  0
 14 46  1  0  0  0
 16 47  1  0  0  0
 17 48  1  0  0  0
 23 49  1  0  0  0
 23 50  1  0  0  0
 24 51  1  0  0  0
 25 52  1  0  0  0
 26 53  1  0  0  0
 27 54  1  0  0  0
 27 55  1  0  0  0
 27 56  1  0  0  0
 31 57  1  0  0  0
 32 58  1  0  0  0
M  END
$$$$
