1pxi_ligand
  -I-interpret- 

 19 20  0  0  0  0  0  0  0  0999 V2000
   14.1710   44.2750   29.7290 Cl  0  0  0  0  0
   13.9210   43.8330   28.1520 C   0  0  0  0  0
   13.5610   44.8640   27.1930 C   0  0  0  0  0
   14.0410   42.2850   27.5350 S   0  0  0  0  0
   13.6360   42.9200   26.0360 C   0  0  0  0  0
   13.5570   41.8900   24.8440 Cl  0  0  0  0  0
   13.3880   44.2500   25.9070 C   0  0  0  0  0
   13.0440   45.0630   24.7370 C   0  0  0  0  0
   13.6210   44.9160   23.5010 N   0  0  0  0  0
   12.0360   46.0840   24.8510 C   0  0  0  0  0
   11.7180   46.8850   23.7250 C   0  0  0  0  0
   12.3890   46.5950   22.5350 N   0  0  0  0  0
   13.3000   45.6930   22.5060 C   0  0  0  0  0
   13.8560   45.4570   21.3100 N   0  0  0  0  0
   13.4423   45.9249   27.4132 H   0  0  0  0  0
   11.5197   46.2407   25.7981 H   0  0  0  0  0
   10.9845   47.6890   23.7853 H   0  0  0  0  0
   14.5125   44.6847   21.1963 H   0  0  0  0  0
   13.6227   46.0496   20.5133 H   0  0  0  0  0
  2  1  1  0  0  0
  2  3  4  0  0  0
  2  4  4  0  0  0
  3  7  4  0  0  0
  4  5  4  0  0  0
  5  6  1  0  0  0
  5  7  4  0  0  0
  7  8  1  0  0  0
  8  9  4  0  0  0
  8 10  4  0  0  0
  9 13  4  0  0  0
 10 11  4  0  0  0
 11 12  4  0  0  0
 12 13  4  0  0  0
 13 14  1  0  0  0
  3 15  1  0  0  0
 10 16  1  0  0  0
 11 17  1  0  0  0
 14 18  1  0  0  0
 14 19  1  0  0  0
M  END
$$$$
