3cda_ligand
  -I-interpret- 

 81 84  0  0  0  0  0  0  0  0999 V2000
   21.7720   26.0980   14.1560 N   0  0  0  0  0
   16.5350   24.4240   17.1810 C   0  0  0  0  0
   15.5700   24.0430   18.1180 C   0  0  0  0  0
   18.1760   23.7710   15.3620 C   0  0  0  0  0
   18.0090   23.5820   14.0030 C   0  0  0  0  0
   20.0630   24.3550   14.3530 C   0  0  0  0  0
   19.9790   24.5550   16.9480 C   0  0  0  0  0
   20.9440   25.3630   19.4560 C   0  0  0  0  0
   20.0850   23.6380   17.9850 C   0  0  0  0  0
   22.9810   26.6470   13.8430 C   0  0  0  0  0
   25.3430   27.9700   13.0700 C   0  0  0  0  0
   25.3920   26.6610   13.5650 C   0  0  0  0  0
   24.2180   25.9960   13.9440 C   0  0  0  0  0
   19.8600   25.2760   11.4240 C   0  0  0  0  0
   16.7500   23.1070   13.3180 C   0  0  0  0  0
   15.5310   21.1720   12.3300 C   0  0  0  0  0
   16.8040   17.6360   16.1000 O   0  0  0  0  0
   15.7920   17.3590   15.4610 C   0  0  0  0  0
   14.7630   16.7640   16.0510 O   0  0  0  0  0
   15.6940   17.7240   14.0070 C   0  0  0  0  0
   15.4480   19.2200   13.8960 C   0  0  0  0  0
   14.1610   19.5490   14.3790 O   0  0  0  0  0
   15.5330   19.6580   12.4450 C   0  0  0  0  0
   15.2560   21.5150   10.9810 O   0  0  0  0  0
   16.9010   21.7190   12.7340 C   0  0  0  0  0
   17.1390   23.4570   16.3900 C   0  0  0  0  0
   16.7950   22.1160   16.5500 C   0  0  0  0  0
   15.8420   21.7320   17.4870 C   0  0  0  0  0
   15.2310   22.7010   18.2730 C   0  0  0  0  0
   14.3070   22.3300   19.1750 F   0  0  0  0  0
   19.1790   23.9410   13.4110 N   0  0  0  0  0
   19.3720   23.9140   11.9200 C   0  0  0  0  0
   20.2500   22.7570   11.4730 C   0  0  0  0  0
   19.4490   24.2060   15.5950 C   0  0  0  0  0
   20.3380   25.8860   17.1850 C   0  0  0  0  0
   20.8300   26.2930   18.4260 C   0  0  0  0  0
   20.5740   24.0390   19.2300 C   0  0  0  0  0
   21.4770   24.7970   14.1410 C   0  0  0  0  0
   22.1730   23.9760   13.5700 O   0  0  0  0  0
   22.9460   27.9460   13.3380 C   0  0  0  0  0
   24.1110   28.6120   12.9670 C   0  0  0  0  0
   26.6630   28.7720   12.6430 S   0  0  0  0  0
   27.7390   27.8980   12.2940 O   0  0  0  0  0
   26.3590   29.6320   11.5290 O   0  0  0  0  0
   27.0590   29.6990   13.8850 N   0  0  0  0  0
   21.0266   26.7399   14.4257 H   0  0  0  0  0
   16.8109   25.4729   17.0726 H   0  0  0  0  0
   15.0803   24.8001   18.7305 H   0  0  0  0  0
   21.3201   25.6687   20.4323 H   0  0  0  0  0
   19.7856   22.6019   17.8269 H   0  0  0  0  0
   26.3527   26.1543   13.6564 H   0  0  0  0  0
   24.2670   24.9730   14.3171 H   0  0  0  0  0
   19.1221   26.0382   11.6745 H   0  0  0  0  0
   20.8094   25.5166   11.9023 H   0  0  0  0  0
   19.9950   25.2405   10.3430 H   0  0  0  0  0
   16.5297   23.7948   12.5016 H   0  0  0  0  0
   15.9527   23.0760   14.0606 H   0  0  0  0  0
   14.7742   21.6000   12.9874 H   0  0  0  0  0
   14.0642   16.6237   15.4079 H   0  0  0  0  0
   14.8728   17.1781   13.5426 H   0  0  0  0  0
   16.6205   17.4620   13.4961 H   0  0  0  0  0
   16.2081   19.7278   14.4897 H   0  0  0  0  0
   14.0237   20.4959   14.3012 H   0  0  0  0  0
   16.4614   19.2771   12.0195 H   0  0  0  0  0
   14.6670   19.2665   11.9112 H   0  0  0  0  0
   15.2508   22.4706   10.8897 H   0  0  0  0  0
   17.3446   21.0610   13.4812 H   0  0  0  0  0
   17.5425   21.7671   11.8541 H   0  0  0  0  0
   17.2789   21.3588   15.9331 H   0  0  0  0  0
   15.5770   20.6812   17.6036 H   0  0  0  0  0
   18.4057   23.7290   11.4508 H   0  0  0  0  0
   20.2730   22.7197   10.3839 H   0  0  0  0  0
   21.2609   22.9013   11.8543 H   0  0  0  0  0
   19.8436   21.8231   11.8613 H   0  0  0  0  0
   20.2315   26.6191   16.3854 H   0  0  0  0  0
   21.1226   27.3305   18.5876 H   0  0  0  0  0
   20.6672   23.3084   20.0335 H   0  0  0  0  0
   21.9860   28.4510   13.2313 H   0  0  0  0  0
   24.0591   29.6356   12.5960 H   0  0  0  0  0
   27.9809   29.6122   14.3126 H   0  0  0  0  0
   26.3896   30.3769   14.2493 H   0  0  0  0  0
  1 10  1  0  0  0
 38  1  1  0  0  0
  2  3  4  0  0  0
 26  2  4  0  0  0
  3 29  4  0  0  0
  5  4  4  0  0  0
  4 26  1  0  0  0
 34  4  4  0  0  0
  5 15  1  0  0  0
 31  5  4  0  0  0
 31  6  4  0  0  0
  6 34  4  0  0  0
  6 38  1  0  0  0
  7  9  4  0  0  0
 34  7  1  0  0  0
  7 35  4  0  0  0
  8 36  4  0  0  0
 37  8  4  0  0  0
  9 37  4  0  0  0
 10 13  4  0  0  0
 10 40  4  0  0  0
 12 11  4  0  0  0
 11 41  4  0  0  0
 11 42  1  0  0  0
 13 12  4  0  0  0
 32 14  1  0  0  0
 15 25  1  0  0  0
 16 23  1  0  0  0
 16 24  1  0  0  0
 25 16  1  0  0  0
 18 17  2  0  0  0
 18 19  1  0  0  0
 20 18  1  0  0  0
 21 20  1  0  0  0
 21 22  1  0  0  0
 23 21  1  0  0  0
 26 27  4  0  0  0
 27 28  4  0  0  0
 28 29  4  0  0  0
 29 30  1  0  0  0
 31 32  1  0  0  0
 32 33  1  0  0  0
 35 36  4  0  0  0
 38 39  2  0  0  0
 40 41  4  0  0  0
 42 43  2  0  0  0
 42 44  2  0  0  0
 42 45  1  0  0  0
  1 46  1  0  0  0
  2 47  1  0  0  0
  3 48  1  0  0  0
  8 49  1  0  0  0
  9 50  1  0  0  0
 12 51  1  0  0  0
 13 52  1  0  0  0
 14 53  1  0  0  0
 14 54  1  0  0  0
 14 55  1  0  0  0
 15 56  1  0  0  0
 15 57  1  0  0  0
 16 58  1  0  0  0
 19 59  1  0  0  0
 20 60  1  0  0  0
 20 61  1  0  0  0
 21 62  1  0  0  0
 22 63  1  0  0  0
 23 64  1  0  0  0
 23 65  1  0  0  0
 24 66  1  0  0  0
 25 67  1  0  0  0
 25 68  1  0  0  0
 27 69  1  0  0  0
 28 70  1  0  0  0
 32 71  1  0  0  0
 33 72  1  0  0  0
 33 73  1  0  0  0
 33 74  1  0  0  0
 35 75  1  0  0  0
 36 76  1  0  0  0
 37 77  1  0  0  0
 40 78  1  0  0  0
 41 79  1  0  0  0
 45 80  1  0  0  0
 45 81  1  0  0  0
M  END
$$$$
