1qpl_ligand
  -I-interpret- 

143148  0  0  0  0  0  0  0  0999 V2000
   47.9280   29.9990    5.2070 C   0  0  0  0  0
   48.0600   29.7790    3.7070 C   0  0  0  0  0
   49.3580   30.4020    3.2000 C   0  0  0  0  0
   49.3660   31.9220    3.2410 C   0  0  0  0  0
   48.2010   32.4780    2.4490 C   0  0  0  0  0
   46.9000   31.8960    2.9590 C   0  0  0  0  0
   46.2470   29.6840    2.1900 C   0  0  0  0  0
   45.3170   30.2640    1.3720 C   0  0  0  0  0
   43.9070   30.6050    1.7810 C   0  0  0  0  0
   43.4350   29.5440    2.7860 C   0  0  0  0  0
   42.2140   30.0740    3.5270 C   0  0  0  0  0
   42.4080   31.4970    4.0320 C   0  0  0  0  0
   42.8100   32.3970    2.8580 C   0  0  0  0  0
   43.0270   33.8840    3.1020 C   0  0  0  0  0
   43.9920   34.1050    4.2710 C   0  0  0  0  0
   44.3060   35.5570    4.6450 C   0  0  0  0  0
   43.1210   36.3050    5.2750 C   0  0  0  0  0
   43.0730   35.9870    6.7570 C   0  0  0  0  0
   42.4750   34.8700    7.1750 C   0  0  0  0  0
   42.4450   34.3990    8.5890 C   0  0  0  0  0
   43.2030   33.0880    8.7680 C   0  0  0  0  0
   44.6430   33.2160    9.2570 C   0  0  0  0  0
   45.5240   32.0330    8.8440 C   0  0  0  0  0
   45.7360   32.0010    7.3240 C   0  0  0  0  0
   46.5020   30.7020    7.0500 C   0  0  0  0  0
   45.6540   29.5200    7.4160 C   0  0  0  0  0
   46.0920   28.7080    8.3810 C   0  0  0  0  0
   45.3660   27.5350    8.9790 C   0  0  0  0  0
   46.3320   26.3810    9.2530 C   0  0  0  0  0
   45.7260   25.1850    9.9960 C   0  0  0  0  0
   45.1200   25.6550   11.3210 C   0  0  0  0  0
   44.1140   26.7740   11.0690 C   0  0  0  0  0
   44.7170   27.9400   10.3050 C   0  0  0  0  0
   43.0580   28.2830    2.0440 C   0  0  0  0  0
   44.8160   36.2820    3.4050 C   0  0  0  0  0
   43.7020   36.9400    7.7550 C   0  0  0  0  0
   40.9910   34.2420    9.0200 C   0  0  0  0  0
   40.8200   33.9090   10.4770 C   0  0  0  0  0
   46.5600   33.1950    6.8790 C   0  0  0  0  0
   44.3810   29.3060    6.6260 C   0  0  0  0  0
   40.9700   31.4140    5.8980 C   0  0  0  0  0
   41.1990   34.7910    2.0640 C   0  0  0  0  0
   47.3780   23.5920    9.3140 C   0  0  0  0  0
   44.8260   24.4020   13.2840 C   0  0  0  0  0
   46.1740   24.3740   13.6540 C   0  0  0  0  0
   43.8150   24.5390   14.2410 C   0  0  0  0  0
   44.1450   24.6710   15.6040 C   0  0  0  0  0
   46.5290   24.4960   14.9700 C   0  0  0  0  0
   45.5080   24.6460   15.9250 C   0  0  0  0  0
   43.3380   24.8570   16.7120 C   0  0  0  0  0
   45.5660   24.8570   17.4020 N   0  0  0  0  0
   44.0060   24.9960   17.9210 C   0  0  0  0  0
   46.7610   25.0320   18.2720 C   0  0  0  0  0
   47.0050   30.4310    2.9580 N   0  0  0  0  0
   46.7840   30.5770    5.6700 O   0  0  0  0  0
   48.8470   29.6810    5.9650 O   0  0  0  0  0
   46.3080   28.4520    2.1560 O   0  0  0  0  0
   45.6500   30.5680    0.2240 O   0  0  0  0  0
   43.9960   31.9040    2.2980 O   0  0  0  0  0
   43.0760   30.6430    0.6440 O   0  0  0  0  0
   41.1770   31.9150    4.5850 O   0  0  0  0  0
   41.7360   34.4060    3.3250 O   0  0  0  0  0
   42.6610   31.9960    8.5730 O   0  0  0  0  0
   46.7790   32.2120    9.5110 O   0  0  0  0  0
   46.7030   24.2450   10.3900 O   0  0  0  0  0
   44.4940   24.5300   11.9590 O   0  0  0  0  0
   43.2070   37.7100    5.0870 O   0  0  0  0  0
   48.0219   28.6996    3.5600 H   0  0  0  0  0
   49.4762   30.1043    2.1581 H   0  0  0  0  0
   50.1609   30.0550    3.8504 H   0  0  0  0  0
   50.2969   32.2839    2.8044 H   0  0  0  0  0
   49.2793   32.2495    4.2770 H   0  0  0  0  0
   48.3238   32.2134    1.3988 H   0  0  0  0  0
   48.1765   33.5619    2.5620 H   0  0  0  0  0
   46.0779   32.2081    2.3149 H   0  0  0  0  0
   46.7074   32.2521    3.9710 H   0  0  0  0  0
   44.2340   29.3246    3.4942 H   0  0  0  0  0
   42.0410   29.4321    4.3908 H   0  0  0  0  0
   41.3745   30.0762    2.8318 H   0  0  0  0  0
   43.1938   31.5522    4.7854 H   0  0  0  0  0
   41.9281   32.3512    2.2191 H   0  0  0  0  0
   43.4992   34.3941    2.2624 H   0  0  0  0  0
   44.9401   33.6643    3.9629 H   0  0  0  0  0
   43.5071   33.6698    5.1448 H   0  0  0  0  0
   45.0731   35.5395    5.4192 H   0  0  0  0  0
   42.2092   35.9714    4.7795 H   0  0  0  0  0
   41.9714   34.2568    6.4277 H   0  0  0  0  0
   42.9438   35.1381    9.2159 H   0  0  0  0  0
   44.6216   33.2492   10.3463 H   0  0  0  0  0
   45.0659   34.1161    8.8109 H   0  0  0  0  0
   45.0515   31.0898    9.1184 H   0  0  0  0  0
   44.7909   32.0426    6.7826 H   0  0  0  0  0
   47.4201   30.7326    7.6367 H   0  0  0  0  0
   47.0847   28.9185    8.7789 H   0  0  0  0  0
   44.6059   27.2154    8.2661 H   0  0  0  0  0
   47.1214   26.7784    9.8910 H   0  0  0  0  0
   46.6618   26.0117    8.2820 H   0  0  0  0  0
   45.0044   24.7452    9.3075 H   0  0  0  0  0
   45.8978   26.0516   11.9736 H   0  0  0  0  0
   43.7761   27.1456   12.0364 H   0  0  0  0  0
   43.3004   26.3651   10.4698 H   0  0  0  0  0
   43.9076   28.6327   10.0742 H   0  0  0  0  0
   45.4970   28.3725   10.9316 H   0  0  0  0  0
   42.2543   28.5029    1.3413 H   0  0  0  0  0
   43.9258   27.9098    1.5002 H   0  0  0  0  0
   42.7230   27.5298    2.7571 H   0  0  0  0  0
   45.7182   35.7891    3.0428 H   0  0  0  0  0
   44.0501   36.2561    2.6298 H   0  0  0  0  0
   45.0431   37.3174    3.6588 H   0  0  0  0  0
   42.9382   37.2966    8.4460 H   0  0  0  0  0
   44.4820   36.4195    8.3106 H   0  0  0  0  0
   44.1363   37.7865    7.2231 H   0  0  0  0  0
   40.5703   33.4157    8.4470 H   0  0  0  0  0
   40.4961   35.1973    8.8455 H   0  0  0  0  0
   41.3253   32.9682   10.6951 H   0  0  0  0  0
   41.2530   34.7045   11.0834 H   0  0  0  0  0
   39.7583   33.8139   10.7045 H   0  0  0  0  0
   46.0387   34.1143    7.1459 H   0  0  0  0  0
   47.5309   33.1696    7.3739 H   0  0  0  0  0
   46.7002   33.1558    5.7988 H   0  0  0  0  0
   44.4372   28.3529    6.1001 H   0  0  0  0  0
   43.5297   29.2973    7.3066 H   0  0  0  0  0
   44.2626   30.1142    5.9043 H   0  0  0  0  0
   40.9743   30.3243    5.8746 H   0  0  0  0  0
   41.7682   31.7678    6.5505 H   0  0  0  0  0
   40.0092   31.7668    6.2729 H   0  0  0  0  0
   41.8410   35.5476    1.6129 H   0  0  0  0  0
   41.1479   33.9197    1.4110 H   0  0  0  0  0
   40.1984   35.1994    2.2060 H   0  0  0  0  0
   46.6521   23.0534    8.7049 H   0  0  0  0  0
   47.8874   24.3359    8.7015 H   0  0  0  0  0
   48.1079   22.8901    9.7173 H   0  0  0  0  0
   46.9443   24.2547   12.8921 H   0  0  0  0  0
   42.7699   24.5436   13.9314 H   0  0  0  0  0
   47.5767   24.4774   15.2702 H   0  0  0  0  0
   42.2509   24.8921   16.6406 H   0  0  0  0  0
   43.6126   25.1522   18.9254 H   0  0  0  0  0
   47.3958   24.1491   18.1971 H   0  0  0  0  0
   47.3189   25.9107   17.9484 H   0  0  0  0  0
   46.4403   25.1638   19.3054 H   0  0  0  0  0
   43.0017   29.7604    0.2737 H   0  0  0  0  0
   47.3681   31.4897    9.2812 H   0  0  0  0  0
   42.4485   38.1334    5.4957 H   0  0  0  0  0
  1  2  1  0  0  0
 55  1  1  0  0  0
  1 56  2  0  0  0
  2  3  1  0  0  0
  2 54  1  0  0  0
  3  4  1  0  0  0
  4  5  1  0  0  0
  6  5  1  0  0  0
 54  6  1  0  0  0
  7  8  1  0  0  0
 54  7  1  0  0  0
  7 57  2  0  0  0
  8  9  1  0  0  0
  8 58  2  0  0  0
  9 10  1  0  0  0
  9 59  1  0  0  0
  9 60  1  0  0  0
 10 11  1  0  0  0
 10 34  1  0  0  0
 11 12  1  0  0  0
 13 12  1  0  0  0
 12 61  1  0  0  0
 13 14  1  0  0  0
 59 13  1  0  0  0
 14 15  1  0  0  0
 14 62  1  0  0  0
 16 15  1  0  0  0
 17 16  1  0  0  0
 16 35  1  0  0  0
 18 17  1  0  0  0
 17 67  1  0  0  0
 19 18  2  0  0  0
 18 36  1  0  0  0
 20 19  1  0  0  0
 21 20  1  0  0  0
 20 37  1  0  0  0
 22 21  1  0  0  0
 21 63  2  0  0  0
 23 22  1  0  0  0
 24 23  1  0  0  0
 23 64  1  0  0  0
 25 24  1  0  0  0
 24 39  1  0  0  0
 26 25  1  0  0  0
 25 55  1  0  0  0
 27 26  2  0  0  0
 26 40  1  0  0  0
 28 27  1  0  0  0
 29 28  1  0  0  0
 33 28  1  0  0  0
 30 29  1  0  0  0
 31 30  1  0  0  0
 30 65  1  0  0  0
 31 32  1  0  0  0
 66 31  1  0  0  0
 32 33  1  0  0  0
 37 38  1  0  0  0
 61 41  1  0  0  0
 62 42  1  0  0  0
 65 43  1  0  0  0
 44 45  4  0  0  0
 44 46  4  0  0  0
 44 66  1  0  0  0
 45 48  4  0  0  0
 46 47  4  0  0  0
 47 49  4  0  0  0
 47 50  4  0  0  0
 48 49  4  0  0  0
 49 51  4  0  0  0
 50 52  4  0  0  0
 51 52  4  0  0  0
 51 53  1  0  0  0
  2 68  1  0  0  0
  3 69  1  0  0  0
  3 70  1  0  0  0
  4 71  1  0  0  0
  4 72  1  0  0  0
  5 73  1  0  0  0
  5 74  1  0  0  0
  6 75  1  0  0  0
  6 76  1  0  0  0
 10 77  1  0  0  0
 11 78  1  0  0  0
 11 79  1  0  0  0
 12 80  1  0  0  0
 13 81  1  0  0  0
 14 82  1  0  0  0
 15 83  1  0  0  0
 15 84  1  0  0  0
 16 85  1  0  0  0
 17 86  1  0  0  0
 19 87  1  0  0  0
 20 88  1  0  0  0
 22 89  1  0  0  0
 22 90  1  0  0  0
 23 91  1  0  0  0
 24 92  1  0  0  0
 25 93  1  0  0  0
 27 94  1  0  0  0
 28 95  1  0  0  0
 29 96  1  0  0  0
 29 97  1  0  0  0
 30 98  1  0  0  0
 31 99  1  0  0  0
 32100  1  0  0  0
 32101  1  0  0  0
 33102  1  0  0  0
 33103  1  0  0  0
 34104  1  0  0  0
 34105  1  0  0  0
 34106  1  0  0  0
 35107  1  0  0  0
 35108  1  0  0  0
 35109  1  0  0  0
 36110  1  0  0  0
 36111  1  0  0  0
 36112  1  0  0  0
 37113  1  0  0  0
 37114  1  0  0  0
 38115  1  0  0  0
 38116  1  0  0  0
 38117  1  0  0  0
 39118  1  0  0  0
 39119  1  0  0  0
 39120  1  0  0  0
 40121  1  0  0  0
 40122  1  0  0  0
 40123  1  0  0  0
 41124  1  0  0  0
 41125  1  0  0  0
 41126  1  0  0  0
 42127  1  0  0  0
 42128  1  0  0  0
 42129  1  0  0  0
 43130  1  0  0  0
 43131  1  0  0  0
 43132  1  0  0  0
 45133  1  0  0  0
 46134  1  0  0  0
 48135  1  0  0  0
 50136  1  0  0  0
 52137  1  0  0  0
 53138  1  0  0  0
 53139  1  0  0  0
 53140  1  0  0  0
 60141  1  0  0  0
 64142  1  0  0  0
 67143  1  0  0  0
M  END
$$$$
