2hug_ligand
  -I-interpret- 

220221  0  0  0  0  0  0  0  0999 V2000
  -11.8660   -9.8370   -6.5940 N   0  3  0  0  0
  -11.7930  -10.9980   -5.6680 C   0  0  0  0  0
  -12.1900  -10.6050   -4.2400 C   0  0  0  0  0
  -13.2780  -10.9610   -3.7860 O   0  0  0  0  0
  -10.4040  -11.6220   -5.7040 C   0  0  0  0  0
  -11.3310   -9.8670   -3.5000 N   0  0  0  0  0
  -11.6450   -9.4560   -2.1270 C   0  0  0  0  0
  -12.6270   -8.2860   -2.0750 C   0  0  0  0  0
  -12.2800   -7.1600   -2.4350 O   0  0  0  0  0
  -10.2870   -9.0330   -1.5760 C   0  0  0  0  0
   -9.5470   -8.5320   -2.7650 C   0  0  0  0  0
   -9.9980   -9.3830   -3.9220 C   0  0  0  0  0
  -13.8710   -8.5340   -1.6260 N   0  0  0  0  0
  -14.8950   -7.4900   -1.5270 C   0  0  0  0  0
  -14.5910   -6.4870   -0.4180 C   0  0  0  0  0
  -14.7390   -6.7910    0.7650 O   0  0  0  0  0
  -16.1710   -8.2710   -1.2080 C   0  0  0  0  0
  -15.6970   -9.5190   -0.5480 C   0  0  0  0  0
  -14.3740   -9.8470   -1.1820 C   0  0  0  0  0
  -14.1650   -5.2910   -0.8130 N   0  0  0  0  0
  -13.8400   -4.2620    0.1570 C   0  0  0  0  0
  -12.5230   -3.5800   -0.1540 C   0  0  0  0  0
  -12.4850   -2.5970   -0.8930 O   0  0  0  0  0
  -11.4400   -4.1090    0.4070 N   0  0  0  0  0
  -10.1110   -3.5570    0.1830 C   0  0  0  0  0
   -9.4540   -4.1670   -1.0490 C   0  0  0  0  0
   -9.9440   -5.1490   -1.6080 O   0  0  0  0  0
   -9.1890   -3.7910    1.3910 C   0  0  0  0  0
   -7.8340   -3.5280    1.0160 O   0  0  0  0  0
   -9.3070   -5.2190    1.9030 C   0  0  0  0  0
   -8.3370   -3.5770   -1.4640 N   0  0  0  0  0
   -7.6020   -4.0520   -2.6290 C   0  0  0  0  0
   -6.1090   -4.1690   -2.3240 C   0  0  0  0  0
   -5.6570   -3.7900   -1.2440 O   0  0  0  0  0
   -7.8340   -3.1200   -3.8110 C   0  0  0  0  0
   -5.3510   -4.6970   -3.2810 N   0  0  0  0  0
   -3.9100   -4.8660   -3.1130 C   0  0  0  0  0
   -3.1460   -4.1710   -4.2410 C   0  0  0  0  0
   -3.4000   -4.4310   -5.4160 O   0  0  0  0  0
   -3.5560   -6.3550   -3.0860 C   0  0  0  0  0
   -3.9450   -7.0920   -4.3550 C   0  0  0  0  0
   -3.6380   -8.5750   -4.2520 C   0  0  0  0  0
   -3.9370   -9.2780   -5.4940 N   0  0  0  0  0
   -3.7830  -10.5860   -5.6550 C   0  0  0  0  0
   -3.3430  -11.3330   -4.6520 N   0  0  0  0  0
   -4.0720  -11.1490   -6.8200 N   0  0  0  0  0
   -2.2130   -3.2800   -3.8870 N   0  0  0  0  0
   -1.4290   -2.5570   -4.8890 C   0  0  0  0  0
   -0.9680   -3.4890   -6.0140 C   0  0  0  0  0
   -1.2810   -3.2710   -7.1850 O   0  0  0  0  0
   -0.2170   -1.8940   -4.2280 C   0  0  0  0  0
    0.5870   -1.0120   -5.1690 C   0  0  0  0  0
   -0.2930    0.0200   -5.8560 C   0  0  0  0  0
    0.4930    0.9680   -6.6410 N   0  0  0  0  0
   -0.0420    1.8870   -7.4370 C   0  0  0  0  0
   -1.3600    1.9790   -7.5550 N   0  0  0  0  0
    0.7400    2.7130   -8.1170 N   0  0  0  0  0
   -0.2330   -4.5300   -5.6380 N   0  0  0  0  0
    0.2770   -5.5120   -6.5920 C   0  0  0  0  0
    0.5110   -6.8380   -5.8750 C   0  0  0  0  0
   -0.0980   -7.0960   -4.8400 O   0  0  0  0  0
    1.5750   -5.0030   -7.2270 C   0  0  0  0  0
    1.4110   -3.6950   -7.9830 C   0  0  0  0  0
    2.7340   -3.2150   -8.5600 C   0  0  0  0  0
    2.5650   -1.9280   -9.3510 C   0  0  0  0  0
    2.0880   -0.8070   -8.4950 N   0  3  0  0  0
    1.3680   -7.6950   -6.4240 N   0  0  0  0  0
    1.6690   -8.9650   -5.7740 C   0  0  0  0  0
    2.0830   -8.7170   -4.3240 C   0  0  0  0  0
    1.9420   -9.5880   -3.4650 O   0  0  0  0  0
    2.7950   -9.6880   -6.5120 C   0  0  0  0  0
    4.1270   -8.9610   -6.4320 C   0  0  0  0  0
    5.2660   -9.8180   -6.9590 C   0  0  0  0  0
    5.4280  -11.0450   -6.1820 N   0  0  0  0  0
    6.5160  -11.8080   -6.2260 C   0  0  0  0  0
    7.5380  -11.4660   -6.9990 N   0  0  0  0  0
    6.5830  -12.9110   -5.4950 N   0  0  0  0  0
    2.5910   -7.5130   -4.0660 N   0  0  0  0  0
    3.0310   -7.1280   -2.7340 C   0  0  0  0  0
    4.0530   -8.1160   -2.1900 C   0  0  0  0  0
    3.6970   -9.1970   -1.7180 O   0  0  0  0  0
    1.8470   -7.0240   -1.7690 C   0  0  0  0  0
    0.8750   -5.9010   -2.0900 C   0  0  0  0  0
   -0.0370   -5.6080   -0.9080 C   0  0  0  0  0
   -1.0790   -4.5570   -1.2550 C   0  0  0  0  0
   -1.9360   -4.2160   -0.0870 N   0  3  0  0  0
    5.3230   -7.7390   -2.2620 N   0  0  0  0  0
    6.3950   -8.5880   -1.7690 C   0  0  0  0  0
    6.5450   -8.4400   -0.2600 C   0  0  0  0  0
    6.8500   -7.3600    0.2330 O   0  0  0  0  0
    7.7060   -8.2400   -2.4600 C   0  0  0  0  0
    6.3230   -9.5240    0.4720 N   0  0  0  0  0
    6.4440   -9.4910    1.9250 C   0  0  0  0  0
    7.3350  -10.6210    2.4220 C   0  0  0  0  0
    6.9360  -11.4140    3.2740 O   0  0  0  0  0
    5.0670   -9.5770    2.5830 C   0  0  0  0  0
    4.2930  -10.8040    2.1460 C   0  0  0  0  0
    3.9880  -10.9140    0.9400 O   0  0  0  0  0
    3.9950  -11.6570    3.0090 O   0  0  0  0  0
    8.5460  -10.6880    1.8800 N   0  0  0  0  0
    9.5000  -11.7180    2.2650 C   0  0  0  0  0
    8.9380  -13.1110    1.9980 C   0  0  0  0  0
    9.1940  -13.6510    0.9000 O   0  0  0  0  0
    9.8640  -11.5750    3.7440 C   0  0  0  0  0
   10.5300  -10.3500    3.9890 O   0  0  0  0  0
    8.2460  -13.6500    2.8870 O   0  0  0  0  0
  -12.8016   -9.4323   -6.5569 H   0  0  0  0  0
  -11.1798   -9.1363   -6.3136 H   0  0  0  0  0
  -11.6665  -10.1487   -7.5445 H   0  0  0  0  0
  -12.5114  -11.7444   -6.0069 H   0  0  0  0  0
   -9.6752  -10.9053   -5.3255 H   0  0  0  0  0
  -10.3928  -12.5167   -5.0815 H   0  0  0  0  0
  -10.1535  -11.8890   -6.7307 H   0  0  0  0  0
  -12.1278  -10.2533   -1.5619 H   0  0  0  0  0
   -9.7679   -9.8575   -1.0873 H   0  0  0  0  0
  -10.3780   -8.2734   -0.7996 H   0  0  0  0  0
   -8.4692   -8.6032   -2.6186 H   0  0  0  0  0
   -9.7559   -7.4775   -2.9450 H   0  0  0  0  0
  -10.0340   -8.8271   -4.8589 H   0  0  0  0  0
   -9.3065  -10.1985   -4.1337 H   0  0  0  0  0
  -14.9619   -6.8960   -2.4385 H   0  0  0  0  0
  -16.7531   -8.4819   -2.1051 H   0  0  0  0  0
  -16.8451   -7.7032   -0.5667 H   0  0  0  0  0
  -16.4109  -10.3317   -0.6818 H   0  0  0  0  0
  -15.5954   -9.3819    0.5286 H   0  0  0  0  0
  -13.6920  -10.3446   -0.4926 H   0  0  0  0  0
  -14.4686  -10.5578   -2.0029 H   0  0  0  0  0
  -14.0656   -5.0947   -1.8090 H   0  0  0  0  0
  -13.7558   -4.7328    1.1365 H   0  0  0  0  0
  -14.6274   -3.5087    0.1299 H   0  0  0  0  0
  -11.5427   -4.9243    1.0112 H   0  0  0  0  0
  -10.2470   -2.4860    0.0325 H   0  0  0  0  0
   -9.4924   -3.1144    2.1899 H   0  0  0  0  0
   -7.2599   -3.6746    1.7713 H   0  0  0  0  0
  -10.3360   -5.4107    2.2072 H   0  0  0  0  0
   -9.0260   -5.9123    1.1102 H   0  0  0  0  0
   -8.6432   -5.3534    2.7571 H   0  0  0  0  0
   -7.9844   -2.7684   -0.9519 H   0  0  0  0  0
   -7.9710   -5.0449   -2.8861 H   0  0  0  0  0
   -8.8980   -3.0914   -4.0461 H   0  0  0  0  0
   -7.4901   -2.1179   -3.5548 H   0  0  0  0  0
   -7.2794   -3.4861   -4.6750 H   0  0  0  0  0
   -5.7873   -4.9915   -4.1547 H   0  0  0  0  0
   -3.6200   -4.4096   -2.1666 H   0  0  0  0  0
   -4.1067   -6.8081   -2.2617 H   0  0  0  0  0
   -2.4740   -6.4330   -2.9800 H   0  0  0  0  0
   -3.3727   -6.6773   -5.1848 H   0  0  0  0  0
   -5.0171   -6.9709   -4.5102 H   0  0  0  0  0
   -4.2570   -8.9987   -3.4612 H   0  0  0  0  0
   -2.5750   -8.6907   -4.0404 H   0  0  0  0  0
   -4.2841   -8.7335   -6.2836 H   0  0  0  0  0
   -3.1221  -10.9024   -3.7541 H   0  0  0  0  0
   -3.9557  -12.1548   -6.9432 H   0  0  0  0  0
   -4.4107  -10.5763   -7.5931 H   0  0  0  0  0
   -2.0444   -3.1007   -2.8971 H   0  0  0  0  0
   -2.0671   -1.7894   -5.3269 H   0  0  0  0  0
    0.4431   -2.6907   -3.8850 H   0  0  0  0  0
   -0.5911   -1.2580   -3.4257 H   0  0  0  0  0
    1.0376   -1.6447   -5.9337 H   0  0  0  0  0
    1.3439   -0.4867   -4.5866 H   0  0  0  0  0
   -0.8322    0.5753   -5.0885 H   0  0  0  0  0
   -0.9714   -0.5030   -6.5301 H   0  0  0  0  0
    1.5098    0.9218   -6.5743 H   0  0  0  0  0
   -1.7692    2.6842   -8.1679 H   0  0  0  0  0
   -1.9643    1.3446   -7.0328 H   0  0  0  0  0
    1.7539    2.6435   -8.0294 H   0  0  0  0  0
   -0.0171   -4.6478   -4.6481 H   0  0  0  0  0
   -0.4537   -5.6636   -7.3865 H   0  0  0  0  0
    1.9049   -5.7552   -7.9435 H   0  0  0  0  0
    2.2862   -4.8268   -6.4200 H   0  0  0  0  0
    1.0423   -2.9392   -7.2895 H   0  0  0  0  0
    0.7140   -3.8565   -8.8053 H   0  0  0  0  0
    3.1165   -3.9841   -9.2310 H   0  0  0  0  0
    3.4208   -3.0248   -7.7352 H   0  0  0  0  0
    1.8232   -2.1015  -10.1306 H   0  0  0  0  0
    3.5348   -1.6522   -9.7653 H   0  0  0  0  0
    1.9884    0.0343   -9.0630 H   0  0  0  0  0
    1.1858   -1.0522   -8.0873 H   0  0  0  0  0
    2.7642   -0.6379   -7.7504 H   0  0  0  0  0
    1.8190   -7.4612   -7.3085 H   0  0  0  0  0
    0.7758   -9.5894   -5.7964 H   0  0  0  0  0
    2.5147   -9.7490   -7.5636 H   0  0  0  0  0
    2.9230  -10.6642   -6.0442 H   0  0  0  0  0
    4.3284   -8.7261   -5.3868 H   0  0  0  0  0
    4.0641   -8.0597   -7.0418 H   0  0  0  0  0
    6.1890   -9.2427   -6.8864 H   0  0  0  0  0
    5.0391  -10.0928   -7.9891 H   0  0  0  0  0
    4.6632  -11.3324   -5.5714 H   0  0  0  0  0
    8.3726  -12.0515   -7.0296 H   0  0  0  0  0
    7.4894  -10.6174   -7.5629 H   0  0  0  0  0
    5.7995  -13.1754   -4.8978 H   0  0  0  0  0
    2.6742   -6.8391   -4.8271 H   0  0  0  0  0
    3.4997   -6.1475   -2.8175 H   0  0  0  0  0
    2.2567   -6.8204   -0.7797 H   0  0  0  0  0
    1.2916   -7.9591   -1.8410 H   0  0  0  0  0
    0.2599   -6.2047   -2.9371 H   0  0  0  0  0
    1.4462   -5.0016   -2.3200 H   0  0  0  0  0
    0.5727   -5.2315   -0.0866 H   0  0  0  0  0
   -0.5529   -6.5282   -0.6337 H   0  0  0  0  0
   -1.7183   -4.9572   -2.0420 H   0  0  0  0  0
   -0.5592   -3.6530   -1.5723 H   0  0  0  0  0
   -2.6188   -3.5100   -0.3624 H   0  0  0  0  0
   -2.4217   -5.0539    0.2330 H   0  0  0  0  0
   -1.3528   -3.8512    0.6661 H   0  0  0  0  0
    5.5522   -6.8337   -2.6722 H   0  0  0  0  0
    6.1419   -9.6241   -1.9937 H   0  0  0  0  0
    7.5995   -8.3887   -3.5345 H   0  0  0  0  0
    7.9558   -7.1982   -2.2591 H   0  0  0  0  0
    8.4982   -8.8848   -2.0794 H   0  0  0  0  0
    6.0632  -10.3957    0.0105 H   0  0  0  0  0
    6.9044   -8.5425    2.2015 H   0  0  0  0  0
    4.4969   -8.6961    2.2879 H   0  0  0  0  0
    5.2120   -9.6365    3.6617 H   0  0  0  0  0
    4.3252  -11.3737    3.8647 H   0  0  0  0  0
    8.8142  -10.0002    1.1761 H   0  0  0  0  0
   10.3988  -11.5898    1.6618 H   0  0  0  0  0
    9.7383  -13.0609    0.3736 H   0  0  0  0  0
   10.5277  -12.3942    4.0206 H   0  0  0  0  0
    8.9468  -11.5971    4.3326 H   0  0  0  0  0
   10.7465  -10.2858    4.9221 H   0  0  0  0  0
  1  2  1  0  0  0
  2  3  1  0  0  0
  2  5  1  0  0  0
  3  4  2  0  0  0
  3  6  1  0  0  0
  6  7  1  0  0  0
  6 12  1  0  0  0
  7  8  1  0  0  0
  7 10  1  0  0  0
  8  9  2  0  0  0
  8 13  1  0  0  0
 10 11  1  0  0  0
 11 12  1  0  0  0
 13 14  1  0  0  0
 13 19  1  0  0  0
 14 15  1  0  0  0
 14 17  1  0  0  0
 15 16  2  0  0  0
 15 20  1  0  0  0
 17 18  1  0  0  0
 18 19  1  0  0  0
 20 21  1  0  0  0
 21 22  1  0  0  0
 22 23  2  0  0  0
 22 24  1  0  0  0
 24 25  1  0  0  0
 25 26  1  0  0  0
 25 28  1  0  0  0
 26 27  2  0  0  0
 26 31  1  0  0  0
 28 29  1  0  0  0
 28 30  1  0  0  0
 31 32  1  0  0  0
 32 33  1  0  0  0
 32 35  1  0  0  0
 33 34  2  0  0  0
 33 36  1  0  0  0
 36 37  1  0  0  0
 37 38  1  0  0  0
 37 40  1  0  0  0
 38 39  2  0  0  0
 38 47  1  0  0  0
 40 41  1  0  0  0
 41 42  1  0  0  0
 42 43  1  0  0  0
 43 44  1  0  0  0
 44 45  2  0  0  0
 44 46  1  0  0  0
 47 48  1  0  0  0
 48 49  1  0  0  0
 48 51  1  0  0  0
 49 50  2  0  0  0
 49 58  1  0  0  0
 51 52  1  0  0  0
 52 53  1  0  0  0
 53 54  1  0  0  0
 54 55  1  0  0  0
 55 56  1  0  0  0
 55 57  2  0  0  0
 58 59  1  0  0  0
 59 60  1  0  0  0
 59 62  1  0  0  0
 60 61  2  0  0  0
 60 67  1  0  0  0
 62 63  1  0  0  0
 63 64  1  0  0  0
 64 65  1  0  0  0
 65 66  1  0  0  0
 67 68  1  0  0  0
 68 69  1  0  0  0
 68 71  1  0  0  0
 69 70  2  0  0  0
 69 78  1  0  0  0
 71 72  1  0  0  0
 72 73  1  0  0  0
 73 74  1  0  0  0
 74 75  1  0  0  0
 75 76  1  0  0  0
 75 77  2  0  0  0
 78 79  1  0  0  0
 79 80  1  0  0  0
 79 82  1  0  0  0
 80 81  2  0  0  0
 80 87  1  0  0  0
 82 83  1  0  0  0
 83 84  1  0  0  0
 84 85  1  0  0  0
 85 86  1  0  0  0
 87 88  1  0  0  0
 88 89  1  0  0  0
 88 91  1  0  0  0
 89 90  2  0  0  0
 89 92  1  0  0  0
 92 93  1  0  0  0
 93 94  1  0  0  0
 93 96  1  0  0  0
 94 95  2  0  0  0
 94100  1  0  0  0
 96 97  1  0  0  0
 97 98  2  0  0  0
 97 99  1  0  0  0
100101  1  0  0  0
101102  1  0  0  0
101104  1  0  0  0
102103  1  0  0  0
102106  2  0  0  0
104105  1  0  0  0
  1107  1  0  0  0
  1108  1  0  0  0
  1109  1  0  0  0
  2110  1  0  0  0
  5111  1  0  0  0
  5112  1  0  0  0
  5113  1  0  0  0
  7114  1  0  0  0
 10115  1  0  0  0
 10116  1  0  0  0
 11117  1  0  0  0
 11118  1  0  0  0
 12119  1  0  0  0
 12120  1  0  0  0
 14121  1  0  0  0
 17122  1  0  0  0
 17123  1  0  0  0
 18124  1  0  0  0
 18125  1  0  0  0
 19126  1  0  0  0
 19127  1  0  0  0
 20128  1  0  0  0
 21129  1  0  0  0
 21130  1  0  0  0
 24131  1  0  0  0
 25132  1  0  0  0
 28133  1  0  0  0
 29134  1  0  0  0
 30135  1  0  0  0
 30136  1  0  0  0
 30137  1  0  0  0
 31138  1  0  0  0
 32139  1  0  0  0
 35140  1  0  0  0
 35141  1  0  0  0
 35142  1  0  0  0
 36143  1  0  0  0
 37144  1  0  0  0
 40145  1  0  0  0
 40146  1  0  0  0
 41147  1  0  0  0
 41148  1  0  0  0
 42149  1  0  0  0
 42150  1  0  0  0
 43151  1  0  0  0
 45152  1  0  0  0
 46153  1  0  0  0
 46154  1  0  0  0
 47155  1  0  0  0
 48156  1  0  0  0
 51157  1  0  0  0
 51158  1  0  0  0
 52159  1  0  0  0
 52160  1  0  0  0
 53161  1  0  0  0
 53162  1  0  0  0
 54163  1  0  0  0
 56164  1  0  0  0
 56165  1  0  0  0
 57166  1  0  0  0
 58167  1  0  0  0
 59168  1  0  0  0
 62169  1  0  0  0
 62170  1  0  0  0
 63171  1  0  0  0
 63172  1  0  0  0
 64173  1  0  0  0
 64174  1  0  0  0
 65175  1  0  0  0
 65176  1  0  0  0
 66177  1  0  0  0
 66178  1  0  0  0
 66179  1  0  0  0
 67180  1  0  0  0
 68181  1  0  0  0
 71182  1  0  0  0
 71183  1  0  0  0
 72184  1  0  0  0
 72185  1  0  0  0
 73186  1  0  0  0
 73187  1  0  0  0
 74188  1  0  0  0
 76189  1  0  0  0
 76190  1  0  0  0
 77191  1  0  0  0
 78192  1  0  0  0
 79193  1  0  0  0
 82194  1  0  0  0
 82195  1  0  0  0
 83196  1  0  0  0
 83197  1  0  0  0
 84198  1  0  0  0
 84199  1  0  0  0
 85200  1  0  0  0
 85201  1  0  0  0
 86202  1  0  0  0
 86203  1  0  0  0
 86204  1  0  0  0
 87205  1  0  0  0
 88206  1  0  0  0
 91207  1  0  0  0
 91208  1  0  0  0
 91209  1  0  0  0
 92210  1  0  0  0
 93211  1  0  0  0
 96212  1  0  0  0
 96213  1  0  0  0
 99214  1  0  0  0
100215  1  0  0  0
101216  1  0  0  0
103217  1  0  0  0
104218  1  0  0  0
104219  1  0  0  0
105220  1  0  0  0
M  END
$$$$
