### 
### Created by X-TOOL on Mon Sep 10 21:12:56 2018
### 

@<TRIPOS>MOLECULE
2hug_ligand
  221   222     1     0     0
SMALL
GAST_HUCK


@<TRIPOS>ATOM
      1 N         -11.8660   -9.8370   -6.5940 N.4       1 ALA         0.2377
      2 CA        -11.7930  -10.9980   -5.6680 C.3       1 ALA         0.0623
      3 C         -12.1900  -10.6050   -4.2400 C.2       1 ALA         0.2289
      4 O         -13.2780  -10.9610   -3.7860 O.2       1 ALA        -0.3905
      5 CB        -10.4040  -11.6220   -5.7040 C.3       1 ALA        -0.0040
      6 N         -11.3310   -9.8670   -3.5000 N.am      1 PRO        -0.2471
      7 CA        -11.6450   -9.4560   -2.1270 C.3       1 PRO         0.1341
      8 C         -12.6270   -8.2860   -2.0750 C.2       1 PRO         0.2066
      9 O         -12.2800   -7.1600   -2.4350 O.2       1 PRO        -0.3942
     10 CB        -10.2870   -9.0330   -1.5760 C.3       1 PRO        -0.0104
     11 CG         -9.5470   -8.5320   -2.7650 C.3       1 PRO        -0.0281
     12 CD         -9.9980   -9.3830   -3.9220 C.3       1 PRO         0.0371
     13 N         -13.8710   -8.5340   -1.6260 N.am      1 PRO        -0.2498
     14 CA        -14.8950   -7.4900   -1.5270 C.3       1 PRO         0.1338
     15 C         -14.5910   -6.4870   -0.4180 C.2       1 PRO         0.2039
     16 O         -14.7390   -6.7910    0.7650 O.2       1 PRO        -0.3944
     17 CB        -16.1710   -8.2710   -1.2080 C.3       1 PRO        -0.0104
     18 CG        -15.6970   -9.5190   -0.5480 C.3       1 PRO        -0.0281
     19 CD        -14.3740   -9.8470   -1.1820 C.3       1 PRO         0.0369
     20 N         -14.1650   -5.2910   -0.8130 N.am      1 GLY        -0.2664
     21 CA        -13.8400   -4.2620    0.1570 C.3       1 GLY         0.1201
     22 C         -12.5230   -3.5800   -0.1540 C.2       1 GLY         0.2008
     23 O         -12.4850   -2.5970   -0.8930 O.2       1 GLY        -0.3947
     24 N         -11.4400   -4.1090    0.4070 N.am      1 THR        -0.2616
     25 CA        -10.1110   -3.5570    0.1830 C.3       1 THR         0.1565
     26 C          -9.4540   -4.1670   -1.0490 C.2       1 THR         0.2065
     27 O          -9.9440   -5.1490   -1.6080 O.2       1 THR        -0.3943
     28 CB         -9.1890   -3.7910    1.3910 C.3       1 THR         0.0924
     29 OG1        -7.8340   -3.5280    1.0160 O.3       1 THR        -0.3874
     30 CG2        -9.3070   -5.2190    1.9030 C.3       1 THR        -0.0346
     31 N          -8.3370   -3.5770   -1.4640 N.am      1 ALA        -0.2639
     32 CA         -7.6020   -4.0520   -2.6290 C.3       1 ALA         0.1282
     33 C          -6.1090   -4.1690   -2.3240 C.2       1 ALA         0.2036
     34 O          -5.6570   -3.7900   -1.2440 O.2       1 ALA        -0.3944
     35 CB         -7.8340   -3.1200   -3.8110 C.3       1 ALA        -0.0244
     36 N          -5.3510   -4.6970   -3.2810 N.am      1 ARG        -0.2637
     37 CA         -3.9100   -4.8660   -3.1130 C.3       1 ARG         0.1311
     38 C          -3.1460   -4.1710   -4.2410 C.2       1 ARG         0.2039
     39 O          -3.4000   -4.4310   -5.4160 O.2       1 ARG        -0.3944
     40 CB         -3.5560   -6.3550   -3.0860 C.3       1 ARG        -0.0092
     41 CG         -3.9450   -7.0920   -4.3550 C.3       1 ARG        -0.0156
     42 CD         -3.6380   -8.5750   -4.2520 C.3       1 ARG         0.0627
     43 NE         -3.9370   -9.2780   -5.4940 N.pl3     1 ARG        -0.2723
     44 CZ         -3.7830  -10.5860   -5.6550 C.cat     1 ARG         0.2882
     45 NH1        -3.3430  -11.3330   -4.6520 N.pl3     1 ARG        -0.2849
     46 NH2        -4.0720  -11.1490   -6.8200 N.pl3     1 ARG        -0.2849
     47 N          -2.2130   -3.2800   -3.8870 N.am      1 ARG        -0.2637
     48 CA         -1.4290   -2.5570   -4.8890 C.3       1 ARG         0.1311
     49 C          -0.9680   -3.4890   -6.0140 C.2       1 ARG         0.2039
     50 O          -1.2810   -3.2710   -7.1850 O.2       1 ARG        -0.3944
     51 CB         -0.2170   -1.8940   -4.2280 C.3       1 ARG        -0.0092
     52 CG          0.5870   -1.0120   -5.1690 C.3       1 ARG        -0.0156
     53 CD         -0.2930    0.0200   -5.8560 C.3       1 ARG         0.0627
     54 NE          0.4930    0.9680   -6.6410 N.pl3     1 ARG        -0.2723
     55 CZ         -0.0420    1.8870   -7.4370 C.cat     1 ARG         0.2882
     56 NH1        -1.3600    1.9790   -7.5550 N.pl3     1 ARG        -0.2849
     57 NH2         0.7400    2.7130   -8.1170 N.pl3     1 ARG        -0.2849
     58 N          -0.2330   -4.5300   -5.6380 N.am      1 LYS        -0.2637
     59 CA          0.2770   -5.5120   -6.5920 C.3       1 LYS         0.1310
     60 C           0.5110   -6.8380   -5.8750 C.2       1 LYS         0.2039
     61 O          -0.0980   -7.0960   -4.8400 O.2       1 LYS        -0.3944
     62 CB          1.5750   -5.0030   -7.2270 C.3       1 LYS        -0.0122
     63 CG          1.4110   -3.6950   -7.9830 C.3       1 LYS        -0.0440
     64 CD          2.7340   -3.2150   -8.5600 C.3       1 LYS        -0.0124
     65 CE          2.5650   -1.9280   -9.3510 C.3       1 LYS        -0.0354
     66 NZ          2.0880   -0.8070   -8.4950 N.4       1 LYS         0.2185
     67 N           1.3680   -7.6950   -6.4240 N.am      1 ARG        -0.2637
     68 CA          1.6690   -8.9650   -5.7740 C.3       1 ARG         0.1311
     69 C           2.0830   -8.7170   -4.3240 C.2       1 ARG         0.2039
     70 O           1.9420   -9.5880   -3.4650 O.2       1 ARG        -0.3944
     71 CB          2.7950   -9.6880   -6.5120 C.3       1 ARG        -0.0092
     72 CG          4.1270   -8.9610   -6.4320 C.3       1 ARG        -0.0156
     73 CD          5.2660   -9.8180   -6.9590 C.3       1 ARG         0.0627
     74 NE          5.4280  -11.0450   -6.1820 N.pl3     1 ARG        -0.2723
     75 CZ          6.5160  -11.8080   -6.2260 C.cat     1 ARG         0.2882
     76 NH1         7.5380  -11.4660   -6.9990 N.pl3     1 ARG        -0.2849
     77 NH2         6.5830  -12.9110   -5.4950 N.pl3     1 ARG        -0.2849
     78 N           2.5910   -7.5130   -4.0660 N.am      1 LYS        -0.2637
     79 CA          3.0310   -7.1280   -2.7340 C.3       1 LYS         0.1310
     80 C           4.0530   -8.1160   -2.1900 C.2       1 LYS         0.2039
     81 O           3.6970   -9.1970   -1.7180 O.2       1 LYS        -0.3944
     82 CB          1.8470   -7.0240   -1.7690 C.3       1 LYS        -0.0122
     83 CG          0.8750   -5.9010   -2.0900 C.3       1 LYS        -0.0440
     84 CD         -0.0370   -5.6080   -0.9080 C.3       1 LYS        -0.0124
     85 CE         -1.0790   -4.5570   -1.2550 C.3       1 LYS        -0.0354
     86 NZ         -1.9360   -4.2160   -0.0870 N.4       1 LYS         0.2185
     87 N           5.3230   -7.7390   -2.2620 N.am      1 ALA        -0.2640
     88 CA          6.3950   -8.5880   -1.7690 C.3       1 ALA         0.1282
     89 C           6.5450   -8.4400   -0.2600 C.2       1 ALA         0.2037
     90 O           6.8500   -7.3600    0.2330 O.2       1 ALA        -0.3944
     91 CB          7.7060   -8.2400   -2.4600 C.3       1 ALA        -0.0244
     92 N           6.3230   -9.5240    0.4720 N.am      1 ASP        -0.2622
     93 CA          6.4440   -9.4910    1.9250 C.3       1 ASP         0.1423
     94 C           7.3350  -10.6210    2.4220 C.2       1 ASP         0.2051
     95 O           6.9360  -11.4140    3.2740 O.2       1 ASP        -0.3943
     96 CB          5.0670   -9.5770    2.5830 C.3       1 ASP         0.0406
     97 CG          4.2930  -10.8040    2.1460 C.2       1 ASP         0.0393
     98 OD1         3.9880  -10.9140    0.9400 O.co2     1 ASP        -0.5688
     99 OD2         3.9950  -11.6570    3.0090 O.co2     1 ASP        -0.5688
    100 N           8.5460  -10.6880    1.8800 N.am      1 SER        -0.2671
    101 CA          9.5000  -11.7180    2.2650 C.3       1 SER         0.1173
    102 C           8.9380  -13.1110    1.9980 C.2       1 SER         0.0623
    103 O           9.1940  -13.6510    0.9000 O.co2     1 SER        -0.5665
    104 CB          9.8640  -11.5750    3.7440 C.3       1 SER         0.0789
    105 OG         10.5300  -10.3500    3.9890 O.3       1 SER        -0.3910
    106 OXT         8.2460  -13.6500    2.8870 O.co2     1 SER        -0.5665
    107 H1        -11.5995  -10.1294   -7.5211 H         1 ALA         0.2015
    108 H2        -11.2393   -9.1141   -6.2766 H         1 ALA         0.2015
    109 H3        -12.8086   -9.4804   -6.6121 H         1 ALA         0.2015
    110 H4        -12.5116  -11.7536   -6.0182 H         1 ALA         0.1095
    111 H5        -10.3686  -12.4780   -5.0140 H         1 ALA         0.0310
    112 H6         -9.6578  -10.8737   -5.3985 H         1 ALA         0.0310
    113 H7        -10.1825  -11.9650   -6.7254 H         1 ALA         0.0310
    114 H8        -12.0582  -10.3000   -1.5553 H         1 PRO         0.0802
    115 H9         -9.7653   -9.8901   -1.1253 H         1 PRO         0.0313
    116 H10       -10.4019   -8.2375   -0.8251 H         1 PRO         0.0313
    117 H11        -8.4627   -8.6372   -2.6128 H         1 PRO         0.0287
    118 H12        -9.7906   -7.4754   -2.9498 H         1 PRO         0.0287
    119 H13       -10.0705   -8.7864   -4.8433 H         1 PRO         0.0524
    120 H14        -9.3078  -10.2242   -4.0831 H         1 PRO         0.0524
    121 H15       -14.9923   -6.9533   -2.4822 H         1 PRO         0.0802
    122 H16       -16.7227   -8.5057   -2.1303 H         1 PRO         0.0313
    123 H17       -16.8184   -7.6957   -0.5298 H         1 PRO         0.0313
    124 H18       -16.4141  -10.3361   -0.7158 H         1 PRO         0.0287
    125 H19       -15.5728   -9.3563    0.5328 H         1 PRO         0.0287
    126 H20       -13.6902  -10.3036   -0.4513 H         1 PRO         0.0524
    127 H21       -14.5052  -10.5273   -2.0363 H         1 PRO         0.0524
    128 H22       -14.0675   -5.0985   -1.7895 H         1 GLY         0.1881
    129 H23       -13.7741   -4.7225    1.1538 H         1 GLY         0.0763
    130 H24       -14.6397   -3.5067    0.1541 H         1 GLY         0.0763
    131 H25       -11.5407   -4.9083    0.9994 H         1 THR         0.1884
    132 H26       -10.2151   -2.4733    0.0257 H         1 THR         0.0826
    133 H27        -9.4796   -3.1011    2.1969 H         1 THR         0.0639
    134 H28        -7.5836   -4.1106    0.3087 H         1 THR         0.2101
    135 H29        -8.6375   -5.3559    2.7650 H         1 THR         0.0257
    136 H30        -9.0236   -5.9197    1.1038 H         1 THR         0.0257
    137 H31       -10.3451   -5.4137    2.2104 H         1 THR         0.0257
    138 H32        -7.9913   -2.7842   -0.9620 H         1 ALA         0.1883
    139 H33        -7.9796   -5.0507   -2.8936 H         1 ALA         0.0797
    140 H34        -7.2747   -3.4884   -4.6837 H         1 ALA         0.0277
    141 H35        -7.4873   -2.1083   -3.5538 H         1 ALA         0.0277
    142 H36        -8.9074   -3.0903   -4.0494 H         1 ALA         0.0277
    143 H37        -5.7787   -4.9857   -4.1376 H         1 ARG         0.1883
    144 H38        -3.6126   -4.4134   -2.1556 H         1 ARG         0.0800
    145 H39        -4.0783   -6.8220   -2.2380 H         1 ARG         0.0313
    146 H40        -2.4693   -6.4523   -2.9459 H         1 ARG         0.0313
    147 H41        -3.3837   -6.6685   -5.2009 H         1 ARG         0.0301
    148 H42        -5.0234   -6.9612   -4.5283 H         1 ARG         0.0301
    149 H43        -4.2440   -9.0086   -3.4429 H         1 ARG         0.0689
    150 H44        -2.5705   -8.7022   -4.0192 H         1 ARG         0.0689
    151 H45        -4.2875   -8.7282   -6.2913 H         1 ARG         0.2642
    152 H46        -3.2243  -12.3482   -4.7794 H         1 ARG         0.2615
    153 H47        -3.1199  -10.8982   -3.7453 H         1 ARG         0.2615
    154 H48        -4.4140  -10.5707   -7.6007 H         1 ARG         0.2615
    155 H49        -3.9545  -12.1647   -6.9444 H         1 ARG         0.2615
    156 H50        -2.0477   -3.1042   -2.9165 H         1 ARG         0.1883
    157 H51        -2.0639   -1.7725   -5.3265 H         1 ARG         0.0800
    158 H52         0.4443   -2.6845   -3.8434 H         1 ARG         0.0313
    159 H53        -0.5733   -1.2748   -3.3916 H         1 ARG         0.0313
    160 H54         1.0599   -1.6445   -5.9347 H         1 ARG         0.0301
    161 H55         1.3652   -0.4906   -4.5923 H         1 ARG         0.0301
    162 H56        -0.8568    0.5732   -5.0904 H         1 ARG         0.0689
    163 H57        -0.9952   -0.4995   -6.5246 H         1 ARG         0.0689
    164 H58         1.5197    0.9214   -6.5736 H         1 ARG         0.2642
    165 H59        -1.7732    2.6922   -8.1727 H         1 ARG         0.2615
    166 H60        -1.9702    1.3373   -7.0290 H         1 ARG         0.2615
    167 H61         1.7638    2.6439   -8.0273 H         1 ARG         0.2615
    168 H62         0.3240    3.4241   -8.7352 H         1 ARG         0.2615
    169 H63        -0.0213   -4.6455   -4.6675 H         1 LYS         0.1883
    170 H64        -0.4697   -5.6627   -7.3856 H         1 LYS         0.0800
    171 H65         1.9414   -5.7666   -7.9289 H         1 LYS         0.0312
    172 H66         2.3168   -4.8525   -6.4288 H         1 LYS         0.0312
    173 H67         1.0231   -2.9302   -7.2941 H         1 LYS         0.0269
    174 H68         0.6958   -3.8446   -8.8052 H         1 LYS         0.0269
    175 H69         3.1365   -3.9928   -9.2256 H         1 LYS         0.0317
    176 H70         3.4397   -3.0370   -7.7352 H         1 LYS         0.0317
    177 H71         1.8329   -2.0981  -10.1542 H         1 LYS         0.0813
    178 H72         3.5345   -1.6514   -9.7910 H         1 LYS         0.0813
    179 H73         1.9892    0.0251   -9.0553 H         1 LYS         0.1994
    180 H74         2.7556   -0.6389   -7.7587 H         1 LYS         0.1994
    181 H75         1.1963   -1.0482   -8.0915 H         1 LYS         0.1994
    182 H76         1.8101   -7.4658   -7.2912 H         1 ARG         0.1883
    183 H77         0.7684   -9.5964   -5.7887 H         1 ARG         0.0800
    184 H78         2.5130   -9.7853   -7.5708 H         1 ARG         0.0313
    185 H79         2.9159  -10.6885   -6.0712 H         1 ARG         0.0313
    186 H80         4.3305   -8.7037   -5.3821 H         1 ARG         0.0301
    187 H81         4.0672   -8.0399   -7.0304 H         1 ARG         0.0301
    188 H82         6.1999   -9.2390   -6.9084 H         1 ARG         0.0689
    189 H83         5.0561  -10.0846   -8.0053 H         1 ARG         0.0689
    190 H84         4.6557  -11.3352   -5.5654 H         1 ARG         0.2642
    191 H85         8.3799  -12.0585   -7.0316 H         1 ARG         0.2615
    192 H86         7.4898  -10.6079   -7.5667 H         1 ARG         0.2615
    193 H87         5.7909  -13.1792   -4.8937 H         1 ARG         0.2615
    194 H88         7.4272  -13.5002   -5.5280 H         1 ARG         0.2615
    195 H89         2.6726   -6.8523   -4.8122 H         1 LYS         0.1883
    196 H90         3.5080   -6.1393   -2.8043 H         1 LYS         0.0800
    197 H91         2.2419   -6.8585   -0.7558 H         1 LYS         0.0312
    198 H92         1.2954   -7.9753   -1.7967 H         1 LYS         0.0312
    199 H93         0.2600   -6.1946   -2.9535 H         1 LYS         0.0269
    200 H94         1.4447   -4.9931   -2.3373 H         1 LYS         0.0269
    201 H95         0.5725   -5.2432   -0.0681 H         1 LYS         0.0317
    202 H96        -0.5495   -6.5357   -0.6134 H         1 LYS         0.0317
    203 H97        -1.7174   -4.9429   -2.0634 H         1 LYS         0.0813
    204 H98        -0.5651   -3.6463   -1.5965 H         1 LYS         0.0813
    205 H99        -2.6112   -3.5183   -0.3580 H         1 LYS         0.1994
    206 H100       -1.3607   -3.8553    0.6580 H         1 LYS         0.1994
    207 H101       -2.4166   -5.0434    0.2301 H         1 LYS         0.1994
    208 H102        5.5477   -6.8514   -2.6642 H         1 ALA         0.1883
    209 H103        6.1447   -9.6348   -1.9959 H         1 ALA         0.0797
    210 H104        8.5063   -8.8901   -2.0767 H         1 ALA         0.0277
    211 H105        7.9592   -7.1888   -2.2580 H         1 ALA         0.0277
    212 H106        7.5999   -8.3897   -3.5446 H         1 ALA         0.0277
    213 H107        6.0682  -10.3786    0.0195 H         1 ASP         0.1884
    214 H108        6.9061   -8.5345    2.2106 H         1 ASP         0.0819
    215 H109        4.4897   -8.6805    2.3126 H         1 ASP         0.0478
    216 H110        5.1988   -9.6129    3.6745 H         1 ASP         0.0478
    217 H111        8.8090  -10.0137    1.1899 H         1 SER         0.1876
    218 H112       10.4125  -11.5891    1.6644 H         1 SER         0.0749
    219 H113       10.5233  -12.4065    4.0337 H         1 SER         0.0599
    220 H114        8.9437  -11.6100    4.3455 H         1 SER         0.0599
    221 H115       10.7443  -10.2865    4.9124 H         1 SER         0.2096
@<TRIPOS>BOND
     1    1    2 1  
     2    2    3 1  
     3    2    5 1  
     4    3    4 2  
     5    3    6 am 
     6    6    7 1  
     7    6   12 1  
     8    7    8 1  
     9    7   10 1  
    10    8    9 2  
    11    8   13 am 
    12   10   11 1  
    13   11   12 1  
    14   13   14 1  
    15   13   19 1  
    16   14   15 1  
    17   14   17 1  
    18   15   16 2  
    19   15   20 am 
    20   17   18 1  
    21   18   19 1  
    22   20   21 1  
    23   21   22 1  
    24   22   23 2  
    25   22   24 am 
    26   24   25 1  
    27   25   26 1  
    28   25   28 1  
    29   26   27 2  
    30   26   31 am 
    31   28   29 1  
    32   28   30 1  
    33   31   32 1  
    34   32   33 1  
    35   32   35 1  
    36   33   34 2  
    37   33   36 am 
    38   36   37 1  
    39   37   38 1  
    40   37   40 1  
    41   38   39 2  
    42   38   47 am 
    43   40   41 1  
    44   41   42 1  
    45   42   43 1  
    46   43   44 ar 
    47   44   45 ar 
    48   44   46 ar 
    49   47   48 1  
    50   48   49 1  
    51   48   51 1  
    52   49   50 2  
    53   49   58 am 
    54   51   52 1  
    55   52   53 1  
    56   53   54 1  
    57   54   55 ar 
    58   55   56 ar 
    59   55   57 ar 
    60   58   59 1  
    61   59   60 1  
    62   59   62 1  
    63   60   61 2  
    64   60   67 am 
    65   62   63 1  
    66   63   64 1  
    67   64   65 1  
    68   65   66 1  
    69   67   68 1  
    70   68   69 1  
    71   68   71 1  
    72   69   70 2  
    73   69   78 am 
    74   71   72 1  
    75   72   73 1  
    76   73   74 1  
    77   74   75 ar 
    78   75   76 ar 
    79   75   77 ar 
    80   78   79 1  
    81   79   80 1  
    82   79   82 1  
    83   80   81 2  
    84   80   87 am 
    85   82   83 1  
    86   83   84 1  
    87   84   85 1  
    88   85   86 1  
    89   87   88 1  
    90   88   89 1  
    91   88   91 1  
    92   89   90 2  
    93   89   92 am 
    94   92   93 1  
    95   93   94 1  
    96   93   96 1  
    97   94   95 2  
    98   94  100 am 
    99   96   97 1  
   100   97   98 ar 
   101   97   99 ar 
   102  100  101 1  
   103  101  102 1  
   104  101  104 1  
   105  102  103 ar 
   106  102  106 ar 
   107  104  105 1  
   108    1  107 1  
   109    1  108 1  
   110    1  109 1  
   111    2  110 1  
   112    5  111 1  
   113    5  112 1  
   114    5  113 1  
   115    7  114 1  
   116   10  115 1  
   117   10  116 1  
   118   11  117 1  
   119   11  118 1  
   120   12  119 1  
   121   12  120 1  
   122   14  121 1  
   123   17  122 1  
   124   17  123 1  
   125   18  124 1  
   126   18  125 1  
   127   19  126 1  
   128   19  127 1  
   129   20  128 1  
   130   21  129 1  
   131   21  130 1  
   132   24  131 1  
   133   25  132 1  
   134   28  133 1  
   135   29  134 1  
   136   30  135 1  
   137   30  136 1  
   138   30  137 1  
   139   31  138 1  
   140   32  139 1  
   141   35  140 1  
   142   35  141 1  
   143   35  142 1  
   144   36  143 1  
   145   37  144 1  
   146   40  145 1  
   147   40  146 1  
   148   41  147 1  
   149   41  148 1  
   150   42  149 1  
   151   42  150 1  
   152   43  151 1  
   153   45  152 1  
   154   45  153 1  
   155   46  154 1  
   156   46  155 1  
   157   47  156 1  
   158   48  157 1  
   159   51  158 1  
   160   51  159 1  
   161   52  160 1  
   162   52  161 1  
   163   53  162 1  
   164   53  163 1  
   165   54  164 1  
   166   56  165 1  
   167   56  166 1  
   168   57  167 1  
   169   57  168 1  
   170   58  169 1  
   171   59  170 1  
   172   62  171 1  
   173   62  172 1  
   174   63  173 1  
   175   63  174 1  
   176   64  175 1  
   177   64  176 1  
   178   65  177 1  
   179   65  178 1  
   180   66  179 1  
   181   66  180 1  
   182   66  181 1  
   183   67  182 1  
   184   68  183 1  
   185   71  184 1  
   186   71  185 1  
   187   72  186 1  
   188   72  187 1  
   189   73  188 1  
   190   73  189 1  
   191   74  190 1  
   192   76  191 1  
   193   76  192 1  
   194   77  193 1  
   195   77  194 1  
   196   78  195 1  
   197   79  196 1  
   198   82  197 1  
   199   82  198 1  
   200   83  199 1  
   201   83  200 1  
   202   84  201 1  
   203   84  202 1  
   204   85  203 1  
   205   85  204 1  
   206   86  205 1  
   207   86  206 1  
   208   86  207 1  
   209   87  208 1  
   210   88  209 1  
   211   91  210 1  
   212   91  211 1  
   213   91  212 1  
   214   92  213 1  
   215   93  214 1  
   216   96  215 1  
   217   96  216 1  
   218  100  217 1  
   219  101  218 1  
   220  104  219 1  
   221  104  220 1  
   222  105  221 1  
@<TRIPOS>SUBSTRUCTURE
     1 ALA         1

