3l6f_ligand
  -I-interpret- 

228232  0  0  0  0  0  0  0  0999 V2000
  -17.6270   30.8900   18.3040 N   0  3  0  0  0
  -18.7540   29.9280   18.1210 C   0  0  0  0  0
  -19.6730   30.3290   16.9760 C   0  0  0  0  0
  -20.8690   30.0090   16.9900 O   0  0  0  0  0
  -19.5610   29.8080   19.4140 C   0  0  0  0  0
  -19.1460   31.0530   15.9710 N   0  0  0  0  0
  -20.1060   31.3820   14.9140 C   0  0  0  0  0
  -20.5570   30.0460   14.3350 C   0  0  0  0  0
  -19.7750   29.0940   14.3070 O   0  0  0  0  0
  -19.2770   32.2100   13.9350 C   0  0  0  0  0
  -17.9110   31.6070   14.0760 C   0  0  0  0  0
  -17.7770   31.4320   15.5800 C   0  0  0  0  0
  -21.8250   29.9500   13.9020 N   0  0  0  0  0
  -22.3520   28.7100   13.3300 C   0  0  0  0  0
  -21.2560   27.9940   12.5370 C   0  0  0  0  0
  -20.5130   28.6140   11.7740 O   0  0  0  0  0
  -23.4900   29.2030   12.4550 C   0  0  0  0  0
  -24.0380   30.3320   13.2880 C   0  0  0  0  0
  -22.7830   31.0560   13.7340 C   0  0  0  0  0
  -21.1500   26.6890   12.7370 N   0  0  0  0  0
  -20.1160   25.9280   12.0630 C   0  0  0  0  0
  -20.6230   25.0080   10.9670 C   0  0  0  0  0
  -21.6480   24.3270   11.1130 O   0  0  0  0  0
  -19.3150   25.1260   13.0970 C   0  0  0  0  0
  -19.9120   25.0220    9.8420 N   0  0  0  0  0
  -20.2560   24.1310    8.7480 C   0  0  0  0  0
  -19.8740   22.7570    9.2920 C   0  0  0  0  0
  -18.8310   22.6140    9.9430 O   0  0  0  0  0
  -19.4350   24.4780    7.5050 C   0  0  0  0  0
  -20.1190   25.5090    6.6320 C   0  0  0  0  0
  -21.2110   25.1490    5.8490 C   0  0  0  0  0
  -19.7300   26.8540    6.6510 C   0  0  0  0  0
  -21.9130   26.0960    5.1030 C   0  0  0  0  0
  -20.4350   27.8220    5.9100 C   0  0  0  0  0
  -21.5240   27.4320    5.1420 C   0  0  0  0  0
  -22.2520   28.3570    4.4210 O   0  0  0  0  0
  -20.7230   21.7610    9.0670 N   0  0  0  0  0
  -20.4390   20.4160    9.5590 C   0  0  0  0  0
  -20.1050   19.4710    8.4070 C   0  0  0  0  0
  -20.7880   19.4510    7.3810 O   0  0  0  0  0
  -21.6370   19.8840   10.3690 C   0  0  0  0  0
  -21.8090   20.6000   11.7030 C   0  0  0  0  0
  -20.5950   20.4100   12.6080 C   0  0  0  0  0
  -20.3260   21.2850   13.4650 O   0  0  0  0  0
  -19.9100   19.3680   12.4620 O   0  0  0  0  0
  -19.0460   18.6930    8.5760 N   0  0  0  0  0
  -18.6330   17.7650    7.5320 C   0  0  0  0  0
  -19.2700   16.3990    7.6890 C   0  0  0  0  0
  -19.7890   16.0520    8.7510 O   0  0  0  0  0
  -17.1150   17.5640    7.5660 C   0  0  0  0  0
  -16.6530   16.6300    8.7030 C   0  0  0  0  0
  -15.2080   16.2230    8.5130 C   0  0  0  0  0
  -14.7540   15.2020    9.5590 C   0  0  0  0  0
  -14.5850   15.7850   10.9260 N   0  3  0  0  0
  -19.2300   15.6300    6.6100 N   0  0  0  0  0
  -19.6840   14.2590    6.6550 C   0  0  0  0  0
  -18.3020   13.5540    6.5490 C   0  0  0  0  0
  -17.4740   13.8950    5.6850 O   0  0  0  0  0
  -20.6190   13.9690    5.4800 C   0  0  0  0  0
  -21.9610   13.2850    5.7860 C   0  0  0  0  0
  -22.5290   13.7380    7.1310 C   0  0  0  0  0
  -22.9470   13.5720    4.6550 C   0  0  0  0  0
  -18.0450   12.6160    7.4610 N   0  0  0  0  0
  -16.7410   11.8830    7.5580 C   0  0  0  0  0
  -16.6640   11.2320    8.9520 C   0  0  0  0  0
  -16.7820   12.3190    9.8780 O   0  0  0  0  0
  -16.6070   10.8380    6.4820 C   0  0  0  0  0
  -17.5370   10.1430    6.1700 O   0  0  0  0  0
  -16.7590   11.8020   11.4140 P   0  0  0  0  0
  -15.5050   11.0720   11.7180 O   0  0  0  0  0
  -16.8920   13.0730   12.3600 O   0  0  0  0  0
  -18.0200   10.8200   11.6470 O   0  0  0  0  0
  -15.4000   10.7580    5.9200 N   0  0  0  0  0
  -15.0780    9.8040    4.8550 C   0  0  0  0  0
  -15.0430    8.4220    5.4730 C   0  0  0  0  0
  -14.5050    8.2460    6.5600 O   0  0  0  0  0
  -13.7210   10.1250    4.2480 C   0  0  0  0  0
  -15.6210    7.4470    4.7940 N   0  0  0  0  0
  -15.6150    6.1020    5.3240 C   0  0  0  0  0
  -14.4500    5.2910    4.7460 C   0  0  0  0  0
  -14.1240    5.4050    3.5610 O   0  0  0  0  0
  -16.9640    5.4460    5.0420 C   0  0  0  0  0
  -18.1080    6.0920    5.8510 C   0  0  0  0  0
  -17.8420    6.0860    7.3700 C   0  0  0  0  0
  -17.5950    4.9940    7.9340 O   0  0  0  0  0
  -17.8840    7.1690    8.0010 O   0  0  0  0  0
  -13.8090    4.4840    5.5900 N   0  0  0  0  0
  -12.6720    3.6790    5.1490 C   0  0  0  0  0
  -13.1390    2.4990    4.3290 C   0  0  0  0  0
  -14.0790    1.8120    4.7100 O   0  0  0  0  0
  -11.8740    3.1860    6.3450 C   0  0  0  0  0
  -11.3900    4.3010    7.2260 C   0  0  0  0  0
  -10.6610    3.7840    8.4350 C   0  0  0  0  0
   -9.4420    3.5840    8.4010 O   0  0  0  0  0
  -11.4060    3.5360    9.5160 N   0  0  0  0  0
  -12.4840    2.2760    3.1940 N   0  0  0  0  0
  -12.8470    1.1740    2.3180 C   0  0  0  0  0
  -12.1590   -0.1110    2.7450 C   0  0  0  0  0
  -11.1840   -0.0840    3.5050 O   0  0  0  0  0
  -12.4320    1.4680    0.8670 C   0  0  0  0  0
  -13.2450    2.4570    0.2710 O   0  0  0  0  0
  -12.6860   -1.2550    2.2800 N   0  0  0  0  0
  -12.1480   -2.5840    2.5630 C   0  0  0  0  0
  -11.2050   -2.8190    1.3820 C   0  0  0  0  0
  -11.2670   -2.0910    0.3870 O   0  0  0  0  0
  -13.3820   -3.4730    2.4680 C   0  0  0  0  0
  -14.1070   -2.8550    1.3040 C   0  0  0  0  0
  -14.0000   -1.3630    1.6120 C   0  0  0  0  0
  -10.3290   -3.8280    1.4580 N   0  0  0  0  0
   -9.4450   -4.0210    0.3010 C   0  0  0  0  0
  -10.2040   -4.0390   -1.0410 C   0  0  0  0  0
  -11.4370   -4.2520   -1.0260 O   0  0  0  0  0
   -8.7520   -5.3530    0.6160 C   0  0  0  0  0
   -9.7250   -6.0440    1.5850 C   0  0  0  0  0
  -10.1510   -4.9020    2.4510 C   0  0  0  0  0
   -9.5630   -3.8360   -2.0970 O   0  0  0  0  0
  -17.0974   30.9606   17.4351 H   0  0  0  0  0
  -18.0005   31.8063   18.5514 H   0  0  0  0  0
  -17.0159   30.5579   19.0501 H   0  0  0  0  0
  -18.3153   28.9624   17.8695 H   0  0  0  0  0
  -20.0245   30.7679   19.6419 H   0  0  0  0  0
  -20.3344   29.0502   19.2891 H   0  0  0  0  0
  -18.8974   29.5207   20.2296 H   0  0  0  0  0
  -20.9978   31.9343   15.2102 H   0  0  0  0  0
  -19.2974   33.2775   14.1543 H   0  0  0  0  0
  -19.6575   32.1718   12.9143 H   0  0  0  0  0
  -17.1250   32.2296   13.6486 H   0  0  0  0  0
  -17.8003   30.6716   13.5274 H   0  0  0  0  0
  -17.0283   30.6918   15.8622 H   0  0  0  0  0
  -17.4168   32.3271   16.0871 H   0  0  0  0  0
  -22.6915   27.9774   14.0622 H   0  0  0  0  0
  -24.2266   28.4344   12.2212 H   0  0  0  0  0
  -23.1741   29.5087   11.4576 H   0  0  0  0  0
  -24.6494   29.9874   14.1220 H   0  0  0  0  0
  -24.7255   30.9730   12.7361 H   0  0  0  0  0
  -22.4470   31.8098   13.0220 H   0  0  0  0  0
  -22.9256   31.6413   14.6424 H   0  0  0  0  0
  -21.7983   26.2174   13.3677 H   0  0  0  0  0
  -19.4818   26.6576   11.5595 H   0  0  0  0  0
  -18.8564   25.8109   13.8102 H   0  0  0  0  0
  -19.9834   24.4448   13.6237 H   0  0  0  0  0
  -18.5381   24.5545   12.5891 H   0  0  0  0  0
  -19.1225   25.6609    9.7478 H   0  0  0  0  0
  -21.3012   24.1920    8.4448 H   0  0  0  0  0
  -19.3100   23.5681    6.9181 H   0  0  0  0  0
  -18.4825   24.8931    7.8345 H   0  0  0  0  0
  -21.5246   24.1056    5.8177 H   0  0  0  0  0
  -18.8693   27.1560    7.2478 H   0  0  0  0  0
  -22.7626   25.7910    4.4921 H   0  0  0  0  0
  -20.1286   28.8677    5.9391 H   0  0  0  0  0
  -21.8694   29.2290    4.5430 H   0  0  0  0  0
  -21.5817   21.9373    8.5455 H   0  0  0  0  0
  -19.5683   20.4656   10.2129 H   0  0  0  0  0
  -21.4590   18.8287   10.5760 H   0  0  0  0  0
  -22.5394   20.0508    9.7808 H   0  0  0  0  0
  -22.6808   20.1821   12.2065 H   0  0  0  0  0
  -21.9274   21.6657   11.5074 H   0  0  0  0  0
  -20.2853   18.8359   11.7566 H   0  0  0  0  0
  -18.5149   18.7444    9.4453 H   0  0  0  0  0
  -18.9544   18.2076    6.5892 H   0  0  0  0  0
  -16.6557   18.5386    7.7311 H   0  0  0  0  0
  -16.8205   17.1064    6.6215 H   0  0  0  0  0
  -17.2737   15.7340    8.6950 H   0  0  0  0  0
  -16.7466   17.1590    9.6514 H   0  0  0  0  0
  -14.5880   17.1135    8.6162 H   0  0  0  0  0
  -15.1105   15.7664    7.5281 H   0  0  0  0  0
  -13.7836   14.8186    9.2436 H   0  0  0  0  0
  -15.5242   14.4334    9.6231 H   0  0  0  0  0
  -14.2828   15.0547   11.5708 H   0  0  0  0  0
  -13.8830   16.5243   10.8946 H   0  0  0  0  0
  -15.4744   16.1721   11.2415 H   0  0  0  0  0
  -18.8731   16.0121    5.7342 H   0  0  0  0  0
  -20.2735   13.9542    7.5197 H   0  0  0  0  0
  -20.0762   13.2729    4.8405 H   0  0  0  0  0
  -20.8765   14.9435    5.0650 H   0  0  0  0  0
  -21.7945   12.2100    5.8549 H   0  0  0  0  0
  -21.8250   13.4868    7.9244 H   0  0  0  0  0
  -22.6878   14.8162    7.1123 H   0  0  0  0  0
  -23.4778   13.2328    7.3120 H   0  0  0  0  0
  -23.0975   14.6482    4.5703 H   0  0  0  0  0
  -22.5460   13.1850    3.7182 H   0  0  0  0  0
  -23.8985   13.0868    4.8724 H   0  0  0  0  0
  -18.7779   12.3838    8.1313 H   0  0  0  0  0
  -15.9210   12.5871    7.4170 H   0  0  0  0  0
  -15.7320   10.6839    9.0902 H   0  0  0  0  0
  -17.4518   10.4925    9.0958 H   0  0  0  0  0
  -17.7063   13.5387   12.1558 H   0  0  0  0  0
  -18.8324   11.2921   11.4503 H   0  0  0  0  0
  -14.6681   11.3892    6.2461 H   0  0  0  0  0
  -15.8260    9.8585    4.0640 H   0  0  0  0  0
  -13.7403   11.1314    3.8299 H   0  0  0  0  0
  -12.9553   10.0662    5.0215 H   0  0  0  0  0
  -13.4982    9.4067    3.4590 H   0  0  0  0  0
  -16.0698    7.6426    3.8992 H   0  0  0  0  0
  -15.4664    6.1352    6.4033 H   0  0  0  0  0
  -16.8969    4.3966    5.3289 H   0  0  0  0  0
  -17.1863    5.5706    3.9822 H   0  0  0  0  0
  -19.0141    5.5143    5.6682 H   0  0  0  0  0
  -18.1981    7.1303    5.5317 H   0  0  0  0  0
  -18.0864    7.8843    7.3936 H   0  0  0  0  0
  -14.1171    4.4270    6.5607 H   0  0  0  0  0
  -12.0337    4.3086    4.5291 H   0  0  0  0  0
  -10.9989    2.6581    5.9659 H   0  0  0  0  0
  -12.5282    2.5507    6.9421 H   0  0  0  0  0
  -12.2562    4.8686    7.5660 H   0  0  0  0  0
  -10.7009    4.9178    6.6492 H   0  0  0  0  0
  -10.9712    3.1654   10.3610 H   0  0  0  0  0
  -12.4096    3.7173    9.4963 H   0  0  0  0  0
  -11.7122    2.8896    2.9328 H   0  0  0  0  0
  -13.9289    1.0592    2.3848 H   0  0  0  0  0
  -12.5376    0.5489    0.2907 H   0  0  0  0  0
  -11.4047    1.8322    0.8747 H   0  0  0  0  0
  -12.9527    2.6093   -0.6306 H   0  0  0  0  0
  -11.6312   -2.7427    3.5095 H   0  0  0  0  0
  -13.9715   -3.5011    3.3844 H   0  0  0  0  0
  -13.1498   -4.5286    2.3271 H   0  0  0  0  0
  -15.1360   -3.2008    1.2061 H   0  0  0  0  0
  -13.6797   -3.1262    0.3386 H   0  0  0  0  0
  -14.0727   -0.7412    0.7197 H   0  0  0  0  0
  -14.8200   -0.9996    2.2314 H   0  0  0  0  0
   -8.7405   -3.2002    0.1665 H   0  0  0  0  0
   -7.7602   -5.2161    1.0470 H   0  0  0  0  0
   -8.5615   -5.9463   -0.2783 H   0  0  0  0  0
   -9.2746   -6.8666    2.1405 H   0  0  0  0  0
  -10.5547   -6.5439    1.0852 H   0  0  0  0  0
  -11.0482   -5.1088    3.0344 H   0  0  0  0  0
   -9.4327   -4.6571    3.2334 H   0  0  0  0  0
   -8.6371   -3.6956   -1.8860 H   0  0  0  0  0
  1  2  1  0  0  0
  2  3  1  0  0  0
  2  5  1  0  0  0
  3  4  2  0  0  0
  3  6  1  0  0  0
  6  7  1  0  0  0
  6 12  1  0  0  0
  7  8  1  0  0  0
  7 10  1  0  0  0
  8  9  2  0  0  0
  8 13  1  0  0  0
 10 11  1  0  0  0
 11 12  1  0  0  0
 13 14  1  0  0  0
 13 19  1  0  0  0
 14 15  1  0  0  0
 14 17  1  0  0  0
 15 16  2  0  0  0
 15 20  1  0  0  0
 17 18  1  0  0  0
 18 19  1  0  0  0
 20 21  1  0  0  0
 21 22  1  0  0  0
 21 24  1  0  0  0
 22 23  2  0  0  0
 22 25  1  0  0  0
 25 26  1  0  0  0
 26 27  1  0  0  0
 26 29  1  0  0  0
 27 28  2  0  0  0
 27 37  1  0  0  0
 29 30  1  0  0  0
 30 31  4  0  0  0
 30 32  4  0  0  0
 31 33  4  0  0  0
 32 34  4  0  0  0
 33 35  4  0  0  0
 34 35  4  0  0  0
 35 36  1  0  0  0
 37 38  1  0  0  0
 38 39  1  0  0  0
 38 41  1  0  0  0
 39 40  2  0  0  0
 39 46  1  0  0  0
 41 42  1  0  0  0
 42 43  1  0  0  0
 43 44  2  0  0  0
 43 45  1  0  0  0
 46 47  1  0  0  0
 47 48  1  0  0  0
 47 50  1  0  0  0
 48 49  2  0  0  0
 48 55  1  0  0  0
 50 51  1  0  0  0
 51 52  1  0  0  0
 52 53  1  0  0  0
 53 54  1  0  0  0
 55 56  1  0  0  0
 56 57  1  0  0  0
 56 59  1  0  0  0
 57 58  2  0  0  0
 57 63  1  0  0  0
 59 60  1  0  0  0
 60 61  1  0  0  0
 60 62  1  0  0  0
 63 64  1  0  0  0
 64 65  1  0  0  0
 64 67  1  0  0  0
 65 66  1  0  0  0
 66 69  1  0  0  0
 67 68  2  0  0  0
 67 73  1  0  0  0
 69 70  2  0  0  0
 69 71  1  0  0  0
 69 72  1  0  0  0
 73 74  1  0  0  0
 74 75  1  0  0  0
 74 77  1  0  0  0
 75 76  2  0  0  0
 75 78  1  0  0  0
 78 79  1  0  0  0
 79 80  1  0  0  0
 79 82  1  0  0  0
 80 81  2  0  0  0
 80 87  1  0  0  0
 82 83  1  0  0  0
 83 84  1  0  0  0
 84 85  2  0  0  0
 84 86  1  0  0  0
 87 88  1  0  0  0
 88 89  1  0  0  0
 88 91  1  0  0  0
 89 90  2  0  0  0
 89 96  1  0  0  0
 91 92  1  0  0  0
 92 93  1  0  0  0
 93 94  2  0  0  0
 93 95  1  0  0  0
 96 97  1  0  0  0
 97 98  1  0  0  0
 97100  1  0  0  0
 98 99  2  0  0  0
 98102  1  0  0  0
100101  1  0  0  0
102103  1  0  0  0
102108  1  0  0  0
103104  1  0  0  0
103106  1  0  0  0
104105  2  0  0  0
104109  1  0  0  0
106107  1  0  0  0
107108  1  0  0  0
109110  1  0  0  0
109115  1  0  0  0
110111  1  0  0  0
110113  1  0  0  0
111112  2  0  0  0
111116  1  0  0  0
113114  1  0  0  0
114115  1  0  0  0
  1117  1  0  0  0
  1118  1  0  0  0
  1119  1  0  0  0
  2120  1  0  0  0
  5121  1  0  0  0
  5122  1  0  0  0
  5123  1  0  0  0
  7124  1  0  0  0
 10125  1  0  0  0
 10126  1  0  0  0
 11127  1  0  0  0
 11128  1  0  0  0
 12129  1  0  0  0
 12130  1  0  0  0
 14131  1  0  0  0
 17132  1  0  0  0
 17133  1  0  0  0
 18134  1  0  0  0
 18135  1  0  0  0
 19136  1  0  0  0
 19137  1  0  0  0
 20138  1  0  0  0
 21139  1  0  0  0
 24140  1  0  0  0
 24141  1  0  0  0
 24142  1  0  0  0
 25143  1  0  0  0
 26144  1  0  0  0
 29145  1  0  0  0
 29146  1  0  0  0
 31147  1  0  0  0
 32148  1  0  0  0
 33149  1  0  0  0
 34150  1  0  0  0
 36151  1  0  0  0
 37152  1  0  0  0
 38153  1  0  0  0
 41154  1  0  0  0
 41155  1  0  0  0
 42156  1  0  0  0
 42157  1  0  0  0
 45158  1  0  0  0
 46159  1  0  0  0
 47160  1  0  0  0
 50161  1  0  0  0
 50162  1  0  0  0
 51163  1  0  0  0
 51164  1  0  0  0
 52165  1  0  0  0
 52166  1  0  0  0
 53167  1  0  0  0
 53168  1  0  0  0
 54169  1  0  0  0
 54170  1  0  0  0
 54171  1  0  0  0
 55172  1  0  0  0
 56173  1  0  0  0
 59174  1  0  0  0
 59175  1  0  0  0
 60176  1  0  0  0
 61177  1  0  0  0
 61178  1  0  0  0
 61179  1  0  0  0
 62180  1  0  0  0
 62181  1  0  0  0
 62182  1  0  0  0
 63183  1  0  0  0
 64184  1  0  0  0
 65185  1  0  0  0
 65186  1  0  0  0
 71187  1  0  0  0
 72188  1  0  0  0
 73189  1  0  0  0
 74190  1  0  0  0
 77191  1  0  0  0
 77192  1  0  0  0
 77193  1  0  0  0
 78194  1  0  0  0
 79195  1  0  0  0
 82196  1  0  0  0
 82197  1  0  0  0
 83198  1  0  0  0
 83199  1  0  0  0
 86200  1  0  0  0
 87201  1  0  0  0
 88202  1  0  0  0
 91203  1  0  0  0
 91204  1  0  0  0
 92205  1  0  0  0
 92206  1  0  0  0
 95207  1  0  0  0
 95208  1  0  0  0
 96209  1  0  0  0
 97210  1  0  0  0
100211  1  0  0  0
100212  1  0  0  0
101213  1  0  0  0
103214  1  0  0  0
106215  1  0  0  0
106216  1  0  0  0
107217  1  0  0  0
107218  1  0  0  0
108219  1  0  0  0
108220  1  0  0  0
110221  1  0  0  0
113222  1  0  0  0
113223  1  0  0  0
114224  1  0  0  0
114225  1  0  0  0
115226  1  0  0  0
115227  1  0  0  0
116228  1  0  0  0
M  END
$$$$
