### 
### Created by X-TOOL on Mon Sep 10 21:13:04 2018
### 

@<TRIPOS>MOLECULE
3l6f_ligand
  223   227     1     0     0
SMALL
GAST_HUCK


@<TRIPOS>ATOM
      1 N         -17.6270   30.8900   18.3040 N.4       1 ALA         0.2377
      2 CA        -18.7540   29.9280   18.1210 C.3       1 ALA         0.0623
      3 C         -19.6730   30.3290   16.9760 C.2       1 ALA         0.2289
      4 O         -20.8690   30.0090   16.9900 O.2       1 ALA        -0.3905
      5 CB        -19.5610   29.8080   19.4140 C.3       1 ALA        -0.0040
      6 N         -19.1460   31.0530   15.9710 N.am      1 PRO        -0.2471
      7 CA        -20.1060   31.3820   14.9140 C.3       1 PRO         0.1341
      8 C         -20.5570   30.0460   14.3350 C.2       1 PRO         0.2066
      9 O         -19.7750   29.0940   14.3070 O.2       1 PRO        -0.3942
     10 CB        -19.2770   32.2100   13.9350 C.3       1 PRO        -0.0104
     11 CG        -17.9110   31.6070   14.0760 C.3       1 PRO        -0.0281
     12 CD        -17.7770   31.4320   15.5800 C.3       1 PRO         0.0371
     13 N         -21.8250   29.9500   13.9020 N.am      1 PRO        -0.2498
     14 CA        -22.3520   28.7100   13.3300 C.3       1 PRO         0.1338
     15 C         -21.2560   27.9940   12.5370 C.2       1 PRO         0.2041
     16 O         -20.5130   28.6140   11.7740 O.2       1 PRO        -0.3944
     17 CB        -23.4900   29.2030   12.4550 C.3       1 PRO        -0.0104
     18 CG        -24.0380   30.3320   13.2880 C.3       1 PRO        -0.0281
     19 CD        -22.7830   31.0560   13.7340 C.3       1 PRO         0.0369
     20 N         -21.1500   26.6890   12.7370 N.am      1 ALA        -0.2640
     21 CA        -20.1160   25.9280   12.0630 C.3       1 ALA         0.1282
     22 C         -20.6230   25.0080   10.9670 C.2       1 ALA         0.2037
     23 O         -21.6480   24.3270   11.1130 O.2       1 ALA        -0.3944
     24 CB        -19.3150   25.1260   13.0970 C.3       1 ALA        -0.0244
     25 N         -19.9120   25.0220    9.8420 N.am      1 TYR        -0.2621
     26 CA        -20.2560   24.1310    8.7480 C.3       1 TYR         0.1390
     27 C         -19.8740   22.7570    9.2920 C.2       1 TYR         0.2057
     28 O         -18.8310   22.6140    9.9430 O.2       1 TYR        -0.3942
     29 CB        -19.4350   24.4780    7.5050 C.3       1 TYR         0.0163
     30 CG        -20.1190   25.5090    6.6320 C.ar      1 TYR        -0.0493
     31 CD1       -21.2110   25.1490    5.8490 C.ar      1 TYR        -0.0685
     32 CD2       -19.7300   26.8540    6.6510 C.ar      1 TYR        -0.0685
     33 CE1       -21.9130   26.0960    5.1030 C.ar      1 TYR        -0.0398
     34 CE2       -20.4350   27.8220    5.9100 C.ar      1 TYR        -0.0398
     35 CZ        -21.5240   27.4320    5.1420 C.ar      1 TYR         0.0805
     36 OH        -22.2520   28.3570    4.4210 O.3       1 TYR        -0.3376
     37 N         -20.7230   21.7610    9.0670 N.am      1 GLU        -0.2635
     38 CA        -20.4390   20.4160    9.5590 C.3       1 GLU         0.1325
     39 C         -20.1050   19.4710    8.4070 C.2       1 GLU         0.2040
     40 O         -20.7880   19.4510    7.3810 O.2       1 GLU        -0.3944
     41 CB        -21.6370   19.8840   10.3690 C.3       1 GLU        -0.0008
     42 CG        -21.8090   20.6000   11.7030 C.3       1 GLU         0.0044
     43 CD        -20.5950   20.4100   12.6080 C.2       1 GLU         0.0350
     44 OE1       -20.3260   21.2850   13.4650 O.co2     1 GLU        -0.5690
     45 OE2       -19.9100   19.3680   12.4620 O.co2     1 GLU        -0.5690
     46 N         -19.0460   18.6930    8.5760 N.am      1 LYS        -0.2637
     47 CA        -18.6330   17.7650    7.5320 C.3       1 LYS         0.1310
     48 C         -19.2700   16.3990    7.6890 C.2       1 LYS         0.2039
     49 O         -19.7890   16.0520    8.7510 O.2       1 LYS        -0.3944
     50 CB        -17.1150   17.5640    7.5660 C.3       1 LYS        -0.0122
     51 CG        -16.6530   16.6300    8.7030 C.3       1 LYS        -0.0440
     52 CD        -15.2080   16.2230    8.5130 C.3       1 LYS        -0.0124
     53 CE        -14.7540   15.2020    9.5590 C.3       1 LYS        -0.0354
     54 NZ        -14.5850   15.7850   10.9260 N.4       1 LYS         0.2185
     55 N         -19.2300   15.6300    6.6100 N.am      1 LEU        -0.2637
     56 CA        -19.6840   14.2590    6.6550 C.3       1 LEU         0.1312
     57 C         -18.3020   13.5540    6.5490 C.2       1 LEU         0.2040
     58 O         -17.4740   13.8950    5.6850 O.2       1 LEU        -0.3944
     59 CB        -20.6190   13.9690    5.4800 C.3       1 LEU        -0.0101
     60 CG        -21.9610   13.2850    5.7860 C.3       1 LEU        -0.0425
     61 CD1       -22.5290   13.7380    7.1310 C.3       1 LEU        -0.0625
     62 CD2       -22.9470   13.5720    4.6550 C.3       1 LEU        -0.0625
     63 N         -18.0450   12.6160    7.4610 N.am      1 SEP        -0.2613
     64 CA        -16.7410   11.8830    7.5580 C.3       1 SEP         0.1586
     65 CB        -16.6640   11.2320    8.9520 C.3       1 SEP         0.1184
     66 OG        -16.7820   12.3190    9.8780 O.3       1 SEP        -0.2714
     67 C         -16.6070   10.8380    6.4820 C.2       1 SEP         0.2065
     68 O         -17.5370   10.1430    6.1700 O.2       1 SEP        -0.3943
     69 P         -16.7590   11.8020   11.4140 P.3       1 SEP         0.2010
     70 O1P       -15.5050   11.0720   11.7180 O.co2     1 SEP        -0.5537
     71 O2P       -16.8920   13.0730   12.3600 O.co2     1 SEP        -0.5537
     72 O3P       -18.0200   10.8200   11.6470 O.co2     1 SEP        -0.5537
     73 N         -15.4000   10.7580    5.9200 N.am      1 ALA        -0.2639
     74 CA        -15.0780    9.8040    4.8550 C.3       1 ALA         0.1282
     75 C         -15.0430    8.4220    5.4730 C.2       1 ALA         0.2036
     76 O         -14.5050    8.2460    6.5600 O.2       1 ALA        -0.3944
     77 CB        -13.7210   10.1250    4.2480 C.3       1 ALA        -0.0244
     78 N         -15.6210    7.4470    4.7940 N.am      1 GLU        -0.2636
     79 CA        -15.6150    6.1020    5.3240 C.3       1 GLU         0.1325
     80 C         -14.4500    5.2910    4.7460 C.2       1 GLU         0.2040
     81 O         -14.1240    5.4050    3.5610 O.2       1 GLU        -0.3944
     82 CB        -16.9640    5.4460    5.0420 C.3       1 GLU        -0.0008
     83 CG        -18.1080    6.0920    5.8510 C.3       1 GLU         0.0044
     84 CD        -17.8420    6.0860    7.3700 C.2       1 GLU         0.0350
     85 OE1       -17.5950    4.9940    7.9340 O.co2     1 GLU        -0.5690
     86 OE2       -17.8840    7.1690    8.0010 O.co2     1 GLU        -0.5690
     87 N         -13.8090    4.4840    5.5900 N.am      1 GLN        -0.2636
     88 CA        -12.6720    3.6790    5.1490 C.3       1 GLN         0.1330
     89 C         -13.1390    2.4990    4.3290 C.2       1 GLN         0.2041
     90 O         -14.0790    1.8120    4.7100 O.2       1 GLN        -0.3944
     91 CB        -11.8740    3.1860    6.3450 C.3       1 GLN         0.0045
     92 CG        -11.3900    4.3010    7.2260 C.3       1 GLN         0.0412
     93 CD        -10.6610    3.7840    8.4350 C.2       1 GLN         0.1737
     94 OE1        -9.4420    3.5840    8.4010 O.2       1 GLN        -0.3973
     95 NE2       -11.4060    3.5360    9.5160 N.am      1 GLN        -0.3009
     96 N         -12.4840    2.2760    3.1940 N.am      1 SER        -0.2616
     97 CA        -12.8470    1.1740    2.3180 C.3       1 SER         0.1541
     98 C         -12.1590   -0.1110    2.7450 C.2       1 SER         0.2087
     99 O         -11.1840   -0.0840    3.5050 O.2       1 SER        -0.3941
    100 CB        -12.4320    1.4680    0.8670 C.3       1 SER         0.0843
    101 OG        -13.2450    2.4570    0.2710 O.3       1 SER        -0.3903
    102 N         -12.6860   -1.2550    2.2800 N.am      1 PRO        -0.2498
    103 CA        -12.1480   -2.5840    2.5630 C.3       1 PRO         0.1339
    104 C         -11.2050   -2.8190    1.3820 C.2       1 PRO         0.2060
    105 O         -11.2670   -2.0910    0.3870 O.2       1 PRO        -0.3942
    106 CB        -13.3820   -3.4730    2.4680 C.3       1 PRO        -0.0104
    107 CG        -14.1070   -2.8550    1.3040 C.3       1 PRO        -0.0281
    108 CD        -14.0000   -1.3630    1.6120 C.3       1 PRO         0.0369
    109 N         -10.3290   -3.8280    1.4580 N.am      1 PRO        -0.2556
    110 CA         -9.4450   -4.0210    0.3010 C.3       1 PRO         0.0972
    111 C         -10.2040   -4.0390   -1.0410 C.2       1 PRO         0.0603
    112 O         -11.4370   -4.2520   -1.0260 O.co2     1 PRO        -0.5666
    113 CB         -8.7520   -5.3530    0.6160 C.3       1 PRO        -0.0159
    114 CG         -9.7250   -6.0440    1.5850 C.3       1 PRO        -0.0288
    115 CD        -10.1510   -4.9020    2.4510 C.3       1 PRO         0.0362
    116 OXT        -9.5630   -3.8360   -2.0970 O.co2     1 PRO        -0.5666
    117 H1        -17.0466   30.5858   19.0699 H         1 ALA         0.2015
    118 H2        -17.9964   31.8059   18.5056 H         1 ALA         0.2015
    119 H3        -17.0770   30.9277   17.4601 H         1 ALA         0.2015
    120 H4        -18.3249   28.9430   17.8853 H         1 ALA         0.1095
    121 H5        -20.3873   29.0971   19.2659 H         1 ALA         0.0310
    122 H6        -19.9689   30.7931   19.6844 H         1 ALA         0.0310
    123 H7        -18.9075   29.4474   20.2220 H         1 ALA         0.0310
    124 H8        -20.9682   31.9543   15.2868 H         1 PRO         0.0802
    125 H9        -19.2733   33.2732   14.2172 H         1 PRO         0.0313
    126 H10       -19.6538   32.1048   12.9069 H         1 PRO         0.0313
    127 H11       -17.1366   32.2831   13.6848 H         1 PRO         0.0287
    128 H12       -17.8491   30.6391   13.5570 H         1 PRO         0.0287
    129 H13       -17.0571   30.6377   15.8267 H         1 PRO         0.0524
    130 H14       -17.4687   32.3699   16.0649 H         1 PRO         0.0524
    131 H15       -22.7296   28.0376   14.1144 H         1 PRO         0.0802
    132 H16       -24.2439   28.4181   12.2954 H         1 PRO         0.0313
    133 H17       -23.1230   29.5622   11.4822 H         1 PRO         0.0313
    134 H18       -24.6036   29.9503   14.1508 H         1 PRO         0.0287
    135 H19       -24.6838   30.9903   12.6884 H         1 PRO         0.0287
    136 H20       -22.4400   31.7671   12.9681 H         1 PRO         0.0524
    137 H21       -22.9464   31.5889   14.6823 H         1 PRO         0.0524
    138 H22       -21.7856   26.2267   13.3553 H         1 ALA         0.1883
    139 H23       -19.4356   26.6510   11.5894 H         1 ALA         0.0797
    140 H24       -18.5306   24.5487   12.5856 H         1 ALA         0.0277
    141 H25       -19.9884   24.4381   13.6292 H         1 ALA         0.0277
    142 H26       -18.8516   25.8161   13.8174 H         1 ALA         0.0277
    143 H27       -19.1380   25.6484    9.7497 H         1 TYR         0.1885
    144 H28       -21.3291   24.1814    8.5115 H         1 TYR         0.0821
    145 H29       -19.2814   23.5619    6.9158 H         1 TYR         0.0453
    146 H30       -18.4607   24.8761    7.8247 H         1 TYR         0.0453
    147 H31       -21.5229   24.1113    5.8179 H         1 TYR         0.0530
    148 H32       -18.8741   27.1544    7.2445 H         1 TYR         0.0530
    149 H33       -22.7580   25.7927    4.4954 H         1 TYR         0.0525
    150 H34       -20.1303   28.8619    5.9389 H         1 TYR         0.0525
    151 H35       -22.9545   27.9149    3.9590 H         1 TYR         0.2458
    152 H36       -21.5649   21.9338    8.5557 H         1 GLU         0.1883
    153 H37       -19.5653   20.4685   10.2253 H         1 GLU         0.0801
    154 H38       -21.4831   18.8121   10.5622 H         1 GLU         0.0330
    155 H39       -22.5525   20.0218    9.7750 H         1 GLU         0.0330
    156 H40       -22.6982   20.1982   12.2109 H         1 GLU         0.0433
    157 H41       -21.9484   21.6748   11.5150 H         1 GLU         0.0433
    158 H42       -18.5253   18.7434    9.4283 H         1 LYS         0.1883
    159 H43       -18.9241   18.1862    6.5585 H         1 LYS         0.0800
    160 H44       -16.6351   18.5444    7.7018 H         1 LYS         0.0312
    161 H45       -16.7978   17.1302    6.6062 H         1 LYS         0.0312
    162 H46       -17.2835   15.7287    8.7075 H         1 LYS         0.0269
    163 H47       -16.7561   17.1544    9.6644 H         1 LYS         0.0269
    164 H48       -14.5740   17.1183    8.5931 H         1 LYS         0.0317
    165 H49       -15.0929   15.7805    7.5125 H         1 LYS         0.0317
    166 H50       -13.7900   14.7801    9.2386 H         1 LYS         0.0813
    167 H51       -15.5054   14.4005    9.6126 H         1 LYS         0.0813
    168 H52       -14.2863   15.0641   11.5641 H         1 LYS         0.1994
    169 H53       -15.4633   16.1679   11.2390 H         1 LYS         0.1994
    170 H54       -13.8914   16.5158   10.8962 H         1 LYS         0.1994
    171 H55       -18.8801   16.0046    5.7514 H         1 LEU         0.1883
    172 H56       -20.1945   14.0152    7.5984 H         1 LEU         0.0800
    173 H57       -20.0731   13.3217    4.7779 H         1 LEU         0.0315
    174 H58       -20.8435   14.9299    4.9940 H         1 LEU         0.0315
    175 H59       -21.7929   12.1990    5.8350 H         1 LEU         0.0298
    176 H60       -23.4866   13.2288    7.3148 H         1 LEU         0.0232
    177 H61       -22.6898   14.8260    7.1134 H         1 LEU         0.0232
    178 H62       -21.8195   13.4850    7.9326 H         1 LEU         0.0232
    179 H63       -22.5164   13.2378    3.6996 H         1 LEU         0.0232
    180 H64       -23.1476   14.6526    4.6087 H         1 LEU         0.0232
    181 H65       -23.8870   13.0322    4.8422 H         1 LEU         0.0232
    182 H66       -18.7635   12.3883    8.1182 H         1 SEP         0.1884
    183 H67       -15.9170   12.6035    7.4487 H         1 SEP         0.0827
    184 H68       -15.7023   10.7147    9.0842 H         1 SEP         0.0662
    185 H69       -17.4875   10.5160    9.0900 H         1 SEP         0.0662
    186 H70       -14.6825   11.3768    6.2397 H         1 ALA         0.1883
    187 H71       -15.8486    9.8460    4.0712 H         1 ALA         0.0797
    188 H72       -13.4950    9.4007    3.4516 H         1 ALA         0.0277
    189 H73       -12.9473   10.0659    5.0277 H         1 ALA         0.0277
    190 H74       -13.7392   11.1405    3.8256 H         1 ALA         0.0277
    191 H75       -16.0610    7.6387    3.9167 H         1 GLU         0.1883
    192 H76       -15.4803    6.1577    6.4143 H         1 GLU         0.0801
    193 H77       -16.9015    4.3801    5.3064 H         1 GLU         0.0330
    194 H78       -17.1887    5.5453    3.9698 H         1 GLU         0.0330
    195 H79       -19.0359    5.5349    5.6544 H         1 GLU         0.0433
    196 H80       -18.2285    7.1338    5.5193 H         1 GLU         0.0433
    197 H81       -14.1111    4.4281    6.5417 H         1 GLN         0.1883
    198 H82       -12.0203    4.3071    4.5239 H         1 GLN         0.0801
    199 H83       -11.0017    2.6255    5.9777 H         1 GLN         0.0337
    200 H84       -12.5132    2.5193    6.9424 H         1 GLN         0.0337
    201 H85       -12.2556    4.8927    7.5587 H         1 GLN         0.0504
    202 H86       -10.7087    4.9416    6.6469 H         1 GLN         0.0504
    203 H87       -10.9768    3.1905   10.3505 H         1 GLN         0.1814
    204 H88       -12.3928    3.6959    9.4906 H         1 GLN         0.1814
    205 H89       -11.7273    2.8776    2.9379 H         1 SER         0.1884
    206 H90       -13.9371    1.0339    2.3627 H         1 SER         0.0823
    207 H91       -12.5136    0.5412    0.2802 H         1 SER         0.0606
    208 H92       -11.3884    1.8157    0.8602 H         1 SER         0.0606
    209 H93       -14.1483    2.1626    0.2668 H         1 SER         0.2097
    210 H94       -11.6390   -2.6708    3.5343 H         1 PRO         0.0802
    211 H95       -13.9837   -3.4251    3.3876 H         1 PRO         0.0313
    212 H96       -13.1093   -4.5186    2.2623 H         1 PRO         0.0313
    213 H97       -15.1571   -3.1807    1.2698 H         1 PRO         0.0287
    214 H98       -13.6153   -3.1017    0.3515 H         1 PRO         0.0287
    215 H99       -14.0243   -0.7659    0.6885 H         1 PRO         0.0524
    216 H100      -14.8111   -1.0381    2.2802 H         1 PRO         0.0524
    217 H101       -8.7007   -3.2121    0.2589 H         1 PRO         0.0728
    218 H102       -7.7753   -5.1848    1.0932 H         1 PRO         0.0306
    219 H103       -8.6159   -5.9509   -0.2972 H         1 PRO         0.0306
    220 H104       -9.2197   -6.8254    2.1715 H         1 PRO         0.0286
    221 H105      -10.5803   -6.4824    1.0500 H         1 PRO         0.0286
    222 H106      -11.0924   -5.1247    2.9746 H         1 PRO         0.0524
    223 H107       -9.3745   -4.6443    3.1862 H         1 PRO         0.0524
@<TRIPOS>BOND
     1    1    2 1  
     2    2    3 1  
     3    2    5 1  
     4    3    4 2  
     5    3    6 am 
     6    6    7 1  
     7    6   12 1  
     8    7    8 1  
     9    7   10 1  
    10    8    9 2  
    11    8   13 am 
    12   10   11 1  
    13   11   12 1  
    14   13   14 1  
    15   13   19 1  
    16   14   15 1  
    17   14   17 1  
    18   15   16 2  
    19   15   20 am 
    20   17   18 1  
    21   18   19 1  
    22   20   21 1  
    23   21   22 1  
    24   21   24 1  
    25   22   23 2  
    26   22   25 am 
    27   25   26 1  
    28   26   27 1  
    29   26   29 1  
    30   27   28 2  
    31   27   37 am 
    32   29   30 1  
    33   30   31 ar 
    34   30   32 ar 
    35   31   33 ar 
    36   32   34 ar 
    37   33   35 ar 
    38   34   35 ar 
    39   35   36 1  
    40   37   38 1  
    41   38   39 1  
    42   38   41 1  
    43   39   40 2  
    44   39   46 am 
    45   41   42 1  
    46   42   43 1  
    47   43   44 ar 
    48   43   45 ar 
    49   46   47 1  
    50   47   48 1  
    51   47   50 1  
    52   48   49 2  
    53   48   55 am 
    54   50   51 1  
    55   51   52 1  
    56   52   53 1  
    57   53   54 1  
    58   55   56 1  
    59   56   57 1  
    60   56   59 1  
    61   57   58 2  
    62   57   63 am 
    63   59   60 1  
    64   60   61 1  
    65   60   62 1  
    66   63   64 1  
    67   64   65 1  
    68   64   67 1  
    69   65   66 1  
    70   66   69 1  
    71   67   68 2  
    72   67   73 am 
    73   69   70 ar 
    74   69   71 ar 
    75   69   72 ar 
    76   73   74 1  
    77   74   75 1  
    78   74   77 1  
    79   75   76 2  
    80   75   78 am 
    81   78   79 1  
    82   79   80 1  
    83   79   82 1  
    84   80   81 2  
    85   80   87 am 
    86   82   83 1  
    87   83   84 1  
    88   84   85 ar 
    89   84   86 ar 
    90   87   88 1  
    91   88   89 1  
    92   88   91 1  
    93   89   90 2  
    94   89   96 am 
    95   91   92 1  
    96   92   93 1  
    97   93   94 2  
    98   93   95 am 
    99   96   97 1  
   100   97   98 1  
   101   97  100 1  
   102   98   99 2  
   103   98  102 am 
   104  100  101 1  
   105  102  103 1  
   106  102  108 1  
   107  103  104 1  
   108  103  106 1  
   109  104  105 2  
   110  104  109 am 
   111  106  107 1  
   112  107  108 1  
   113  109  110 1  
   114  109  115 1  
   115  110  111 1  
   116  110  113 1  
   117  111  112 ar 
   118  111  116 ar 
   119  113  114 1  
   120  114  115 1  
   121    1  117 1  
   122    1  118 1  
   123    1  119 1  
   124    2  120 1  
   125    5  121 1  
   126    5  122 1  
   127    5  123 1  
   128    7  124 1  
   129   10  125 1  
   130   10  126 1  
   131   11  127 1  
   132   11  128 1  
   133   12  129 1  
   134   12  130 1  
   135   14  131 1  
   136   17  132 1  
   137   17  133 1  
   138   18  134 1  
   139   18  135 1  
   140   19  136 1  
   141   19  137 1  
   142   20  138 1  
   143   21  139 1  
   144   24  140 1  
   145   24  141 1  
   146   24  142 1  
   147   25  143 1  
   148   26  144 1  
   149   29  145 1  
   150   29  146 1  
   151   31  147 1  
   152   32  148 1  
   153   33  149 1  
   154   34  150 1  
   155   36  151 1  
   156   37  152 1  
   157   38  153 1  
   158   41  154 1  
   159   41  155 1  
   160   42  156 1  
   161   42  157 1  
   162   46  158 1  
   163   47  159 1  
   164   50  160 1  
   165   50  161 1  
   166   51  162 1  
   167   51  163 1  
   168   52  164 1  
   169   52  165 1  
   170   53  166 1  
   171   53  167 1  
   172   54  168 1  
   173   54  169 1  
   174   54  170 1  
   175   55  171 1  
   176   56  172 1  
   177   59  173 1  
   178   59  174 1  
   179   60  175 1  
   180   61  176 1  
   181   61  177 1  
   182   61  178 1  
   183   62  179 1  
   184   62  180 1  
   185   62  181 1  
   186   63  182 1  
   187   64  183 1  
   188   65  184 1  
   189   65  185 1  
   190   73  186 1  
   191   74  187 1  
   192   77  188 1  
   193   77  189 1  
   194   77  190 1  
   195   78  191 1  
   196   79  192 1  
   197   82  193 1  
   198   82  194 1  
   199   83  195 1  
   200   83  196 1  
   201   87  197 1  
   202   88  198 1  
   203   91  199 1  
   204   91  200 1  
   205   92  201 1  
   206   92  202 1  
   207   95  203 1  
   208   95  204 1  
   209   96  205 1  
   210   97  206 1  
   211  100  207 1  
   212  100  208 1  
   213  101  209 1  
   214  103  210 1  
   215  106  211 1  
   216  106  212 1  
   217  107  213 1  
   218  107  214 1  
   219  108  215 1  
   220  108  216 1  
   221  110  217 1  
   222  113  218 1  
   223  113  219 1  
   224  114  220 1  
   225  114  221 1  
   226  115  222 1  
   227  115  223 1  
@<TRIPOS>SUBSTRUCTURE
     1 ALA         1

