3n2e_ligand
  -I-interpret- 

 48 51  0  0  0  0  0  0  0  0999 V2000
   42.3670   15.9390    8.3510 C   0  0  0  0  0
   41.1260   16.0670    8.9910 C   0  0  0  0  0
   41.0720   16.4610   10.3450 C   0  0  0  0  0
   42.2610   16.6980   11.0500 C   0  0  0  0  0
   43.5170   16.5810   10.4210 C   0  0  0  0  0
   43.5550   16.2010    9.0690 C   0  0  0  0  0
   44.7440   16.0810    8.4830 N   0  0  0  0  0
   42.2050   17.0530   12.3930 C   0  0  0  0  0
   40.9970   17.1730   13.0390 C   0  0  0  0  0
   39.7980   16.9740   12.3530 C   0  0  0  0  0
   39.8510   16.5980   11.0020 C   0  0  0  0  0
   38.7240   16.3610   10.2920 O   0  0  0  0  0
   38.6320   17.0950   13.0210 N   0  0  0  0  0
   37.6060   16.5870   12.5580 N   0  0  0  0  0
   36.4180   16.5580   13.1630 C   0  0  0  0  0
   35.3740   15.8750   12.5510 C   0  0  0  0  0
   34.1230   15.7940   13.1610 C   0  0  0  0  0
   33.8890   16.3970   14.3990 C   0  0  0  0  0
   34.9470   17.0860   14.9980 C   0  0  0  0  0
   36.2040   17.1640   14.3980 C   0  0  0  0  0
   34.7560   17.6930   16.2160 C   0  0  0  0  0
   33.5210   17.6290   16.8600 C   0  0  0  0  0
   32.4420   16.9580   16.2810 C   0  0  0  0  0
   32.6270   16.3290   15.0380 C   0  0  0  0  0
   31.5650   15.6770   14.4500 O   0  0  0  0  0
   33.4180   18.4530   18.4150 S   0  0  0  0  0
   32.1130   18.0890   19.1100 O   0  0  0  0  0
   34.6070   18.1470   19.3070 O   0  0  0  0  0
   33.4860   19.9480   18.1630 O   0  0  0  0  0
   41.0880   17.6510   14.6940 S   0  0  0  0  0
   42.5320   17.9350   14.9630 O   0  0  0  0  0
   40.1350   18.8120   14.8640 O   0  0  0  0  0
   40.7200   16.6120   15.7180 O   0  0  0  0  0
   42.4148   15.6387    7.3043 H   0  0  0  0  0
   40.2055   15.8627    8.4442 H   0  0  0  0  0
   44.4369   16.7806   10.9705 H   0  0  0  0  0
   44.8043   15.7971    7.5052 H   0  0  0  0  0
   45.5949   16.2729    9.0118 H   0  0  0  0  0
   43.1293   17.2384   12.9402 H   0  0  0  0  0
   37.9584   16.4891   10.8569 H   0  0  0  0  0
   35.5348   15.3978   11.5843 H   0  0  0  0  0
   33.3169   15.2530   12.6653 H   0  0  0  0  0
   37.0151   17.6971   14.8940 H   0  0  0  0  0
   35.5801   18.2311   16.6844 H   0  0  0  0  0
   31.4752   16.9228   16.7832 H   0  0  0  0  0
   30.7981   15.7341   15.0246 H   0  0  0  0  0
   31.3755   18.2903   18.5293 H   0  0  0  0  0
   39.2410   18.5221   14.6681 H   0  0  0  0  0
  1  2  4  0  0  0
  1  6  4  0  0  0
  2  3  4  0  0  0
  3  4  4  0  0  0
  3 11  4  0  0  0
  4  5  4  0  0  0
  4  8  4  0  0  0
  5  6  4  0  0  0
  6  7  1  0  0  0
  8  9  4  0  0  0
  9 10  4  0  0  0
  9 30  1  0  0  0
 10 11  4  0  0  0
 10 13  1  0  0  0
 11 12  1  0  0  0
 13 14  2  0  0  0
 14 15  1  0  0  0
 15 16  4  0  0  0
 15 20  4  0  0  0
 16 17  4  0  0  0
 17 18  4  0  0  0
 18 19  4  0  0  0
 18 24  4  0  0  0
 19 20  4  0  0  0
 19 21  4  0  0  0
 21 22  4  0  0  0
 22 23  4  0  0  0
 22 26  1  0  0  0
 23 24  4  0  0  0
 24 25  1  0  0  0
 26 27  1  0  0  0
 26 28  2  0  0  0
 26 29  2  0  0  0
 30 31  2  0  0  0
 30 32  1  0  0  0
 30 33  2  0  0  0
  1 34  1  0  0  0
  2 35  1  0  0  0
  5 36  1  0  0  0
  7 37  1  0  0  0
  7 38  1  0  0  0
  8 39  1  0  0  0
 12 40  1  0  0  0
 16 41  1  0  0  0
 17 42  1  0  0  0
 20 43  1  0  0  0
 21 44  1  0  0  0
 23 45  1  0  0  0
 25 46  1  0  0  0
 27 47  1  0  0  0
 32 48  1  0  0  0
M  END
$$$$
