1okx_ligand
  -I-interpret- 

134136  0  0  0  0  0  0  0  0999 V2000
  109.8950  -16.4450   13.0660 C   0  0  0  0  0
  108.5890  -17.1710   13.3750 C   0  0  0  0  0
  107.5410  -16.2120   13.9340 C   0  0  0  0  0
  106.3000  -17.0010   14.3220 C   0  0  0  0  0
  105.3210  -17.0610   13.5710 O   0  0  0  0  0
  106.3730  -17.6040   15.5090 N   0  0  0  0  0
  105.2740  -18.4250   16.0180 C   0  0  0  0  0
  104.6250  -17.7830   17.2380 C   0  0  0  0  0
  105.2560  -17.0750   18.0200 O   0  0  0  0  0
  105.8110  -19.8040   16.4060 C   0  0  0  0  0
  103.3410  -18.0600   17.3490 N   0  0  0  0  0
  102.5080  -17.5880   18.4470 C   0  0  0  0  0
  101.5450  -18.7320   18.7850 C   0  0  0  0  0
  100.9110  -19.2930   17.8940 O   0  0  0  0  0
  101.7570  -16.3010   18.0460 C   0  0  0  0  0
  100.9450  -15.8600   19.1340 O   0  0  0  0  0
  100.9080  -16.4980   16.7770 C   0  0  0  0  0
  101.4990  -19.0730   20.0790 N   0  0  0  0  0
  100.6410  -20.1580   20.6110 C   0  0  0  0  0
   99.1520  -19.8320   20.4200 C   0  0  0  0  0
   98.7710  -18.6640   20.3740 O   0  0  0  0  0
  100.9930  -20.3900   22.0840 C   0  0  0  0  0
  101.1700  -19.1440   22.7940 O   0  0  0  0  0
  102.3000  -21.1790   22.1630 C   0  0  0  0  0
   98.3410  -20.8970   20.3090 N   0  0  0  0  0
   96.8850  -20.7590   20.0920 C   0  0  0  0  0
   96.0930  -20.8790   21.4000 C   0  0  0  0  0
   95.0290  -21.5050   21.4340 O   0  0  0  0  0
   96.3810  -21.8230   19.1110 C   0  0  0  0  0
   96.9770  -21.6210   17.7200 C   0  0  0  0  0
   96.4330  -22.6820   16.7610 C   0  0  0  0  0
   96.6660  -20.2200   17.1770 C   0  0  0  0  0
   96.6210  -20.2670   22.4550 N   0  0  0  0  0
   95.9370  -20.2810   23.7540 C   0  0  0  0  0
   95.2960  -18.9070   24.0070 C   0  0  0  0  0
   94.7290  -18.3380   23.0760 O   0  0  0  0  0
   96.8940  -20.6590   24.8840 C   0  0  0  0  0
   96.2330  -20.3920   26.2410 C   0  0  0  0  0
   96.0770  -18.8810   26.4300 C   0  0  0  0  0
   97.3720  -18.2750   26.5670 O   0  0  0  0  0
   95.3600  -18.2650   25.2690 N   0  0  0  0  0
   94.6890  -16.9550   25.4170 C   0  0  0  0  0
   93.2850  -17.1500   25.9980 C   0  0  0  0  0
   92.3740  -17.8510   24.9950 C   0  0  0  0  0
   93.3620  -17.8970   27.2080 O   0  0  0  0  0
   95.5340  -16.0280   26.3050 C   0  0  0  0  0
   95.2870  -15.9110   27.5050 O   0  0  0  0  0
   96.5200  -15.3590   25.6720 N   0  0  0  0  0
   96.7360  -15.5040   24.2070 C   0  0  0  0  0
   96.3010  -14.2170   23.4890 C   0  0  0  0  0
   94.8080  -13.9890   23.6790 C   0  0  0  0  0
   93.9050  -14.5090   22.7430 C   0  0  0  0  0
   92.5280  -14.3670   22.9460 C   0  0  0  0  0
   91.4080  -15.0690   21.7690 Cl  0  0  0  0  0
   92.0460  -13.6950   24.0860 C   0  0  0  0  0
   90.7080  -13.5520   24.2850 O   0  0  0  0  0
   92.9500  -13.1690   25.0220 C   0  0  0  0  0
   94.3330  -13.3160   24.8180 C   0  0  0  0  0
   98.1920  -15.8300   23.8650 C   0  0  0  0  0
   98.8380  -15.1160   23.1010 O   0  0  0  0  0
   98.6750  -16.9230   24.4300 N   0  0  0  0  0
  100.0550  -17.3640   24.1860 C   0  0  0  0  0
  100.0180  -18.6440   23.3380 C   0  0  0  0  0
   98.9010  -19.1830   23.1530 O   0  0  0  0  0
  100.7600  -17.6200   25.5350 C   0  0  0  0  0
  100.8000  -16.3430   26.3680 C   0  0  0  0  0
  102.1860  -18.1420   25.3400 C   0  0  0  0  0
  109.7095  -15.6643   12.3283 H   0  0  0  0  0
  110.2855  -15.9976   13.9800 H   0  0  0  0  0
  110.6197  -17.1563   12.6697 H   0  0  0  0  0
  108.7877  -17.9411   14.1204 H   0  0  0  0  0
  108.2056  -17.6043   12.4512 H   0  0  0  0  0
  107.2824  -15.4707   13.1779 H   0  0  0  0  0
  107.9408  -15.7031   14.8111 H   0  0  0  0  0
  107.2139  -17.4904   16.0750 H   0  0  0  0  0
  104.5229  -18.5150   15.2333 H   0  0  0  0  0
  106.5491  -19.6947   17.2005 H   0  0  0  0  0
  104.9883  -20.4276   16.7559 H   0  0  0  0  0
  106.2768  -20.2688   15.5370 H   0  0  0  0  0
  102.9074  -18.6358   16.6273 H   0  0  0  0  0
  103.1060  -17.3279   19.3204 H   0  0  0  0  0
  102.4987  -15.5366   17.8145 H   0  0  0  0  0
  100.4797  -15.0595   18.8806 H   0  0  0  0  0
  101.5558  -16.7859   15.9490 H   0  0  0  0  0
  100.1708  -17.2814   16.9526 H   0  0  0  0  0
  100.3984  -15.5656   16.5340 H   0  0  0  0  0
  102.0866  -18.5578   20.7345 H   0  0  0  0  0
  100.8273  -21.0777   20.0564 H   0  0  0  0  0
  100.1704  -20.9374   22.5442 H   0  0  0  0  0
  102.1757  -22.1370   21.6581 H   0  0  0  0  0
  103.0950  -20.6120   21.6786 H   0  0  0  0  0
  102.5579  -21.3485   23.2084 H   0  0  0  0  0
   98.7430  -21.8320   20.3767 H   0  0  0  0  0
   96.7246  -19.7632   19.6787 H   0  0  0  0  0
   95.2963  -21.7428   19.0390 H   0  0  0  0  0
   96.6817  -22.8042   19.4784 H   0  0  0  0  0
   98.0595  -21.7207   17.7993 H   0  0  0  0  0
   96.7014  -23.6729   17.1273 H   0  0  0  0  0
   95.3479  -22.5960   16.7038 H   0  0  0  0  0
   96.8635  -22.5302   15.7712 H   0  0  0  0  0
   95.5859  -20.0876   17.1142 H   0  0  0  0  0
   97.0869  -19.4703   17.8470 H   0  0  0  0  0
   97.1050  -20.1104   16.1854 H   0  0  0  0  0
   97.5130  -19.7813   22.3610 H   0  0  0  0  0
   95.1555  -21.0405   23.7318 H   0  0  0  0  0
   97.8006  -20.0594   24.8022 H   0  0  0  0  0
   97.1400  -21.7181   24.8068 H   0  0  0  0  0
   96.8532  -20.8003   27.0389 H   0  0  0  0  0
   95.2538  -20.8697   26.2735 H   0  0  0  0  0
   95.4886  -18.7086   27.3312 H   0  0  0  0  0
   97.2699  -17.3278   26.6853 H   0  0  0  0  0
   94.5897  -16.4869   24.4377 H   0  0  0  0  0
   92.8580  -16.1702   26.2119 H   0  0  0  0  0
   92.2991  -17.2474   24.0905 H   0  0  0  0  0
   92.7908  -18.8275   24.7482 H   0  0  0  0  0
   91.3835  -17.9772   25.4322 H   0  0  0  0  0
   92.4793  -18.0154   27.5664 H   0  0  0  0  0
   97.1294  -14.7416   26.2084 H   0  0  0  0  0
   96.1288  -16.3424   23.8657 H   0  0  0  0  0
   96.5151  -14.3122   22.4245 H   0  0  0  0  0
   96.8474  -13.3721   23.9082 H   0  0  0  0  0
   94.2750  -15.0242   21.8566 H   0  0  0  0  0
   90.5567  -13.0736   25.1034 H   0  0  0  0  0
   92.5805  -12.6477   25.9051 H   0  0  0  0  0
   95.0372  -12.9081   25.5431 H   0  0  0  0  0
   98.0773  -17.4716   25.0482 H   0  0  0  0  0
  100.6119  -16.5956   23.6497 H   0  0  0  0  0
  100.1834  -18.3823   26.0590 H   0  0  0  0  0
  101.3456  -15.5724   25.8234 H   0  0  0  0  0
   99.7821  -16.0031   26.5588 H   0  0  0  0  0
  101.3008  -16.5440   27.3150 H   0  0  0  0  0
  102.1556  -19.0798   24.7852 H   0  0  0  0  0
  102.7674  -17.4074   24.7828 H   0  0  0  0  0
  102.6467  -18.3091   26.3136 H   0  0  0  0  0
  1  2  1  0  0  0
  2  3  1  0  0  0
  3  4  1  0  0  0
  4  5  2  0  0  0
  4  6  1  0  0  0
  6  7  1  0  0  0
  7  8  1  0  0  0
  7 10  1  0  0  0
  8  9  2  0  0  0
  8 11  1  0  0  0
 11 12  1  0  0  0
 12 13  1  0  0  0
 12 15  1  0  0  0
 13 14  2  0  0  0
 13 18  1  0  0  0
 15 16  1  0  0  0
 15 17  1  0  0  0
 18 19  1  0  0  0
 19 20  1  0  0  0
 19 22  1  0  0  0
 20 21  2  0  0  0
 20 25  1  0  0  0
 22 23  1  0  0  0
 22 24  1  0  0  0
 23 63  1  0  0  0
 25 26  1  0  0  0
 26 27  1  0  0  0
 26 29  1  0  0  0
 27 28  2  0  0  0
 27 33  1  0  0  0
 29 30  1  0  0  0
 30 31  1  0  0  0
 30 32  1  0  0  0
 33 34  1  0  0  0
 34 35  1  0  0  0
 34 37  1  0  0  0
 35 36  2  0  0  0
 35 41  1  0  0  0
 37 38  1  0  0  0
 38 39  1  0  0  0
 39 40  1  0  0  0
 39 41  1  0  0  0
 41 42  1  0  0  0
 42 43  1  0  0  0
 42 46  1  0  0  0
 43 44  1  0  0  0
 43 45  1  0  0  0
 46 47  2  0  0  0
 46 48  1  0  0  0
 48 49  1  0  0  0
 49 50  1  0  0  0
 49 59  1  0  0  0
 50 51  1  0  0  0
 51 52  4  0  0  0
 51 58  4  0  0  0
 52 53  4  0  0  0
 53 54  1  0  0  0
 53 55  4  0  0  0
 55 56  1  0  0  0
 55 57  4  0  0  0
 57 58  4  0  0  0
 59 60  2  0  0  0
 59 61  1  0  0  0
 61 62  1  0  0  0
 62 63  1  0  0  0
 62 65  1  0  0  0
 63 64  2  0  0  0
 65 66  1  0  0  0
 65 67  1  0  0  0
  1 68  1  0  0  0
  1 69  1  0  0  0
  1 70  1  0  0  0
  2 71  1  0  0  0
  2 72  1  0  0  0
  3 73  1  0  0  0
  3 74  1  0  0  0
  6 75  1  0  0  0
  7 76  1  0  0  0
 10 77  1  0  0  0
 10 78  1  0  0  0
 10 79  1  0  0  0
 11 80  1  0  0  0
 12 81  1  0  0  0
 15 82  1  0  0  0
 16 83  1  0  0  0
 17 84  1  0  0  0
 17 85  1  0  0  0
 17 86  1  0  0  0
 18 87  1  0  0  0
 19 88  1  0  0  0
 22 89  1  0  0  0
 24 90  1  0  0  0
 24 91  1  0  0  0
 24 92  1  0  0  0
 25 93  1  0  0  0
 26 94  1  0  0  0
 29 95  1  0  0  0
 29 96  1  0  0  0
 30 97  1  0  0  0
 31 98  1  0  0  0
 31 99  1  0  0  0
 31100  1  0  0  0
 32101  1  0  0  0
 32102  1  0  0  0
 32103  1  0  0  0
 33104  1  0  0  0
 34105  1  0  0  0
 37106  1  0  0  0
 37107  1  0  0  0
 38108  1  0  0  0
 38109  1  0  0  0
 39110  1  0  0  0
 40111  1  0  0  0
 42112  1  0  0  0
 43113  1  0  0  0
 44114  1  0  0  0
 44115  1  0  0  0
 44116  1  0  0  0
 45117  1  0  0  0
 48118  1  0  0  0
 49119  1  0  0  0
 50120  1  0  0  0
 50121  1  0  0  0
 52122  1  0  0  0
 56123  1  0  0  0
 57124  1  0  0  0
 58125  1  0  0  0
 61126  1  0  0  0
 62127  1  0  0  0
 65128  1  0  0  0
 66129  1  0  0  0
 66130  1  0  0  0
 66131  1  0  0  0
 67132  1  0  0  0
 67133  1  0  0  0
 67134  1  0  0  0
M  END
$$$$
