1yt7_ligand
  -I-interpret- 

 73 75  0  0  0  0  0  0  0  0999 V2000
   19.3300   52.5070  199.5170 C   0  0  0  0  0
   18.5390   53.8240  199.5290 C   0  0  0  0  0
   17.4430   53.7640  200.5930 C   0  0  0  0  0
   17.2690   55.1640  201.2140 C   0  0  0  0  0
   16.3930   55.0900  202.4800 C   0  0  0  0  0
   16.4730   53.7710  203.0110 N   0  0  0  0  0
   17.3310   53.4680  204.0220 C   0  0  0  0  0
   18.1680   54.2930  204.4090 O   0  0  0  0  0
   17.2460   52.2730  204.5870 O   0  0  0  0  0
   17.9780   52.1410  205.7940 C   0  0  0  0  0
   18.8080   50.8590  205.6800 C   0  0  0  0  0
   19.9410   51.0820  204.7190 C   0  0  0  0  0
   19.8530   50.8590  203.3700 N   0  0  0  0  0
   20.9630   51.1400  202.8650 N   0  0  0  0  0
   21.7930   51.5120  203.8700 C   0  0  0  0  0
   21.1980   51.5470  205.1370 O   0  0  0  0  0
   23.1750   51.8200  203.6890 C   0  0  0  0  0
   23.9630   52.1020  204.8210 C   0  0  0  0  0
   25.3090   52.3310  204.6870 C   0  0  0  0  0
   25.9020   52.2990  203.4390 C   0  0  0  0  0
   25.1290   52.0360  202.2880 C   0  0  0  0  0
   23.7590   51.8000  202.4120 C   0  0  0  0  0
   27.3720   52.5490  203.3190 C   0  0  0  0  0
   27.6930   52.8260  202.0220 F   0  0  0  0  0
   28.0430   51.4440  203.7230 F   0  0  0  0  0
   27.7180   53.5950  204.1100 F   0  0  0  0  0
   16.9850   51.9760  206.9830 C   0  0  0  0  0
   16.0370   50.7920  206.6840 C   0  0  0  0  0
   16.1670   53.2570  207.1760 C   0  0  0  0  0
   17.7520   51.6840  208.2690 C   0  0  0  0  0
   14.6500   56.5430  201.1440 C   0  0  0  0  0
   15.2120   57.6210  201.3030 O   0  0  0  0  0
   13.7390   56.3810  200.1350 N   0  0  0  0  0
   13.7660   57.0920  199.0920 N   0  0  0  0  0
   14.8410   57.0890  198.1800 C   0  0  0  0  0
   14.2770   58.0650  197.0740 C   0  0  0  0  0
   12.9540   58.4620  197.5850 O   0  0  0  0  0
   12.7900   57.8320  198.7420 C   0  0  0  0  0
   11.7780   57.9510  199.4260 O   0  0  0  0  0
   14.9770   55.3350  202.0590 C   0  0  0  0  0
   14.0550   54.3550  202.2240 O   0  0  0  0  0
   19.7857   52.3495  200.4945 H   0  0  0  0  0
   18.6550   51.6813  199.2921 H   0  0  0  0  0
   20.1085   52.5592  198.7559 H   0  0  0  0  0
   18.0824   53.9777  198.5513 H   0  0  0  0  0
   19.2159   54.6475  199.7566 H   0  0  0  0  0
   17.7220   53.0502  201.3681 H   0  0  0  0  0
   16.5056   53.4450  200.1374 H   0  0  0  0  0
   16.7847   55.8156  200.4867 H   0  0  0  0  0
   18.2498   55.5548  201.4852 H   0  0  0  0  0
   16.7199   55.8175  203.2229 H   0  0  0  0  0
   15.8755   53.0396  202.6258 H   0  0  0  0  0
   18.6072   53.0152  205.9612 H   0  0  0  0  0
   18.1769   50.0479  205.3168 H   0  0  0  0  0
   19.2078   50.5959  206.6593 H   0  0  0  0  0
   23.5018   52.1385  205.8080 H   0  0  0  0  0
   25.9140   52.5393  205.5695 H   0  0  0  0  0
   25.6003   52.0172  201.3054 H   0  0  0  0  0
   23.1505   51.6028  201.5295 H   0  0  0  0  0
   15.4838   50.9938  205.7668 H   0  0  0  0  0
   16.6228   49.8807  206.5635 H   0  0  0  0  0
   15.3384   50.6696  207.5117 H   0  0  0  0  0
   16.8400   54.0880  207.3870 H   0  0  0  0  0
   15.6026   53.4666  206.2673 H   0  0  0  0  0
   15.4784   53.1246  208.0105 H   0  0  0  0  0
   18.3235   50.7636  208.1487 H   0  0  0  0  0
   18.4311   52.5098  208.4809 H   0  0  0  0  0
   17.0475   51.5707  209.0930 H   0  0  0  0  0
   13.0180   55.6656  200.2285 H   0  0  0  0  0
   15.1098   56.1000  197.8088 H   0  0  0  0  0
   15.7927   57.4020  198.6095 H   0  0  0  0  0
   14.2144   57.5872  196.0963 H   0  0  0  0  0
   14.9295   58.9226  196.9101 H   0  0  0  0  0
  2  1  1  0  0  0
  3  2  1  0  0  0
  4  3  1  0  0  0
  5  4  1  0  0  0
  5  6  1  0  0  0
 40  5  1  0  0  0
  6  7  1  0  0  0
  7  8  2  0  0  0
  7  9  1  0  0  0
  9 10  1  0  0  0
 10 11  1  0  0  0
 10 27  1  0  0  0
 11 12  1  0  0  0
 12 13  4  0  0  0
 12 16  4  0  0  0
 13 14  4  0  0  0
 15 14  4  0  0  0
 16 15  4  0  0  0
 15 17  1  0  0  0
 17 18  4  0  0  0
 17 22  4  0  0  0
 18 19  4  0  0  0
 19 20  4  0  0  0
 21 20  4  0  0  0
 20 23  1  0  0  0
 22 21  4  0  0  0
 23 24  1  0  0  0
 23 25  1  0  0  0
 23 26  1  0  0  0
 27 28  1  0  0  0
 27 29  1  0  0  0
 27 30  1  0  0  0
 31 32  2  0  0  0
 31 33  1  0  0  0
 31 40  1  0  0  0
 33 34  1  0  0  0
 34 35  1  0  0  0
 34 38  1  0  0  0
 35 36  1  0  0  0
 36 37  1  0  0  0
 37 38  1  0  0  0
 38 39  2  0  0  0
 40 41  2  0  0  0
  1 42  1  0  0  0
  1 43  1  0  0  0
  1 44  1  0  0  0
  2 45  1  0  0  0
  2 46  1  0  0  0
  3 47  1  0  0  0
  3 48  1  0  0  0
  4 49  1  0  0  0
  4 50  1  0  0  0
  5 51  1  0  0  0
  6 52  1  0  0  0
 10 53  1  0  0  0
 11 54  1  0  0  0
 11 55  1  0  0  0
 18 56  1  0  0  0
 19 57  1  0  0  0
 21 58  1  0  0  0
 22 59  1  0  0  0
 28 60  1  0  0  0
 28 61  1  0  0  0
 28 62  1  0  0  0
 29 63  1  0  0  0
 29 64  1  0  0  0
 29 65  1  0  0  0
 30 66  1  0  0  0
 30 67  1  0  0  0
 30 68  1  0  0  0
 33 69  1  0  0  0
 35 70  1  0  0  0
 35 71  1  0  0  0
 36 72  1  0  0  0
 36 73  1  0  0  0
M  END
$$$$
