1zkl_ligand
  -I-interpret- 

 29 30  0  0  0  0  0  0  0  0999 V2000
   -1.6860   49.7990   22.7020 N   0  0  0  0  0
   -1.1130   48.7300   22.0570 C   0  0  0  0  0
    0.0490   49.0030   21.5150 N   0  0  0  0  0
    0.2530   50.3400   21.8250 C   0  0  0  0  0
   -0.8030   50.8420   22.5540 C   0  0  0  0  0
   -0.9480   52.1000   23.0310 N   0  0  0  0  0
    0.0880   52.9400   22.7390 C   0  0  0  0  0
    1.2000   52.5190   22.0070 N   0  0  0  0  0
    1.2860   51.2260   21.5500 C   0  0  0  0  0
    2.2630   50.8540   20.9150 O   0  0  0  0  0
    0.0450   54.0970   23.1420 O   0  0  0  0  0
    2.2750   53.4590   21.7170 C   0  0  0  0  0
   -2.1040   52.5110   23.8150 C   0  0  0  0  0
   -3.2030   53.0680   22.8920 C   0  0  0  0  0
   -2.8950   54.4580   22.3710 C   0  0  0  0  0
   -3.6230   52.1270   21.7670 C   0  0  0  0  0
   -1.5806   47.7470   22.0011 H   0  0  0  0  0
    1.8789   54.2956   21.1414 H   0  0  0  0  0
    2.6963   53.8271   22.6525 H   0  0  0  0  0
    3.0511   52.9550   21.1410 H   0  0  0  0  0
   -1.8006   53.2877   24.5170 H   0  0  0  0  0
   -2.4946   51.6476   24.3535 H   0  0  0  0  0
   -4.0723   53.1517   23.5442 H   0  0  0  0  0
   -2.7896   55.1444   23.2111 H   0  0  0  0  0
   -1.9660   54.4335   21.8014 H   0  0  0  0  0
   -3.7087   54.7919   21.7272 H   0  0  0  0  0
   -2.7607   51.9081   21.1372 H   0  0  0  0  0
   -4.0070   51.2007   22.1942 H   0  0  0  0  0
   -4.4003   52.6023   21.1686 H   0  0  0  0  0
  1  2  4  0  0  0
  1  5  4  0  0  0
  2  3  4  0  0  0
  3  4  4  0  0  0
  4  5  4  0  0  0
  4  9  1  0  0  0
  5  6  1  0  0  0
  6  7  1  0  0  0
  6 13  1  0  0  0
  7  8  1  0  0  0
  7 11  2  0  0  0
  8  9  1  0  0  0
  8 12  1  0  0  0
  9 10  2  0  0  0
 13 14  1  0  0  0
 14 15  1  0  0  0
 14 16  1  0  0  0
  2 17  1  0  0  0
 12 18  1  0  0  0
 12 19  1  0  0  0
 12 20  1  0  0  0
 13 21  1  0  0  0
 13 22  1  0  0  0
 14 23  1  0  0  0
 15 24  1  0  0  0
 15 25  1  0  0  0
 15 26  1  0  0  0
 16 27  1  0  0  0
 16 28  1  0  0  0
 16 29  1  0  0  0
M  END
$$$$
