4url_ligand
  -I-interpret- 

123128  0  0  0  0  0  0  0  0999 V2000
   24.5240  -17.9320    1.7460 C   0  0  0  0  0
   23.1520  -18.5530    2.0230 C   0  0  0  0  0
   23.1580  -19.6300    3.0870 C   0  0  0  0  0
   25.3340  -18.7200    0.7150 C   0  0  0  0  0
   16.1380   -9.8250   -5.4990 Cl  0  0  0  0  0
   15.3650   -8.4090   -6.1030 C   0  0  0  0  0
   14.7400   -7.4120   -5.2620 C   0  0  0  0  0
   14.7080   -7.4960   -3.5390 Cl  0  0  0  0  0
   14.2360   -6.4480   -6.1350 C   0  0  0  0  0
   13.5530   -5.1500   -5.8380 C   0  0  0  0  0
   14.5160   -6.8320   -7.4270 N   0  0  0  0  0
   15.2210   -8.0110   -7.4270 C   0  0  0  0  0
   15.7040   -8.6550   -8.6660 C   0  0  0  0  0
   15.4300   -8.1790   -9.7610 O   0  0  0  0  0
   16.4330   -9.7690   -8.4890 N   0  0  0  0  0
   17.3640  -10.3830   -9.4850 C   0  0  0  0  0
   18.8250   -9.8600   -9.2550 C   0  0  0  0  0
   17.1930  -11.9900   -9.4940 C   0  0  0  0  0
   17.8180  -12.7150   -8.2780 C   0  0  0  0  0
   15.7800  -12.2030   -9.3860 O   0  0  0  0  0
   17.8210  -12.6330  -10.8380 C   0  0  0  0  0
   16.9710  -12.2000  -11.8940 O   0  0  0  0  0
   17.9150  -14.1540  -10.8490 C   0  0  0  0  0
   18.7980  -14.6710  -11.9590 C   0  0  0  0  0
   18.5190  -14.6250   -9.6270 O   0  0  0  0  0
   17.8860  -14.2220   -8.4200 C   0  0  0  0  0
   18.5550  -14.7710   -7.3000 O   0  0  0  0  0
   18.4410  -16.2020   -7.1000 C   0  0  0  0  0
   17.0670  -16.4420   -6.4890 C   0  0  0  0  0
   16.9310  -17.8670   -5.9490 C   0  0  0  0  0
   18.0590  -18.1860   -5.0090 C   0  0  0  0  0
   17.8650  -18.4310   -3.7240 C   0  0  0  0  0
   19.4090  -18.1070   -5.7220 C   0  0  0  0  0
   19.6290  -16.6370   -6.1880 C   0  0  0  0  0
   21.0030  -16.4300   -6.7880 C   0  0  0  0  0
   22.0320  -17.2670   -6.6680 C   0  0  0  0  0
   21.9750  -18.5830   -5.9410 C   0  0  0  0  0
   22.0980  -19.7370   -6.9420 C   0  0  0  0  0
   20.7060  -18.6180   -5.0480 C   0  0  0  0  0
   20.5280  -20.0070   -4.3780 C   0  0  0  0  0
   19.7300  -20.9270   -4.9560 O   0  0  0  0  0
   21.1090  -20.3650   -3.1800 C   0  0  0  0  0
   21.9430  -19.5100   -2.3250 C   0  0  0  0  0
   22.2830  -18.3380   -2.4840 O   0  0  0  0  0
   20.9720  -21.6660   -2.5360 C   0  0  0  0  0
   20.4450  -22.6770   -2.9650 O   0  0  0  0  0
   21.6990  -21.6140   -1.1760 C   0  0  0  0  0
   20.8010  -21.8660    0.0600 C   0  0  0  0  0
   19.3490  -21.4400   -0.1660 C   0  0  0  0  0
   20.8830  -23.3130    0.5130 C   0  0  0  0  0
   22.3140  -20.2870   -1.1800 N   0  0  0  0  0
   23.2900  -19.8820   -0.0970 C   0  0  0  0  0
   24.5490  -19.1390   -0.5210 C   0  0  0  0  0
   25.3030  -20.0600   -1.3060 O   0  0  0  0  0
   26.0890  -19.4710   -2.3420 C   0  0  0  0  0
   22.5460  -19.0920    0.8290 O   0  0  0  0  0
   25.2780  -17.8570    2.9770 O   0  0  0  0  0
   26.1670  -16.8300    3.3010 C   0  0  0  0  0
   26.4880  -16.6530    4.4570 O   0  0  0  0  0
   26.5920  -16.1170    2.2590 N   0  0  0  0  0
   25.9780  -19.8650    1.3180 O   0  0  0  0  0
   27.3190  -19.9970    1.1620 C   0  0  0  0  0
   27.9950  -19.2230    0.5360 O   0  0  0  0  0
   27.8150  -21.2170    1.8580 C   0  0  0  0  0
   24.3465  -16.9379    1.3358 H   0  0  0  0  0
   22.5614  -17.7174    2.3986 H   0  0  0  0  0
   22.1336  -19.9384    3.2958 H   0  0  0  0  0
   23.7315  -20.4863    2.7321 H   0  0  0  0  0
   23.6133  -19.2379    3.9965 H   0  0  0  0  0
   26.0923  -18.0215    0.3613 H   0  0  0  0  0
   12.6459   -5.3411   -5.2647 H   0  0  0  0  0
   14.2222   -4.5127   -5.2600 H   0  0  0  0  0
   13.2952   -4.6541   -6.7738 H   0  0  0  0  0
   16.3430  -10.2412   -7.5894 H   0  0  0  0  0
   17.1096  -10.0690  -10.4973 H   0  0  0  0  0
   18.8437   -8.7761   -9.3691 H   0  0  0  0  0
   19.1509  -10.1265   -8.2496 H   0  0  0  0  0
   19.4920  -10.3153   -9.9871 H   0  0  0  0  0
   17.1851  -12.5017   -7.4166 H   0  0  0  0  0
   18.8422  -12.3549   -8.1808 H   0  0  0  0  0
   15.5988  -13.1457   -9.3849 H   0  0  0  0  0
   18.8553  -12.3015  -10.9298 H   0  0  0  0  0
   17.2931  -12.5517  -12.7272 H   0  0  0  0  0
   16.8932  -14.5109  -10.9784 H   0  0  0  0  0
   18.3952  -14.3522  -12.9204 H   0  0  0  0  0
   19.8052  -14.2729  -11.8356 H   0  0  0  0  0
   18.8290  -15.7598  -11.9196 H   0  0  0  0  0
   16.8645  -14.6001   -8.4618 H   0  0  0  0  0
   18.5076  -16.7946   -8.0124 H   0  0  0  0  0
   16.3151  -16.2946   -7.2643 H   0  0  0  0  0
   16.9322  -15.7460   -5.6611 H   0  0  0  0  0
   16.9595  -18.5658   -6.7850 H   0  0  0  0  0
   15.9873  -17.9520   -5.4101 H   0  0  0  0  0
   16.8568  -18.4057   -3.3105 H   0  0  0  0  0
   18.7133  -18.6582   -3.0784 H   0  0  0  0  0
   19.2831  -18.8455   -6.5137 H   0  0  0  0  0
   19.6229  -15.9698   -5.3261 H   0  0  0  0  0
   21.1637  -15.5202   -7.3664 H   0  0  0  0  0
   22.9780  -16.9796   -7.1268 H   0  0  0  0  0
   22.8201  -18.7028   -5.2632 H   0  0  0  0  0
   21.2773  -19.6847   -7.6574 H   0  0  0  0  0
   23.0480  -19.6581   -7.4705 H   0  0  0  0  0
   22.0558  -20.6860   -6.4075 H   0  0  0  0  0
   20.8885  -17.8835   -4.2636 H   0  0  0  0  0
   19.3814  -20.5752   -5.7784 H   0  0  0  0  0
   22.4194  -22.4261   -1.0779 H   0  0  0  0  0
   21.1897  -21.2346    0.8590 H   0  0  0  0  0
   19.3153  -20.3741   -0.3913 H   0  0  0  0  0
   18.9325  -22.0026   -1.0015 H   0  0  0  0  0
   18.7684  -21.6409    0.7344 H   0  0  0  0  0
   20.5530  -23.9649   -0.2959 H   0  0  0  0  0
   21.9133  -23.5520    0.7766 H   0  0  0  0  0
   20.2414  -23.4572    1.3823 H   0  0  0  0  0
   23.6952  -20.8062    0.3151 H   0  0  0  0  0
   24.3209  -18.2364   -1.0880 H   0  0  0  0  0
   25.4365  -18.9349   -3.0311 H   0  0  0  0  0
   26.8050  -18.7763   -1.9028 H   0  0  0  0  0
   26.6236  -20.2537   -2.8803 H   0  0  0  0  0
   27.2447  -15.3461    2.4007 H   0  0  0  0  0
   26.2647  -16.3420    1.3195 H   0  0  0  0  0
   28.2762  -21.8860    1.1315 H   0  0  0  0  0
   28.5513  -20.9312    2.6092 H   0  0  0  0  0
   26.9792  -21.7234    2.3408 H   0  0  0  0  0
  1  2  1  0  0  0
  4  1  1  0  0  0
  1 57  1  0  0  0
  2  3  1  0  0  0
  2 56  1  0  0  0
 53  4  1  0  0  0
  4 61  1  0  0  0
  6  5  1  0  0  0
  6  7  4  0  0  0
 12  6  4  0  0  0
  7  8  1  0  0  0
  9  7  4  0  0  0
  9 10  1  0  0  0
 11  9  4  0  0  0
 12 11  4  0  0  0
 13 12  1  0  0  0
 13 14  2  0  0  0
 15 13  1  0  0  0
 16 15  1  0  0  0
 16 17  1  0  0  0
 18 16  1  0  0  0
 19 18  1  0  0  0
 18 20  1  0  0  0
 18 21  1  0  0  0
 26 19  1  0  0  0
 21 22  1  0  0  0
 23 21  1  0  0  0
 23 24  1  0  0  0
 25 23  1  0  0  0
 26 25  1  0  0  0
 27 26  1  0  0  0
 28 27  1  0  0  0
 28 29  1  0  0  0
 34 28  1  0  0  0
 30 29  1  0  0  0
 31 30  1  0  0  0
 31 32  2  0  0  0
 33 31  1  0  0  0
 33 34  1  0  0  0
 39 33  1  0  0  0
 34 35  1  0  0  0
 36 35  2  0  0  0
 37 36  1  0  0  0
 37 38  1  0  0  0
 39 37  1  0  0  0
 40 39  1  0  0  0
 40 41  1  0  0  0
 42 40  2  0  0  0
 43 42  1  0  0  0
 45 42  1  0  0  0
 43 44  2  0  0  0
 51 43  1  0  0  0
 45 46  2  0  0  0
 47 45  1  0  0  0
 47 48  1  0  0  0
 51 47  1  0  0  0
 48 49  1  0  0  0
 48 50  1  0  0  0
 52 51  1  0  0  0
 52 53  1  0  0  0
 52 56  1  0  0  0
 53 54  1  0  0  0
 54 55  1  0  0  0
 57 58  1  0  0  0
 58 59  2  0  0  0
 58 60  1  0  0  0
 61 62  1  0  0  0
 62 63  2  0  0  0
 62 64  1  0  0  0
  1 65  1  0  0  0
  2 66  1  0  0  0
  3 67  1  0  0  0
  3 68  1  0  0  0
  3 69  1  0  0  0
  4 70  1  0  0  0
 10 71  1  0  0  0
 10 72  1  0  0  0
 10 73  1  0  0  0
 15 74  1  0  0  0
 16 75  1  0  0  0
 17 76  1  0  0  0
 17 77  1  0  0  0
 17 78  1  0  0  0
 19 79  1  0  0  0
 19 80  1  0  0  0
 20 81  1  0  0  0
 21 82  1  0  0  0
 22 83  1  0  0  0
 23 84  1  0  0  0
 24 85  1  0  0  0
 24 86  1  0  0  0
 24 87  1  0  0  0
 26 88  1  0  0  0
 28 89  1  0  0  0
 29 90  1  0  0  0
 29 91  1  0  0  0
 30 92  1  0  0  0
 30 93  1  0  0  0
 32 94  1  0  0  0
 32 95  1  0  0  0
 33 96  1  0  0  0
 34 97  1  0  0  0
 35 98  1  0  0  0
 36 99  1  0  0  0
 37100  1  0  0  0
 38101  1  0  0  0
 38102  1  0  0  0
 38103  1  0  0  0
 39104  1  0  0  0
 41105  1  0  0  0
 47106  1  0  0  0
 48107  1  0  0  0
 49108  1  0  0  0
 49109  1  0  0  0
 49110  1  0  0  0
 50111  1  0  0  0
 50112  1  0  0  0
 50113  1  0  0  0
 52114  1  0  0  0
 53115  1  0  0  0
 55116  1  0  0  0
 55117  1  0  0  0
 55118  1  0  0  0
 60119  1  0  0  0
 60120  1  0  0  0
 64121  1  0  0  0
 64122  1  0  0  0
 64123  1  0  0  0
M  END
$$$$
