3v3q_ligand
  -I-interpret- 

 59 59  0  0  0  0  0  0  0  0999 V2000
  -11.1270   24.2780    5.5580 C   0  0  0  0  0
  -11.0360   25.4050    4.7230 C   0  0  0  0  0
  -11.1890   26.7030    5.2970 C   0  0  0  0  0
  -11.4170   26.8550    6.6590 C   0  0  0  0  0
  -11.5010   25.7630    7.4940 C   0  0  0  0  0
  -11.3660   24.4770    7.0100 C   0  0  0  0  0
  -11.0060   22.8700    5.1430 C   0  0  0  0  0
  -12.0770   22.0550    5.2260 C   0  0  0  0  0
  -13.2480   22.5660    5.6220 O   0  0  0  0  0
  -11.9920   20.6350    4.8820 O   0  0  0  0  0
  -11.3350   19.7210    5.7700 C   0  0  0  0  0
  -11.7940   19.7960    7.2200 C   0  0  0  0  0
  -11.5010   23.3560    8.0100 C   0  0  0  0  0
  -12.8570   23.1060    8.6350 C   0  0  0  0  0
  -13.1500   21.7060    9.1860 C   0  0  0  0  0
  -14.6460   21.4270    9.0110 C   0  0  0  0  0
  -15.5380   22.4770    9.6920 C   0  0  0  0  0
  -16.4590   23.2130    8.7090 C   0  0  0  0  0
  -17.2470   24.3370    9.3790 C   0  0  0  0  0
  -17.6020   25.4100    8.3720 C   0  0  0  0  0
  -10.5290   22.7060    8.3290 O   0  0  0  0  0
  -10.8040   25.2860    3.3790 O   0  0  0  0  0
  -11.0790   27.8450    4.5540 O   0  0  0  0  0
  -11.5640   28.0730    7.2190 O   0  0  0  0  0
  -11.6690   24.4320    2.6230 C   0  0  0  0  0
   -9.8830   28.5460    4.7450 C   0  0  0  0  0
  -11.0960   28.3040    8.5530 C   0  0  0  0  0
  -11.6776   25.9171    8.5585 H   0  0  0  0  0
  -10.2798   22.4411    5.8335 H   0  0  0  0  0
  -10.7769   22.9157    4.0783 H   0  0  0  0  0
  -10.2756   19.9774    5.7603 H   0  0  0  0  0
  -11.5663   18.7160    5.4169 H   0  0  0  0  0
  -11.6089   20.7980    7.6070 H   0  0  0  0  0
  -12.8601   19.5754    7.2742 H   0  0  0  0  0
  -11.2404   19.0681    7.8131 H   0  0  0  0  0
  -13.5775   23.2563    7.8310 H   0  0  0  0  0
  -12.9045   23.7712    9.4972 H   0  0  0  0  0
  -12.8797   21.6540   10.2407 H   0  0  0  0  0
  -12.5641   20.9610    8.6477 H   0  0  0  0  0
  -14.8593   20.4622    9.4711 H   0  0  0  0  0
  -14.8646   21.4486    7.9434 H   0  0  0  0  0
  -14.8848   23.2183   10.1524 H   0  0  0  0  0
  -16.1698   21.9578   10.4126 H   0  0  0  0  0
  -17.1728   22.4916    8.3112 H   0  0  0  0  0
  -15.8369   23.6550    7.9307 H   0  0  0  0  0
  -16.6347   24.7784   10.1653 H   0  0  0  0  0
  -18.1660   23.9250    9.7959 H   0  0  0  0  0
  -16.6878   25.8233    7.9459 H   0  0  0  0  0
  -18.2099   24.9751    7.5787 H   0  0  0  0  0
  -18.1630   26.2015    8.8689 H   0  0  0  0  0
  -11.6070   23.4164    3.0138 H   0  0  0  0  0
  -12.6946   24.7920    2.7043 H   0  0  0  0  0
  -11.3617   24.4396    1.5772 H   0  0  0  0  0
   -9.7974   28.8375    5.7918 H   0  0  0  0  0
   -9.0420   27.9076    4.4744 H   0  0  0  0  0
   -9.8813   29.4370    4.1171 H   0  0  0  0  0
  -11.6112   27.6316    9.2390 H   0  0  0  0  0
  -10.0229   28.1182    8.5975 H   0  0  0  0  0
  -11.2991   29.3374    8.8341 H   0  0  0  0  0
  1  2  4  0  0  0
  1  6  4  0  0  0
  1  7  1  0  0  0
  2  3  4  0  0  0
  2 22  1  0  0  0
  3  4  4  0  0  0
  3 23  1  0  0  0
  4  5  4  0  0  0
  4 24  1  0  0  0
  5  6  4  0  0  0
  6 13  1  0  0  0
  7  8  1  0  0  0
  8  9  2  0  0  0
  8 10  1  0  0  0
 10 11  1  0  0  0
 11 12  1  0  0  0
 13 14  1  0  0  0
 13 21  2  0  0  0
 14 15  1  0  0  0
 15 16  1  0  0  0
 16 17  1  0  0  0
 17 18  1  0  0  0
 18 19  1  0  0  0
 19 20  1  0  0  0
 22 25  1  0  0  0
 23 26  1  0  0  0
 24 27  1  0  0  0
  5 28  1  0  0  0
  7 29  1  0  0  0
  7 30  1  0  0  0
 11 31  1  0  0  0
 11 32  1  0  0  0
 12 33  1  0  0  0
 12 34  1  0  0  0
 12 35  1  0  0  0
 14 36  1  0  0  0
 14 37  1  0  0  0
 15 38  1  0  0  0
 15 39  1  0  0  0
 16 40  1  0  0  0
 16 41  1  0  0  0
 17 42  1  0  0  0
 17 43  1  0  0  0
 18 44  1  0  0  0
 18 45  1  0  0  0
 19 46  1  0  0  0
 19 47  1  0  0  0
 20 48  1  0  0  0
 20 49  1  0  0  0
 20 50  1  0  0  0
 25 51  1  0  0  0
 25 52  1  0  0  0
 25 53  1  0  0  0
 26 54  1  0  0  0
 26 55  1  0  0  0
 26 56  1  0  0  0
 27 57  1  0  0  0
 27 58  1  0  0  0
 27 59  1  0  0  0
M  END
$$$$
