6ajy_ligand
  -I-interpret- 

 36 37  0  0  0  0  0  0  0  0999 V2000
  -13.0890    8.3030   -3.5280 C   0  0  0  0  0
  -12.0270    7.8340   -2.6810 O   0  0  0  0  0
  -10.9970    7.2900   -3.4000 C   0  0  0  0  0
  -11.0170    7.1900   -4.7910 C   0  0  0  0  0
   -9.9360    6.6260   -5.4620 C   0  0  0  0  0
   -8.8400    6.1640   -4.7390 C   0  0  0  0  0
   -8.8240    6.2670   -3.3490 C   0  0  0  0  0
   -9.8980    6.8380   -2.6680 C   0  0  0  0  0
   -9.9010    6.9240   -1.2740 C   0  0  0  0  0
   -8.6130    7.3300   -0.5500 C   0  0  0  0  0
   -8.7820    7.3240    0.9770 C   0  0  0  0  0
   -9.8610    7.0100    1.4750 O   0  0  0  0  0
   -7.7140    7.7550    1.7710 C   0  0  0  0  0
   -6.4110    7.7820    1.2810 C   0  0  0  0  0
   -5.3740    8.2280    2.1000 C   0  0  0  0  0
   -5.6280    8.6580    3.4070 C   0  0  0  0  0
   -4.6140    9.0930    4.2020 O   0  0  0  0  0
   -6.9250    8.6450    3.9040 C   0  0  0  0  0
   -7.9490    8.1960    3.0820 C   0  0  0  0  0
   -9.2280    8.1680    3.5330 O   0  0  0  0  0
  -12.7035    9.0680   -4.2021 H   0  0  0  0  0
  -13.4831    7.4696   -4.1096 H   0  0  0  0  0
  -13.8830    8.7259   -2.9125 H   0  0  0  0  0
  -11.8782    7.5531   -5.3519 H   0  0  0  0  0
   -9.9476    6.5464   -6.5490 H   0  0  0  0  0
   -7.9921    5.7206   -5.2611 H   0  0  0  0  0
   -7.9643    5.8979   -2.7897 H   0  0  0  0  0
  -10.1072    5.9100   -0.9313 H   0  0  0  0  0
  -10.6133    7.7163   -1.0438 H   0  0  0  0  0
   -8.3537    8.3425   -0.8594 H   0  0  0  0  0
   -7.8362    6.6106   -0.8089 H   0  0  0  0  0
   -6.2024    7.4561    0.2620 H   0  0  0  0  0
   -4.3535    8.2418    1.7173 H   0  0  0  0  0
   -4.9665    9.3470    5.0581 H   0  0  0  0  0
   -7.1344    8.9808    4.9196 H   0  0  0  0  0
   -9.2548    8.4921    4.4362 H   0  0  0  0  0
  1  2  1  0  0  0
  2  3  1  0  0  0
  3  4  4  0  0  0
  3  8  4  0  0  0
  4  5  4  0  0  0
  5  6  4  0  0  0
  6  7  4  0  0  0
  7  8  4  0  0  0
  8  9  1  0  0  0
  9 10  1  0  0  0
 10 11  1  0  0  0
 11 12  2  0  0  0
 11 13  1  0  0  0
 13 14  4  0  0  0
 13 19  4  0  0  0
 14 15  4  0  0  0
 15 16  4  0  0  0
 16 17  1  0  0  0
 16 18  4  0  0  0
 18 19  4  0  0  0
 19 20  1  0  0  0
  1 21  1  0  0  0
  1 22  1  0  0  0
  1 23  1  0  0  0
  4 24  1  0  0  0
  5 25  1  0  0  0
  6 26  1  0  0  0
  7 27  1  0  0  0
  9 28  1  0  0  0
  9 29  1  0  0  0
 10 30  1  0  0  0
 10 31  1  0  0  0
 14 32  1  0  0  0
 15 33  1  0  0  0
 17 34  1  0  0  0
 18 35  1  0  0  0
 20 36  1  0  0  0
M  END
$$$$
