4qip_ligand
  -I-interpret- 

 43 42  0  0  0  0  0  0  0  0999 V2000
   14.5680   14.9820   16.0620 S   0  0  0  0  0
   14.0470   16.0840   15.1670 O   0  0  0  0  0
   13.4030   14.2010   16.6290 O   0  0  0  0  0
   15.4690   15.5210   17.1450 O   0  0  0  0  0
   15.5180   14.0760   15.3000 O   0  0  0  0  0
   13.5970   13.5780   17.8820 C   0  0  0  0  0
   10.1940    5.3830   22.0660 C   0  0  0  0  0
    9.4160    5.2330   20.7710 C   0  0  0  0  0
    8.4370    6.3790   20.6180 C   0  0  0  0  0
    9.2030    7.6310   20.2530 C   0  0  0  0  0
    8.2610    8.7370   19.8350 C   0  0  0  0  0
    9.1150    9.8830   19.3470 C   0  0  0  0  0
    8.3310   10.7840   18.4180 C   0  0  0  0  0
    9.2160   11.9320   17.9860 C   0  0  0  0  0
   10.5410   11.4070   17.4690 C   0  0  0  0  0
   11.4580   12.5610   17.1360 C   0  0  0  0  0
   12.3200   12.9050   18.3330 C   0  0  0  0  0
   15.8369   13.3845   15.8846 H   0  0  0  0  0
   13.8814   14.3323   18.6156 H   0  0  0  0  0
   14.3827   12.8281   17.7901 H   0  0  0  0  0
   10.7430    6.3245   22.0516 H   0  0  0  0  0
    9.5010    5.3778   22.9074 H   0  0  0  0  0
   10.8946    4.5539   22.1656 H   0  0  0  0  0
    8.8660    4.2921   20.7903 H   0  0  0  0  0
   10.1117    5.2417   19.9320 H   0  0  0  0  0
    7.9015    6.5341   21.5546 H   0  0  0  0  0
    7.7161    6.1461   19.8343 H   0  0  0  0  0
    9.8689    7.4043   19.4204 H   0  0  0  0  0
    9.7683    7.9625   21.1240 H   0  0  0  0  0
    7.6376    9.0499   20.6726 H   0  0  0  0  0
    7.5889    8.3945   19.0482 H   0  0  0  0  0
    9.9685    9.4773   18.8038 H   0  0  0  0  0
    9.4427   10.4668   20.2072 H   0  0  0  0  0
    7.4523   11.1704   18.9344 H   0  0  0  0  0
    8.0072   10.2193   17.5437 H   0  0  0  0  0
    9.3995   12.5821   18.8414 H   0  0  0  0  0
    8.7177   12.4866   17.1909 H   0  0  0  0  0
   10.3669   10.8157   16.5700 H   0  0  0  0  0
   11.0063   10.7885   18.2365 H   0  0  0  0  0
   10.8563   13.4294   16.8678 H   0  0  0  0  0
   12.1008   12.2774   16.3026 H   0  0  0  0  0
   11.7702   13.5840   18.9848 H   0  0  0  0  0
   12.5697   11.9885   18.8676 H   0  0  0  0  0
  1  2  2  0  0  0
  3  1  1  0  0  0
  1  4  2  0  0  0
  1  5  1  0  0  0
  6  3  1  0  0  0
 17  6  1  0  0  0
  8  7  1  0  0  0
  9  8  1  0  0  0
 10  9  1  0  0  0
 11 10  1  0  0  0
 12 11  1  0  0  0
 13 12  1  0  0  0
 14 13  1  0  0  0
 15 14  1  0  0  0
 16 15  1  0  0  0
 16 17  1  0  0  0
  5 18  1  0  0  0
  6 19  1  0  0  0
  6 20  1  0  0  0
  7 21  1  0  0  0
  7 22  1  0  0  0
  7 23  1  0  0  0
  8 24  1  0  0  0
  8 25  1  0  0  0
  9 26  1  0  0  0
  9 27  1  0  0  0
 10 28  1  0  0  0
 10 29  1  0  0  0
 11 30  1  0  0  0
 11 31  1  0  0  0
 12 32  1  0  0  0
 12 33  1  0  0  0
 13 34  1  0  0  0
 13 35  1  0  0  0
 14 36  1  0  0  0
 14 37  1  0  0  0
 15 38  1  0  0  0
 15 39  1  0  0  0
 16 40  1  0  0  0
 16 41  1  0  0  0
 17 42  1  0  0  0
 17 43  1  0  0  0
M  END
$$$$
