3ldp_ligand
  -I-interpret- 

 52 56  0  0  0  0  0  0  0  0999 V2000
   12.5140  -10.0740    6.0020 N   0  0  0  0  0
   12.6290   -9.0420    6.8560 C   0  0  0  0  0
   13.7050   -8.2470    6.8200 N   0  0  0  0  0
   13.4760  -10.3220    5.0870 C   0  0  0  0  0
   15.8380   -7.8660    5.6790 N   0  0  0  0  0
   16.4530   -8.4880    4.6510 C   0  0  0  0  0
   15.6780   -9.5230    4.2610 N   0  0  0  0  0
   14.5850   -9.5250    5.0400 C   0  0  0  0  0
   14.6970   -8.4840    5.9250 C   0  0  0  0  0
   16.3230   -6.7200    6.3670 C   0  0  0  0  0
   16.8270   -5.7790    5.4060 O   0  0  0  0  0
   17.7450   -4.9130    6.1840 C   0  0  0  0  0
   18.2160   -5.7800    7.3690 C   0  0  0  0  0
   17.5380   -7.1120    7.1410 C   0  0  0  0  0
   13.3450  -11.3340    4.2410 N   0  0  0  0  0
   17.6380   -8.1360    4.1250 N   0  0  0  0  0
   18.2690   -8.9520    3.1070 C   0  0  0  0  0
   19.2080   -9.9480    3.7600 C   0  0  0  0  0
   19.1250  -11.2680    3.4300 N   0  0  0  0  0
   21.0120  -10.4400    5.2630 C   0  0  0  0  0
   20.1530   -9.5160    4.6690 C   0  0  0  0  0
   20.9080  -11.7860    4.9270 C   0  0  0  0  0
   19.9600  -12.1890    4.0010 C   0  0  0  0  0
   19.8530  -13.5510    3.6480 C   0  0  0  0  0
   20.7060  -14.4930    4.2300 C   0  0  0  0  0
   21.6640  -14.0850    5.1590 C   0  0  0  0  0
   21.7650  -12.7250    5.5080 C   0  0  0  0  0
   18.9660   -4.5700    5.3240 C   0  0  0  0  0
   19.4990   -5.7730    4.7270 O   0  0  0  0  0
   17.7500   -5.2120    8.5750 O   0  0  0  0  0
   17.1410   -7.6950    8.4150 O   0  0  0  0  0
   11.8398   -8.8513    7.5833 H   0  0  0  0  0
   15.5206   -6.3173    6.9851 H   0  0  0  0  0
   17.2614   -3.9893    6.5019 H   0  0  0  0  0
   19.3008   -5.8635    7.4343 H   0  0  0  0  0
   18.1685   -7.8464    6.6398 H   0  0  0  0  0
   12.5163  -11.9274    4.2801 H   0  0  0  0  0
   14.0729  -11.5193    3.5509 H   0  0  0  0  0
   18.0990   -7.2845    4.4458 H   0  0  0  0  0
   18.8349   -8.3119    2.4302 H   0  0  0  0  0
   17.5028   -9.4900    2.5488 H   0  0  0  0  0
   21.7591  -10.1102    5.9849 H   0  0  0  0  0
   20.2273   -8.4582    4.9211 H   0  0  0  0  0
   19.1051  -13.8685    2.9214 H   0  0  0  0  0
   20.6230  -15.5454    3.9584 H   0  0  0  0  0
   22.3320  -14.8170    5.6130 H   0  0  0  0  0
   22.5130  -12.4035    6.2328 H   0  0  0  0  0
   19.7301   -4.1101    5.9508 H   0  0  0  0  0
   18.6684   -3.8784    4.5359 H   0  0  0  0  0
   20.2631   -5.5509    4.1900 H   0  0  0  0  0
   18.0419   -5.7500    9.3146 H   0  0  0  0  0
   17.9250   -7.9455    8.9092 H   0  0  0  0  0
  2  1  4  0  0  0
  1  4  4  0  0  0
  3  2  4  0  0  0
  9  3  4  0  0  0
  4  8  4  0  0  0
  4 15  1  0  0  0
  5  6  4  0  0  0
  5  9  4  0  0  0
  5 10  1  0  0  0
  6  7  4  0  0  0
  6 16  1  0  0  0
  7  8  4  0  0  0
  8  9  4  0  0  0
 10 11  1  0  0  0
 10 14  1  0  0  0
 11 12  1  0  0  0
 12 13  1  0  0  0
 12 28  1  0  0  0
 13 14  1  0  0  0
 13 30  1  0  0  0
 14 31  1  0  0  0
 16 17  1  0  0  0
 17 18  1  0  0  0
 18 19  4  0  0  0
 18 21  4  0  0  0
 19 23  4  0  0  0
 21 20  4  0  0  0
 20 22  4  0  0  0
 22 23  4  0  0  0
 22 27  4  0  0  0
 23 24  4  0  0  0
 24 25  4  0  0  0
 25 26  4  0  0  0
 26 27  4  0  0  0
 28 29  1  0  0  0
  2 32  1  0  0  0
 10 33  1  0  0  0
 12 34  1  0  0  0
 13 35  1  0  0  0
 14 36  1  0  0  0
 15 37  1  0  0  0
 15 38  1  0  0  0
 16 39  1  0  0  0
 17 40  1  0  0  0
 17 41  1  0  0  0
 20 42  1  0  0  0
 21 43  1  0  0  0
 24 44  1  0  0  0
 25 45  1  0  0  0
 26 46  1  0  0  0
 27 47  1  0  0  0
 28 48  1  0  0  0
 28 49  1  0  0  0
 29 50  1  0  0  0
 30 51  1  0  0  0
 31 52  1  0  0  0
M  END
$$$$
