5ett_ligand
  -I-interpret- 

 29 31  0  0  0  0  0  0  0  0999 V2000
   33.1320    7.3010  -24.3760 C   0  0  0  0  0
   32.0730    6.8120  -22.2990 C   0  0  0  0  0
   31.7320    5.9260  -21.2980 C   0  0  0  0  0
   33.3320    5.1240  -23.3600 C   0  0  0  0  0
   32.8510    6.3950  -23.3490 C   0  0  0  0  0
   32.1760    4.6030  -21.2540 C   0  0  0  0  0
   27.2130    4.5700  -22.3880 C   0  0  0  0  0
   33.0050    4.2830  -22.3100 C   0  0  0  0  0
   27.5680    5.3340  -21.3070 C   0  0  0  0  0
   26.1350    4.9360  -23.2520 C   0  0  0  0  0
   26.0450    6.8710  -21.7230 C   0  0  0  0  0
   28.8040    3.5450  -21.4150 C   0  0  0  0  0
   31.6790    3.5370  -20.2330 C   0  0  0  0  0
   33.3570    7.9750  -25.2860 N   0  0  0  0  0
   27.0300    6.5010  -20.9630 N   0  0  0  0  0
   28.5820    4.6770  -20.6600 N   0  0  0  0  0
   25.5970    6.1370  -22.8420 N   0  0  0  0  0
   27.9830    3.4240  -22.4280 N   0  0  0  0  0
   25.3110    7.9790  -21.5440 N   0  0  0  0  0
   25.6870    4.3220  -24.2620 O   0  0  0  0  0
   33.5440    3.0400  -22.4470 F   0  0  0  0  0
   30.0320    2.4160  -20.8330 S   0  0  0  0  0
   31.7241    7.8437  -22.2555 H   0  0  0  0  0
   31.0806    6.2779  -20.4981 H   0  0  0  0  0
   33.9618    4.7742  -24.1780 H   0  0  0  0  0
   31.3733    4.0826  -19.3402 H   0  0  0  0  0
   32.4997    2.8327  -20.0969 H   0  0  0  0  0
   27.3616    7.0550  -20.1733 H   0  0  0  0  0
   24.5434    8.1908  -22.1815 H   0  0  0  0  0
  5  1  1  0  0  0
  1 14  3  0  0  0
  3  2  4  0  0  0
  2  5  4  0  0  0
  6  3  4  0  0  0
  4  5  4  0  0  0
  8  4  4  0  0  0
  6  8  4  0  0  0
 13  6  1  0  0  0
  7  9  4  0  0  0
  7 10  1  0  0  0
 18  7  4  0  0  0
  8 21  1  0  0  0
  9 15  1  0  0  0
 16  9  4  0  0  0
 10 17  1  0  0  0
 10 20  2  0  0  0
 15 11  1  0  0  0
 17 11  4  0  0  0
 11 19  2  0  0  0
 12 16  4  0  0  0
 12 18  4  0  0  0
 22 12  1  0  0  0
 13 22  1  0  0  0
  2 23  1  0  0  0
  3 24  1  0  0  0
  4 25  1  0  0  0
 13 26  1  0  0  0
 13 27  1  0  0  0
 15 28  1  0  0  0
 19 29  1  0  0  0
M  END
$$$$
