### 
### Created by X-TOOL on Mon Sep 10 21:12:45 2018
### 

@<TRIPOS>MOLECULE
1rbo_ligand
   30    29     1     0     0
SMALL
GAST_HUCK


@<TRIPOS>ATOM
      1 C1        -36.5400   34.9940   29.1170 C.3       1 CAP         0.1146
      2 C2        -35.9610   34.5280   30.5170 C.3       1 CAP         0.1658
      3 C3        -35.6380   35.7590   31.5200 C.3       1 CAP         0.1195
      4 C4        -36.9440   36.5120   31.9780 C.3       1 CAP         0.1109
      5 C5        -36.7580   37.3650   33.2290 C.3       1 CAP         0.1067
      6 C         -36.9110   33.5110   31.2420 C.2       1 CAP         0.0815
      7 O1        -36.6810   33.9040   28.1730 O.3       1 CAP        -0.2737
      8 O2        -34.7180   33.9290   30.3210 O.3       1 CAP        -0.3798
      9 O3        -34.8250   36.7160   30.8740 O.3       1 CAP        -0.3868
     10 O4        -37.3540   37.3310   30.8980 O.3       1 CAP        -0.3866
     11 O5        -37.9790   38.1270   33.4860 O.3       1 CAP        -0.2734
     12 O6        -36.3500   32.6070   31.9170 O.co2     1 CAP        -0.5449
     13 O7        -38.1630   33.6150   31.1660 O.co2     1 CAP        -0.5449
     14 P1        -37.4110   33.9730   26.7720 P.3       1 CAP         0.2006
     15 P2        -38.0550   39.7040   33.7040 P.3       1 CAP         0.2008
     16 O1P       -36.6090   35.1040   26.0680 O.co2     1 CAP        -0.5537
     17 O2P       -38.8030   34.3950   26.9960 O.co2     1 CAP        -0.5537
     18 O3P       -37.1470   32.7190   26.0240 O.co2     1 CAP        -0.5537
     19 O4P       -37.3310   40.2360   32.4500 O.co2     1 CAP        -0.5537
     20 O5P       -39.4890   40.1260   33.6960 O.co2     1 CAP        -0.5537
     21 O6P       -37.2480   40.0020   34.9240 O.co2     1 CAP        -0.5537
     22 H1        -35.8591   35.7438   28.6878 H         1 CAP         0.0634
     23 H2        -37.5290   35.4472   29.2797 H         1 CAP         0.0634
     24 H3        -35.1160   35.3643   32.4041 H         1 CAP         0.0642
     25 H4        -37.7240   35.7651   32.1871 H         1 CAP         0.0645
     26 H5        -35.9179   38.0589   33.0780 H         1 CAP         0.0639
     27 H6        -36.5451   36.7130   34.0889 H         1 CAP         0.0639
     28 H7        -34.3748   33.6337   31.1562 H         1 CAP         0.2091
     29 H8        -35.2905   37.0725   30.1265 H         1 CAP         0.2099
     30 H9        -36.6913   37.9915   30.7336 H         1 CAP         0.2100
@<TRIPOS>BOND
     1    1    2 1  
     2    1    7 1  
     3    2    3 1  
     4    2    6 1  
     5    2    8 1  
     6    3    4 1  
     7    3    9 1  
     8    4    5 1  
     9    4   10 1  
    10    5   11 1  
    11    6   12 ar 
    12    6   13 ar 
    13    7   14 1  
    14   11   15 1  
    15   14   16 ar 
    16   14   17 ar 
    17   14   18 ar 
    18   15   19 ar 
    19   15   20 ar 
    20   15   21 ar 
    21    1   22 1  
    22    1   23 1  
    23    3   24 1  
    24    4   25 1  
    25    5   26 1  
    26    5   27 1  
    27    8   28 1  
    28    9   29 1  
    29   10   30 1  
@<TRIPOS>SUBSTRUCTURE
     1 CAP         1

