1rbo_ligand
  -I-interpret- 

 35 34  0  0  0  0  0  0  0  0999 V2000
  -36.5400   34.9940   29.1170 C   0  0  0  0  0
  -35.9610   34.5280   30.5170 C   0  0  0  0  0
  -35.6380   35.7590   31.5200 C   0  0  0  0  0
  -36.9440   36.5120   31.9780 C   0  0  0  0  0
  -36.7580   37.3650   33.2290 C   0  0  0  0  0
  -36.9110   33.5110   31.2420 C   0  0  0  0  0
  -36.6810   33.9040   28.1730 O   0  0  0  0  0
  -34.7180   33.9290   30.3210 O   0  0  0  0  0
  -34.8250   36.7160   30.8740 O   0  0  0  0  0
  -37.3540   37.3310   30.8980 O   0  0  0  0  0
  -37.9790   38.1270   33.4860 O   0  0  0  0  0
  -36.3500   32.6070   31.9170 O   0  0  0  0  0
  -38.1630   33.6150   31.1660 O   0  0  0  0  0
  -37.4110   33.9730   26.7720 P   0  0  0  0  0
  -38.0550   39.7040   33.7040 P   0  0  0  0  0
  -36.6090   35.1040   26.0680 O   0  0  0  0  0
  -38.8030   34.3950   26.9960 O   0  0  0  0  0
  -37.1470   32.7190   26.0240 O   0  0  0  0  0
  -37.3310   40.2360   32.4500 O   0  0  0  0  0
  -39.4890   40.1260   33.6960 O   0  0  0  0  0
  -37.2480   40.0020   34.9240 O   0  0  0  0  0
  -35.8414   35.7143   28.6913 H   0  0  0  0  0
  -37.5307   35.4142   29.2901 H   0  0  0  0  0
  -35.1395   35.3228   32.3856 H   0  0  0  0  0
  -37.6927   35.7652   32.2422 H   0  0  0  0  0
  -35.9256   38.0526   33.0792 H   0  0  0  0  0
  -36.5472   36.7188   34.0811 H   0  0  0  0  0
  -34.1325   34.5472   29.8775 H   0  0  0  0  0
  -34.0138   36.2971   30.5772 H   0  0  0  0  0
  -37.4697   36.7899   30.1135 H   0  0  0  0  0
  -35.3972   32.7006   31.8457 H   0  0  0  0  0
  -35.7044   34.8143   25.9289 H   0  0  0  0  0
  -36.1994   32.5793   25.9602 H   0  0  0  0  0
  -37.8568   40.0401   31.6710 H   0  0  0  0  0
  -39.8901   39.8768   32.8602 H   0  0  0  0  0
  1  2  1  0  0  0
  1  7  1  0  0  0
  2  3  1  0  0  0
  2  6  1  0  0  0
  2  8  1  0  0  0
  3  4  1  0  0  0
  3  9  1  0  0  0
  4  5  1  0  0  0
  4 10  1  0  0  0
  5 11  1  0  0  0
  6 12  1  0  0  0
  6 13  2  0  0  0
  7 14  1  0  0  0
 11 15  1  0  0  0
 14 16  1  0  0  0
 14 17  2  0  0  0
 14 18  1  0  0  0
 15 19  1  0  0  0
 15 20  1  0  0  0
 15 21  2  0  0  0
  1 22  1  0  0  0
  1 23  1  0  0  0
  3 24  1  0  0  0
  4 25  1  0  0  0
  5 26  1  0  0  0
  5 27  1  0  0  0
  8 28  1  0  0  0
  9 29  1  0  0  0
 10 30  1  0  0  0
 12 31  1  0  0  0
 16 32  1  0  0  0
 18 33  1  0  0  0
 19 34  1  0  0  0
 20 35  1  0  0  0
M  END
$$$$
