4no6_ligand
  -I-interpret- 

 85 85  0  0  0  0  0  0  0  0999 V2000
   11.0090 -137.2580   21.7010 C   0  0  0  0  0
   11.4400 -138.3220   21.2530 O   0  0  0  0  0
   11.3630 -136.8600   22.9580 O   0  0  0  0  0
   12.7600 -136.6880   23.1160 C   0  0  0  0  0
   12.9420 -136.3160   24.4640 C   0  0  0  0  0
   12.5550 -137.1780   25.4960 C   0  0  0  0  0
   12.7320 -136.8160   26.8320 C   0  0  0  0  0
   13.3010 -135.5830   27.1480 C   0  0  0  0  0
   13.6920 -134.7180   26.1260 C   0  0  0  0  0
   13.5150 -135.0810   24.7900 C   0  0  0  0  0
   10.1750 -136.4900   20.9680 N   0  0  0  0  0
    9.7150 -136.8890   19.6220 C   0  0  0  0  0
   10.7930 -136.6880   18.5610 C   0  0  0  0  0
   11.5300 -135.7020   18.5720 O   0  0  0  0  0
    8.4930 -136.0710   19.1910 C   0  0  0  0  0
    7.2510 -136.4230   20.0190 C   0  0  0  0  0
    6.0410 -135.7200   19.3990 C   0  0  0  0  0
    6.9800 -137.9280   20.0550 C   0  0  0  0  0
   10.7940 -137.6550   17.6290 N   0  0  0  0  0
   11.7270 -137.6930   16.5050 C   0  0  0  0  0
   10.9230 -137.7320   15.2050 C   0  0  0  0  0
   10.0250 -138.5550   15.0510 O   0  0  0  0  0
   12.5310 -138.9960   16.6320 C   0  0  0  0  0
   14.0320 -138.7860   16.8770 C   0  0  0  0  0
   14.3180 -137.6780   17.9010 C   0  0  0  0  0
   14.6010 -140.1050   17.4110 C   0  0  0  0  0
   12.8910 -137.4510   12.0250 C   0  0  0  0  0
   10.0610 -134.3110   13.3790 C   0  0  0  0  0
   11.3710 -137.7440   12.0040 C   0  0  0  0  0
   13.9190 -138.9670   12.1490 S   0  0  0  0  0
   13.9960 -139.6870   10.8010 O   0  0  0  0  0
   13.3180 -139.8980   13.1960 O   0  0  0  0  0
   15.5660 -138.5160   12.6530 C   0  0  0  0  0
   10.6190 -136.7850   12.9570 C   0  0  0  0  0
   10.6080 -135.3520   12.3810 C   0  0  0  0  0
   10.1290 -132.9190   12.7340 C   0  0  0  0  0
    8.6110 -134.6180   13.7760 C   0  0  0  0  0
   11.2730 -136.8310   14.2800 N   0  0  0  0  0
   13.1492 -135.9304   22.4359 H   0  0  0  0  0
   13.3052 -137.6008   22.8758 H   0  0  0  0  0
   12.1102 -138.1432   25.2536 H   0  0  0  0  0
   12.4260 -137.4959   27.6271 H   0  0  0  0  0
   13.4398 -135.2959   28.1903 H   0  0  0  0  0
   14.1378 -133.7542   26.3718 H   0  0  0  0  0
   13.8242 -134.4000   23.9971 H   0  0  0  0  0
    9.8515 -135.6042   21.3567 H   0  0  0  0  0
    9.4656 -137.9475   19.6961 H   0  0  0  0  0
    8.2823 -136.2950   18.1453 H   0  0  0  0  0
    8.7172 -135.0150   19.3417 H   0  0  0  0  0
    7.4265 -136.0949   21.0435 H   0  0  0  0  0
    6.2036 -134.6423   19.4098 H   0  0  0  0  0
    5.9127 -136.0591   18.3711 H   0  0  0  0  0
    5.1480 -135.9598   19.9762 H   0  0  0  0  0
    6.8221 -138.2918   19.0397 H   0  0  0  0  0
    7.8352 -138.4394   20.4967 H   0  0  0  0  0
    6.0902 -138.1214   20.6541 H   0  0  0  0  0
   10.1060 -138.4037   17.7102 H   0  0  0  0  0
   12.3845 -136.8236   16.5033 H   0  0  0  0  0
   12.4304 -139.5301   15.6871 H   0  0  0  0  0
   12.1364 -139.5355   17.4930 H   0  0  0  0  0
   14.4935 -138.4830   15.9371 H   0  0  0  0  0
   13.9037 -136.7364   17.5408 H   0  0  0  0  0
   13.8574 -137.9381   18.8541 H   0  0  0  0  0
   15.3952 -137.5758   18.0325 H   0  0  0  0  0
   14.0959 -140.3672   18.3407 H   0  0  0  0  0
   14.4414 -140.8926   16.6746 H   0  0  0  0  0
   15.6690 -139.9900   17.5962 H   0  0  0  0  0
   13.0972 -136.8397   12.9035 H   0  0  0  0  0
   13.1447 -136.9560   11.0876 H   0  0  0  0  0
   10.6709 -134.3461   14.2817 H   0  0  0  0  0
   11.2044 -138.7702   12.3315 H   0  0  0  0  0
   10.9973 -137.5998   10.9903 H   0  0  0  0  0
   16.1746 -139.4153   12.7480 H   0  0  0  0  0
   16.0054 -137.8557   11.9053 H   0  0  0  0  0
   15.5228 -138.0019   13.6132 H   0  0  0  0  0
    9.5799 -137.0970   13.0618 H   0  0  0  0  0
   11.6365 -135.0794   12.1444 H   0  0  0  0  0
    9.9583 -135.3490   11.5058 H   0  0  0  0  0
   11.1644 -132.6846   12.4870 H   0  0  0  0  0
    9.5267 -132.9111   11.8256 H   0  0  0  0  0
    9.7440 -132.1768   13.4332 H   0  0  0  0  0
    7.9818 -134.6066   12.8860 H   0  0  0  0  0
    8.5640 -135.6017   14.2431 H   0  0  0  0  0
    8.2607 -133.8630   14.4799 H   0  0  0  0  0
   12.0100 -136.1591   14.4940 H   0  0  0  0  0
  1  2  2  0  0  0
  1  3  1  0  0  0
 11  1  1  0  0  0
  3  4  1  0  0  0
  4  5  1  0  0  0
  5  6  4  0  0  0
  5 10  4  0  0  0
  6  7  4  0  0  0
  7  8  4  0  0  0
  9  8  4  0  0  0
 10  9  4  0  0  0
 12 11  1  0  0  0
 13 12  1  0  0  0
 12 15  1  0  0  0
 13 14  2  0  0  0
 19 13  1  0  0  0
 15 16  1  0  0  0
 16 17  1  0  0  0
 16 18  1  0  0  0
 20 19  1  0  0  0
 21 20  1  0  0  0
 20 23  1  0  0  0
 21 22  2  0  0  0
 38 21  1  0  0  0
 23 24  1  0  0  0
 24 25  1  0  0  0
 24 26  1  0  0  0
 29 27  1  0  0  0
 27 30  1  0  0  0
 35 28  1  0  0  0
 28 36  1  0  0  0
 28 37  1  0  0  0
 34 29  1  0  0  0
 30 31  2  0  0  0
 30 32  2  0  0  0
 30 33  1  0  0  0
 34 35  1  0  0  0
 34 38  1  0  0  0
  4 39  1  0  0  0
  4 40  1  0  0  0
  6 41  1  0  0  0
  7 42  1  0  0  0
  8 43  1  0  0  0
  9 44  1  0  0  0
 10 45  1  0  0  0
 11 46  1  0  0  0
 12 47  1  0  0  0
 15 48  1  0  0  0
 15 49  1  0  0  0
 16 50  1  0  0  0
 17 51  1  0  0  0
 17 52  1  0  0  0
 17 53  1  0  0  0
 18 54  1  0  0  0
 18 55  1  0  0  0
 18 56  1  0  0  0
 19 57  1  0  0  0
 20 58  1  0  0  0
 23 59  1  0  0  0
 23 60  1  0  0  0
 24 61  1  0  0  0
 25 62  1  0  0  0
 25 63  1  0  0  0
 25 64  1  0  0  0
 26 65  1  0  0  0
 26 66  1  0  0  0
 26 67  1  0  0  0
 27 68  1  0  0  0
 27 69  1  0  0  0
 28 70  1  0  0  0
 29 71  1  0  0  0
 29 72  1  0  0  0
 33 73  1  0  0  0
 33 74  1  0  0  0
 33 75  1  0  0  0
 34 76  1  0  0  0
 35 77  1  0  0  0
 35 78  1  0  0  0
 36 79  1  0  0  0
 36 80  1  0  0  0
 36 81  1  0  0  0
 37 82  1  0  0  0
 37 83  1  0  0  0
 37 84  1  0  0  0
 38 85  1  0  0  0
M  END
$$$$
