5a1f_ligand
  -I-interpret- 

 15 14  0  0  0  0  0  0  0  0999 V2000
   83.5730   67.0170   14.2070 C   0  0  0  0  0
   84.4910   66.0890   13.4610 C   0  0  0  0  0
   86.4460   64.5100   13.6260 C   0  0  0  0  0
   87.6890   64.4090   14.5050 C   0  0  0  0  0
   82.6000   67.5620   13.6010 O   0  0  0  0  0
   83.8140   67.2110   15.4310 O   0  0  0  0  0
   84.3060   65.9070   12.2800 O   0  0  0  0  0
   88.5660   63.5530   14.2710 O   0  0  0  0  0
   85.4960   65.4190   14.1980 N   0  0  0  0  0
   87.8480   65.1540   15.5100 O   0  0  0  0  0
   85.9881   63.5240   13.5471 H   0  0  0  0  0
   86.7380   64.8772   12.6421 H   0  0  0  0  0
   82.5988   67.2816   12.6829 H   0  0  0  0  0
   85.5481   65.5940   15.2015 H   0  0  0  0  0
   87.1086   65.7627   15.5759 H   0  0  0  0  0
  2  1  1  0  0  0
  1  5  1  0  0  0
  1  6  2  0  0  0
  2  7  2  0  0  0
  9  2  1  0  0  0
  3  4  1  0  0  0
  3  9  1  0  0  0
  4  8  2  0  0  0
  4 10  1  0  0  0
  3 11  1  0  0  0
  3 12  1  0  0  0
  5 13  1  0  0  0
  9 14  1  0  0  0
 10 15  1  0  0  0
M  END
$$$$
