3rz8_ligand
  -I-interpret- 

 39 39  0  0  0  0  0  0  0  0999 V2000
   15.0160    0.9640   16.8720 S   0  0  0  0  0
   18.4590    5.6640   13.4770 N   0  0  0  0  0
   16.4920    6.7190   13.6000 O   0  0  0  0  0
   16.6380    4.5780   14.6410 C   0  0  0  0  0
   14.7570    3.3500   15.5610 C   0  0  0  0  0
   15.2410    4.4420   14.8480 C   0  0  0  0  0
   15.6240    2.3200   16.0760 C   0  0  0  0  0
   17.5200    3.5480   15.0500 C   0  0  0  0  0
   17.0040    2.4820   15.7990 C   0  0  0  0  0
   17.1960    5.7220   13.8730 C   0  0  0  0  0
   19.0170    6.7460   12.6400 C   0  0  0  0  0
   13.5760    1.0100   16.7030 O   0  0  0  0  0
   20.1770    7.2400   13.4320 C   0  0  0  0  0
   15.5630    1.0290   18.2120 O   0  0  0  0  0
   19.6820    8.3390   14.3240 C   0  0  0  0  0
   15.6550   -0.2720   16.1670 N   0  0  0  0  0
   19.9090    9.5710   13.4730 C   0  0  0  0  0
   19.4010   10.8150   14.1690 C   0  0  0  0  0
   19.1790   11.9580   13.1830 C   0  0  0  0  0
   19.0445    4.8744   13.7493 H   0  0  0  0  0
   13.6842    3.2704   15.7365 H   0  0  0  0  0
   14.5521    5.1877   14.4513 H   0  0  0  0  0
   18.5774    3.5838   14.7878 H   0  0  0  0  0
   17.7001    1.7392   16.1886 H   0  0  0  0  0
   18.2890    7.5306   12.4339 H   0  0  0  0  0
   19.3075    6.3980   11.6487 H   0  0  0  0  0
   20.9591    7.6111   12.7697 H   0  0  0  0  0
   20.6039    6.4317   14.0257 H   0  0  0  0  0
   20.1984    8.3787   15.2831 H   0  0  0  0  0
   18.6424    8.2114   14.6258 H   0  0  0  0  0
   15.0646   -0.9326   15.6617 H   0  0  0  0  0
   16.6633   -0.4196   16.2113 H   0  0  0  0  0
   19.3681    9.4510   12.5343 H   0  0  0  0  0
   20.9791    9.6817   13.2979 H   0  0  0  0  0
   20.1461   11.1298   14.8997 H   0  0  0  0  0
   18.4486   10.5797   14.6441 H   0  0  0  0  0
   20.1208   12.1988   12.6898 H   0  0  0  0  0
   18.4439   11.6553   12.4373 H   0  0  0  0  0
   18.8143   12.8337   13.7200 H   0  0  0  0  0
  7  1  1  0  0  0
  1 12  2  0  0  0
  1 14  2  0  0  0
  1 16  1  0  0  0
 10  2  1  0  0  0
  2 11  1  0  0  0
 10  3  2  0  0  0
  6  4  4  0  0  0
  4  8  4  0  0  0
  4 10  1  0  0  0
  5  6  4  0  0  0
  5  7  4  0  0  0
  7  9  4  0  0  0
  8  9  4  0  0  0
 11 13  1  0  0  0
 13 15  1  0  0  0
 15 17  1  0  0  0
 17 18  1  0  0  0
 18 19  1  0  0  0
  2 20  1  0  0  0
  5 21  1  0  0  0
  6 22  1  0  0  0
  8 23  1  0  0  0
  9 24  1  0  0  0
 11 25  1  0  0  0
 11 26  1  0  0  0
 13 27  1  0  0  0
 13 28  1  0  0  0
 15 29  1  0  0  0
 15 30  1  0  0  0
 16 31  1  0  0  0
 16 32  1  0  0  0
 17 33  1  0  0  0
 17 34  1  0  0  0
 18 35  1  0  0  0
 18 36  1  0  0  0
 19 37  1  0  0  0
 19 38  1  0  0  0
 19 39  1  0  0  0
M  END
$$$$
