5tb6_ligand
  -I-interpret- 

 35 37  0  0  0  0  0  0  0  0999 V2000
    1.5990   14.6090   22.5940 C   0  0  0  0  0
    0.2800   14.7420   23.3210 C   0  0  0  0  0
    0.3690   14.5840   24.8520 C   0  0  0  0  0
    1.4400   14.7530   25.4640 O   0  0  0  0  0
   -0.7480   14.1900   25.4920 N   0  0  0  0  0
   -0.7520   13.9960   26.9860 C   0  0  0  0  0
   -1.0330   12.5260   27.3000 C   0  0  0  0  0
   -1.9870   13.9030   24.7110 C   0  0  0  0  0
   -2.5300   12.5620   25.1860 C   0  0  0  0  0
   -2.0780   11.9600   26.3520 C   0  0  0  0  0
   -2.7500   10.8020   26.4270 N   0  0  0  0  0
   -3.5510   10.6710   25.4850 N   0  0  0  0  0
   -3.4750   11.6830   24.6350 C   0  0  0  0  0
   -4.2480   11.8200   23.4610 C   0  0  0  0  0
   -4.5250   10.6940   22.6860 C   0  0  0  0  0
   -5.3020   10.8500   21.5510 C   0  0  0  0  0
   -5.8220   12.0820   21.1740 C   0  0  0  0  0
   -5.5660   13.2110   21.9320 C   0  0  0  0  0
   -4.7830   13.0450   23.0690 C   0  0  0  0  0
    2.2879   15.3747   22.9508 H   0  0  0  0  0
    2.0200   13.6220   22.7855 H   0  0  0  0  0
    1.4367   14.7348   21.5235 H   0  0  0  0  0
   -0.3650   13.9424   22.9566 H   0  0  0  0  0
   -0.0889   15.7492   23.1270 H   0  0  0  0  0
   -1.5247   14.6205   27.4344 H   0  0  0  0  0
    0.2181   14.2789   27.3947 H   0  0  0  0  0
   -1.4078   12.4507   28.3208 H   0  0  0  0  0
   -0.1093   11.9594   27.1828 H   0  0  0  0  0
   -1.7646   13.8671   23.6445 H   0  0  0  0  0
   -2.7256   14.6892   24.8671 H   0  0  0  0  0
   -4.1388    9.7143   22.9674 H   0  0  0  0  0
   -5.5128    9.9775   20.9326 H   0  0  0  0  0
   -6.4351   12.1596   20.2761 H   0  0  0  0  0
   -5.9607   14.1872   21.6503 H   0  0  0  0  0
   -4.5770   13.9195   23.6861 H   0  0  0  0  0
  1  2  1  0  0  0
  2  3  1  0  0  0
  3  4  2  0  0  0
  3  5  1  0  0  0
  5  6  1  0  0  0
  5  8  1  0  0  0
  6  7  1  0  0  0
  7 10  1  0  0  0
  8  9  1  0  0  0
  9 10  4  0  0  0
  9 13  4  0  0  0
 10 11  4  0  0  0
 11 12  4  0  0  0
 12 13  4  0  0  0
 13 14  1  0  0  0
 14 15  4  0  0  0
 14 19  4  0  0  0
 15 16  4  0  0  0
 16 17  4  0  0  0
 17 18  4  0  0  0
 18 19  4  0  0  0
  1 20  1  0  0  0
  1 21  1  0  0  0
  1 22  1  0  0  0
  2 23  1  0  0  0
  2 24  1  0  0  0
  6 25  1  0  0  0
  6 26  1  0  0  0
  7 27  1  0  0  0
  7 28  1  0  0  0
  8 29  1  0  0  0
  8 30  1  0  0  0
 15 31  1  0  0  0
 16 32  1  0  0  0
 17 33  1  0  0  0
 18 34  1  0  0  0
 19 35  1  0  0  0
M  END
$$$$
