5y8z_ligand
  -I-interpret- 

 39 41  0  0  0  0  0  0  0  0999 V2000
   -8.2350   11.9400   -0.5000 C   0  0  0  0  0
   -8.3650   11.0050    0.5610 C   0  0  0  0  0
   -9.4910   10.1760    0.5700 C   0  0  0  0  0
   -9.6880    9.2710    1.5460 C   0  0  0  0  0
  -10.7490    8.3530    1.7190 O   0  0  0  0  0
  -10.3680    7.6040    3.0070 N   0  0  0  0  0
   -9.2090    8.1490    3.3990 C   0  0  0  0  0
   -8.4730    7.6780    4.6450 C   0  0  0  0  0
   -8.7990    9.1270    2.5720 C   0  0  0  0  0
   -7.6990    9.9130    2.6110 C   0  0  0  0  0
   -7.4300   10.8610    1.6100 C   0  0  0  0  0
   -6.3420   11.6930    1.6550 N   0  0  0  0  0
   -4.8220   11.0710    1.5440 S   0  0  0  0  0
   -4.6720    9.8920    2.4610 O   0  0  0  0  0
   -3.8330   12.1960    1.7660 O   0  0  0  0  0
   -4.6210   10.5240   -0.1280 C   0  0  0  0  0
   -4.3310    9.1810   -0.3340 C   0  0  0  0  0
   -4.1700    8.6680   -1.6200 C   0  0  0  0  0
   -3.8300    6.8520   -1.8730 Br  0  0  0  0  0
   -4.2590    9.5180   -2.7120 C   0  0  0  0  0
   -4.5140   10.8710   -2.5280 C   0  0  0  0  0
   -4.6990   11.3890   -1.2290 C   0  0  0  0  0
   -4.9070   12.7190   -0.9900 O   0  0  0  0  0
   -5.2520   13.6180   -2.1170 C   0  0  0  0  0
   -8.2033   11.4071   -1.4503 H   0  0  0  0  0
   -9.0878   12.6188   -0.4909 H   0  0  0  0  0
   -7.3145   12.5092   -0.3703 H   0  0  0  0  0
  -10.2250   10.2648   -0.2309 H   0  0  0  0  0
   -9.1126    7.8151    5.5169 H   0  0  0  0  0
   -8.2214    6.6227    4.5397 H   0  0  0  0  0
   -7.5596    8.2601    4.7677 H   0  0  0  0  0
   -7.0019    9.8079    3.4423 H   0  0  0  0  0
   -6.4743   12.6992    1.7574 H   0  0  0  0  0
   -4.2276    8.5173    0.5245 H   0  0  0  0  0
   -4.1283    9.1226   -3.7193 H   0  0  0  0  0
   -4.5714   11.5349   -3.3906 H   0  0  0  0  0
   -4.4490   13.5994   -2.8539 H   0  0  0  0  0
   -6.1792   13.2795   -2.5794 H   0  0  0  0  0
   -5.3806   14.6339   -1.7435 H   0  0  0  0  0
  1  2  1  0  0  0
  2  3  4  0  0  0
  2 11  4  0  0  0
  3  4  4  0  0  0
  4  5  4  0  0  0
  4  9  4  0  0  0
  5  6  4  0  0  0
  6  7  4  0  0  0
  7  8  1  0  0  0
  7  9  4  0  0  0
  9 10  4  0  0  0
 10 11  4  0  0  0
 11 12  1  0  0  0
 12 13  1  0  0  0
 13 14  2  0  0  0
 13 15  2  0  0  0
 13 16  1  0  0  0
 16 17  4  0  0  0
 16 22  4  0  0  0
 17 18  4  0  0  0
 18 19  1  0  0  0
 18 20  4  0  0  0
 20 21  4  0  0  0
 21 22  4  0  0  0
 22 23  1  0  0  0
 23 24  1  0  0  0
  1 25  1  0  0  0
  1 26  1  0  0  0
  1 27  1  0  0  0
  3 28  1  0  0  0
  8 29  1  0  0  0
  8 30  1  0  0  0
  8 31  1  0  0  0
 10 32  1  0  0  0
 12 33  1  0  0  0
 17 34  1  0  0  0
 20 35  1  0  0  0
 21 36  1  0  0  0
 24 37  1  0  0  0
 24 38  1  0  0  0
 24 39  1  0  0  0
M  END
$$$$
