4riu_ligand
  -I-interpret- 

 50 53  0  0  0  0  0  0  0  0999 V2000
   -2.7780    9.7470   78.8900 C   0  0  0  0  0
   -2.3170   11.1470   79.3270 C   0  0  0  0  0
   -2.6130   12.1660   78.2500 C   0  0  0  0  0
   -1.7800    8.6510   78.8750 C   0  0  0  0  0
   -1.5580    4.3820   85.2290 C   0  0  0  0  0
   -1.3300    2.9380   85.2930 C   0  0  0  0  0
   -1.8860    1.7680   86.3270 S   0  0  0  0  0
   -1.2410    1.8910   87.6390 O   0  0  0  0  0
   -3.3470    1.7780   86.4320 O   0  0  0  0  0
   -1.3950    0.3930   85.6380 N   0  0  0  0  0
   -0.3920    0.7020   84.6790 C   0  0  0  0  0
   -0.4960    0.0540   83.5980 O   0  0  0  0  0
    0.1210    3.1410   83.3500 C   0  0  0  0  0
   -0.0940    4.5110   83.2910 C   0  0  0  0  0
   -0.9480    5.1080   84.2290 C   0  0  0  0  0
   -1.1350    6.5670   84.1370 N   0  0  0  0  0
   -0.5210    7.3590   83.2130 C   0  0  0  0  0
   -1.8660    7.3240   84.9330 N   0  0  0  0  0
   -1.7840    8.5900   84.5750 N   0  0  0  0  0
   -0.9460    8.6950   83.5010 C   0  0  0  0  0
   -0.5520    9.9550   82.7330 C   0  0  0  0  0
   -1.1890    9.8360   81.4870 O   0  0  0  0  0
   -0.4020   10.0870   80.3980 C   0  0  0  0  0
   -0.9090   11.2750   79.6890 O   0  0  0  0  0
   -4.0180   12.0310   77.8310 O   0  0  0  0  0
   -3.4190    9.7960   77.5840 O   0  0  0  0  0
   -2.3790    7.4930   79.5320 O   0  0  0  0  0
   -0.4530    8.8980   79.4840 C   0  0  0  0  0
    0.5230    9.1050   78.4200 O   0  0  0  0  0
   -0.5130    2.3730   84.3750 C   0  0  0  0  0
   -3.4652    9.4826   79.6937 H   0  0  0  0  0
   -2.8878   11.3282   80.2377 H   0  0  0  0  0
   -1.9579   11.9967   77.3954 H   0  0  0  0  0
   -2.4413   13.1699   78.6383 H   0  0  0  0  0
   -1.5526    8.5139   77.8178 H   0  0  0  0  0
   -2.1993    4.8749   85.9597 H   0  0  0  0  0
   -1.7454   -0.5402   85.8543 H   0  0  0  0  0
    0.5789    0.4175   85.0846 H   0  0  0  0  0
    0.2104    0.3130   83.0018 H   0  0  0  0  0
    0.7684    2.6547   82.6202 H   0  0  0  0  0
    0.3944    5.1144   82.5259 H   0  0  0  0  0
    0.1542    7.0406   82.4188 H   0  0  0  0  0
    0.5294   10.0416   82.6270 H   0  0  0  0  0
   -0.8578   10.8600   83.2580 H   0  0  0  0  0
    0.6250   10.2698   80.7141 H   0  0  0  0  0
   -4.2102   12.6765   77.1469 H   0  0  0  0  0
   -4.0701   10.5014   77.5746 H   0  0  0  0  0
   -3.2415    7.3192   79.1479 H   0  0  0  0  0
   -0.2323    8.0205   80.0918 H   0  0  0  0  0
    0.5071    8.3541   77.8222 H   0  0  0  0  0
  2  1  1  0  0  0
  1  4  1  0  0  0
  1 26  1  0  0  0
  2  3  1  0  0  0
 24  2  1  0  0  0
  3 25  1  0  0  0
  4 27  1  0  0  0
  4 28  1  0  0  0
  5  6  4  0  0  0
 15  5  4  0  0  0
  6  7  1  0  0  0
  6 30  4  0  0  0
  7  8  2  0  0  0
  7  9  2  0  0  0
  7 10  1  0  0  0
 11 10  1  0  0  0
 11 12  1  0  0  0
 30 11  1  0  0  0
 14 13  4  0  0  0
 13 30  4  0  0  0
 15 14  4  0  0  0
 16 15  1  0  0  0
 17 16  4  0  0  0
 18 16  4  0  0  0
 20 17  4  0  0  0
 19 18  4  0  0  0
 20 19  4  0  0  0
 21 20  1  0  0  0
 22 21  1  0  0  0
 23 22  1  0  0  0
 23 24  1  0  0  0
 23 28  1  0  0  0
 28 29  1  0  0  0
  1 31  1  0  0  0
  2 32  1  0  0  0
  3 33  1  0  0  0
  3 34  1  0  0  0
  4 35  1  0  0  0
  5 36  1  0  0  0
 10 37  1  0  0  0
 11 38  1  0  0  0
 12 39  1  0  0  0
 13 40  1  0  0  0
 14 41  1  0  0  0
 17 42  1  0  0  0
 21 43  1  0  0  0
 21 44  1  0  0  0
 23 45  1  0  0  0
 25 46  1  0  0  0
 26 47  1  0  0  0
 27 48  1  0  0  0
 28 49  1  0  0  0
 29 50  1  0  0  0
M  END
$$$$
