1h39_ligand
  -I-interpret- 

 60 62  0  0  0  0  0  0  0  0999 V2000
   62.8900   69.3740   58.5870 C   0  0  0  0  0
   61.9930   69.4620   59.5790 C   0  0  0  0  0
   61.5190   70.7790   60.1670 C   0  0  0  0  0
   62.5280   71.4070   61.0700 N   0  3  0  0  0
   62.3000   71.0920   62.5110 C   0  0  0  0  0
   63.1560   69.9230   63.0730 C   0  0  0  0  0
   63.9750   70.3640   64.3160 C   0  0  0  0  0
   63.2170   70.0490   65.6410 C   0  0  0  0  0
   63.9320   68.9460   66.4700 C   0  0  0  0  0
   65.1380   69.5080   67.2640 C   0  0  0  0  0
   64.6590   70.0380   68.5190 O   0  0  0  0  0
   65.6330   70.6750   69.3060 C   0  0  0  0  0
   66.4590   69.9060   70.1890 C   0  0  0  0  0
   67.4360   70.5990   70.9720 C   0  0  0  0  0
   68.3120   70.1010   71.8580 N   0  0  0  0  0
   68.9630   71.0580   72.2970 N   0  0  0  0  0
   68.6080   72.2360   71.7760 C   0  0  0  0  0
   67.5760   71.9970   70.8720 C   0  0  0  0  0
   66.7640   72.7810   70.0020 C   0  0  0  0  0
   65.7880   72.0950   69.2190 C   0  0  0  0  0
   69.2490   73.5680   72.1390 C   0  0  0  0  0
   70.5660   73.8800   71.6870 C   0  0  0  0  0
   71.1800   75.1220   72.0260 C   0  0  0  0  0
   70.4800   76.0690   72.8270 C   0  0  0  0  0
   69.1580   75.7640   73.2820 C   0  0  0  0  0
   68.5450   74.5180   72.9390 C   0  0  0  0  0
   71.2900   77.6870   73.2790 Br  0  0  0  0  0
   68.4780   68.6970   72.2410 C   0  0  0  0  0
   62.5310   72.8870   60.8850 C   0  0  0  0  0
   63.3200   70.2796   58.1591 H   0  0  0  0  0
   63.1895   68.3968   58.2082 H   0  0  0  0  0
   61.5816   68.5381   59.9855 H   0  0  0  0  0
   60.6238   70.5783   60.7557 H   0  0  0  0  0
   61.3370   71.4666   59.3411 H   0  0  0  0  0
   63.4324   71.0126   60.8113 H   0  0  0  0  0
   61.2567   70.7909   62.6054 H   0  0  0  0  0
   62.5764   71.9830   63.0748 H   0  0  0  0  0
   63.8513   69.6005   62.2980 H   0  0  0  0  0
   62.4860   69.1159   63.3695 H   0  0  0  0  0
   64.1370   71.4404   64.2585 H   0  0  0  0  0
   64.9181   69.8175   64.3196 H   0  0  0  0  0
   62.2188   69.6924   65.3870 H   0  0  0  0  0
   63.1836   70.9590   66.2401 H   0  0  0  0  0
   64.3014   68.1867   65.7807 H   0  0  0  0  0
   63.2157   68.5363   67.1822 H   0  0  0  0  0
   65.6241   70.2969   66.6901 H   0  0  0  0  0
   65.8618   68.7144   67.4492 H   0  0  0  0  0
   66.3464   68.8243   70.2622 H   0  0  0  0  0
   66.8838   73.8625   69.9372 H   0  0  0  0  0
   65.1491   72.6627   68.5425 H   0  0  0  0  0
   71.1096   73.1602   71.0750 H   0  0  0  0  0
   72.1860   75.3466   71.6716 H   0  0  0  0  0
   68.6152   76.4850   73.8932 H   0  0  0  0  0
   67.5376   74.2932   73.2894 H   0  0  0  0  0
   67.5448   68.3241   72.6630 H   0  0  0  0  0
   68.7403   68.1102   71.3607 H   0  0  0  0  0
   69.2720   68.6157   72.9833 H   0  0  0  0  0
   61.5702   73.2933   61.2010 H   0  0  0  0  0
   63.3277   73.3254   61.4860 H   0  0  0  0  0
   62.6973   73.1201   59.8333 H   0  0  0  0  0
  1  2  2  0  0  0
  2  3  1  0  0  0
  3  4  1  0  0  0
  4  5  1  0  0  0
  4 29  1  0  0  0
  5  6  1  0  0  0
  6  7  1  0  0  0
  7  8  1  0  0  0
  8  9  1  0  0  0
  9 10  1  0  0  0
 10 11  1  0  0  0
 11 12  1  0  0  0
 12 13  4  0  0  0
 12 20  4  0  0  0
 13 14  4  0  0  0
 14 15  4  0  0  0
 14 18  4  0  0  0
 15 16  4  0  0  0
 15 28  1  0  0  0
 16 17  4  0  0  0
 17 18  4  0  0  0
 17 21  1  0  0  0
 18 19  4  0  0  0
 19 20  4  0  0  0
 21 22  4  0  0  0
 21 26  4  0  0  0
 22 23  4  0  0  0
 23 24  4  0  0  0
 24 25  4  0  0  0
 24 27  1  0  0  0
 25 26  4  0  0  0
  1 30  1  0  0  0
  1 31  1  0  0  0
  2 32  1  0  0  0
  3 33  1  0  0  0
  3 34  1  0  0  0
  4 35  1  0  0  0
  5 36  1  0  0  0
  5 37  1  0  0  0
  6 38  1  0  0  0
  6 39  1  0  0  0
  7 40  1  0  0  0
  7 41  1  0  0  0
  8 42  1  0  0  0
  8 43  1  0  0  0
  9 44  1  0  0  0
  9 45  1  0  0  0
 10 46  1  0  0  0
 10 47  1  0  0  0
 13 48  1  0  0  0
 19 49  1  0  0  0
 20 50  1  0  0  0
 22 51  1  0  0  0
 23 52  1  0  0  0
 25 53  1  0  0  0
 26 54  1  0  0  0
 28 55  1  0  0  0
 28 56  1  0  0  0
 28 57  1  0  0  0
 29 58  1  0  0  0
 29 59  1  0  0  0
 29 60  1  0  0  0
M  END
$$$$
