1hk2_ligand
  -I-interpret- 

 36 37  0  0  0  0  0  0  0  0999 V2000
   -8.7150   -0.1570   16.5320 C   0  0  0  0  0
   -8.5080   -1.4940   16.1720 C   0  0  0  0  0
   -8.8450   -1.9840   14.9110 C   0  0  0  0  0
   -9.4150   -1.1090   13.9540 C   0  0  0  0  0
   -9.6370    0.1970   14.3100 C   0  0  0  0  0
   -9.3070    0.7180   15.5810 C   0  0  0  0  0
   -8.2670    0.2920   17.9120 C   0  0  0  0  0
   -6.7280    0.2350   18.1060 C   0  0  0  0  0
   -5.8500    0.6800   16.8810 C   0  0  0  0  0
   -8.6940   -1.4100   11.6970 C   0  0  0  0  0
   -9.1040   -1.3580   10.3750 C   0  0  0  0  0
   -8.1130   -1.1890    9.3940 C   0  0  0  0  0
   -6.6900   -1.0540    9.6440 C   0  0  0  0  0
   -6.3830   -1.1150   11.0130 C   0  0  0  0  0
   -7.3150   -1.2810   12.0310 C   0  0  0  0  0
   -6.3320    1.1290   19.2500 N   0  3  0  0  0
   -9.7110   -1.5800   12.6920 O   0  0  0  0  0
   -5.8010   -0.8980    8.6630 O   0  0  0  0  0
   -6.0440    1.8240   16.4390 O   0  0  0  0  0
   -5.0340   -0.1400   16.4240 O   0  0  0  0  0
   -8.5100   -3.9720   14.4470 I   0  0  0  0  0
   -8.6610   -1.1050    7.4410 I   0  0  0  0  0
  -10.5080    1.4510   12.8940 I   0  0  0  0  0
   -4.4250   -0.9230   11.5640 I   0  0  0  0  0
   -8.0689   -2.1743   16.9017 H   0  0  0  0  0
   -9.5010    1.7623   15.8257 H   0  0  0  0  0
   -8.7163   -0.3831   18.6403 H   0  0  0  0  0
   -8.5769    1.3294   18.0379 H   0  0  0  0  0
   -6.5314   -0.8240   18.2732 H   0  0  0  0  0
  -10.1567   -1.4450   10.1059 H   0  0  0  0  0
   -6.9946   -1.3121   13.0724 H   0  0  0  0  0
   -5.3205    1.0902   19.3759 H   0  0  0  0  0
   -6.6137    2.0875   19.0442 H   0  0  0  0  0
   -6.7943    0.8131   20.1026 H   0  0  0  0  0
   -4.9204   -0.8284    9.0388 H   0  0  0  0  0
   -5.0732   -0.9495   16.9385 H   0  0  0  0  0
  2  1  4  0  0  0
  6  1  4  0  0  0
  1  7  1  0  0  0
  3  2  4  0  0  0
  4  3  4  0  0  0
  3 21  1  0  0  0
  4  5  4  0  0  0
 17  4  1  0  0  0
  5  6  4  0  0  0
  5 23  1  0  0  0
  7  8  1  0  0  0
  8  9  1  0  0  0
  8 16  1  0  0  0
  9 19  2  0  0  0
  9 20  1  0  0  0
 10 11  4  0  0  0
 10 15  4  0  0  0
 10 17  1  0  0  0
 11 12  4  0  0  0
 12 13  4  0  0  0
 12 22  1  0  0  0
 13 14  4  0  0  0
 13 18  1  0  0  0
 14 15  4  0  0  0
 14 24  1  0  0  0
  2 25  1  0  0  0
  6 26  1  0  0  0
  7 27  1  0  0  0
  7 28  1  0  0  0
  8 29  1  0  0  0
 11 30  1  0  0  0
 15 31  1  0  0  0
 16 32  1  0  0  0
 16 33  1  0  0  0
 16 34  1  0  0  0
 18 35  1  0  0  0
 20 36  1  0  0  0
M  END
$$$$
