### 
### Created by X-TOOL on Mon Sep 10 21:13:04 2018
### 

@<TRIPOS>MOLECULE
3mo0_ligand
   73    76     1     0     0
SMALL
GAST_HUCK


@<TRIPOS>ATOM
      1 N1        -20.1470   -8.2050   25.6820 N.ar      1 E11        -0.2473
      2 C2        -19.1590   -9.0950   25.8610 C.ar      1 E11         0.1533
      3 N3        -18.1410   -9.1720   24.9910 N.ar      1 E11        -0.3045
      4 C4        -18.0900   -8.3680   23.9200 C.ar      1 E11         0.0078
      5 C5        -19.1060   -7.4430   23.7080 C.ar      1 E11         0.0267
      6 C6        -20.1460   -7.3750   24.6290 C.ar      1 E11         0.1243
      7 CAC       -17.0340   -8.4560   23.0180 C.ar      1 E11        -0.0244
      8 CAD       -17.0000   -7.6240   21.9030 C.ar      1 E11         0.1276
      9 CAE       -18.0240   -6.7080   21.6860 C.ar      1 E11         0.1272
     10 CAF       -19.0760   -6.6140   22.5930 C.ar      1 E11        -0.0226
     11 OAK       -18.0110   -5.9640   20.5470 O.3       1 E11        -0.3230
     12 OAL       -15.9540   -7.6590   21.0310 O.3       1 E11        -0.3173
     13 NAM       -21.0800   -6.4360   24.4980 N.pl3     1 E11        -0.2940
     14 NAN       -19.1860   -9.9290   26.8970 N.pl3     1 E11        -0.2962
     15 CAO       -20.2800   -9.8900   27.8770 C.3       1 E11         0.0282
     16 CAP       -21.5950  -10.2810   27.2010 C.3       1 E11        -0.0511
     17 CAQ       -22.7100  -10.4420   28.2360 C.3       1 E11        -0.1120
     18 NAR       -22.1600  -10.8740   29.5300 N.4       1 E11         0.3987
     19 CAS       -22.7530  -12.1610   29.9230 C.3       1 E11        -0.1260
     20 CAU       -20.6970  -11.0010   29.4540 C.3       1 E11        -0.1260
     21 CAV       -22.1340   -6.2630   25.5080 C.3       1 E11         0.0395
     22 CAW       -23.5120   -6.5210   24.8930 C.3       1 E11        -0.0475
     23 CAX       -24.6220   -6.1990   25.8960 C.3       1 E11        -0.1081
     24 NAY       -24.5210   -4.7900   26.3030 N.4       1 E11         0.4081
     25 CAZ       -23.2500   -4.5720   27.0110 C.3       1 E11        -0.1081
     26 CBA       -22.0850   -4.8340   26.0550 C.3       1 E11        -0.0475
     27 CBB       -25.6540   -4.4410   27.1740 C.3       1 E11        -0.0763
     28 CBC       -25.6870   -2.9330   27.4320 C.ar      1 E11        -0.0632
     29 CBD       -25.8680   -2.4520   28.7250 C.ar      1 E11        -0.0623
     30 CBE       -25.8950   -1.0830   28.9670 C.ar      1 E11        -0.0686
     31 CBF       -25.7390   -0.1900   27.9130 C.ar      1 E11        -0.0687
     32 CBG       -25.5580   -0.6690   26.6190 C.ar      1 E11        -0.0686
     33 CBH       -25.5320   -2.0380   26.3780 C.ar      1 E11        -0.0623
     34 CBI       -15.3670   -8.9600   20.9410 C.3       1 E11         0.0599
     35 CBJ       -18.5990   -4.6760   20.7480 C.3       1 E11         0.0572
     36 H         -16.2334   -9.1767   23.1848 H         1 E11         0.0461
     37 H         -19.8751   -5.8911   22.4288 H         1 E11         0.0541
     38 H         -21.0642   -5.8249   23.6815 H         1 E11         0.1901
     39 H         -18.4336  -10.6078   27.0131 H         1 E11         0.1855
     40 H         -20.3677   -8.8808   28.2794 H         1 E11         0.0523
     41 H         -20.0667  -10.5916   28.6834 H         1 E11         0.0523
     42 H         -21.4558  -11.2301   26.6833 H         1 E11         0.0265
     43 H         -21.8769   -9.4959   26.4994 H         1 E11         0.0265
     44 H         -23.4127  -11.1965   27.8823 H         1 E11         0.0017
     45 H         -23.2093   -9.4821   28.3682 H         1 E11         0.0017
     46 H         -23.8338  -12.0499   30.0107 H         1 E11        -0.0019
     47 H         -22.5238  -12.9113   29.1663 H         1 E11        -0.0019
     48 H         -22.3394  -12.4723   30.8822 H         1 E11        -0.0019
     49 H         -20.4366  -11.7386   28.6949 H         1 E11        -0.0019
     50 H         -20.2631  -10.0367   29.1894 H         1 E11        -0.0019
     51 H         -20.3107  -11.3215   30.4215 H         1 E11        -0.0019
     52 H         -21.9673   -6.9768   26.3147 H         1 E11         0.0566
     53 H         -23.5824   -7.5728   24.6157 H         1 E11         0.0269
     54 H         -23.6321   -5.8823   24.0180 H         1 E11         0.0269
     55 H         -24.5168   -6.8387   26.7722 H         1 E11         0.0021
     56 H         -25.5928   -6.3746   25.4324 H         1 E11         0.0021
     57 H         -23.1846   -5.2526   27.8599 H         1 E11         0.0021
     58 H         -23.2038   -3.5431   27.3680 H         1 E11         0.0021
     59 H         -22.1551   -4.1374   25.2195 H         1 E11         0.0269
     60 H         -21.1499   -4.6998   26.5987 H         1 E11         0.0269
     61 H         -25.5424   -4.9607   28.1256 H         1 E11         0.0182
     62 H         -26.5816   -4.7368   26.6840 H         1 E11         0.0182
     63 H         -25.9892   -3.1516   29.5520 H         1 E11         0.0556
     64 H         -26.0382   -0.7106   29.9814 H         1 E11         0.0599
     65 H         -25.7584    0.8837   28.0999 H         1 E11         0.0559
     66 H         -25.4363    0.0309   25.7923 H         1 E11         0.0599
     67 H         -25.3902   -2.4102   25.3634 H         1 E11         0.0556
     68 H         -14.9999   -9.2602   21.9224 H         1 E11         0.0579
     69 H         -16.1172   -9.6728   20.5986 H         1 E11         0.0579
     70 H         -14.5381   -8.9351   20.2336 H         1 E11         0.0579
     71 H         -19.6342   -4.7964   21.0673 H         1 E11         0.0573
     72 H         -18.0410   -4.1389   21.5150 H         1 E11         0.0573
     73 H         -18.5684   -4.1144   19.8143 H         1 E11         0.0573
@<TRIPOS>BOND
     1    1    2 ar 
     2    1    6 ar 
     3    2    3 ar 
     4    2   14 1  
     5    3    4 ar 
     6    4    5 ar 
     7    4    7 ar 
     8    5    6 ar 
     9    5   10 ar 
    10    6   13 1  
    11    7    8 ar 
    12    8    9 ar 
    13    8   12 1  
    14    9   10 ar 
    15    9   11 1  
    16   11   35 1  
    17   12   34 1  
    18   13   21 1  
    19   14   15 1  
    20   15   16 1  
    21   16   17 1  
    22   17   18 1  
    23   18   19 1  
    24   18   20 1  
    25   21   22 1  
    26   21   26 1  
    27   22   23 1  
    28   23   24 1  
    29   24   25 1  
    30   24   27 1  
    31   25   26 1  
    32   27   28 1  
    33   28   29 ar 
    34   28   33 ar 
    35   29   30 ar 
    36   30   31 ar 
    37   31   32 ar 
    38   32   33 ar 
    39    7   36 1  
    40   10   37 1  
    41   13   38 1  
    42   14   39 1  
    43   15   40 1  
    44   15   41 1  
    45   16   42 1  
    46   16   43 1  
    47   17   44 1  
    48   17   45 1  
    49   19   46 1  
    50   19   47 1  
    51   19   48 1  
    52   20   49 1  
    53   20   50 1  
    54   20   51 1  
    55   21   52 1  
    56   22   53 1  
    57   22   54 1  
    58   23   55 1  
    59   23   56 1  
    60   25   57 1  
    61   25   58 1  
    62   26   59 1  
    63   26   60 1  
    64   27   61 1  
    65   27   62 1  
    66   29   63 1  
    67   30   64 1  
    68   31   65 1  
    69   32   66 1  
    70   33   67 1  
    71   34   68 1  
    72   34   69 1  
    73   34   70 1  
    74   35   71 1  
    75   35   72 1  
    76   35   73 1  
@<TRIPOS>SUBSTRUCTURE
     1 E11         1

