3mo0_ligand
  -I-interpret- 

 75 78  0  0  0  0  0  0  0  0999 V2000
  -20.1470   -8.2050   25.6820 N   0  0  0  0  0
  -19.1590   -9.0950   25.8610 C   0  0  0  0  0
  -18.1410   -9.1720   24.9910 N   0  0  0  0  0
  -18.0900   -8.3680   23.9200 C   0  0  0  0  0
  -19.1060   -7.4430   23.7080 C   0  0  0  0  0
  -20.1460   -7.3750   24.6290 C   0  0  0  0  0
  -17.0340   -8.4560   23.0180 C   0  0  0  0  0
  -17.0000   -7.6240   21.9030 C   0  0  0  0  0
  -18.0240   -6.7080   21.6860 C   0  0  0  0  0
  -19.0760   -6.6140   22.5930 C   0  0  0  0  0
  -18.0110   -5.9640   20.5470 O   0  0  0  0  0
  -15.9540   -7.6590   21.0310 O   0  0  0  0  0
  -21.0800   -6.4360   24.4980 N   0  0  0  0  0
  -19.1860   -9.9290   26.8970 N   0  0  0  0  0
  -20.2800   -9.8900   27.8770 C   0  0  0  0  0
  -21.5950  -10.2810   27.2010 C   0  0  0  0  0
  -22.7100  -10.4420   28.2360 C   0  0  0  0  0
  -22.1600  -10.8740   29.5300 N   0  3  0  0  0
  -22.7530  -12.1610   29.9230 C   0  0  0  0  0
  -20.6970  -11.0010   29.4540 C   0  0  0  0  0
  -22.1340   -6.2630   25.5080 C   0  0  0  0  0
  -23.5120   -6.5210   24.8930 C   0  0  0  0  0
  -24.6220   -6.1990   25.8960 C   0  0  0  0  0
  -24.5210   -4.7900   26.3030 N   0  3  0  0  0
  -23.2500   -4.5720   27.0110 C   0  0  0  0  0
  -22.0850   -4.8340   26.0550 C   0  0  0  0  0
  -25.6540   -4.4410   27.1740 C   0  0  0  0  0
  -25.6870   -2.9330   27.4320 C   0  0  0  0  0
  -25.8680   -2.4520   28.7250 C   0  0  0  0  0
  -25.8950   -1.0830   28.9670 C   0  0  0  0  0
  -25.7390   -0.1900   27.9130 C   0  0  0  0  0
  -25.5580   -0.6690   26.6190 C   0  0  0  0  0
  -25.5320   -2.0380   26.3780 C   0  0  0  0  0
  -15.3670   -8.9600   20.9410 C   0  0  0  0  0
  -18.5990   -4.6760   20.7480 C   0  0  0  0  0
  -16.2334   -9.1767   23.1848 H   0  0  0  0  0
  -19.8751   -5.8911   22.4288 H   0  0  0  0  0
  -21.0642   -5.8249   23.6815 H   0  0  0  0  0
  -18.4336  -10.6078   27.0131 H   0  0  0  0  0
  -20.3677   -8.8808   28.2794 H   0  0  0  0  0
  -20.0667  -10.5916   28.6834 H   0  0  0  0  0
  -21.4558  -11.2301   26.6833 H   0  0  0  0  0
  -21.8769   -9.4959   26.4994 H   0  0  0  0  0
  -23.4127  -11.1965   27.8823 H   0  0  0  0  0
  -23.2093   -9.4821   28.3682 H   0  0  0  0  0
  -22.3897  -10.1693   30.2308 H   0  0  0  0  0
  -23.8338  -12.0499   30.0107 H   0  0  0  0  0
  -22.5238  -12.9113   29.1663 H   0  0  0  0  0
  -22.3394  -12.4723   30.8822 H   0  0  0  0  0
  -20.4366  -11.7386   28.6949 H   0  0  0  0  0
  -20.2631  -10.0367   29.1894 H   0  0  0  0  0
  -20.3107  -11.3215   30.4215 H   0  0  0  0  0
  -21.9673   -6.9768   26.3147 H   0  0  0  0  0
  -23.5824   -7.5728   24.6157 H   0  0  0  0  0
  -23.6321   -5.8823   24.0180 H   0  0  0  0  0
  -24.5168   -6.8387   26.7722 H   0  0  0  0  0
  -25.5928   -6.3746   25.4324 H   0  0  0  0  0
  -24.5471   -4.1945   25.4753 H   0  0  0  0  0
  -23.1846   -5.2526   27.8599 H   0  0  0  0  0
  -23.2038   -3.5431   27.3680 H   0  0  0  0  0
  -22.1551   -4.1374   25.2195 H   0  0  0  0  0
  -21.1499   -4.6998   26.5987 H   0  0  0  0  0
  -25.5424   -4.9607   28.1256 H   0  0  0  0  0
  -26.5816   -4.7368   26.6840 H   0  0  0  0  0
  -25.9892   -3.1516   29.5520 H   0  0  0  0  0
  -26.0382   -0.7106   29.9814 H   0  0  0  0  0
  -25.7584    0.8837   28.0999 H   0  0  0  0  0
  -25.4363    0.0309   25.7923 H   0  0  0  0  0
  -25.3902   -2.4102   25.3634 H   0  0  0  0  0
  -14.9999   -9.2602   21.9224 H   0  0  0  0  0
  -16.1172   -9.6728   20.5986 H   0  0  0  0  0
  -14.5381   -8.9351   20.2336 H   0  0  0  0  0
  -19.6342   -4.7964   21.0673 H   0  0  0  0  0
  -18.0410   -4.1389   21.5150 H   0  0  0  0  0
  -18.5684   -4.1144   19.8143 H   0  0  0  0  0
  1  2  4  0  0  0
  1  6  4  0  0  0
  2  3  4  0  0  0
  2 14  1  0  0  0
  3  4  4  0  0  0
  4  5  4  0  0  0
  4  7  4  0  0  0
  5  6  4  0  0  0
  5 10  4  0  0  0
  6 13  1  0  0  0
  7  8  4  0  0  0
  8  9  4  0  0  0
  8 12  1  0  0  0
  9 10  4  0  0  0
  9 11  1  0  0  0
 11 35  1  0  0  0
 12 34  1  0  0  0
 13 21  1  0  0  0
 14 15  1  0  0  0
 15 16  1  0  0  0
 16 17  1  0  0  0
 17 18  1  0  0  0
 18 19  1  0  0  0
 18 20  1  0  0  0
 21 22  1  0  0  0
 21 26  1  0  0  0
 22 23  1  0  0  0
 23 24  1  0  0  0
 24 25  1  0  0  0
 24 27  1  0  0  0
 25 26  1  0  0  0
 27 28  1  0  0  0
 28 29  4  0  0  0
 28 33  4  0  0  0
 29 30  4  0  0  0
 30 31  4  0  0  0
 31 32  4  0  0  0
 32 33  4  0  0  0
  7 36  1  0  0  0
 10 37  1  0  0  0
 13 38  1  0  0  0
 14 39  1  0  0  0
 15 40  1  0  0  0
 15 41  1  0  0  0
 16 42  1  0  0  0
 16 43  1  0  0  0
 17 44  1  0  0  0
 17 45  1  0  0  0
 18 46  1  0  0  0
 19 47  1  0  0  0
 19 48  1  0  0  0
 19 49  1  0  0  0
 20 50  1  0  0  0
 20 51  1  0  0  0
 20 52  1  0  0  0
 21 53  1  0  0  0
 22 54  1  0  0  0
 22 55  1  0  0  0
 23 56  1  0  0  0
 23 57  1  0  0  0
 24 58  1  0  0  0
 25 59  1  0  0  0
 25 60  1  0  0  0
 26 61  1  0  0  0
 26 62  1  0  0  0
 27 63  1  0  0  0
 27 64  1  0  0  0
 29 65  1  0  0  0
 30 66  1  0  0  0
 31 67  1  0  0  0
 32 68  1  0  0  0
 33 69  1  0  0  0
 34 70  1  0  0  0
 34 71  1  0  0  0
 34 72  1  0  0  0
 35 73  1  0  0  0
 35 74  1  0  0  0
 35 75  1  0  0  0
M  END
$$$$
