### 
### Created by X-TOOL on Mon Aug  2 16:14:13 2021
### 

@<TRIPOS>MOLECULE
6idg_ligand
   63    67     1     0     0
SMALL
GAST_HUCK


@<TRIPOS>ATOM
      1 O5'       -38.4600  -26.0390    4.9800 O.3       1 MOL        -0.3924
      2 C5'       -38.9810  -24.7410    4.7700 C.3       1 MOL         0.0733
      3 C4'       -37.8590  -23.7520    4.5530 C.3       1 MOL         0.1156
      4 O4'       -37.1830  -23.6030    5.8290 O.3       1 MOL        -0.3457
      5 C3'       -36.7840  -24.2250    3.5770 C.3       1 MOL         0.1270
      6 O3'       -36.8960  -23.7210    2.2600 O.3       1 MOL        -0.2479
      7 C2'       -35.4720  -23.7800    4.1980 C.3       1 MOL         0.0292
      8 C1'       -35.7740  -23.4710    5.6600 C.3       1 MOL         0.1526
      9 N1        -35.0070  -24.4490    6.5880 N.am      1 MOL        -0.2058
     10 C2        -34.1340  -24.0150    7.4740 C.2       1 MOL         0.2955
     11 O2        -33.8100  -22.8080    7.6150 O.2       1 MOL        -0.3907
     12 N3        -33.5180  -24.9700    8.3120 N.am      1 MOL        -0.1817
     13 C4        -33.7650  -26.3540    8.2630 C.2       1 MOL         0.2609
     14 O4        -32.9870  -27.1170    8.7770 O.2       1 MOL        -0.3307
     15 C5        -35.0190  -26.8020    7.5330 C.3       1 MOL         0.1853
     16 C5M       -36.2320  -26.6750    8.4650 C.3       1 MOL        -0.0237
     17 O5        -34.8790  -28.1540    7.0810 O.3       1 MOL        -0.3796
     18 C6        -35.2580  -25.9120    6.2760 C.3       1 MOL         0.1365
     19 P         -36.8130  -24.7650    1.0340 P.3       1 MOL         0.2556
     20 OP2       -37.5920  -25.9570    1.4400 O.co2     1 MOL        -0.6177
     21 OP1       -37.1870  -24.0410   -0.2010 O.co2     1 MOL        -0.6177
     22 O5'       -35.2810  -25.2380    0.9890 O.3       1 MOL        -0.2514
     23 C5'       -34.2670  -24.4960    0.3020 C.3       1 MOL         0.1123
     24 C4'       -33.0860  -25.3850   -0.0450 C.3       1 MOL         0.1165
     25 O4'       -32.1340  -25.5000    1.0480 O.3       1 MOL        -0.3369
     26 C1'       -32.0860  -26.8350    1.5830 C.3       1 MOL         0.1842
     27 N1        -32.8990  -26.6790    2.8520 N.am      1 MOL        -0.1721
     28 C2        -32.4430  -25.8540    3.8590 C.2       1 MOL         0.2558
     29 O2        -31.3340  -25.2470    3.7810 O.2       1 MOL        -0.4063
     30 N3        -33.2470  -25.6700    4.9600 N.2       1 MOL        -0.2783
     31 C4        -34.4290  -26.2950    5.0260 C.2       1 MOL         0.0410
     32 C5        -34.9240  -27.1790    4.0360 C.2       1 MOL         0.0081
     33 C5M       -36.2500  -27.9010    4.0680 C.3       1 MOL        -0.0390
     34 C6        -34.1080  -27.3370    2.9440 C.2       1 MOL         0.0785
     35 C2'       -32.7950  -27.7310    0.5600 C.3       1 MOL         0.0336
     36 C3'       -33.4360  -26.8110   -0.4860 C.3       1 MOL         0.0892
     37 O3'       -32.9420  -27.0840   -1.7950 O.3       1 MOL        -0.3889
     38 H1        -37.8989  -26.0336    5.7466 H         1 MOL         0.2095
     39 H2        -39.5658  -24.4382    5.6511 H         1 MOL         0.0584
     40 H3        -39.6321  -24.7508    3.8834 H         1 MOL         0.0584
     41 H4        -38.2765  -22.7944    4.2086 H         1 MOL         0.0650
     42 H5        -36.8165  -25.3230    3.5197 H         1 MOL         0.0685
     43 H6        -35.0951  -22.8808    3.6887 H         1 MOL         0.0341
     44 H7        -34.7242  -24.5834    4.1251 H         1 MOL         0.0341
     45 H8        -35.4678  -22.4408    5.8944 H         1 MOL         0.0871
     46 H9        -32.8596  -24.6391    8.9881 H         1 MOL         0.2260
     47 H10       -37.1385  -27.0002    7.9334 H         1 MOL         0.0247
     48 H11       -36.3464  -25.6265    8.7772 H         1 MOL         0.0247
     49 H12       -36.0806  -27.3074    9.3522 H         1 MOL         0.0247
     50 H13       -34.7569  -28.7259    7.8296 H         1 MOL         0.2083
     51 H14       -36.3188  -26.0248    6.0079 H         1 MOL         0.0811
     52 H15       -33.9221  -23.6748    0.9474 H         1 MOL         0.0647
     53 H16       -34.6899  -24.0811   -0.6248 H         1 MOL         0.0647
     54 H17       -32.5741  -24.8991   -0.8888 H         1 MOL         0.0650
     55 H18       -31.0642  -27.1892    1.7841 H         1 MOL         0.0996
     56 H19       -36.3548  -28.5155    3.1617 H         1 MOL         0.0311
     57 H20       -37.0670  -27.1656    4.1089 H         1 MOL         0.0311
     58 H21       -36.2940  -28.5479    4.9566 H         1 MOL         0.0311
     59 H22       -34.4209  -27.9946    2.1343 H         1 MOL         0.1229
     60 H23       -33.5702  -28.3312    1.0588 H         1 MOL         0.0347
     61 H24       -32.0673  -28.3999    0.0773 H         1 MOL         0.0347
     62 H25       -34.5276  -26.9466   -0.4849 H         1 MOL         0.0622
     63 H26       -33.3576  -26.4990   -2.4175 H         1 MOL         0.2099
@<TRIPOS>BOND
     1    1    2 1  
     2    2    3 1  
     3    3    4 1  
     4    3    5 1  
     5    4    8 1  
     6    5    6 1  
     7    5    7 1  
     8    6   19 1  
     9    7    8 1  
    10    8    9 1  
    11    9   10 am 
    12    9   18 1  
    13   10   11 2  
    14   10   12 am 
    15   12   13 am 
    16   13   14 2  
    17   13   15 1  
    18   15   16 1  
    19   15   17 1  
    20   15   18 1  
    21   18   31 1  
    22   19   20 ar 
    23   19   21 ar 
    24   19   22 1  
    25   22   23 1  
    26   23   24 1  
    27   24   25 1  
    28   24   36 1  
    29   25   26 1  
    30   26   27 1  
    31   26   35 1  
    32   27   28 am 
    33   27   34 1  
    34   28   29 2  
    35   28   30 1  
    36   30   31 2  
    37   31   32 1  
    38   32   33 1  
    39   32   34 2  
    40   35   36 1  
    41   36   37 1  
    42    1   38 1  
    43    2   39 1  
    44    2   40 1  
    45    3   41 1  
    46    5   42 1  
    47    7   43 1  
    48    7   44 1  
    49    8   45 1  
    50   12   46 1  
    51   16   47 1  
    52   16   48 1  
    53   16   49 1  
    54   17   50 1  
    55   18   51 1  
    56   23   52 1  
    57   23   53 1  
    58   24   54 1  
    59   26   55 1  
    60   33   56 1  
    61   33   57 1  
    62   33   58 1  
    63   34   59 1  
    64   35   60 1  
    65   35   61 1  
    66   36   62 1  
    67   37   63 1  
@<TRIPOS>SUBSTRUCTURE
     1 MOL         1

