6idg_ligand
  -I-interpret- 

 64 68  0  0  0  0  0  0  0  0999 V2000
  -38.4600  -26.0390    4.9800 O   0  0  0  0  0
  -38.9810  -24.7410    4.7700 C   0  0  0  0  0
  -37.8590  -23.7520    4.5530 C   0  0  0  0  0
  -37.1830  -23.6030    5.8290 O   0  0  0  0  0
  -36.7840  -24.2250    3.5770 C   0  0  0  0  0
  -36.8960  -23.7210    2.2600 O   0  0  0  0  0
  -35.4720  -23.7800    4.1980 C   0  0  0  0  0
  -35.7740  -23.4710    5.6600 C   0  0  0  0  0
  -35.0070  -24.4490    6.5880 N   0  0  0  0  0
  -34.1340  -24.0150    7.4740 C   0  0  0  0  0
  -33.8100  -22.8080    7.6150 O   0  0  0  0  0
  -33.5180  -24.9700    8.3120 N   0  0  0  0  0
  -33.7650  -26.3540    8.2630 C   0  0  0  0  0
  -32.9870  -27.1170    8.7770 O   0  0  0  0  0
  -35.0190  -26.8020    7.5330 C   0  0  0  0  0
  -36.2320  -26.6750    8.4650 C   0  0  0  0  0
  -34.8790  -28.1540    7.0810 O   0  0  0  0  0
  -35.2580  -25.9120    6.2760 C   0  0  0  0  0
  -36.8130  -24.7650    1.0340 P   0  0  0  0  0
  -37.5920  -25.9570    1.4400 O   0  0  0  0  0
  -37.1870  -24.0410   -0.2010 O   0  0  0  0  0
  -35.2810  -25.2380    0.9890 O   0  0  0  0  0
  -34.2670  -24.4960    0.3020 C   0  0  0  0  0
  -33.0860  -25.3850   -0.0450 C   0  0  0  0  0
  -32.1340  -25.5000    1.0480 O   0  0  0  0  0
  -32.0860  -26.8350    1.5830 C   0  0  0  0  0
  -32.8990  -26.6790    2.8520 N   0  0  0  0  0
  -32.4430  -25.8540    3.8590 C   0  0  0  0  0
  -31.3340  -25.2470    3.7810 O   0  0  0  0  0
  -33.2470  -25.6700    4.9600 N   0  0  0  0  0
  -34.4290  -26.2950    5.0260 C   0  0  0  0  0
  -34.9240  -27.1790    4.0360 C   0  0  0  0  0
  -36.2500  -27.9010    4.0680 C   0  0  0  0  0
  -34.1080  -27.3370    2.9440 C   0  0  0  0  0
  -32.7950  -27.7310    0.5600 C   0  0  0  0  0
  -33.4360  -26.8110   -0.4860 C   0  0  0  0  0
  -32.9420  -27.0840   -1.7950 O   0  0  0  0  0
  -39.1837  -26.6549    5.1161 H   0  0  0  0  0
  -39.5533  -24.4417    5.6481 H   0  0  0  0  0
  -39.6194  -24.7532    3.8866 H   0  0  0  0  0
  -38.3088  -22.8449    4.1493 H   0  0  0  0  0
  -36.8751  -25.3032    3.4453 H   0  0  0  0  0
  -35.0731  -22.9041    3.6864 H   0  0  0  0  0
  -34.7130  -24.5574    4.1102 H   0  0  0  0  0
  -35.4519  -22.4636    5.9235 H   0  0  0  0  0
  -32.8465  -24.6325    9.0016 H   0  0  0  0  0
  -36.0807  -27.3020    9.3437 H   0  0  0  0  0
  -36.3442  -25.6357    8.7737 H   0  0  0  0  0
  -37.1295  -26.9975    7.9372 H   0  0  0  0  0
  -35.6789  -28.4213    6.6224 H   0  0  0  0  0
  -36.3036  -26.0908    6.0255 H   0  0  0  0  0
  -37.2296  -26.3124    2.2548 H   0  0  0  0  0
  -33.9212  -23.6914    0.9510 H   0  0  0  0  0
  -34.6888  -24.0976   -0.6208 H   0  0  0  0  0
  -32.6531  -24.8629   -0.8983 H   0  0  0  0  0
  -31.1012  -27.2609    1.7750 H   0  0  0  0  0
  -36.8578  -27.5796    3.2222 H   0  0  0  0  0
  -36.0787  -28.9757    4.0064 H   0  0  0  0  0
  -36.7673  -27.6670    4.9985 H   0  0  0  0  0
  -34.4212  -27.9952    2.1336 H   0  0  0  0  0
  -33.5538  -28.3428    1.0479 H   0  0  0  0  0
  -32.0845  -28.4100    0.0885 H   0  0  0  0  0
  -34.5141  -26.9616   -0.5419 H   0  0  0  0  0
  -33.1757  -27.9814   -2.0433 H   0  0  0  0  0
  1  2  1  0  0  0
  2  3  1  0  0  0
  3  4  1  0  0  0
  3  5  1  0  0  0
  4  8  1  0  0  0
  5  6  1  0  0  0
  5  7  1  0  0  0
  6 19  1  0  0  0
  7  8  1  0  0  0
  8  9  1  0  0  0
  9 10  1  0  0  0
  9 18  1  0  0  0
 10 11  2  0  0  0
 10 12  1  0  0  0
 12 13  1  0  0  0
 13 14  2  0  0  0
 13 15  1  0  0  0
 15 16  1  0  0  0
 15 17  1  0  0  0
 15 18  1  0  0  0
 18 31  1  0  0  0
 19 20  1  0  0  0
 19 21  2  0  0  0
 19 22  1  0  0  0
 22 23  1  0  0  0
 23 24  1  0  0  0
 24 25  1  0  0  0
 24 36  1  0  0  0
 25 26  1  0  0  0
 26 27  1  0  0  0
 26 35  1  0  0  0
 27 28  1  0  0  0
 27 34  1  0  0  0
 28 29  2  0  0  0
 28 30  1  0  0  0
 30 31  2  0  0  0
 31 32  1  0  0  0
 32 33  1  0  0  0
 32 34  2  0  0  0
 35 36  1  0  0  0
 36 37  1  0  0  0
  1 38  1  0  0  0
  2 39  1  0  0  0
  2 40  1  0  0  0
  3 41  1  0  0  0
  5 42  1  0  0  0
  7 43  1  0  0  0
  7 44  1  0  0  0
  8 45  1  0  0  0
 12 46  1  0  0  0
 16 47  1  0  0  0
 16 48  1  0  0  0
 16 49  1  0  0  0
 17 50  1  0  0  0
 18 51  1  0  0  0
 20 52  1  0  0  0
 23 53  1  0  0  0
 23 54  1  0  0  0
 24 55  1  0  0  0
 26 56  1  0  0  0
 33 57  1  0  0  0
 33 58  1  0  0  0
 33 59  1  0  0  0
 34 60  1  0  0  0
 35 61  1  0  0  0
 35 62  1  0  0  0
 36 63  1  0  0  0
 37 64  1  0  0  0
M  END
$$$$
