1bdl_ligand
  -I-interpret- 

 80 82  0  0  0  0  0  0  0  0999 V2000
  -13.6500   15.0960   42.0230 C   0  0  0  0  0
  -13.0110   16.2490   42.7830 C   0  0  0  0  0
  -14.5580   14.3960   43.0250 C   0  0  0  0  0
  -14.5160   15.6670   40.9040 C   0  0  0  0  0
  -12.6090   14.2160   41.6550 O   0  0  0  0  0
  -12.3090   13.6110   40.4230 C   0  0  0  0  0
  -11.1620   13.7590   39.9980 O   0  0  0  0  0
  -13.1870   12.9030   39.7080 N   0  0  0  0  0
  -12.8170   12.2760   38.4290 C   0  0  0  0  0
  -13.9030   11.2450   38.0990 C   0  0  0  0  0
  -13.4030    9.8120   38.2280 C   0  0  0  0  0
  -14.0170    8.8020   37.4810 C   0  0  0  0  0
  -13.5710    7.4880   37.6000 C   0  0  0  0  0
  -12.5130    7.1850   38.4560 C   0  0  0  0  0
  -11.9010    8.1870   39.2070 C   0  0  0  0  0
  -12.3420    9.5010   39.0930 C   0  0  0  0  0
  -12.4860   13.1280   37.1410 C   0  0  0  0  0
  -11.2820   12.5710   36.5960 O   0  0  0  0  0
  -13.5780   13.1830   36.0370 C   0  0  0  0  0
  -13.1420   13.2530   34.5700 C   0  0  0  0  0
  -14.4070   13.0000   33.7130 C   0  0  0  0  0
  -14.2220   13.1810   32.2030 C   0  0  0  0  0
  -14.8930   14.2080   31.5350 C   0  0  0  0  0
  -14.7020   14.3900   30.1680 C   0  0  0  0  0
  -13.8480   13.5420   29.4700 C   0  0  0  0  0
  -13.1750   12.5190   30.1290 C   0  0  0  0  0
  -13.3650   12.3340   31.4920 C   0  0  0  0  0
  -12.4650   14.5780   34.2000 C   0  0  0  0  0
  -12.8250   15.6470   34.7020 O   0  0  0  0  0
  -11.4980   14.5200   33.2920 N   0  0  0  0  0
  -10.7480   15.6810   32.7980 C   0  0  0  0  0
   -9.3160   15.7850   33.4010 C   0  0  0  0  0
   -9.3890   15.8910   34.9160 C   0  0  0  0  0
  -10.6210   15.4560   31.2890 C   0  0  0  0  0
   -9.7840   14.5510   30.8120 N   0  0  0  0  0
   -9.9720   14.5780   29.4460 C   0  0  0  0  0
  -10.9460   15.5330   29.1670 C   0  0  0  0  0
  -11.3380   16.0690   30.3710 N   0  0  0  0  0
   -8.6165   17.0357   32.8370 C   0  0  0  0  0
  -12.5024   15.8627   43.6663 H   0  0  0  0  0
  -12.2905   16.7524   42.1384 H   0  0  0  0  0
  -13.7840   16.9549   43.0868 H   0  0  0  0  0
  -14.9773   13.4993   42.5688 H   0  0  0  0  0
  -13.9795   14.1201   43.9067 H   0  0  0  0  0
  -15.3649   15.0693   43.3143 H   0  0  0  0  0
  -13.8895   16.2321   40.2139 H   0  0  0  0  0
  -15.0022   14.8506   40.3700 H   0  0  0  0  0
  -15.2727   16.3248   41.3316 H   0  0  0  0  0
  -14.1390   12.7939   40.0575 H   0  0  0  0  0
  -11.8216   11.8870   38.6435 H   0  0  0  0  0
  -14.2136   11.4017   37.0660 H   0  0  0  0  0
  -14.7222   11.3808   38.8051 H   0  0  0  0  0
  -14.8408    9.0419   36.8087 H   0  0  0  0  0
  -14.0493    6.6961   37.0236 H   0  0  0  0  0
  -12.1617    6.1565   38.5385 H   0  0  0  0  0
  -11.0801    7.9418   39.8809 H   0  0  0  0  0
  -11.8641   10.2890   39.6750 H   0  0  0  0  0
  -12.4012   14.1665   37.4610 H   0  0  0  0  0
  -11.0354   13.0565   35.8054 H   0  0  0  0  0
  -14.1146   14.1146   36.2168 H   0  0  0  0  0
  -14.1177   12.2402   36.1265 H   0  0  0  0  0
  -12.3801   12.4965   34.3819 H   0  0  0  0  0
  -15.1486   13.7347   34.0268 H   0  0  0  0  0
  -14.6874   11.9585   33.8704 H   0  0  0  0  0
  -15.5660   14.8667   32.0839 H   0  0  0  0  0
  -15.2201   15.1946   29.6461 H   0  0  0  0  0
  -13.7053   13.6806   28.3983 H   0  0  0  0  0
  -12.5004   11.8643   29.5773 H   0  0  0  0  0
  -12.8454   11.5273   32.0090 H   0  0  0  0  0
  -11.2596   13.6044   32.9110 H   0  0  0  0  0
  -11.2662   16.5994   33.0741 H   0  0  0  0  0
   -8.7527   14.8907   33.1344 H   0  0  0  0  0
   -9.9569   16.7802   35.1898 H   0  0  0  0  0
   -9.8819   15.0056   35.3176 H   0  0  0  0  0
   -8.3804   15.9630   35.3229 H   0  0  0  0  0
   -9.4504   13.9610   28.7144 H   0  0  0  0  0
  -11.3255   15.8041   28.1818 H   0  0  0  0  0
   -8.5515   16.9558   31.7519 H   0  0  0  0  0
   -9.1909   17.9229   33.1035 H   0  0  0  0  0
   -7.6138   17.1105   33.2578 H   0  0  0  0  0
  1  2  1  0  0  0
  1  3  1  0  0  0
  1  4  1  0  0  0
  1  5  1  0  0  0
  5  6  1  0  0  0
  6  7  2  0  0  0
  6  8  1  0  0  0
  8  9  1  0  0  0
  9 10  1  0  0  0
  9 17  1  0  0  0
 10 11  1  0  0  0
 11 12  4  0  0  0
 11 16  4  0  0  0
 12 13  4  0  0  0
 13 14  4  0  0  0
 14 15  4  0  0  0
 15 16  4  0  0  0
 17 18  1  0  0  0
 17 19  1  0  0  0
 19 20  1  0  0  0
 20 21  1  0  0  0
 20 28  1  0  0  0
 21 22  1  0  0  0
 22 23  4  0  0  0
 22 27  4  0  0  0
 23 24  4  0  0  0
 24 25  4  0  0  0
 25 26  4  0  0  0
 26 27  4  0  0  0
 28 29  2  0  0  0
 28 30  1  0  0  0
 30 31  1  0  0  0
 31 32  1  0  0  0
 31 34  1  0  0  0
 32 33  1  0  0  0
 34 35  4  0  0  0
 34 38  4  0  0  0
 35 36  4  0  0  0
 36 37  4  0  0  0
 37 38  4  0  0  0
 32 39  1  0  0  0
  2 40  1  0  0  0
  2 41  1  0  0  0
  2 42  1  0  0  0
  3 43  1  0  0  0
  3 44  1  0  0  0
  3 45  1  0  0  0
  4 46  1  0  0  0
  4 47  1  0  0  0
  4 48  1  0  0  0
  8 49  1  0  0  0
  9 50  1  0  0  0
 10 51  1  0  0  0
 10 52  1  0  0  0
 12 53  1  0  0  0
 13 54  1  0  0  0
 14 55  1  0  0  0
 15 56  1  0  0  0
 16 57  1  0  0  0
 17 58  1  0  0  0
 18 59  1  0  0  0
 19 60  1  0  0  0
 19 61  1  0  0  0
 20 62  1  0  0  0
 21 63  1  0  0  0
 21 64  1  0  0  0
 23 65  1  0  0  0
 24 66  1  0  0  0
 25 67  1  0  0  0
 26 68  1  0  0  0
 27 69  1  0  0  0
 30 70  1  0  0  0
 31 71  1  0  0  0
 32 72  1  0  0  0
 33 73  1  0  0  0
 33 74  1  0  0  0
 33 75  1  0  0  0
 36 76  1  0  0  0
 37 77  1  0  0  0
 39 78  1  0  0  0
 39 79  1  0  0  0
 39 80  1  0  0  0
M  END
$$$$
