### 
### Created by X-TOOL on Mon Sep 10 21:13:33 2018
### 

@<TRIPOS>MOLECULE
5jhd_ligand
  144   145     1     0     0
SMALL
GAST_HUCK


@<TRIPOS>ATOM
      1 N          60.8880   88.8430  -19.9060 N.4       1 GLY         0.2357
      2 CA         60.3350   87.5100  -20.2920 C.3       1 GLY         0.0545
      3 C          61.3940   86.4270  -20.2860 C.2       1 GLY         0.2236
      4 O          62.5330   86.6600  -20.6960 O.2       1 GLY        -0.3910
      5 N          61.0150   85.2330  -19.8320 N.am      1 ILE        -0.2610
      6 CA         61.9680   84.1460  -19.6400 C.3       1 ILE         0.1336
      7 C          62.1230   83.3330  -20.9180 C.2       1 ILE         0.2042
      8 O          61.3980   83.5430  -21.8980 O.2       1 ILE        -0.3944
      9 CB         61.5480   83.2450  -18.4620 C.3       1 ILE        -0.0037
     10 CG1        60.2140   82.5580  -18.7530 C.3       1 ILE        -0.0491
     11 CG2        61.4700   84.0680  -17.1760 C.3       1 ILE        -0.0582
     12 CD1        59.7980   81.5670  -17.6980 C.3       1 ILE        -0.0648
     13 N          63.0820   82.4080  -20.9090 N.am      1 LEU        -0.2637
     14 CA         63.3180   81.5350  -22.0520 C.3       1 LEU         0.1312
     15 C          62.0900   80.6870  -22.3550 C.2       1 LEU         0.2037
     16 O          61.3820   80.2390  -21.4500 O.2       1 LEU        -0.3944
     17 CB         64.5070   80.6150  -21.7710 C.3       1 LEU        -0.0101
     18 CG         65.8960   81.0580  -22.2270 C.3       1 LEU        -0.0425
     19 CD1        66.9590   80.2290  -21.5140 C.3       1 LEU        -0.0625
     20 CD2        66.0300   80.9100  -23.7330 C.3       1 LEU        -0.0625
     21 N          61.8590   80.4390  -23.6400 N.am      1 GLY        -0.2664
     22 CA         60.8420   79.4890  -24.0440 C.3       1 GLY         0.1201
     23 C          61.4500   78.1540  -24.4290 C.2       1 GLY         0.2009
     24 O          60.7350   77.1770  -24.6600 O.2       1 GLY        -0.3947
     25 N          62.7790   78.1030  -24.4840 N.am      1 PHE        -0.2622
     26 CA         63.5190   76.9050  -24.8550 C.3       1 PHE         0.1404
     27 C          63.9440   76.1870  -23.5800 C.2       1 PHE         0.2060
     28 O          64.7020   76.7440  -22.7800 O.2       1 PHE        -0.3942
     29 CB         64.7400   77.2850  -25.6950 C.3       1 PHE         0.0214
     30 CG         65.6520   76.1330  -26.0260 C.ar      1 PHE        -0.0386
     31 CD1        65.1560   74.8510  -26.1840 C.ar      1 PHE        -0.0601
     32 CD2        67.0130   76.3410  -26.1820 C.ar      1 PHE        -0.0601
     33 CE1        66.0020   73.8020  -26.4940 C.ar      1 PHE        -0.0686
     34 CE2        67.8590   75.2960  -26.4870 C.ar      1 PHE        -0.0686
     35 CZ         67.3520   74.0260  -26.6400 C.ar      1 PHE        -0.0687
     36 N          63.4710   74.9560  -23.3950 N.am      1 VAL        -0.2633
     37 CA         63.8210   74.1520  -22.2280 C.3       1 VAL         0.1333
     38 C          64.6380   72.9490  -22.6760 C.2       1 VAL         0.2043
     39 O          64.3390   72.3180  -23.6970 O.2       1 VAL        -0.3944
     40 CB         62.5760   73.7070  -21.4360 C.3       1 VAL        -0.0063
     41 CG1        61.8520   74.9240  -20.8680 C.3       1 VAL        -0.0584
     42 CG2        61.6510   72.8810  -22.3080 C.3       1 VAL        -0.0584
     43 N          65.6860   72.6510  -21.9110 N.am      1 PHE        -0.2619
     44 CA         66.5920   71.5480  -22.1860 C.3       1 PHE         0.1404
     45 C          67.1330   71.0370  -20.8560 C.2       1 PHE         0.2060
     46 O          67.1740   71.7690  -19.8670 O.2       1 PHE        -0.3942
     47 CB         67.7230   71.9910  -23.1170 C.3       1 PHE         0.0214
     48 CG         68.2810   73.3450  -22.7800 C.ar      1 PHE        -0.0386
     49 CD1        67.6770   74.4960  -23.2580 C.ar      1 PHE        -0.0601
     50 CD2        69.3950   73.4680  -21.9730 C.ar      1 PHE        -0.0601
     51 CE1        68.1840   75.7400  -22.9480 C.ar      1 PHE        -0.0686
     52 CE2        69.9040   74.7110  -21.6600 C.ar      1 PHE        -0.0686
     53 CZ         69.2960   75.8470  -22.1490 C.ar      1 PHE        -0.0687
     54 N          67.5480   69.7700  -20.8380 N.am      1 THR        -0.2612
     55 CA         67.9280   69.0900  -19.6080 C.3       1 THR         0.1564
     56 C          69.4400   68.9110  -19.5250 C.2       1 THR         0.2059
     57 O          70.1300   68.8280  -20.5460 O.2       1 THR        -0.3943
     58 CB         67.2470   67.7160  -19.4980 C.3       1 THR         0.0924
     59 OG1        67.6700   66.8700  -20.5760 O.3       1 THR        -0.3874
     60 CG2        65.7360   67.8590  -19.5380 C.3       1 THR        -0.0346
     61 N          69.9400   68.8430  -18.2880 N.am      1 LEU        -0.2694
     62 CA         71.3470   68.5620  -18.0130 C.3       1 LEU         0.0946
     63 C          71.6850   67.1270  -18.3950 C.2       1 LEU         0.0601
     64 O          70.7850   66.2960  -18.5630 O.co2     1 LEU        -0.5666
     65 CB         71.6780   68.7630  -16.5290 C.3       1 LEU        -0.0156
     66 CG         71.3620   70.0840  -15.8280 C.3       1 LEU        -0.0431
     67 CD1        71.6940   69.9700  -14.3680 C.3       1 LEU        -0.0625
     68 CD2        72.1300   71.2200  -16.4390 C.3       1 LEU        -0.0625
     69 OXT        72.8610   66.7620  -18.4990 O.co2     1 LEU        -0.5666
     70 H1         60.1509   89.5304  -19.9236 H         1 GLY         0.2012
     71 H2         61.6104   89.1084  -20.5569 H         1 GLY         0.2012
     72 H3         61.2757   88.7898  -18.9771 H         1 GLY         0.2012
     73 H4         59.9088   87.5828  -21.3034 H         1 GLY         0.1061
     74 H5         59.5434   87.2351  -19.5794 H         1 GLY         0.1061
     75 H6         60.0507   85.0781  -19.6171 H         1 ILE         0.1884
     76 H7         62.9452   84.5889  -19.3973 H         1 ILE         0.0803
     77 H8         62.3140   82.4667  -18.3296 H         1 ILE         0.0345
     78 H9         60.2992   82.0275  -19.7128 H         1 ILE         0.0267
     79 H10        59.4351   83.3310  -18.8291 H         1 ILE         0.0267
     80 H11        62.4408   84.5507  -16.9902 H         1 ILE         0.0235
     81 H12        61.2216   83.4073  -16.3323 H         1 ILE         0.0235
     82 H13        60.6915   84.8382  -17.2802 H         1 ILE         0.0235
     83 H14        58.8338   81.1172  -17.9773 H         1 ILE         0.0230
     84 H15        59.6961   82.0817  -16.7312 H         1 ILE         0.0230
     85 H16        60.5602   80.7782  -17.6149 H         1 ILE         0.0230
     86 H17        63.6556   82.3101  -20.0957 H         1 LEU         0.1883
     87 H18        63.5454   82.1576  -22.9299 H         1 LEU         0.0800
     88 H19        64.2960   79.6531  -22.2610 H         1 LEU         0.0315
     89 H20        64.5542   80.4691  -20.6818 H         1 LEU         0.0315
     90 H21        66.0356   82.1167  -21.9632 H         1 LEU         0.0298
     91 H22        67.9576   80.5506  -21.8447 H         1 LEU         0.0232
     92 H23        66.8177   79.1653  -21.7558 H         1 LEU         0.0232
     93 H24        66.8686   80.3732  -20.4273 H         1 LEU         0.0232
     94 H25        65.2568   81.5135  -24.2309 H         1 LEU         0.0232
     95 H26        65.9049   79.8529  -24.0101 H         1 LEU         0.0232
     96 H27        67.0252   81.2565  -24.0484 H         1 LEU         0.0232
     97 H28        62.3945   80.9146  -24.3379 H         1 GLY         0.1881
     98 H29        60.2961   79.8956  -24.9081 H         1 GLY         0.0763
     99 H30        60.1436   79.3359  -23.2081 H         1 GLY         0.0763
    100 H31        63.2954   78.9293  -24.2591 H         1 PHE         0.1885
    101 H32        62.8701   76.2421  -25.4462 H         1 PHE         0.0823
    102 H33        65.3211   78.0343  -25.1375 H         1 PHE         0.0474
    103 H34        64.3848   77.7244  -26.6388 H         1 PHE         0.0474
    104 H35        64.0945   74.6673  -26.0637 H         1 PHE         0.0557
    105 H36        67.4182   77.3393  -26.0626 H         1 PHE         0.0557
    106 H37        65.6017   72.8028  -26.6221 H         1 PHE         0.0599
    107 H38        68.9216   75.4745  -26.6060 H         1 PHE         0.0599
    108 H39        68.0158   73.2020  -26.8755 H         1 PHE         0.0559
    109 H40        62.8540   74.5685  -24.0800 H         1 VAL         0.1883
    110 H41        64.4434   74.7667  -21.5611 H         1 VAL         0.0802
    111 H42        62.9066   73.0788  -20.5957 H         1 VAL         0.0343
    112 H43        60.9662   74.5941  -20.3054 H         1 VAL         0.0234
    113 H44        61.5389   75.5820  -21.6920 H         1 VAL         0.0234
    114 H45        62.5288   75.4732  -20.1970 H         1 VAL         0.0234
    115 H46        62.1982   72.0123  -22.7030 H         1 VAL         0.0234
    116 H47        61.2882   73.4969  -23.1441 H         1 VAL         0.0234
    117 H48        60.7955   72.5343  -21.7097 H         1 VAL         0.0234
    118 H49        65.8592   73.2160  -21.1043 H         1 PHE         0.1885
    119 H50        66.0335   70.7387  -22.6790 H         1 PHE         0.0823
    120 H51        67.3356   72.0204  -24.1461 H         1 PHE         0.0474
    121 H52        68.5364   71.2533  -23.0523 H         1 PHE         0.0474
    122 H53        66.7950   74.4178  -23.8834 H         1 PHE         0.0557
    123 H54        69.8744   72.5781  -21.5814 H         1 PHE         0.0557
    124 H55        67.7055   76.6327  -23.3344 H         1 PHE         0.0599
    125 H56        70.7819   74.7944  -21.0296 H         1 PHE         0.0599
    126 H57        69.6952   76.8244  -21.9032 H         1 PHE         0.0559
    127 H58        67.6002   69.2682  -21.7014 H         1 THR         0.1884
    128 H59        67.6024   69.7096  -18.7595 H         1 THR         0.0826
    129 H60        67.5363   67.2531  -18.5430 H         1 THR         0.0639
    130 H61        67.4328   67.2712  -21.4038 H         1 THR         0.2101
    131 H62        65.2714   66.8651  -19.4579 H         1 THR         0.0257
    132 H63        65.4371   68.3281  -20.4870 H         1 THR         0.0257
    133 H64        65.4048   68.4873  -18.6981 H         1 THR         0.0257
    134 H65        69.3230   68.9912  -17.5151 H         1 LEU         0.1875
    135 H66        71.9640   69.2484  -18.6114 H         1 LEU         0.0726
    136 H67        72.7615   68.6043  -16.4251 H         1 LEU         0.0308
    137 H68        71.1380   67.9788  -15.9782 H         1 LEU         0.0308
    138 H69        70.2868   70.2904  -15.9342 H         1 LEU         0.0297
    139 H70        71.4661   70.9213  -13.8648 H         1 LEU         0.0232
    140 H71        72.7636   69.7409  -14.2520 H         1 LEU         0.0232
    141 H72        71.0955   69.1644  -13.9176 H         1 LEU         0.0232
    142 H73        71.8819   71.2974  -17.5079 H         1 LEU         0.0232
    143 H74        73.2086   71.0365  -16.3254 H         1 LEU         0.0232
    144 H75        71.8622   72.1585  -15.9316 H         1 LEU         0.0232
@<TRIPOS>BOND
     1    1    2 1  
     2    2    3 1  
     3    3    4 2  
     4    3    5 am 
     5    5    6 1  
     6    6    7 1  
     7    6    9 1  
     8    7    8 2  
     9    7   13 am 
    10    9   10 1  
    11    9   11 1  
    12   10   12 1  
    13   13   14 1  
    14   14   15 1  
    15   14   17 1  
    16   15   16 2  
    17   15   21 am 
    18   17   18 1  
    19   18   19 1  
    20   18   20 1  
    21   21   22 1  
    22   22   23 1  
    23   23   24 2  
    24   23   25 am 
    25   25   26 1  
    26   26   27 1  
    27   26   29 1  
    28   27   28 2  
    29   27   36 am 
    30   29   30 1  
    31   30   31 ar 
    32   30   32 ar 
    33   31   33 ar 
    34   32   34 ar 
    35   33   35 ar 
    36   34   35 ar 
    37   36   37 1  
    38   37   38 1  
    39   37   40 1  
    40   38   39 2  
    41   38   43 am 
    42   40   41 1  
    43   40   42 1  
    44   43   44 1  
    45   44   45 1  
    46   44   47 1  
    47   45   46 2  
    48   45   54 am 
    49   47   48 1  
    50   48   49 ar 
    51   48   50 ar 
    52   49   51 ar 
    53   50   52 ar 
    54   51   53 ar 
    55   52   53 ar 
    56   54   55 1  
    57   55   56 1  
    58   55   58 1  
    59   56   57 2  
    60   56   61 am 
    61   58   59 1  
    62   58   60 1  
    63   61   62 1  
    64   62   63 1  
    65   62   65 1  
    66   63   64 ar 
    67   63   69 ar 
    68   65   66 1  
    69   66   67 1  
    70   66   68 1  
    71    1   70 1  
    72    1   71 1  
    73    1   72 1  
    74    2   73 1  
    75    2   74 1  
    76    5   75 1  
    77    6   76 1  
    78    9   77 1  
    79   10   78 1  
    80   10   79 1  
    81   11   80 1  
    82   11   81 1  
    83   11   82 1  
    84   12   83 1  
    85   12   84 1  
    86   12   85 1  
    87   13   86 1  
    88   14   87 1  
    89   17   88 1  
    90   17   89 1  
    91   18   90 1  
    92   19   91 1  
    93   19   92 1  
    94   19   93 1  
    95   20   94 1  
    96   20   95 1  
    97   20   96 1  
    98   21   97 1  
    99   22   98 1  
   100   22   99 1  
   101   25  100 1  
   102   26  101 1  
   103   29  102 1  
   104   29  103 1  
   105   31  104 1  
   106   32  105 1  
   107   33  106 1  
   108   34  107 1  
   109   35  108 1  
   110   36  109 1  
   111   37  110 1  
   112   40  111 1  
   113   41  112 1  
   114   41  113 1  
   115   41  114 1  
   116   42  115 1  
   117   42  116 1  
   118   42  117 1  
   119   43  118 1  
   120   44  119 1  
   121   47  120 1  
   122   47  121 1  
   123   49  122 1  
   124   50  123 1  
   125   51  124 1  
   126   52  125 1  
   127   53  126 1  
   128   54  127 1  
   129   55  128 1  
   130   58  129 1  
   131   59  130 1  
   132   60  131 1  
   133   60  132 1  
   134   60  133 1  
   135   61  134 1  
   136   62  135 1  
   137   65  136 1  
   138   65  137 1  
   139   66  138 1  
   140   67  139 1  
   141   67  140 1  
   142   67  141 1  
   143   68  142 1  
   144   68  143 1  
   145   68  144 1  
@<TRIPOS>SUBSTRUCTURE
     1 GLY         1

