5jhd_ligand
  -I-interpret- 

145146  0  0  0  0  0  0  0  0999 V2000
   60.8880   88.8430  -19.9060 N   0  3  0  0  0
   60.3350   87.5100  -20.2920 C   0  0  0  0  0
   61.3940   86.4270  -20.2860 C   0  0  0  0  0
   62.5330   86.6600  -20.6960 O   0  0  0  0  0
   61.0150   85.2330  -19.8320 N   0  0  0  0  0
   61.9680   84.1460  -19.6400 C   0  0  0  0  0
   62.1230   83.3330  -20.9180 C   0  0  0  0  0
   61.3980   83.5430  -21.8980 O   0  0  0  0  0
   61.5480   83.2450  -18.4620 C   0  0  0  0  0
   60.2140   82.5580  -18.7530 C   0  0  0  0  0
   61.4700   84.0680  -17.1760 C   0  0  0  0  0
   59.7980   81.5670  -17.6980 C   0  0  0  0  0
   63.0820   82.4080  -20.9090 N   0  0  0  0  0
   63.3180   81.5350  -22.0520 C   0  0  0  0  0
   62.0900   80.6870  -22.3550 C   0  0  0  0  0
   61.3820   80.2390  -21.4500 O   0  0  0  0  0
   64.5070   80.6150  -21.7710 C   0  0  0  0  0
   65.8960   81.0580  -22.2270 C   0  0  0  0  0
   66.9590   80.2290  -21.5140 C   0  0  0  0  0
   66.0300   80.9100  -23.7330 C   0  0  0  0  0
   61.8590   80.4390  -23.6400 N   0  0  0  0  0
   60.8420   79.4890  -24.0440 C   0  0  0  0  0
   61.4500   78.1540  -24.4290 C   0  0  0  0  0
   60.7350   77.1770  -24.6600 O   0  0  0  0  0
   62.7790   78.1030  -24.4840 N   0  0  0  0  0
   63.5190   76.9050  -24.8550 C   0  0  0  0  0
   63.9440   76.1870  -23.5800 C   0  0  0  0  0
   64.7020   76.7440  -22.7800 O   0  0  0  0  0
   64.7400   77.2850  -25.6950 C   0  0  0  0  0
   65.6520   76.1330  -26.0260 C   0  0  0  0  0
   65.1560   74.8510  -26.1840 C   0  0  0  0  0
   67.0130   76.3410  -26.1820 C   0  0  0  0  0
   66.0020   73.8020  -26.4940 C   0  0  0  0  0
   67.8590   75.2960  -26.4870 C   0  0  0  0  0
   67.3520   74.0260  -26.6400 C   0  0  0  0  0
   63.4710   74.9560  -23.3950 N   0  0  0  0  0
   63.8210   74.1520  -22.2280 C   0  0  0  0  0
   64.6380   72.9490  -22.6760 C   0  0  0  0  0
   64.3390   72.3180  -23.6970 O   0  0  0  0  0
   62.5760   73.7070  -21.4360 C   0  0  0  0  0
   61.8520   74.9240  -20.8680 C   0  0  0  0  0
   61.6510   72.8810  -22.3080 C   0  0  0  0  0
   65.6860   72.6510  -21.9110 N   0  0  0  0  0
   66.5920   71.5480  -22.1860 C   0  0  0  0  0
   67.1330   71.0370  -20.8560 C   0  0  0  0  0
   67.1740   71.7690  -19.8670 O   0  0  0  0  0
   67.7230   71.9910  -23.1170 C   0  0  0  0  0
   68.2810   73.3450  -22.7800 C   0  0  0  0  0
   67.6770   74.4960  -23.2580 C   0  0  0  0  0
   69.3950   73.4680  -21.9730 C   0  0  0  0  0
   68.1840   75.7400  -22.9480 C   0  0  0  0  0
   69.9040   74.7110  -21.6600 C   0  0  0  0  0
   69.2960   75.8470  -22.1490 C   0  0  0  0  0
   67.5480   69.7700  -20.8380 N   0  0  0  0  0
   67.9280   69.0900  -19.6080 C   0  0  0  0  0
   69.4400   68.9110  -19.5250 C   0  0  0  0  0
   70.1300   68.8280  -20.5460 O   0  0  0  0  0
   67.2470   67.7160  -19.4980 C   0  0  0  0  0
   67.6700   66.8700  -20.5760 O   0  0  0  0  0
   65.7360   67.8590  -19.5380 C   0  0  0  0  0
   69.9400   68.8430  -18.2880 N   0  0  0  0  0
   71.3470   68.5620  -18.0130 C   0  0  0  0  0
   71.6850   67.1270  -18.3950 C   0  0  0  0  0
   70.7850   66.2960  -18.5630 O   0  0  0  0  0
   71.6780   68.7630  -16.5290 C   0  0  0  0  0
   71.3620   70.0840  -15.8280 C   0  0  0  0  0
   71.6940   69.9700  -14.3680 C   0  0  0  0  0
   72.1300   71.2200  -16.4390 C   0  0  0  0  0
   72.8610   66.7620  -18.4990 O   0  0  0  0  0
   60.1414   89.5377  -19.9241 H   0  0  0  0  0
   61.2800   88.7879  -18.9659 H   0  0  0  0  0
   61.6189   89.1104  -20.5653 H   0  0  0  0  0
   59.9362   87.5885  -21.3034 H   0  0  0  0  0
   59.5682   87.2382  -19.5666 H   0  0  0  0  0
   60.0315   85.0750  -19.6128 H   0  0  0  0  0
   62.9360   84.5842  -19.3971 H   0  0  0  0  0
   62.3003   82.4672  -18.3310 H   0  0  0  0  0
   60.3281   82.0091  -19.6877 H   0  0  0  0  0
   59.4497   83.3342  -18.7893 H   0  0  0  0  0
   60.6983   84.8307  -17.2805 H   0  0  0  0  0
   61.2238   83.4122  -16.3409 H   0  0  0  0  0
   62.4325   84.5458  -16.9930 H   0  0  0  0  0
   60.5540   80.7860  -17.6167 H   0  0  0  0  0
   59.6974   82.0782  -16.7406 H   0  0  0  0  0
   58.8425   81.1220  -17.9759 H   0  0  0  0  0
   63.6670   82.3081  -20.0794 H   0  0  0  0  0
   63.5325   82.1637  -22.9162 H   0  0  0  0  0
   64.3005   79.7035  -22.3319 H   0  0  0  0  0
   64.5698   80.5547  -20.6845 H   0  0  0  0  0
   66.0360   82.1087  -21.9728 H   0  0  0  0  0
   66.8683   80.3727  -20.4373 H   0  0  0  0  0
   66.8178   79.1752  -21.7544 H   0  0  0  0  0
   67.9480   80.5486  -21.8425 H   0  0  0  0  0
   65.8808   79.8661  -24.0089 H   0  0  0  0  0
   65.2796   81.5282  -24.2257 H   0  0  0  0  0
   67.0254   81.2299  -24.0411 H   0  0  0  0  0
   62.4052   80.9241  -24.3519 H   0  0  0  0  0
   60.3175   79.8922  -24.9103 H   0  0  0  0  0
   60.1645   79.3307  -23.2049 H   0  0  0  0  0
   63.3057   78.9458  -24.2546 H   0  0  0  0  0
   62.8920   76.2437  -25.4530 H   0  0  0  0  0
   65.3227   77.9953  -25.1085 H   0  0  0  0  0
   64.3672   77.6791  -26.6404 H   0  0  0  0  0
   64.0886   74.6662  -26.0630 H   0  0  0  0  0
   67.4205   77.3448  -26.0619 H   0  0  0  0  0
   65.5994   72.7973  -26.6228 H   0  0  0  0  0
   68.9274   75.4755  -26.6067 H   0  0  0  0  0
   68.0195   73.1975  -26.8768 H   0  0  0  0  0
   62.8417   74.5608  -24.0937 H   0  0  0  0  0
   64.4155   74.7673  -21.5527 H   0  0  0  0  0
   62.8970   73.0791  -20.6049 H   0  0  0  0  0
   62.5237   75.4673  -20.2034 H   0  0  0  0  0
   61.5424   75.5752  -21.6854 H   0  0  0  0  0
   60.9745   74.5958  -20.3108 H   0  0  0  0  0
   61.3305   73.4773  -23.1623 H   0  0  0  0  0
   62.1800   71.9952  -22.6596 H   0  0  0  0  0
   60.7798   72.5787  -21.7269 H   0  0  0  0  0
   65.8626   73.2273  -21.0881 H   0  0  0  0  0
   66.0615   70.7446  -22.6971 H   0  0  0  0  0
   67.3140   72.0470  -24.1258 H   0  0  0  0  0
   68.5328   71.2684  -23.0157 H   0  0  0  0  0
   66.7902   74.4174  -23.8868 H   0  0  0  0  0
   69.8771   72.5732  -21.5793 H   0  0  0  0  0
   67.7029   76.6376  -23.3366 H   0  0  0  0  0
   70.7868   74.7949  -21.0261 H   0  0  0  0  0
   69.6974   76.8298  -21.9018 H   0  0  0  0  0
   67.6012   69.2581  -21.7187 H   0  0  0  0  0
   67.5967   69.7166  -18.7800 H   0  0  0  0  0
   67.5353   67.2701  -18.5461 H   0  0  0  0  0
   67.2397   66.0154  -20.4984 H   0  0  0  0  0
   65.4091   68.4818  -18.7053 H   0  0  0  0  0
   65.4411   68.3239  -20.4787 H   0  0  0  0  0
   65.2768   66.8736  -19.4586 H   0  0  0  0  0
   69.3107   68.9942  -17.4996 H   0  0  0  0  0
   71.9382   69.2584  -18.6077 H   0  0  0  0  0
   69.9322   66.7226  -18.4515 H   0  0  0  0  0
   72.7650   68.6935  -16.4874 H   0  0  0  0  0
   71.0516   68.0334  -16.0158 H   0  0  0  0  0
   70.2988   70.2916  -15.9487 H   0  0  0  0  0
   71.1003   69.1715  -13.9230 H   0  0  0  0  0
   72.7540   69.7429  -14.2544 H   0  0  0  0  0
   71.4678   70.9131  -13.8705 H   0  0  0  0  0
   73.1985   71.0246  -16.3487 H   0  0  0  0  0
   71.8639   71.3120  -17.4920 H   0  0  0  0  0
   71.8833   72.1453  -15.9184 H   0  0  0  0  0
  1  2  1  0  0  0
  2  3  1  0  0  0
  3  4  2  0  0  0
  3  5  1  0  0  0
  5  6  1  0  0  0
  6  7  1  0  0  0
  6  9  1  0  0  0
  7  8  2  0  0  0
  7 13  1  0  0  0
  9 10  1  0  0  0
  9 11  1  0  0  0
 10 12  1  0  0  0
 13 14  1  0  0  0
 14 15  1  0  0  0
 14 17  1  0  0  0
 15 16  2  0  0  0
 15 21  1  0  0  0
 17 18  1  0  0  0
 18 19  1  0  0  0
 18 20  1  0  0  0
 21 22  1  0  0  0
 22 23  1  0  0  0
 23 24  2  0  0  0
 23 25  1  0  0  0
 25 26  1  0  0  0
 26 27  1  0  0  0
 26 29  1  0  0  0
 27 28  2  0  0  0
 27 36  1  0  0  0
 29 30  1  0  0  0
 30 31  4  0  0  0
 30 32  4  0  0  0
 31 33  4  0  0  0
 32 34  4  0  0  0
 33 35  4  0  0  0
 34 35  4  0  0  0
 36 37  1  0  0  0
 37 38  1  0  0  0
 37 40  1  0  0  0
 38 39  2  0  0  0
 38 43  1  0  0  0
 40 41  1  0  0  0
 40 42  1  0  0  0
 43 44  1  0  0  0
 44 45  1  0  0  0
 44 47  1  0  0  0
 45 46  2  0  0  0
 45 54  1  0  0  0
 47 48  1  0  0  0
 48 49  4  0  0  0
 48 50  4  0  0  0
 49 51  4  0  0  0
 50 52  4  0  0  0
 51 53  4  0  0  0
 52 53  4  0  0  0
 54 55  1  0  0  0
 55 56  1  0  0  0
 55 58  1  0  0  0
 56 57  2  0  0  0
 56 61  1  0  0  0
 58 59  1  0  0  0
 58 60  1  0  0  0
 61 62  1  0  0  0
 62 63  1  0  0  0
 62 65  1  0  0  0
 63 64  1  0  0  0
 63 69  2  0  0  0
 65 66  1  0  0  0
 66 67  1  0  0  0
 66 68  1  0  0  0
  1 70  1  0  0  0
  1 71  1  0  0  0
  1 72  1  0  0  0
  2 73  1  0  0  0
  2 74  1  0  0  0
  5 75  1  0  0  0
  6 76  1  0  0  0
  9 77  1  0  0  0
 10 78  1  0  0  0
 10 79  1  0  0  0
 11 80  1  0  0  0
 11 81  1  0  0  0
 11 82  1  0  0  0
 12 83  1  0  0  0
 12 84  1  0  0  0
 12 85  1  0  0  0
 13 86  1  0  0  0
 14 87  1  0  0  0
 17 88  1  0  0  0
 17 89  1  0  0  0
 18 90  1  0  0  0
 19 91  1  0  0  0
 19 92  1  0  0  0
 19 93  1  0  0  0
 20 94  1  0  0  0
 20 95  1  0  0  0
 20 96  1  0  0  0
 21 97  1  0  0  0
 22 98  1  0  0  0
 22 99  1  0  0  0
 25100  1  0  0  0
 26101  1  0  0  0
 29102  1  0  0  0
 29103  1  0  0  0
 31104  1  0  0  0
 32105  1  0  0  0
 33106  1  0  0  0
 34107  1  0  0  0
 35108  1  0  0  0
 36109  1  0  0  0
 37110  1  0  0  0
 40111  1  0  0  0
 41112  1  0  0  0
 41113  1  0  0  0
 41114  1  0  0  0
 42115  1  0  0  0
 42116  1  0  0  0
 42117  1  0  0  0
 43118  1  0  0  0
 44119  1  0  0  0
 47120  1  0  0  0
 47121  1  0  0  0
 49122  1  0  0  0
 50123  1  0  0  0
 51124  1  0  0  0
 52125  1  0  0  0
 53126  1  0  0  0
 54127  1  0  0  0
 55128  1  0  0  0
 58129  1  0  0  0
 59130  1  0  0  0
 60131  1  0  0  0
 60132  1  0  0  0
 60133  1  0  0  0
 61134  1  0  0  0
 62135  1  0  0  0
 64136  1  0  0  0
 65137  1  0  0  0
 65138  1  0  0  0
 66139  1  0  0  0
 67140  1  0  0  0
 67141  1  0  0  0
 67142  1  0  0  0
 68143  1  0  0  0
 68144  1  0  0  0
 68145  1  0  0  0
M  END
$$$$
