1qxw_ligand
  -I-interpret- 

 38 38  0  0  0  0  0  0  0  0999 V2000
    6.8160    3.3480   -6.8150 C   0  0  0  0  0
    7.6850    4.3000   -6.0070 C   0  0  0  0  0
    6.1690    4.4680   -6.0000 C   0  0  0  0  0
    3.4100    2.9550   -1.2110 N   0  3  0  0  0
    3.7630    3.5080   -2.5160 C   0  0  0  0  0
    5.0630    4.2870   -2.3390 C   0  0  0  0  0
    5.6040    4.8850   -3.6380 C   0  0  0  0  0
    5.6090    3.9610   -4.7540 N   0  3  0  0  0
    6.0480    3.4360   -1.7200 O   0  0  0  0  0
    4.8170    5.3880   -1.4750 O   0  0  0  0  0
    2.6310    4.3920   -3.0590 C   0  0  0  0  0
    1.3670    3.6040   -3.3820 C   0  0  0  0  0
    0.2930    4.4930   -4.0190 C   0  0  0  0  0
   -0.8560    3.6760   -4.5710 C   0  0  0  0  0
    6.7004    2.2746   -6.9650 H   0  0  0  0  0
    6.7703    2.9408   -7.8250 H   0  0  0  0  0
    8.5730    4.9153   -6.1516 H   0  0  0  0  0
    8.5029    4.2468   -5.2885 H   0  0  0  0  0
    5.4688    5.2752   -6.2152 H   0  0  0  0  0
    4.1755    2.3727   -0.8715 H   0  0  0  0  0
    3.2436    3.7171   -0.5538 H   0  0  0  0  0
    2.5652    2.3903   -1.2996 H   0  0  0  0  0
    3.9051    2.7154   -3.2506 H   0  0  0  0  0
    6.6382    5.1761   -3.4542 H   0  0  0  0  0
    4.9517    5.7154   -3.9083 H   0  0  0  0  0
    6.1973    3.1763   -4.4737 H   0  0  0  0  0
    4.6322    3.7403   -4.9477 H   0  0  0  0  0
    6.2259    2.6858   -2.2920 H   0  0  0  0  0
    4.1619    5.9657   -1.8733 H   0  0  0  0  0
    2.9817    4.8524   -3.9826 H   0  0  0  0  0
    2.3807    5.1226   -2.2898 H   0  0  0  0  0
    0.9691    3.1965   -2.4526 H   0  0  0  0  0
    1.6247    2.8158   -4.0894 H   0  0  0  0  0
    0.7479    5.0450   -4.8415 H   0  0  0  0  0
   -0.0984    5.1614   -3.2521 H   0  0  0  0  0
   -0.4809    2.9917   -5.3320 H   0  0  0  0  0
   -1.3161    3.1065   -3.7635 H   0  0  0  0  0
   -1.5952    4.3437   -5.0135 H   0  0  0  0  0
  2  1  1  0  0  0
  3  1  1  0  0  0
  3  2  1  0  0  0
  8  3  1  0  0  0
  5  4  1  0  0  0
  6  5  1  0  0  0
  5 11  1  0  0  0
  7  6  1  0  0  0
  6  9  1  0  0  0
  6 10  1  0  0  0
  7  8  1  0  0  0
 11 12  1  0  0  0
 12 13  1  0  0  0
 13 14  1  0  0  0
  1 15  1  0  0  0
  1 16  1  0  0  0
  2 17  1  0  0  0
  2 18  1  0  0  0
  3 19  1  0  0  0
  4 20  1  0  0  0
  4 21  1  0  0  0
  4 22  1  0  0  0
  5 23  1  0  0  0
  7 24  1  0  0  0
  7 25  1  0  0  0
  8 26  1  0  0  0
  8 27  1  0  0  0
  9 28  1  0  0  0
 10 29  1  0  0  0
 11 30  1  0  0  0
 11 31  1  0  0  0
 12 32  1  0  0  0
 12 33  1  0  0  0
 13 34  1  0  0  0
 13 35  1  0  0  0
 14 36  1  0  0  0
 14 37  1  0  0  0
 14 38  1  0  0  0
M  END
$$$$
