3qcs_ligand
  -I-interpret- 

 39 42  0  0  0  0  0  0  0  0999 V2000
  -40.8520   16.4420   12.8550 C   0  0  0  0  0
  -42.0130   17.1260   12.5620 C   0  0  0  0  0
  -43.1360   15.1680   11.7880 C   0  0  0  0  0
  -44.6080   18.5260   12.1850 C   0  0  0  0  0
  -40.8490   15.0810   12.6040 C   0  0  0  0  0
  -43.1310   16.5230   12.0350 C   0  0  0  0  0
  -41.9800   14.4920   12.0880 C   0  0  0  0  0
  -44.3330   17.2600   11.7230 C   0  0  0  0  0
  -45.8210   19.0770   11.8310 C   0  0  0  0  0
  -39.9130   14.0190   12.7480 C   0  0  0  0  0
  -46.3500   17.1830   10.6660 C   0  0  0  0  0
  -44.9590   21.0230   12.8250 C   0  0  0  0  0
  -47.0900   21.0210   11.4150 C   0  0  0  0  0
  -44.8290   22.4510   12.3540 C   0  0  0  0  0
  -46.7030   22.4450   11.1100 C   0  0  0  0  0
  -45.1980   16.5800   10.9680 N   0  0  0  0  0
  -46.6970   18.4100   11.0720 N   0  0  0  0  0
  -40.4280   12.8530   12.3470 N   0  0  0  0  0
  -41.6720   13.1670   11.9540 N   0  0  0  0  0
  -46.1430   20.3610   12.3020 N   0  0  0  0  0
  -38.6640   14.2090   13.2340 N   0  0  0  0  0
  -47.2480   16.4620    9.8770 N   0  0  0  0  0
  -46.1250   23.0140   12.2780 O   0  0  0  0  0
  -39.9784   16.9490   13.2647 H   0  0  0  0  0
  -42.0462   18.1978   12.7578 H   0  0  0  0  0
  -44.0092   14.6610   11.3773 H   0  0  0  0  0
  -43.8964   19.0709   12.8053 H   0  0  0  0  0
  -45.0377   21.0366   13.9121 H   0  0  0  0  0
  -44.0865   20.4744   12.4702 H   0  0  0  0  0
  -47.1089   20.4699   10.4748 H   0  0  0  0  0
  -48.0601   21.0362   11.9117 H   0  0  0  0  0
  -44.3512   22.4795   11.3747 H   0  0  0  0  0
  -44.2146   23.0202   13.0517 H   0  0  0  0  0
  -47.5836   23.0153   10.8143 H   0  0  0  0  0
  -45.9855   22.4686   10.2898 H   0  0  0  0  0
  -38.3621   15.1423   13.5137 H   0  0  0  0  0
  -38.0247   13.4189   13.3205 H   0  0  0  0  0
  -47.0087   15.5221    9.5611 H   0  0  0  0  0
  -48.1435   16.8751    9.6164 H   0  0  0  0  0
  2  1  4  0  0  0
  1  5  4  0  0  0
  6  2  4  0  0  0
  6  3  4  0  0  0
  3  7  4  0  0  0
  4  8  4  0  0  0
  9  4  4  0  0  0
  7  5  4  0  0  0
  5 10  4  0  0  0
  8  6  1  0  0  0
  7 19  4  0  0  0
  8 16  4  0  0  0
  9 17  4  0  0  0
 20  9  1  0  0  0
 10 18  4  0  0  0
 10 21  1  0  0  0
 11 16  4  0  0  0
 17 11  4  0  0  0
 11 22  1  0  0  0
 12 14  1  0  0  0
 20 12  1  0  0  0
 13 15  1  0  0  0
 13 20  1  0  0  0
 14 23  1  0  0  0
 15 23  1  0  0  0
 18 19  4  0  0  0
  1 24  1  0  0  0
  2 25  1  0  0  0
  3 26  1  0  0  0
  4 27  1  0  0  0
 12 28  1  0  0  0
 12 29  1  0  0  0
 13 30  1  0  0  0
 13 31  1  0  0  0
 14 32  1  0  0  0
 14 33  1  0  0  0
 15 34  1  0  0  0
 15 35  1  0  0  0
 21 36  1  0  0  0
 21 37  1  0  0  0
 22 38  1  0  0  0
 22 39  1  0  0  0
M  END
$$$$
