5y7j_ligand
  -I-interpret- 

 55 56  0  0  0  0  0  0  0  0999 V2000
   42.9600   12.8950   33.4300 C   0  0  0  0  0
   41.0360   11.5730   32.2920 C   0  0  0  0  0
   43.2930   10.4940   32.6910 C   0  0  0  0  0
   41.2980   14.1400   28.6280 C   0  0  0  0  0
   39.2510   12.8390   27.9500 C   0  0  0  0  0
   44.9340   20.0130   32.9730 C   0  0  0  0  0
   43.5900   19.8900   32.6390 C   0  0  0  0  0
   43.0350   18.6210   32.4230 C   0  0  0  0  0
   43.8350   17.4840   32.5370 C   0  0  0  0  0
   45.1820   17.6080   32.8790 C   0  0  0  0  0
   45.7330   18.8760   33.0940 C   0  0  0  0  0
   43.2230   16.0630   32.3080 C   0  0  0  0  0
   43.0430   15.4070   33.6860 C   0  0  0  0  0
   42.1140   14.1800   33.5830 C   0  0  0  0  0
   42.4050   11.6510   32.8000 N   0  0  0  0  0
   44.0850   12.8810   33.8140 O   0  0  0  0  0
   40.3900   10.3180   32.7350 C   0  0  0  0  0
   41.1760    9.0980   32.7230 N   0  0  0  0  0
   42.5970    9.1520   32.2800 C   0  0  0  0  0
   39.2500   10.3110   33.0810 O   0  0  0  0  0
   42.4610   16.3550   34.6090 N   0  3  0  0  0
   47.0550   19.0000   33.4230 F   0  0  0  0  0
   45.4720   21.2520   33.1830 F   0  0  0  0  0
   41.7160   18.5030   32.0950 F   0  0  0  0  0
   41.1650   11.5270   30.7480 C   0  0  0  0  0
   40.2940   12.4860   30.1090 O   0  0  0  0  0
   40.5860   12.7720   28.7110 C   0  0  0  0  0
   41.4640   11.7040   28.0430 C   0  0  0  0  0
   40.4415   12.4143   32.6483 H   0  0  0  0  0
   43.7197   10.3337   33.6811 H   0  0  0  0  0
   44.0124   10.7257   31.9056 H   0  0  0  0  0
   40.6472   14.9123   29.0379 H   0  0  0  0  0
   42.2242   14.1015   29.2014 H   0  0  0  0  0
   41.5234   14.3682   27.5863 H   0  0  0  0  0
   38.7350   11.8830   28.0392 H   0  0  0  0  0
   38.6314   13.6288   28.3747 H   0  0  0  0  0
   39.4439   13.0525   26.8987 H   0  0  0  0  0
   42.9680   20.7802   32.5451 H   0  0  0  0  0
   45.8040   16.7185   32.9785 H   0  0  0  0  0
   43.8830   15.4609   31.6836 H   0  0  0  0  0
   42.2641   16.1401   31.7954 H   0  0  0  0  0
   44.0224   15.0901   34.0444 H   0  0  0  0  0
   41.5095   14.1083   34.4872 H   0  0  0  0  0
   41.4655   14.2905   32.7139 H   0  0  0  0  0
   40.7600    8.2136   33.0147 H   0  0  0  0  0
   43.1329    8.3315   32.7572 H   0  0  0  0  0
   42.6168    9.0783   31.1927 H   0  0  0  0  0
   42.3447   15.9126   35.5207 H   0  0  0  0  0
   43.0770   17.1631   34.6980 H   0  0  0  0  0
   41.5520   16.6559   34.2574 H   0  0  0  0  0
   40.8837   10.5297   30.4099 H   0  0  0  0  0
   42.1943   11.7683   30.4825 H   0  0  0  0  0
   42.4155   11.6358   28.5704 H   0  0  0  0  0
   40.9554   10.7407   28.0824 H   0  0  0  0  0
   41.6422   11.9800   27.0037 H   0  0  0  0  0
  1 14  1  0  0  0
 15  1  1  0  0  0
  1 16  2  0  0  0
  2 15  1  0  0  0
  2 17  1  0  0  0
 25  2  1  0  0  0
 15  3  1  0  0  0
  3 19  1  0  0  0
 27  4  1  0  0  0
 27  5  1  0  0  0
  7  6  4  0  0  0
 11  6  4  0  0  0
  6 23  1  0  0  0
  8  7  4  0  0  0
  9  8  4  0  0  0
  8 24  1  0  0  0
  9 10  4  0  0  0
 12  9  1  0  0  0
 10 11  4  0  0  0
 11 22  1  0  0  0
 13 12  1  0  0  0
 14 13  1  0  0  0
 13 21  1  0  0  0
 17 18  1  0  0  0
 17 20  2  0  0  0
 18 19  1  0  0  0
 26 25  1  0  0  0
 26 27  1  0  0  0
 27 28  1  0  0  0
  2 29  1  0  0  0
  3 30  1  0  0  0
  3 31  1  0  0  0
  4 32  1  0  0  0
  4 33  1  0  0  0
  4 34  1  0  0  0
  5 35  1  0  0  0
  5 36  1  0  0  0
  5 37  1  0  0  0
  7 38  1  0  0  0
 10 39  1  0  0  0
 12 40  1  0  0  0
 12 41  1  0  0  0
 13 42  1  0  0  0
 14 43  1  0  0  0
 14 44  1  0  0  0
 18 45  1  0  0  0
 19 46  1  0  0  0
 19 47  1  0  0  0
 21 48  1  0  0  0
 21 49  1  0  0  0
 21 50  1  0  0  0
 25 51  1  0  0  0
 25 52  1  0  0  0
 28 53  1  0  0  0
 28 54  1  0  0  0
 28 55  1  0  0  0
M  END
$$$$
