5vij_ligand
  -I-interpret- 

 37 38  0  0  0  0  0  0  0  0999 V2000
   19.5940  102.5660  376.9750 C   0  0  0  0  0
   19.2860  101.4160  377.4260 O   0  0  0  0  0
   18.9800  102.9910  375.9670 O   0  0  0  0  0
   21.1840  108.3310  375.4870 C   0  0  0  0  0
   22.0170  108.0390  374.5800 O   0  0  0  0  0
   20.5500  109.4210  375.5270 O   0  0  0  0  0
   15.0350  107.2160  382.3200 Br  0  0  0  0  0
   17.9130  108.0430  379.1730 C   0  0  0  0  0
   16.7130  108.0790  380.0600 C   0  0  0  0  0
   16.6350  107.1300  381.2400 C   0  0  0  0  0
   17.7170  106.1270  381.5780 C   0  0  0  0  0
   18.9360  106.0990  380.6980 C   0  0  0  0  0
   18.9960  107.0600  379.5340 C   0  0  0  0  0
   21.0310  102.8910  378.9070 N   0  3  0  0  0
   20.6660  103.4410  377.6250 C   0  0  0  0  0
   20.0560  104.8400  377.8400 C   0  0  0  0  0
   21.8080  106.4610  377.1270 C   0  0  0  0  0
   20.9850  105.8680  378.2890 C   0  0  0  0  0
   20.0690  107.0500  378.6030 N   0  3  0  0  0
   20.2450  108.0050  377.7210 N   0  0  0  0  0
   20.8980  107.3610  376.6170 C   0  0  0  0  0
   19.8290  101.2182  378.1925 H   0  0  0  0  0
   22.3776  107.1652  374.7475 H   0  0  0  0  0
   18.0015  108.6968  378.3054 H   0  0  0  0  0
   15.9019  108.7796  379.8617 H   0  0  0  0  0
   17.6164  105.4508  382.4269 H   0  0  0  0  0
   19.7532  105.4049  380.8944 H   0  0  0  0  0
   21.4361  101.9642  378.7751 H   0  0  0  0  0
   21.7142  103.5013  379.3554 H   0  0  0  0  0
   20.2000  102.8198  379.4941 H   0  0  0  0  0
   21.5518  103.4894  376.9916 H   0  0  0  0  0
   19.3073  104.7344  378.6252 H   0  0  0  0  0
   19.6780  105.1656  376.8709 H   0  0  0  0  0
   22.1615  105.7238  376.4061 H   0  0  0  0  0
   22.7561  106.9053  377.4302 H   0  0  0  0  0
   21.6259  105.4562  379.0686 H   0  0  0  0  0
   20.2905  106.6903  376.0094 H   0  0  0  0  0
  1  2  1  0  0  0
  1  3  2  0  0  0
 15  1  1  0  0  0
  4  5  1  0  0  0
  4  6  2  0  0  0
 21  4  1  0  0  0
 10  7  1  0  0  0
  8  9  4  0  0  0
 13  8  4  0  0  0
  9 10  4  0  0  0
 11 10  4  0  0  0
 12 11  4  0  0  0
 13 12  4  0  0  0
 19 13  1  0  0  0
 15 14  1  0  0  0
 16 15  1  0  0  0
 18 16  1  0  0  0
 18 17  1  0  0  0
 17 21  1  0  0  0
 18 19  1  0  0  0
 19 20  2  0  0  0
 20 21  1  0  0  0
  2 22  1  0  0  0
  5 23  1  0  0  0
  8 24  1  0  0  0
  9 25  1  0  0  0
 11 26  1  0  0  0
 12 27  1  0  0  0
 14 28  1  0  0  0
 14 29  1  0  0  0
 14 30  1  0  0  0
 15 31  1  0  0  0
 16 32  1  0  0  0
 16 33  1  0  0  0
 17 34  1  0  0  0
 17 35  1  0  0  0
 18 36  1  0  0  0
 21 37  1  0  0  0
M  END
$$$$
