3i6o_ligand
  -I-interpret- 

 86 90  0  0  0  0  0  0  0  0999 V2000
   12.2980  -24.8740   -3.0270 C   0  0  0  0  0
   12.2880  -24.6470   -4.3990 C   0  0  0  0  0
   13.3080  -23.8730   -4.9640 C   0  0  0  0  0
   14.3120  -23.3440   -4.1530 C   0  0  0  0  0
   14.3090  -23.5820   -2.7740 C   0  0  0  0  0
   13.3060  -24.3430   -2.2120 C   0  0  0  0  0
   15.7530  -22.4820   -4.7990 S   0  0  0  0  0
   16.6680  -22.3720   -3.6950 O   0  0  0  0  0
   16.1650  -23.1850   -6.0180 O   0  0  0  0  0
   15.3190  -20.9300   -5.2780 N   0  0  0  0  0
   14.7970  -20.7160   -6.6240 C   0  0  0  0  0
   15.8950  -20.5540   -7.6900 C   0  0  0  0  0
   15.3940  -19.9670   -9.0280 C   0  0  0  0  0
   14.4310  -20.8270   -9.8590 C   0  0  0  0  0
   15.1890  -19.9300   -4.2080 C   0  0  0  0  0
   16.1710  -18.7890   -4.5560 C   0  0  0  0  0
   15.7850  -17.6530   -3.7710 O   0  0  0  0  0
   17.6510  -19.1450   -4.3330 C   0  0  0  0  0
   18.4780  -18.0470   -4.8860 N   0  0  0  0  0
   19.1830  -18.2540   -6.0300 C   0  0  0  0  0
   19.3370  -19.3000   -6.6390 O   0  0  0  0  0
   19.7110  -17.0650   -6.4030 O   0  0  0  0  0
   20.7190  -17.0650   -7.4440 C   0  0  0  0  0
   20.4390  -15.7750   -8.2300 C   0  0  0  0  0
   20.9550  -14.7120   -7.4440 O   0  0  0  0  0
   22.1180  -15.1590   -6.7360 C   0  0  0  0  0
   21.9890  -14.8090   -5.3870 O   0  0  0  0  0
   21.7960  -15.9580   -4.5390 C   0  0  0  0  0
   22.3320  -17.1240   -5.3550 C   0  0  0  0  0
   22.1000  -16.7070   -6.8250 C   0  0  0  0  0
   17.9910  -19.2580   -2.8050 C   0  0  0  0  0
   20.2950  -18.4630   -2.1380 C   0  0  0  0  0
   21.6730  -18.6280   -2.0280 C   0  0  0  0  0
   22.2450  -19.8270   -2.4900 C   0  0  0  0  0
   21.4550  -20.8390   -3.0510 C   0  0  0  0  0
   20.0820  -20.6600   -3.1540 C   0  0  0  0  0
   19.4930  -19.4690   -2.6970 C   0  0  0  0  0
   11.3380  -25.6150   -2.4170 O   0  0  0  0  0
   10.5340  -26.4300   -3.2670 C   0  0  0  0  0
   13.3490  -23.6150   -6.3180 O   0  0  0  0  0
   12.2820  -24.1260   -7.1400 C   0  0  0  0  0
   12.5580  -23.9800   -8.6270 C   0  0  0  0  0
   12.8540  -22.5590   -9.0040 C   0  0  0  0  0
   14.0780  -22.2260   -9.4680 C   0  0  0  0  0
   11.4988  -25.0650   -5.0240 H   0  0  0  0  0
   15.0973  -23.1670   -2.1460 H   0  0  0  0  0
   13.2974  -24.5306   -1.1383 H   0  0  0  0  0
   14.2177  -19.7928   -6.6077 H   0  0  0  0  0
   14.2088  -21.5941   -6.8906 H   0  0  0  0  0
   16.2882  -21.5484   -7.9014 H   0  0  0  0  0
   16.6331  -19.8591   -7.2894 H   0  0  0  0  0
   16.2833  -19.8401   -9.6454 H   0  0  0  0  0
   14.8348  -19.0691   -8.7648 H   0  0  0  0  0
   14.9526  -20.9506  -10.8081 H   0  0  0  0  0
   13.4832  -20.2939   -9.7849 H   0  0  0  0  0
   15.4227  -20.3644   -3.2360 H   0  0  0  0  0
   14.1662  -19.5592   -4.1413 H   0  0  0  0  0
   16.1044  -18.5823   -5.6242 H   0  0  0  0  0
   16.3747  -16.9195   -3.9602 H   0  0  0  0  0
   17.8498  -20.1014   -4.8167 H   0  0  0  0  0
   18.5181  -17.1443   -4.4129 H   0  0  0  0  0
   20.7100  -18.0138   -7.9804 H   0  0  0  0  0
   19.3714  -15.6484   -8.4096 H   0  0  0  0  0
   20.9117  -15.8028   -9.2118 H   0  0  0  0  0
   23.0294  -14.7246   -7.1466 H   0  0  0  0  0
   20.7494  -16.0952   -4.2670 H   0  0  0  0  0
   22.3124  -15.8542   -3.5847 H   0  0  0  0  0
   21.8277  -18.0591   -5.1113 H   0  0  0  0  0
   23.3841  -17.3187   -5.1469 H   0  0  0  0  0
   22.8387  -17.2138   -7.4459 H   0  0  0  0  0
   17.4516  -20.0891   -2.3507 H   0  0  0  0  0
   17.6899  -18.3541   -2.2755 H   0  0  0  0  0
   19.8335  -17.5406   -1.7854 H   0  0  0  0  0
   22.2948  -17.8453   -1.5935 H   0  0  0  0  0
   23.3224  -19.9715   -2.4101 H   0  0  0  0  0
   21.9156  -21.7615   -3.4045 H   0  0  0  0  0
   19.4612  -21.4432   -3.5892 H   0  0  0  0  0
   10.0139  -25.7988   -3.9876 H   0  0  0  0  0
   11.1703  -27.1394   -3.7961 H   0  0  0  0  0
    9.8053  -26.9726   -2.6648 H   0  0  0  0  0
   11.3827  -23.5542   -6.9110 H   0  0  0  0  0
   12.1760  -25.1892   -6.9243 H   0  0  0  0  0
   11.6704  -24.3005   -9.1724 H   0  0  0  0  0
   13.4285  -24.5876   -8.8743 H   0  0  0  0  0
   12.0823  -21.7958   -8.9037 H   0  0  0  0  0
   14.8350  -23.0048   -9.5606 H   0  0  0  0  0
  2  1  4  0  0  0
  6  1  4  0  0  0
  1 38  1  0  0  0
  3  2  4  0  0  0
  4  3  4  0  0  0
  3 40  1  0  0  0
  4  5  4  0  0  0
  7  4  1  0  0  0
  5  6  4  0  0  0
  7  8  2  0  0  0
  7  9  2  0  0  0
 10  7  1  0  0  0
 10 11  1  0  0  0
 15 10  1  0  0  0
 11 12  1  0  0  0
 12 13  1  0  0  0
 13 14  1  0  0  0
 14 44  1  0  0  0
 16 15  1  0  0  0
 16 17  1  0  0  0
 18 16  1  0  0  0
 18 19  1  0  0  0
 31 18  1  0  0  0
 19 20  1  0  0  0
 20 21  2  0  0  0
 20 22  1  0  0  0
 22 23  1  0  0  0
 23 24  1  0  0  0
 23 30  1  0  0  0
 24 25  1  0  0  0
 26 25  1  0  0  0
 26 27  1  0  0  0
 30 26  1  0  0  0
 28 27  1  0  0  0
 29 28  1  0  0  0
 30 29  1  0  0  0
 37 31  1  0  0  0
 32 33  4  0  0  0
 32 37  4  0  0  0
 33 34  4  0  0  0
 34 35  4  0  0  0
 35 36  4  0  0  0
 36 37  4  0  0  0
 38 39  1  0  0  0
 40 41  1  0  0  0
 41 42  1  0  0  0
 42 43  1  0  0  0
 43 44  2  0  0  0
  2 45  1  0  0  0
  5 46  1  0  0  0
  6 47  1  0  0  0
 11 48  1  0  0  0
 11 49  1  0  0  0
 12 50  1  0  0  0
 12 51  1  0  0  0
 13 52  1  0  0  0
 13 53  1  0  0  0
 14 54  1  0  0  0
 14 55  1  0  0  0
 15 56  1  0  0  0
 15 57  1  0  0  0
 16 58  1  0  0  0
 17 59  1  0  0  0
 18 60  1  0  0  0
 19 61  1  0  0  0
 23 62  1  0  0  0
 24 63  1  0  0  0
 24 64  1  0  0  0
 26 65  1  0  0  0
 28 66  1  0  0  0
 28 67  1  0  0  0
 29 68  1  0  0  0
 29 69  1  0  0  0
 30 70  1  0  0  0
 31 71  1  0  0  0
 31 72  1  0  0  0
 32 73  1  0  0  0
 33 74  1  0  0  0
 34 75  1  0  0  0
 35 76  1  0  0  0
 36 77  1  0  0  0
 39 78  1  0  0  0
 39 79  1  0  0  0
 39 80  1  0  0  0
 41 81  1  0  0  0
 41 82  1  0  0  0
 42 83  1  0  0  0
 42 84  1  0  0  0
 43 85  1  0  0  0
 44 86  1  0  0  0
M  END
$$$$
