5ttf_ligand
  -I-interpret- 

 50 52  0  0  0  0  0  0  0  0999 V2000
   -4.4600   -4.8470   18.7030 C   0  0  0  0  0
   -5.0990   -3.7290   17.9090 C   0  0  0  0  0
   -7.4190   -4.2250   17.0410 C   0  0  0  0  0
   -8.7190   -4.1580   17.3600 N   0  0  0  0  0
   -9.6250   -4.5690   16.4770 C   0  0  0  0  0
  -11.4450   -4.0520   18.1360 C   0  0  0  0  0
  -10.9130   -4.4910   16.8540 N   0  0  0  0  0
  -11.6690   -5.2820   19.0030 C   0  0  0  0  0
  -12.3730   -4.9030   20.2970 C   0  0  0  0  0
  -13.3840   -2.9900   19.3000 C   0  0  0  0  0
  -13.6390   -4.2300   20.0280 N   0  3  0  0  0
  -12.7350   -3.2720   17.9500 C   0  0  0  0  0
   -9.2230   -5.0630   15.1850 C   0  0  0  0  0
  -10.1000   -5.5450   14.1910 C   0  0  0  0  0
   -6.9090   -4.6790   15.8750 N   0  0  0  0  0
   -6.5910   -6.3840   11.0400 C   0  0  0  0  0
   -7.8660   -6.6970   11.6050 O   0  0  0  0  0
   -8.2240   -6.1010   12.7840 C   0  0  0  0  0
   -9.6220   -6.0570   13.0230 C   0  0  0  0  0
  -10.3970   -6.5860   12.0260 O   0  0  0  0  0
  -11.7780   -6.8420   12.2970 C   0  0  0  0  0
   -7.3510   -5.6270   13.7220 C   0  0  0  0  0
   -7.8260   -5.1000   14.9440 C   0  0  0  0  0
   -6.5520   -3.7670   17.9690 N   0  0  0  0  0
   -4.7568   -4.7640   19.7485 H   0  0  0  0  0
   -4.7891   -5.8072   18.3057 H   0  0  0  0  0
   -3.3754   -4.7725   18.6249 H   0  0  0  0  0
   -4.8013   -3.8426   16.8666 H   0  0  0  0  0
   -4.7684   -2.7814   18.3343 H   0  0  0  0  0
  -10.7362   -3.3820   18.6226 H   0  0  0  0  0
  -11.6016   -4.7739   16.1567 H   0  0  0  0  0
  -10.7029   -5.7258   19.2432 H   0  0  0  0  0
  -12.2911   -5.9910   18.4567 H   0  0  0  0  0
  -11.7300   -4.2253   20.8585 H   0  0  0  0  0
  -12.5746   -5.8120   20.8637 H   0  0  0  0  0
  -12.7082   -2.3710   19.8901 H   0  0  0  0  0
  -14.3335   -2.4818   19.1319 H   0  0  0  0  0
  -14.1059   -4.0175   20.9096 H   0  0  0  0  0
  -14.2354   -4.8380   19.4668 H   0  0  0  0  0
  -13.4216   -3.8608   17.3418 H   0  0  0  0  0
  -12.5100   -2.3251   17.4593 H   0  0  0  0  0
  -11.1761   -5.5072   14.3601 H   0  0  0  0  0
   -6.5371   -5.3142   10.8385 H   0  0  0  0  0
   -5.8055   -6.6628   11.7424 H   0  0  0  0  0
   -6.4615   -6.9372   10.1098 H   0  0  0  0  0
  -11.8599   -7.5519   13.1200 H   0  0  0  0  0
  -12.2724   -5.9095   12.5693 H   0  0  0  0  0
  -12.2503   -7.2589   11.4075 H   0  0  0  0  0
   -6.2791   -5.6556   13.5261 H   0  0  0  0  0
   -6.9703   -3.3997   18.8237 H   0  0  0  0  0
  2  1  1  0  0  0
 24  2  1  0  0  0
  4  3  4  0  0  0
 15  3  4  0  0  0
  3 24  1  0  0  0
  5  4  4  0  0  0
  5  7  1  0  0  0
 13  5  4  0  0  0
  7  6  1  0  0  0
  6  8  1  0  0  0
  6 12  1  0  0  0
  8  9  1  0  0  0
  9 11  1  0  0  0
 10 11  1  0  0  0
 12 10  1  0  0  0
 14 13  4  0  0  0
 13 23  4  0  0  0
 19 14  4  0  0  0
 23 15  4  0  0  0
 17 16  1  0  0  0
 18 17  1  0  0  0
 18 19  4  0  0  0
 18 22  4  0  0  0
 19 20  1  0  0  0
 20 21  1  0  0  0
 22 23  4  0  0  0
  1 25  1  0  0  0
  1 26  1  0  0  0
  1 27  1  0  0  0
  2 28  1  0  0  0
  2 29  1  0  0  0
  6 30  1  0  0  0
  7 31  1  0  0  0
  8 32  1  0  0  0
  8 33  1  0  0  0
  9 34  1  0  0  0
  9 35  1  0  0  0
 10 36  1  0  0  0
 10 37  1  0  0  0
 11 38  1  0  0  0
 11 39  1  0  0  0
 12 40  1  0  0  0
 12 41  1  0  0  0
 14 42  1  0  0  0
 16 43  1  0  0  0
 16 44  1  0  0  0
 16 45  1  0  0  0
 21 46  1  0  0  0
 21 47  1  0  0  0
 21 48  1  0  0  0
 22 49  1  0  0  0
 24 50  1  0  0  0
M  END
$$$$
