1ylv_ligand
  -I-interpret- 

 17 16  0  0  0  0  0  0  0  0999 V2000
   19.5400   24.7080   16.4340 C   0  0  0  0  0
   19.2830   25.0150   17.9040 C   0  0  0  0  0
   19.9970   25.8310   15.5370 C   0  0  0  0  0
   21.4120   25.6440   15.0290 C   0  0  0  0  0
   21.8220   26.6900   14.0160 C   0  0  0  0  0
   21.0180   27.6000   13.7180 O   0  0  0  0  0
   22.9520   26.6400   13.4820 O   0  0  0  0  0
   18.5751   24.3966   16.0338 H   0  0  0  0  0
   20.3584   23.9881   16.4308 H   0  0  0  0  0
   20.2003   25.3845   18.3624 H   0  0  0  0  0
   18.5040   25.7731   17.9847 H   0  0  0  0  0
   18.9615   24.1062   18.4128 H   0  0  0  0  0
   19.9721   26.7522   16.1191 H   0  0  0  0  0
   19.3341   25.8560   14.6721 H   0  0  0  0  0
   21.4623   24.6713   14.5396 H   0  0  0  0  0
   22.0843   25.7284   15.8828 H   0  0  0  0  0
   23.4334   25.8834   13.8246 H   0  0  0  0  0
  1  2  1  0  0  0
  1  3  1  0  0  0
  3  4  1  0  0  0
  4  5  1  0  0  0
  5  6  2  0  0  0
  5  7  1  0  0  0
  1  8  1  0  0  0
  1  9  1  0  0  0
  2 10  1  0  0  0
  2 11  1  0  0  0
  2 12  1  0  0  0
  3 13  1  0  0  0
  3 14  1  0  0  0
  4 15  1  0  0  0
  4 16  1  0  0  0
  7 17  1  0  0  0
M  END
$$$$
