5yov_ligand
  -I-interpret- 

 60 62  0  0  0  0  0  0  0  0999 V2000
  -19.9710   -8.0940   79.8090 C   0  0  0  0  0
  -26.0670   -8.2140   79.3690 C   0  0  0  0  0
  -26.0200   -7.9540   76.9580 C   0  0  0  0  0
  -24.9200   -8.1470   74.5970 C   0  0  0  0  0
  -24.7980   -6.6570   74.5140 C   0  0  0  0  0
  -25.2980   -5.8300   75.6460 C   0  0  0  0  0
  -22.0370   -7.8750   76.2510 C   0  0  0  0  0
  -20.0270   -8.0720   75.1620 C   0  0  0  0  0
  -25.5920  -10.3030   75.9010 C   0  0  0  0  0
  -24.9310   -6.4100   80.6520 C   0  0  0  0  0
  -24.8930   -7.3770   79.5300 C   0  0  0  0  0
  -23.7350   -7.6900   78.7050 C   0  0  0  0  0
  -22.5090   -6.8470   78.9790 C   0  0  0  0  0
  -22.5460   -5.8790   80.0280 C   0  0  0  0  0
  -23.7580   -5.6180   80.8950 C   0  0  0  0  0
  -21.2440   -7.0850   78.2000 N   0  0  0  0  0
  -20.2430   -6.9270   78.7640 C   0  0  0  0  0
  -20.1950   -5.3850   79.6950 C   0  0  0  0  0
  -21.3190   -5.0560   80.2210 N   0  0  0  0  0
  -19.2220   -4.8060   79.8000 O   0  0  0  0  0
  -21.4760   -3.9210   80.9940 C   0  0  0  0  0
  -21.3330   -8.2290   77.2610 C   0  0  0  0  0
  -26.5870   -8.5350   78.1110 N   0  0  0  0  0
  -26.4020   -8.6670   80.4360 O   0  0  0  0  0
  -25.5000   -8.8040   75.8310 C   0  0  0  0  0
  -25.8650   -6.4790   76.8320 C   0  0  0  0  0
  -20.8930   -7.0990   75.3940 C   0  0  0  0  0
  -19.9670   -8.6980   76.5610 C   0  0  0  0  0
  -24.2300   -6.0020   73.2830 C   0  0  0  0  0
  -20.7788   -8.1206   80.5404 H   0  0  0  0  0
  -19.9239   -9.0474   79.2829 H   0  0  0  0  0
  -19.0245   -7.9112   80.3177 H   0  0  0  0  0
  -24.5883   -8.7637   73.7617 H   0  0  0  0  0
  -25.2426   -4.7427   75.5932 H   0  0  0  0  0
  -22.9138   -7.2742   76.4926 H   0  0  0  0  0
  -22.5259   -8.6946   75.7244 H   0  0  0  0  0
  -19.0652   -7.7408   74.7705 H   0  0  0  0  0
  -20.3180   -8.7600   74.3682 H   0  0  0  0  0
  -25.0399  -10.6594   76.7707 H   0  0  0  0  0
  -26.6378  -10.5979   75.9870 H   0  0  0  0  0
  -25.1647  -10.7346   74.9959 H   0  0  0  0  0
  -25.8205   -6.3032   81.2729 H   0  0  0  0  0
  -23.7502   -8.4730   77.9468 H   0  0  0  0  0
  -23.7415   -4.8570   81.6752 H   0  0  0  0  0
  -19.4332   -6.9218   78.0344 H   0  0  0  0  0
  -20.2985   -5.9837   79.3073 H   0  0  0  0  0
  -20.1714   -6.2962   79.0973 H   0  0  0  0  0
  -22.2146   -3.2668   80.5308 H   0  0  0  0  0
  -21.8146   -4.2054   81.9903 H   0  0  0  0  0
  -20.5221   -3.3988   81.0684 H   0  0  0  0  0
  -21.7174   -9.0323   77.8895 H   0  0  0  0  0
  -27.3697   -9.1838   78.0282 H   0  0  0  0  0
  -26.1888   -5.8508   77.6619 H   0  0  0  0  0
  -20.4599   -6.2470   75.9181 H   0  0  0  0  0
  -21.2729   -6.6293   74.4867 H   0  0  0  0  0
  -19.0875   -8.3758   77.1184 H   0  0  0  0  0
  -19.8762   -9.7835   76.5224 H   0  0  0  0  0
  -23.2108   -6.3538   73.1232 H   0  0  0  0  0
  -24.8440   -6.2593   72.4199 H   0  0  0  0  0
  -24.2254   -4.9204   73.4178 H   0  0  0  0  0
 17  1  1  0  0  0
 11  2  1  0  0  0
  2 23  1  0  0  0
  2 24  2  0  0  0
 23  3  1  0  0  0
  3 25  4  0  0  0
  3 26  4  0  0  0
  4  5  4  0  0  0
 25  4  4  0  0  0
  6  5  4  0  0  0
  5 29  1  0  0  0
 26  6  4  0  0  0
 22  7  1  0  0  0
  7 27  1  0  0  0
 27  8  1  0  0  0
  8 28  1  0  0  0
 25  9  1  0  0  0
 11 10  4  0  0  0
 15 10  4  0  0  0
 12 11  4  0  0  0
 13 12  4  0  0  0
 13 14  4  0  0  0
 16 13  1  0  0  0
 14 15  4  0  0  0
 14 19  1  0  0  0
 16 17  1  0  0  0
 16 22  1  0  0  0
 19 18  1  0  0  0
 18 20  2  0  0  0
 19 21  1  0  0  0
 22 28  1  0  0  0
  1 30  1  0  0  0
  1 31  1  0  0  0
  1 32  1  0  0  0
  4 33  1  0  0  0
  6 34  1  0  0  0
  7 35  1  0  0  0
  7 36  1  0  0  0
  8 37  1  0  0  0
  8 38  1  0  0  0
  9 39  1  0  0  0
  9 40  1  0  0  0
  9 41  1  0  0  0
 10 42  1  0  0  0
 12 43  1  0  0  0
 15 44  1  0  0  0
 17 45  1  0  0  0
 17 46  1  0  0  0
 18 47  1  0  0  0
 21 48  1  0  0  0
 21 49  1  0  0  0
 21 50  1  0  0  0
 22 51  1  0  0  0
 23 52  1  0  0  0
 26 53  1  0  0  0
 27 54  1  0  0  0
 27 55  1  0  0  0
 28 56  1  0  0  0
 28 57  1  0  0  0
 29 58  1  0  0  0
 29 59  1  0  0  0
 29 60  1  0  0  0
M  END
$$$$
