2gnf_ligand
  -I-interpret- 

 40 41  0  0  0  0  0  0  0  0999 V2000
    7.5170   10.0600   41.9260 O   0  0  0  0  0
    7.9880    9.7810   43.0660 C   0  0  0  0  0
    9.4020    9.3230   43.3050 C   0  0  0  0  0
    9.6040    7.9990   42.5540 C   0  0  0  0  0
   11.0610    7.4850   42.6130 C   0  0  0  0  0
   12.0440    8.5720   42.1270 C   0  0  0  0  0
   11.9020    9.7720   43.0770 C   0  0  0  0  0
   10.4620   10.3700   42.9070 C   0  0  0  0  0
   13.5230    8.0650   42.0410 C   0  0  0  0  0
   13.9640    7.4060   43.3560 C   0  0  0  0  0
   13.7500    7.1170   40.9030 N   0  3  0  0  0
    7.2190    9.8130   44.2520 N   0  0  0  0  0
    5.7770    9.9740   44.2750 C   0  0  0  0  0
    5.1980    9.9890   45.5840 C   0  0  0  0  0
    3.8200   10.1310   45.6670 C   0  0  0  0  0
    3.0630   10.2640   44.5440 N   0  0  0  0  0
    3.5640   10.2620   43.2940 C   0  0  0  0  0
    4.9340   10.1350   43.1070 C   0  0  0  0  0
    9.5443    9.1800   44.3762 H   0  0  0  0  0
    9.3553    8.1708   41.5067 H   0  0  0  0  0
    8.9689    7.2497   43.0266 H   0  0  0  0  0
   11.1530    6.6124   41.9663 H   0  0  0  0  0
   11.3022    7.2278   43.6444 H   0  0  0  0  0
   11.7933    8.8594   41.1059 H   0  0  0  0  0
   12.6504   10.5276   42.8380 H   0  0  0  0  0
   12.0537    9.4518   44.1078 H   0  0  0  0  0
   10.3599   11.2442   43.5500 H   0  0  0  0  0
   10.3126   10.6514   41.8646 H   0  0  0  0  0
   14.1306    8.9514   41.8587 H   0  0  0  0  0
   13.3831    6.4981   43.5186 H   0  0  0  0  0
   15.0233    7.1556   43.2981 H   0  0  0  0  0
   13.7975    8.0981   44.1815 H   0  0  0  0  0
   13.4562    7.5576   40.0313 H   0  0  0  0  0
   14.7413    6.8828   40.8497 H   0  0  0  0  0
   13.2065    6.2676   41.0561 H   0  0  0  0  0
    7.7060    9.7174   45.1431 H   0  0  0  0  0
    5.8137    9.8929   46.4783 H   0  0  0  0  0
    3.3377   10.1361   46.6445 H   0  0  0  0  0
    2.8992   10.3593   42.4357 H   0  0  0  0  0
    5.3651   10.1559   42.1061 H   0  0  0  0  0
  1  2  2  0  0  0
  2  3  1  0  0  0
  2 12  1  0  0  0
  3  4  1  0  0  0
  3  8  1  0  0  0
  4  5  1  0  0  0
  5  6  1  0  0  0
  6  7  1  0  0  0
  6  9  1  0  0  0
  7  8  1  0  0  0
  9 10  1  0  0  0
  9 11  1  0  0  0
 12 13  1  0  0  0
 13 14  4  0  0  0
 13 18  4  0  0  0
 14 15  4  0  0  0
 15 16  4  0  0  0
 16 17  4  0  0  0
 17 18  4  0  0  0
  3 19  1  0  0  0
  4 20  1  0  0  0
  4 21  1  0  0  0
  5 22  1  0  0  0
  5 23  1  0  0  0
  6 24  1  0  0  0
  7 25  1  0  0  0
  7 26  1  0  0  0
  8 27  1  0  0  0
  8 28  1  0  0  0
  9 29  1  0  0  0
 10 30  1  0  0  0
 10 31  1  0  0  0
 10 32  1  0  0  0
 11 33  1  0  0  0
 11 34  1  0  0  0
 11 35  1  0  0  0
 12 36  1  0  0  0
 14 37  1  0  0  0
 15 38  1  0  0  0
 17 39  1  0  0  0
 18 40  1  0  0  0
M  END
$$$$
