2qwc_ligand
  -I-interpret- 

 37 37  0  0  0  0  0  0  0  0999 V2000
   23.5770   19.7040   64.8560 C   0  0  0  0  0
   24.2480   18.7040   64.1040 C   0  0  0  0  0
   23.5930   17.5840   63.6500 C   0  0  0  0  0
   24.2690   16.6160   62.6750 C   0  0  0  0  0
   25.8490   16.7350   62.7850 C   0  0  0  0  0
   26.2320   18.2040   62.7210 C   0  0  0  0  0
   27.7600   18.4130   62.8160 C   0  0  0  0  0
   28.1600   19.8920   62.7310 C   0  0  0  0  0
   29.6910   20.1650   62.9680 C   0  0  0  0  0
   27.1160   14.9180   61.6870 C   0  0  0  0  0
   27.5650   14.2040   60.4000 C   0  0  0  0  0
   26.3710   16.0140   61.5960 N   0  0  0  0  0
   24.2610   20.6920   65.1850 O   0  0  0  0  0
   22.3780   19.5990   65.2090 O   0  0  0  0  0
   23.8210   15.3410   63.0240 O   0  0  0  0  0
   25.6370   18.8680   63.8120 O   0  0  0  0  0
   28.1690   17.9140   64.0970 O   0  0  0  0  0
   27.8350   20.2490   61.4530 O   0  0  0  0  0
   30.3910   19.4290   61.9940 O   0  0  0  0  0
   27.5250   14.4910   62.7700 O   0  0  0  0  0
   22.5770   17.3819   63.9892 H   0  0  0  0  0
   24.0171   16.8398   61.6384 H   0  0  0  0  0
   26.2467   16.3219   63.7119 H   0  0  0  0  0
   25.8891   18.5968   61.7638 H   0  0  0  0  0
   28.2359   17.8967   61.9823 H   0  0  0  0  0
   27.6520   20.4582   63.5117 H   0  0  0  0  0
   29.9881   19.8604   63.9715 H   0  0  0  0  0
   29.9125   21.2289   62.8831 H   0  0  0  0  0
   28.6516   14.2445   60.3237 H   0  0  0  0  0
   27.2401   13.1640   60.4308 H   0  0  0  0  0
   27.1202   14.6995   59.5370 H   0  0  0  0  0
   26.1476   16.3763   60.6690 H   0  0  0  0  0
   22.0151   18.7793   64.8656 H   0  0  0  0  0
   22.8648   15.3065   62.9459 H   0  0  0  0  0
   27.9273   16.9878   64.1704 H   0  0  0  0  0
   28.0560   21.1728   61.3140 H   0  0  0  0  0
   31.3342   19.5694   62.1050 H   0  0  0  0  0
  1 14  1  0  0  0
  1 13  2  0  0  0
  1  2  1  0  0  0
  2 16  1  0  0  0
  2  3  2  0  0  0
  3  4  1  0  0  0
  4 15  1  0  0  0
  4  5  1  0  0  0
  5 12  1  0  0  0
  5  6  1  0  0  0
  6 16  1  0  0  0
  6  7  1  0  0  0
  7 17  1  0  0  0
  7  8  1  0  0  0
  8 18  1  0  0  0
  8  9  1  0  0  0
  9 19  1  0  0  0
 12 10  1  0  0  0
 10 20  2  0  0  0
 10 11  1  0  0  0
  3 21  1  0  0  0
  4 22  1  0  0  0
  5 23  1  0  0  0
  6 24  1  0  0  0
  7 25  1  0  0  0
  8 26  1  0  0  0
  9 27  1  0  0  0
  9 28  1  0  0  0
 11 29  1  0  0  0
 11 30  1  0  0  0
 11 31  1  0  0  0
 12 32  1  0  0  0
 14 33  1  0  0  0
 15 34  1  0  0  0
 17 35  1  0  0  0
 18 36  1  0  0  0
 19 37  1  0  0  0
M  END
$$$$
