4xiq_ligand
  -I-interpret- 

 47 50  0  0  0  0  0  0  0  0999 V2000
   -2.3980  -11.6430  -24.2360 N   0  0  0  0  0
    6.2500  -11.7140  -24.1000 C   0  0  0  0  0
    7.3860  -12.6450  -24.3070 C   0  0  0  0  0
    7.0910  -14.0770  -24.6980 C   0  0  0  0  0
    5.8130  -14.2910  -25.5260 C   0  0  0  0  0
    4.6510  -13.5870  -24.8160 C   0  0  0  0  0
    5.9960  -13.7230  -26.9360 C   0  0  0  0  0
    0.4870  -12.1550  -24.0340 C   0  0  0  0  0
    0.7110  -10.1170  -25.3120 C   0  0  0  0  0
    3.3030   -8.0870  -24.6210 C   0  0  0  0  0
   -1.9330  -10.7100  -26.2180 O   0  0  0  0  0
   -1.5590  -11.1500  -25.1350 C   0  0  0  0  0
   -0.0910  -11.1410  -24.8040 C   0  0  0  0  0
    1.8500  -12.1680  -23.7800 C   0  0  0  0  0
    2.0740  -10.1310  -25.0660 C   0  0  0  0  0
    2.8360   -9.0880  -25.5650 O   0  0  0  0  0
    4.2170   -8.6520  -23.5510 C   0  0  0  0  0
    4.7790  -10.0300  -23.7690 C   0  0  0  0  0
    2.6570  -11.1570  -24.3110 C   0  0  0  0  0
    4.0830  -11.1830  -24.1210 N   0  0  0  0  0
    4.9790  -12.2080  -24.3280 C   0  0  0  0  0
    5.5070  -15.7810  -25.6360 C   0  0  0  0  0
    8.5540  -12.2730  -24.2080 O   0  0  0  0  0
    6.1180  -10.3160  -23.7430 C   0  0  0  0  0
    7.2720   -9.3940  -23.4560 C   0  0  0  0  0
   -3.3988  -11.6672  -24.4317 H   0  0  0  0  0
   -2.0432  -11.9983  -23.3482 H   0  0  0  0  0
    6.9531  -14.6291  -23.7684 H   0  0  0  0  0
    7.9223  -14.4045  -25.3223 H   0  0  0  0  0
    4.3955  -14.1865  -23.9423 H   0  0  0  0  0
    3.8418  -13.4895  -25.5397 H   0  0  0  0  0
    6.8219  -14.2361  -27.4287 H   0  0  0  0  0
    5.0804  -13.8726  -27.5082 H   0  0  0  0  0
    6.2155  -12.6573  -26.8714 H   0  0  0  0  0
   -0.1428  -12.9464  -23.6277 H   0  0  0  0  0
    0.2674   -9.3121  -25.8981 H   0  0  0  0  0
    2.4278   -7.6718  -24.1212 H   0  0  0  0  0
    3.8715   -7.3451  -25.1818 H   0  0  0  0  0
    2.2885  -12.9592  -23.1719 H   0  0  0  0  0
    3.6042   -8.7254  -22.6525 H   0  0  0  0  0
    5.0795   -7.9861  -23.5224 H   0  0  0  0  0
    4.5937  -15.9213  -26.2141 H   0  0  0  0  0
    6.3351  -16.2848  -26.1345 H   0  0  0  0  0
    5.3743  -16.1980  -24.6377 H   0  0  0  0  0
    7.8431   -9.7807  -22.6120 H   0  0  0  0  0
    7.9147   -9.3341  -24.3343 H   0  0  0  0  0
    6.8912   -8.4016  -23.2145 H   0  0  0  0  0
 12  1  1  0  0  0
  2  3  1  0  0  0
  2 21  4  0  0  0
 24  2  4  0  0  0
  3  4  1  0  0  0
  3 23  2  0  0  0
  4  5  1  0  0  0
  6  5  1  0  0  0
  5  7  1  0  0  0
  5 22  1  0  0  0
 21  6  1  0  0  0
 13  8  4  0  0  0
 14  8  4  0  0  0
  9 13  4  0  0  0
 15  9  4  0  0  0
 10 16  1  0  0  0
 17 10  1  0  0  0
 12 11  2  0  0  0
 13 12  1  0  0  0
 19 14  4  0  0  0
 16 15  1  0  0  0
 15 19  4  0  0  0
 18 17  1  0  0  0
 18 20  4  0  0  0
 18 24  4  0  0  0
 19 20  1  0  0  0
 20 21  4  0  0  0
 24 25  1  0  0  0
  1 26  1  0  0  0
  1 27  1  0  0  0
  4 28  1  0  0  0
  4 29  1  0  0  0
  6 30  1  0  0  0
  6 31  1  0  0  0
  7 32  1  0  0  0
  7 33  1  0  0  0
  7 34  1  0  0  0
  8 35  1  0  0  0
  9 36  1  0  0  0
 10 37  1  0  0  0
 10 38  1  0  0  0
 14 39  1  0  0  0
 17 40  1  0  0  0
 17 41  1  0  0  0
 22 42  1  0  0  0
 22 43  1  0  0  0
 22 44  1  0  0  0
 25 45  1  0  0  0
 25 46  1  0  0  0
 25 47  1  0  0  0
M  END
$$$$
