4mib_ligand
  -I-interpret- 

 66 69  0  0  0  0  0  0  0  0999 V2000
   -9.7340    8.9450   10.4620 C   0  0  0  0  0
   -8.6870    9.4700   11.1920 C   0  0  0  0  0
   -7.5550   10.1050   10.6760 C   0  0  0  0  0
   -7.4840   10.1770    9.3030 C   0  0  0  0  0
   -8.5390    9.7170    8.4560 C   0  0  0  0  0
   -9.6740    9.0760    9.0320 C   0  0  0  0  0
  -10.7010    8.5850    8.2760 N   0  0  0  0  0
  -10.6280    8.7180    6.9600 C   0  0  0  0  0
   -9.5650    9.3670    6.3040 C   0  0  0  0  0
   -8.5160    9.8690    7.0530 C   0  0  0  0  0
   -9.6520    9.5800    4.9230 N   0  0  0  0  0
   -8.6860   10.3790    4.1520 C   0  0  0  0  0
   -9.3650   10.5570    2.8040 C   0  0  0  0  0
  -10.2330    9.3000    2.6680 C   0  0  0  0  0
  -10.7530    9.0680    4.0960 C   0  0  0  0  0
  -11.4330    9.5070    1.7370 C   0  0  0  0  0
  -11.0010    9.6650    0.3220 N   0  0  0  0  0
  -11.1180    8.4350   -0.7110 S   0  0  0  0  0
  -10.5540    8.8690   -1.9500 O   0  0  0  0  0
  -10.5650    7.2830   -0.0700 O   0  0  0  0  0
  -12.8290    8.1570   -0.9550 C   0  0  0  0  0
   -6.3160   10.6140    8.7070 O   0  0  0  0  0
   -5.4850    9.6710    8.0400 C   0  0  0  0  0
   -6.5030   10.7040   11.6520 C   0  0  0  0  0
   -6.9830   10.6950   13.1180 C   0  0  0  0  0
   -5.1900    9.9100   11.6120 C   0  0  0  0  0
   -6.1900   12.1660   11.3290 C   0  0  0  0  0
  -10.8610    8.3000   11.1890 C   0  0  0  0  0
  -11.1700    6.8880   10.9470 C   0  0  0  0  0
  -10.6430    6.1650   10.0960 O   0  0  0  0  0
  -12.1820    6.3830   11.7560 N   0  0  0  0  0
  -12.8660    7.1010   12.6880 C   0  0  0  0  0
  -12.5950    8.4130   12.8880 C   0  0  0  0  0
  -11.5710    9.0170   12.1260 C   0  0  0  0  0
   -8.7496    9.3804   12.2765 H   0  0  0  0  0
  -11.4331    8.3032    6.3535 H   0  0  0  0  0
   -7.6826   10.3753    6.5661 H   0  0  0  0  0
   -7.7145    9.8918    4.0684 H   0  0  0  0  0
   -8.4550   11.3303    4.6314 H   0  0  0  0  0
   -8.6500   10.6599    1.9877 H   0  0  0  0  0
   -9.9500   11.4751    2.7502 H   0  0  0  0  0
   -9.6619    8.4731    2.2460 H   0  0  0  0  0
  -11.7017    9.5679    4.2913 H   0  0  0  0  0
  -10.9899    8.0237    4.2996 H   0  0  0  0  0
  -11.9561   10.4132    2.0426 H   0  0  0  0  0
  -12.0797    8.6323    1.8060 H   0  0  0  0  0
  -10.6278   10.5593    0.0037 H   0  0  0  0  0
  -13.3037    9.0832   -1.2789 H   0  0  0  0  0
  -12.9661    7.3908   -1.7180 H   0  0  0  0  0
  -13.2788    7.8245   -0.0195 H   0  0  0  0  0
   -5.1615    8.9086    8.7486 H   0  0  0  0  0
   -6.0458    9.2026    7.2312 H   0  0  0  0  0
   -4.6134   10.1820    7.6311 H   0  0  0  0  0
   -7.1418    9.6660   13.4407 H   0  0  0  0  0
   -6.2274   11.1626   13.7493 H   0  0  0  0  0
   -7.9178   11.2500   13.1963 H   0  0  0  0  0
   -4.4579   10.3879   12.2630 H   0  0  0  0  0
   -5.3723    8.8914   11.9544 H   0  0  0  0  0
   -4.8106    9.8889   10.5904 H   0  0  0  0  0
   -7.0913   12.7657   11.4556 H   0  0  0  0  0
   -5.4138   12.5276   12.0034 H   0  0  0  0  0
   -5.8426   12.2428   10.2987 H   0  0  0  0  0
  -13.6410    6.6146   13.2805 H   0  0  0  0  0
  -12.2552    8.4780   13.9216 H   0  0  0  0  0
  -13.5071    8.9375   12.6035 H   0  0  0  0  0
  -11.3383   10.0703   12.2824 H   0  0  0  0  0
  1  2  4  0  0  0
  1  6  4  0  0  0
  1 28  1  0  0  0
  2  3  4  0  0  0
  3  4  4  0  0  0
  3 24  1  0  0  0
  4  5  4  0  0  0
  4 22  1  0  0  0
  5  6  4  0  0  0
  5 10  4  0  0  0
  6  7  4  0  0  0
  7  8  4  0  0  0
  8  9  4  0  0  0
  9 10  4  0  0  0
  9 11  1  0  0  0
 11 12  1  0  0  0
 11 15  1  0  0  0
 12 13  1  0  0  0
 13 14  1  0  0  0
 14 15  1  0  0  0
 14 16  1  0  0  0
 16 17  1  0  0  0
 17 18  1  0  0  0
 18 19  2  0  0  0
 18 20  2  0  0  0
 18 21  1  0  0  0
 22 23  1  0  0  0
 24 25  1  0  0  0
 24 26  1  0  0  0
 24 27  1  0  0  0
 28 29  1  0  0  0
 28 34  2  0  0  0
 29 30  2  0  0  0
 29 31  1  0  0  0
 31 32  2  0  0  0
 32 33  1  0  0  0
 33 34  1  0  0  0
  2 35  1  0  0  0
  8 36  1  0  0  0
 10 37  1  0  0  0
 12 38  1  0  0  0
 12 39  1  0  0  0
 13 40  1  0  0  0
 13 41  1  0  0  0
 14 42  1  0  0  0
 15 43  1  0  0  0
 15 44  1  0  0  0
 16 45  1  0  0  0
 16 46  1  0  0  0
 17 47  1  0  0  0
 21 48  1  0  0  0
 21 49  1  0  0  0
 21 50  1  0  0  0
 23 51  1  0  0  0
 23 52  1  0  0  0
 23 53  1  0  0  0
 25 54  1  0  0  0
 25 55  1  0  0  0
 25 56  1  0  0  0
 26 57  1  0  0  0
 26 58  1  0  0  0
 26 59  1  0  0  0
 27 60  1  0  0  0
 27 61  1  0  0  0
 27 62  1  0  0  0
 32 63  1  0  0  0
 33 64  1  0  0  0
 33 65  1  0  0  0
 34 66  1  0  0  0
M  END
$$$$
