6oin_ligand
  -I-interpret- 

 37 39  0  0  0  0  0  0  0  0999 V2000
   -5.1130   10.6220  -17.8550 C   0  0  0  0  0
   -5.8910   11.7560  -18.2650 C   0  0  0  0  0
   -6.8680   13.2320  -20.1140 C   0  0  0  0  0
   -6.1240   12.1400  -19.6650 C   0  0  0  0  0
   -6.4900   12.5650  -17.2720 C   0  0  0  0  0
   -7.2420   13.6700  -17.7290 C   0  0  0  0  0
   -7.4370   14.0240  -19.1190 C   0  0  0  0  0
    0.1110    6.4990  -23.0140 C   0  0  0  0  0
    0.6690    6.7070  -24.2800 C   0  0  0  0  0
   -5.6080   11.3750  -20.6940 F   0  0  0  0  0
   -5.3990    9.8300  -16.9180 O   0  0  0  0  0
   -3.9370   10.4660  -18.6150 N   0  0  0  0  0
   -2.9990    9.4410  -18.3220 N   0  0  0  0  0
   -3.2160    7.9180  -19.2530 S   0  0  0  0  0
   -4.5920    7.5870  -19.6210 O   0  0  0  0  0
   -2.4900    6.8440  -18.5480 O   0  0  0  0  0
   -2.4270    8.0900  -20.8970 C   0  0  0  0  0
   -1.4040    7.1890  -21.2760 C   0  0  0  0  0
   -0.8650    7.4020  -22.5700 C   0  0  0  0  0
    0.1660    7.7050  -25.0980 C   0  0  0  0  0
   -0.8800    8.5860  -24.7100 C   0  0  0  0  0
   -1.3860    8.4220  -23.4020 C   0  0  0  0  0
   -2.4250    9.2900  -22.9770 C   0  0  0  0  0
   -2.9090    9.1110  -21.7050 C   0  0  0  0  0
   -6.9956   13.4510  -21.1741 H   0  0  0  0  0
   -6.3774   12.3474  -16.2099 H   0  0  0  0  0
   -7.7114   14.3047  -16.9774 H   0  0  0  0  0
   -8.0242   14.9030  -19.3850 H   0  0  0  0  0
    0.4254    5.6608  -22.3922 H   0  0  0  0  0
    1.4969    6.0856  -24.6214 H   0  0  0  0  0
   -3.7557   11.1022  -19.3914 H   0  0  0  0  0
   -2.2560    9.5600  -17.6334 H   0  0  0  0  0
   -1.0559    6.3900  -20.6214 H   0  0  0  0  0
    0.5954    7.8212  -26.0931 H   0  0  0  0  0
   -1.2704    9.3470  -25.3857 H   0  0  0  0  0
   -2.8217   10.0654  -23.6323 H   0  0  0  0  0
   -3.6817    9.7790  -21.3244 H   0  0  0  0  0
  1  2  1  0  0  0
  1 11  2  0  0  0
 12  1  1  0  0  0
  2  4  4  0  0  0
  2  5  4  0  0  0
  4  3  4  0  0  0
  3  7  4  0  0  0
  4 10  1  0  0  0
  5  6  4  0  0  0
  6  7  4  0  0  0
  8  9  4  0  0  0
 19  8  4  0  0  0
  9 20  4  0  0  0
 13 12  1  0  0  0
 14 13  1  0  0  0
 14 15  2  0  0  0
 14 16  2  0  0  0
 17 14  1  0  0  0
 18 17  4  0  0  0
 17 24  4  0  0  0
 18 19  4  0  0  0
 19 22  4  0  0  0
 20 21  4  0  0  0
 21 22  4  0  0  0
 22 23  4  0  0  0
 23 24  4  0  0  0
  3 25  1  0  0  0
  5 26  1  0  0  0
  6 27  1  0  0  0
  7 28  1  0  0  0
  8 29  1  0  0  0
  9 30  1  0  0  0
 12 31  1  0  0  0
 13 32  1  0  0  0
 18 33  1  0  0  0
 20 34  1  0  0  0
 21 35  1  0  0  0
 23 36  1  0  0  0
 24 37  1  0  0  0
M  END
$$$$
