4jbl_ligand
  -I-interpret- 

 21 20  0  0  0  0  0  0  0  0999 V2000
  -15.1820   26.3450    0.8650 N   0  3  0  0  0
  -15.4060   25.2420    1.8980 C   0  0  0  0  0
  -14.1190   24.4750    2.1820 C   0  0  0  0  0
  -14.0860   23.2800    2.4460 O   0  0  0  0  0
  -16.5440   24.3850    1.4270 C   0  0  0  0  0
  -17.7540   25.2960    1.2140 C   0  0  0  0  0
  -19.0500   24.5040    0.2350 S   0  0  0  0  0
  -18.4210   24.5600   -1.4790 C   0  0  0  0  0
  -13.0380   25.0760    2.1260 O   0  0  0  0  0
  -14.4107   26.9403    1.1668 H   0  0  0  0  0
  -14.9558   25.9243   -0.0362 H   0  0  0  0  0
  -16.0305   26.9043    0.7771 H   0  0  0  0  0
  -15.6848   25.6648    2.8632 H   0  0  0  0  0
  -16.7723   23.6173    2.1663 H   0  0  0  0  0
  -16.2801   23.8809    0.4973 H   0  0  0  0  0
  -17.4181   26.1817    0.6747 H   0  0  0  0  0
  -18.1704   25.5372    2.1920 H   0  0  0  0  0
  -18.2637   25.5977   -1.7732 H   0  0  0  0  0
  -17.4772   24.0177   -1.5362 H   0  0  0  0  0
  -19.1481   24.0979   -2.1468 H   0  0  0  0  0
  -13.1967   25.9985    1.9129 H   0  0  0  0  0
  1  2  1  0  0  0
  2  3  1  0  0  0
  2  5  1  0  0  0
  3  4  2  0  0  0
  3  9  1  0  0  0
  5  6  1  0  0  0
  6  7  1  0  0  0
  7  8  1  0  0  0
  1 10  1  0  0  0
  1 11  1  0  0  0
  1 12  1  0  0  0
  2 13  1  0  0  0
  5 14  1  0  0  0
  5 15  1  0  0  0
  6 16  1  0  0  0
  6 17  1  0  0  0
  8 18  1  0  0  0
  8 19  1  0  0  0
  8 20  1  0  0  0
  9 21  1  0  0  0
M  END
$$$$
