5vrp_ligand
  -I-interpret- 

 79 81  0  0  0  0  0  0  0  0999 V2000
   21.7280   40.8500   14.5480 C   0  0  0  0  0
   21.4750   41.1250   15.8640 C   0  0  0  0  0
   22.5410   41.4720   16.6720 C   0  0  0  0  0
   23.8250   41.5370   16.1550 C   0  0  0  0  0
   24.0780   41.2470   14.8170 C   0  0  0  0  0
   25.5220   41.3430   14.2720 C   0  0  0  0  0
   25.8130   42.6600   13.5180 C   0  0  0  0  0
   24.8440   43.8210   13.7780 C   0  0  0  0  0
   26.3900   45.2710   12.5250 N   0  0  0  0  0
   26.2550   47.3560   13.3880 O   0  0  0  0  0
   28.2430   46.4010   12.9140 O   0  0  0  0  0
   23.1220   43.0540    8.7520 C   0  0  0  0  0
   24.2470   42.2990    9.3570 C   0  0  0  0  0
   23.7830   41.2600   10.2830 C   0  0  0  0  0
   23.5060   39.9800    9.8330 C   0  0  0  0  0
   23.0690   39.0040   10.7090 C   0  0  0  0  0
   22.9000   39.2960   12.0500 C   0  0  0  0  0
   23.1590   40.5760   12.5300 C   0  0  0  0  0
   23.6000   41.5440   11.6310 C   0  0  0  0  0
   22.9910   40.9010   13.9790 C   0  0  0  0  0
   20.6910   40.5100   13.7490 F   0  0  0  0  0
   26.4240   41.2750   15.3800 O   0  0  0  0  0
   24.9990   44.9190   12.7490 C   0  0  0  0  0
   26.9070   46.4200   12.9770 C   0  0  0  0  0
   28.9060   47.6150   13.3410 C   0  0  0  0  0
   26.0180   39.9820   13.5720 C   0  0  0  0  0
   25.9990   38.7390   14.4670 C   0  0  0  0  0
   26.5350   37.5040   13.7420 C   0  0  0  0  0
   27.8700   37.7970   13.0830 C   0  0  0  0  0
   27.7950   39.0230   12.2810 N   0  0  0  0  0
   27.3720   40.1580   13.0990 C   0  0  0  0  0
   28.0740   39.0630   10.9580 C   0  0  0  0  0
   28.4180   38.0610   10.3510 O   0  0  0  0  0
   27.9510   40.3880   10.2280 C   0  0  0  0  0
   28.7590   40.4010    8.9410 C   0  0  0  0  0
   30.1250   40.6590    9.2650 O   0  0  0  0  0
   28.3340   41.5920    8.0400 C   0  0  0  0  0
   27.6010   41.2140    6.8340 N   0  3  0  0  0
   20.4622   41.0720   16.2635 H   0  0  0  0  0
   22.3704   41.6965   17.7249 H   0  0  0  0  0
   24.6512   41.8201   16.8072 H   0  0  0  0  0
   25.7292   42.4268   12.4565 H   0  0  0  0  0
   26.7904   42.9975   13.8629 H   0  0  0  0  0
   25.0628   44.2378   14.7611 H   0  0  0  0  0
   23.8252   43.4378   13.7210 H   0  0  0  0  0
   26.9888   44.6257   12.0097 H   0  0  0  0  0
   22.4816   42.3675    8.1981 H   0  0  0  0  0
   22.5440   43.5360    9.5404 H   0  0  0  0  0
   23.5169   43.8111    8.0746 H   0  0  0  0  0
   24.8642   43.0013    9.9172 H   0  0  0  0  0
   24.8009   41.8140    8.5532 H   0  0  0  0  0
   23.6338   39.7397    8.7775 H   0  0  0  0  0
   22.8568   38.0001   10.3412 H   0  0  0  0  0
   22.5618   38.5187   12.7352 H   0  0  0  0  0
   23.8070   42.5506   11.9942 H   0  0  0  0  0
   26.2669   40.4644   15.8698 H   0  0  0  0  0
   24.4811   45.8042   13.1180 H   0  0  0  0  0
   24.5846   44.5607   11.8067 H   0  0  0  0  0
   28.5804   48.4451   12.7140 H   0  0  0  0  0
   28.6501   47.8209   14.3803 H   0  0  0  0  0
   29.9849   47.4899   13.2490 H   0  0  0  0  0
   25.3032   39.8007   12.7693 H   0  0  0  0  0
   24.9667   38.5431   14.7570 H   0  0  0  0  0
   26.6357   38.9307   15.3307 H   0  0  0  0  0
   25.8209   37.2135   12.9714 H   0  0  0  0  0
   26.6722   36.7037   14.4692 H   0  0  0  0  0
   28.1306   36.9642   12.4298 H   0  0  0  0  0
   28.6242   37.9293   13.8588 H   0  0  0  0  0
   28.0355   40.2337   13.9605 H   0  0  0  0  0
   27.4144   41.0615   12.4907 H   0  0  0  0  0
   28.3320   41.1745   10.8794 H   0  0  0  0  0
   26.9022   40.5437    9.9754 H   0  0  0  0  0
   28.6049   39.4458    8.4390 H   0  0  0  0  0
   30.6472   40.6699    8.4595 H   0  0  0  0  0
   29.2495   42.0852    7.7133 H   0  0  0  0  0
   27.6670   42.2169    8.6339 H   0  0  0  0  0
   27.3632   42.0531    6.3051 H   0  0  0  0  0
   28.1833   40.6032    6.2611 H   0  0  0  0  0
   26.7466   40.7227    7.0968 H   0  0  0  0  0
  1  2  4  0  0  0
 20  1  4  0  0  0
  1 21  1  0  0  0
  2  3  4  0  0  0
  4  3  4  0  0  0
  5  4  4  0  0  0
  5  6  1  0  0  0
 20  5  4  0  0  0
  6  7  1  0  0  0
  6 22  1  0  0  0
  6 26  1  0  0  0
  7  8  1  0  0  0
  8 23  1  0  0  0
 23  9  1  0  0  0
  9 24  1  0  0  0
 24 10  2  0  0  0
 24 11  1  0  0  0
 11 25  1  0  0  0
 13 12  1  0  0  0
 14 13  1  0  0  0
 14 15  4  0  0  0
 19 14  4  0  0  0
 16 15  4  0  0  0
 17 16  4  0  0  0
 18 17  4  0  0  0
 18 19  4  0  0  0
 18 20  1  0  0  0
 26 27  1  0  0  0
 26 31  1  0  0  0
 27 28  1  0  0  0
 28 29  1  0  0  0
 29 30  1  0  0  0
 30 31  1  0  0  0
 30 32  1  0  0  0
 32 33  2  0  0  0
 32 34  1  0  0  0
 34 35  1  0  0  0
 35 36  1  0  0  0
 35 37  1  0  0  0
 37 38  1  0  0  0
  2 39  1  0  0  0
  3 40  1  0  0  0
  4 41  1  0  0  0
  7 42  1  0  0  0
  7 43  1  0  0  0
  8 44  1  0  0  0
  8 45  1  0  0  0
  9 46  1  0  0  0
 12 47  1  0  0  0
 12 48  1  0  0  0
 12 49  1  0  0  0
 13 50  1  0  0  0
 13 51  1  0  0  0
 15 52  1  0  0  0
 16 53  1  0  0  0
 17 54  1  0  0  0
 19 55  1  0  0  0
 22 56  1  0  0  0
 23 57  1  0  0  0
 23 58  1  0  0  0
 25 59  1  0  0  0
 25 60  1  0  0  0
 25 61  1  0  0  0
 26 62  1  0  0  0
 27 63  1  0  0  0
 27 64  1  0  0  0
 28 65  1  0  0  0
 28 66  1  0  0  0
 29 67  1  0  0  0
 29 68  1  0  0  0
 31 69  1  0  0  0
 31 70  1  0  0  0
 34 71  1  0  0  0
 34 72  1  0  0  0
 35 73  1  0  0  0
 36 74  1  0  0  0
 37 75  1  0  0  0
 37 76  1  0  0  0
 38 77  1  0  0  0
 38 78  1  0  0  0
 38 79  1  0  0  0
M  END
$$$$
