1uyf_ligand
  -I-interpret- 

 50 52  0  0  0  0  0  0  0  0999 V2000
    2.3120   14.0680   24.3150 Cl  0  0  0  0  0
    3.8980   13.2920   24.2100 C   0  0  0  0  0
    5.0260   13.9110   24.7110 C   0  0  0  0  0
    5.1190   15.1390   25.3580 O   0  0  0  0  0
    4.1260   15.7230   26.1350 C   0  0  0  0  0
    6.2650   13.3670   24.6310 C   0  0  0  0  0
    7.3090   14.0870   25.2130 O   0  0  0  0  0
    7.7660   15.2710   24.5720 C   0  0  0  0  0
    6.5020   12.1950   24.0430 C   0  0  0  0  0
    7.8340   11.7330   24.1060 O   0  0  0  0  0
    8.1810   10.7080   23.1560 C   0  0  0  0  0
    5.4270   11.5070   23.5020 C   0  0  0  0  0
    4.1400   12.0430   23.5720 C   0  0  0  0  0
    3.0410   11.2150   22.9470 C   0  0  0  0  0
    1.8300   11.0150   23.8120 C   0  0  0  0  0
    0.6270   11.4450   23.5600 N   0  0  0  0  0
   -0.1750   10.9720   24.6730 C   0  0  0  0  0
   -1.4840   11.1340   24.9560 C   0  0  0  0  0
   -2.4570   11.8080   24.1250 N   0  0  0  0  0
    0.5830   10.3140   25.5770 C   0  0  0  0  0
    0.1470    9.8430   26.7050 N   0  0  0  0  0
   -1.1360   10.0080   26.9530 C   0  0  0  0  0
   -1.8970   10.6050   26.0990 N   0  0  0  0  0
    1.9230   10.3260   25.0990 N   0  0  0  0  0
    3.0880    9.6600   25.7080 C   0  0  0  0  0
    2.9510    8.1510   25.6090 C   0  0  0  0  0
    3.3900    7.4800   24.3360 C   0  0  0  0  0
    4.7800    7.7670   23.7480 C   0  0  0  0  0
    5.8230    8.0360   23.2680 C   0  0  0  0  0
   -1.6960    9.5510   28.0950 F   0  0  0  0  0
    3.2344   15.8770   25.5272 H   0  0  0  0  0
    3.8880   15.0664   26.9718 H   0  0  0  0  0
    4.4795   16.6822   26.5133 H   0  0  0  0  0
    8.1237   15.0263   23.5719 H   0  0  0  0  0
    6.9449   15.9844   24.5011 H   0  0  0  0  0
    8.5785   15.7069   25.1533 H   0  0  0  0  0
    7.5453    9.8370   23.3148 H   0  0  0  0  0
    8.0342   11.0870   22.1446 H   0  0  0  0  0
    9.2253   10.4269   23.2920 H   0  0  0  0  0
    5.5875   10.5428   23.0196 H   0  0  0  0  0
    3.4598   10.2267   22.7572 H   0  0  0  0  0
    2.7087   11.7513   22.0581 H   0  0  0  0  0
   -2.1725   12.2140   23.2336 H   0  0  0  0  0
   -3.4277   11.8774   24.4303 H   0  0  0  0  0
    3.1470    9.9417   26.7593 H   0  0  0  0  0
    3.9891    9.9689   25.1782 H   0  0  0  0  0
    1.8817    7.9536   25.6843 H   0  0  0  0  0
    3.6039    7.7513   26.3849 H   0  0  0  0  0
    2.6959    7.8511   23.5819 H   0  0  0  0  0
    3.4159    6.4191   24.5850 H   0  0  0  0  0
  1  2  1  0  0  0
  2  3  4  0  0  0
  2 13  4  0  0  0
  3  4  1  0  0  0
  3  6  4  0  0  0
  4  5  1  0  0  0
  6  7  1  0  0  0
  6  9  4  0  0  0
  7  8  1  0  0  0
  9 10  1  0  0  0
  9 12  4  0  0  0
 10 11  1  0  0  0
 12 13  4  0  0  0
 13 14  1  0  0  0
 14 15  1  0  0  0
 15 16  4  0  0  0
 15 24  4  0  0  0
 16 17  4  0  0  0
 17 18  4  0  0  0
 17 20  4  0  0  0
 18 19  1  0  0  0
 18 23  4  0  0  0
 20 21  4  0  0  0
 20 24  4  0  0  0
 21 22  4  0  0  0
 22 23  4  0  0  0
 22 30  1  0  0  0
 24 25  1  0  0  0
 25 26  1  0  0  0
 26 27  1  0  0  0
 27 28  1  0  0  0
 28 29  3  0  0  0
  5 31  1  0  0  0
  5 32  1  0  0  0
  5 33  1  0  0  0
  8 34  1  0  0  0
  8 35  1  0  0  0
  8 36  1  0  0  0
 11 37  1  0  0  0
 11 38  1  0  0  0
 11 39  1  0  0  0
 12 40  1  0  0  0
 14 41  1  0  0  0
 14 42  1  0  0  0
 19 43  1  0  0  0
 19 44  1  0  0  0
 25 45  1  0  0  0
 25 46  1  0  0  0
 26 47  1  0  0  0
 26 48  1  0  0  0
 27 49  1  0  0  0
 27 50  1  0  0  0
M  END
$$$$
