6f9u_ligand
  -I-interpret- 

 71 72  0  0  0  0  0  0  0  0999 V2000
  -13.7850   -5.4290   15.9570 C   0  0  0  0  0
  -12.8210   -5.9820   16.9240 N   0  0  0  0  0
  -12.9780   -7.3500   17.4460 C   0  0  0  0  0
  -13.7960   -8.7450   19.3850 C   0  0  0  0  0
  -14.4320  -10.4590   21.1550 C   0  0  0  0  0
  -15.2210   -8.2330   21.3150 C   0  0  0  0  0
  -12.8260   -8.6210   21.7560 C   0  0  0  0  0
  -11.9260   -7.9360   23.9970 C   0  0  0  0  0
  -13.7690   -7.5020   25.7270 C   0  0  0  0  0
  -15.2960   -8.8860   26.9520 C   0  0  0  0  0
  -12.3210   -1.8840   13.6190 C   0  0  0  0  0
  -13.3830   -2.8740   13.1290 C   0  0  0  0  0
  -13.6730   -3.9980   15.4050 C   0  0  0  0  0
  -14.7220   -3.1430   16.1140 C   0  0  0  0  0
  -14.4130   -1.6500   16.0270 C   0  0  0  0  0
  -13.2560   -7.3690   18.9500 C   0  0  0  0  0
  -14.0780   -8.9020   20.8870 C   0  0  0  0  0
  -15.5660  -10.4940   22.2660 C   0  0  0  0  0
  -15.9580   -9.1790   22.4960 C   0  0  0  0  0
  -12.3560   -7.1760   25.2470 C   0  0  0  0  0
  -14.0090   -8.6110   26.5190 C   0  0  0  0  0
  -16.3410   -8.0430   26.5910 C   0  0  0  0  0
  -16.0960   -6.9310   25.8020 C   0  0  0  0  0
  -14.8060   -6.6550   25.3690 C   0  0  0  0  0
  -11.4130   -9.3260   24.4330 C   0  0  0  0  0
  -14.2890   -6.2950   19.2490 C   0  0  0  0  0
  -13.9970   -3.8840   13.9920 N   0  0  0  0  0
  -13.0450   -8.1600   23.1040 N   0  0  0  0  0
  -13.6990   -2.8240   11.9880 O   0  0  0  0  0
  -15.0050   -0.9340   15.1710 O   0  0  0  0  0
  -13.5500   -1.1460   16.7980 O   0  0  0  0  0
  -14.7120   -6.0760   15.6170 O   0  0  0  0  0
  -11.7060   -8.8130   21.3660 O   0  0  0  0  0
  -17.6520   -8.3030   27.0200 O   0  0  0  0  0
  -12.1560  -10.3300   24.2640 O   0  0  0  0  0
  -10.2660   -9.5110   24.9440 O   0  0  0  0  0
  -13.9820   -5.3610   20.0460 O   0  0  0  0  0
  -15.4270   -6.3620   18.6990 O   0  0  0  0  0
  -12.0356   -5.4107   17.2356 H   0  0  0  0  0
  -12.0476   -7.8891   17.2672 H   0  0  0  0  0
  -13.8265   -7.8100   16.9394 H   0  0  0  0  0
  -13.0239   -9.4733   19.1370 H   0  0  0  0  0
  -14.7500   -8.8787   18.8751 H   0  0  0  0  0
  -13.5485  -11.0030   21.4891 H   0  0  0  0  0
  -14.7754  -10.9392   20.2387 H   0  0  0  0  0
  -15.9016   -8.0730   20.4788 H   0  0  0  0  0
  -14.9582   -7.2564   21.7216 H   0  0  0  0  0
  -11.1639   -7.3491   23.4843 H   0  0  0  0  0
  -15.4886   -9.7604   27.5736 H   0  0  0  0  0
  -11.3982   -2.0365   13.0592 H   0  0  0  0  0
  -12.6770   -0.8654   13.4647 H   0  0  0  0  0
  -12.1350   -2.0484   14.6804 H   0  0  0  0  0
  -12.6392   -3.6902   15.5615 H   0  0  0  0  0
  -14.7305   -3.4245   17.1670 H   0  0  0  0  0
  -15.6825   -3.3171   15.6290 H   0  0  0  0  0
  -12.3332   -7.1798   19.4984 H   0  0  0  0  0
  -15.1908  -10.9485   23.1830 H   0  0  0  0  0
  -16.4125  -11.0938   21.9315 H   0  0  0  0  0
  -17.0427   -9.0850   22.4444 H   0  0  0  0  0
  -15.6577   -8.8554   23.4926 H   0  0  0  0  0
  -12.3389   -6.1148   24.9985 H   0  0  0  0  0
  -11.6722   -7.4613   26.0465 H   0  0  0  0  0
  -13.1863   -9.2676   26.8020 H   0  0  0  0  0
  -16.9172   -6.2717   25.5207 H   0  0  0  0  0
  -14.6102   -5.7782   24.7518 H   0  0  0  0  0
  -14.6754   -4.5301   13.5885 H   0  0  0  0  0
  -13.9957   -7.9900   23.4321 H   0  0  0  0  0
  -15.6229   -1.4757   14.6747 H   0  0  0  0  0
  -18.2394   -7.6241   26.6798 H   0  0  0  0  0
   -9.8093   -8.6696   25.0155 H   0  0  0  0  0
  -15.4630   -7.1373   18.1341 H   0  0  0  0  0
  1  2  1  0  0  0
 13  1  1  0  0  0
  1 32  2  0  0  0
  2  3  1  0  0  0
  3 16  1  0  0  0
 16  4  1  0  0  0
  4 17  1  0  0  0
 17  5  1  0  0  0
  5 18  1  0  0  0
 17  6  1  0  0  0
  6 19  1  0  0  0
 17  7  1  0  0  0
  7 28  1  0  0  0
  7 33  2  0  0  0
  8 20  1  0  0  0
  8 25  1  0  0  0
 28  8  1  0  0  0
 20  9  1  0  0  0
  9 21  4  0  0  0
  9 24  4  0  0  0
 21 10  4  0  0  0
 10 22  4  0  0  0
 12 11  1  0  0  0
 27 12  1  0  0  0
 12 29  2  0  0  0
 13 14  1  0  0  0
 13 27  1  0  0  0
 14 15  1  0  0  0
 15 30  1  0  0  0
 15 31  2  0  0  0
 16 26  1  0  0  0
 18 19  1  0  0  0
 22 23  4  0  0  0
 22 34  1  0  0  0
 23 24  4  0  0  0
 25 35  2  0  0  0
 25 36  1  0  0  0
 26 37  2  0  0  0
 26 38  1  0  0  0
  2 39  1  0  0  0
  3 40  1  0  0  0
  3 41  1  0  0  0
  4 42  1  0  0  0
  4 43  1  0  0  0
  5 44  1  0  0  0
  5 45  1  0  0  0
  6 46  1  0  0  0
  6 47  1  0  0  0
  8 48  1  0  0  0
 10 49  1  0  0  0
 11 50  1  0  0  0
 11 51  1  0  0  0
 11 52  1  0  0  0
 13 53  1  0  0  0
 14 54  1  0  0  0
 14 55  1  0  0  0
 16 56  1  0  0  0
 18 57  1  0  0  0
 18 58  1  0  0  0
 19 59  1  0  0  0
 19 60  1  0  0  0
 20 61  1  0  0  0
 20 62  1  0  0  0
 21 63  1  0  0  0
 23 64  1  0  0  0
 24 65  1  0  0  0
 27 66  1  0  0  0
 28 67  1  0  0  0
 30 68  1  0  0  0
 34 69  1  0  0  0
 36 70  1  0  0  0
 38 71  1  0  0  0
M  END
$$$$
