6e7s_ligand
  -I-interpret- 

 56 57  0  0  0  0  0  0  0  0999 V2000
  -16.1030  -65.5250  162.8560 C   0  0  0  0  0
  -16.7250  -66.7660  163.0760 C   0  0  0  0  0
  -15.9500  -67.8850  163.4440 C   0  0  0  0  0
  -14.5850  -67.7590  163.6000 C   0  0  0  0  0
  -13.9600  -66.5130  163.3880 C   0  0  0  0  0
  -14.7310  -65.4000  163.0050 C   0  0  0  0  0
  -14.0400  -64.0120  162.7620 C   0  0  0  0  0
  -14.4370  -63.3760  161.3900 C   0  0  0  0  0
  -14.4300  -61.9480  161.4820 N   0  3  0  0  0
  -15.4060  -61.3870  160.5280 C   0  0  0  0  0
  -15.4010  -59.8490  160.5990 C   0  0  0  0  0
  -13.0930  -61.4400  161.1580 C   0  0  0  0  0
  -12.0560  -61.9190  162.1900 C   0  0  0  0  0
  -10.7120  -61.2150  161.9100 C   0  0  0  0  0
   -9.9320  -61.2530  163.1010 O   0  0  0  0  0
   -8.7930  -60.4120  163.0570 C   0  0  0  0  0
   -8.5720  -59.5870  161.9390 C   0  0  0  0  0
   -7.4420  -58.7640  161.8910 C   0  0  0  0  0
   -6.5670  -58.7370  162.9540 C   0  0  0  0  0
   -6.7730  -59.5820  164.0630 C   0  0  0  0  0
   -7.8970  -60.4020  164.1130 C   0  0  0  0  0
   -5.3520  -57.9040  162.8800 N   0  0  0  0  0
   -3.9980  -58.4510  161.9420 S   0  0  0  0  0
   -4.4450  -58.5460  160.1640 C   0  0  0  0  0
   -3.5050  -59.7580  162.4360 O   0  0  0  0  0
   -2.8330  -57.5910  162.1510 O   0  0  0  0  0
  -12.4770  -61.6000  163.4510 O   0  0  0  0  0
  -13.6160  -69.2040  164.0720 Cl  0  0  0  0  0
  -16.7190  -69.4770  163.7180 Cl  0  0  0  0  0
  -16.7004  -64.6600  162.5679 H   0  0  0  0  0
  -17.8047  -66.8633  162.9623 H   0  0  0  0  0
  -12.8828  -66.4123  163.5204 H   0  0  0  0  0
  -12.9615  -64.1697  162.7595 H   0  0  0  0  0
  -14.3618  -63.3337  163.5522 H   0  0  0  0  0
  -15.4391  -63.7097  161.1205 H   0  0  0  0  0
  -13.7170  -63.6867  160.6329 H   0  0  0  0  0
  -14.6800  -61.6715  162.4314 H   0  0  0  0  0
  -16.4013  -61.7513  160.7823 H   0  0  0  0  0
  -15.1351  -61.6971  159.5188 H   0  0  0  0  0
  -15.6665  -59.5323  161.6076 H   0  0  0  0  0
  -14.4066  -59.4783  160.3503 H   0  0  0  0  0
  -16.1264  -59.4514  159.8892 H   0  0  0  0  0
  -13.1205  -60.3504  161.1697 H   0  0  0  0  0
  -12.8060  -61.8129  160.1748 H   0  0  0  0  0
  -11.9367  -62.9998  162.1139 H   0  0  0  0  0
  -10.8861  -60.1818  161.6094 H   0  0  0  0  0
  -10.1854  -61.7217  161.1013 H   0  0  0  0  0
   -9.2808  -59.5892  161.1109 H   0  0  0  0  0
   -7.2543  -58.1451  161.0136 H   0  0  0  0  0
   -6.0527  -59.5935  164.8811 H   0  0  0  0  0
   -8.0717  -61.0356  164.9826 H   0  0  0  0  0
   -5.3079  -57.0138  163.3760 H   0  0  0  0  0
   -3.5668  -58.8307  159.5846 H   0  0  0  0  0
   -5.2292  -59.2906  160.0271 H   0  0  0  0  0
   -4.8035  -57.5729  159.8283 H   0  0  0  0  0
  -11.8268  -61.9009  164.0899 H   0  0  0  0  0
  1  2  4  0  0  0
  1  6  4  0  0  0
  2  3  4  0  0  0
  3  4  4  0  0  0
  3 29  1  0  0  0
  4  5  4  0  0  0
  4 28  1  0  0  0
  5  6  4  0  0  0
  6  7  1  0  0  0
  7  8  1  0  0  0
  8  9  1  0  0  0
  9 10  1  0  0  0
  9 12  1  0  0  0
 10 11  1  0  0  0
 12 13  1  0  0  0
 13 14  1  0  0  0
 13 27  1  0  0  0
 14 15  1  0  0  0
 15 16  1  0  0  0
 16 17  4  0  0  0
 16 21  4  0  0  0
 17 18  4  0  0  0
 18 19  4  0  0  0
 19 20  4  0  0  0
 19 22  1  0  0  0
 20 21  4  0  0  0
 22 23  1  0  0  0
 23 24  1  0  0  0
 23 25  2  0  0  0
 23 26  2  0  0  0
  1 30  1  0  0  0
  2 31  1  0  0  0
  5 32  1  0  0  0
  7 33  1  0  0  0
  7 34  1  0  0  0
  8 35  1  0  0  0
  8 36  1  0  0  0
  9 37  1  0  0  0
 10 38  1  0  0  0
 10 39  1  0  0  0
 11 40  1  0  0  0
 11 41  1  0  0  0
 11 42  1  0  0  0
 12 43  1  0  0  0
 12 44  1  0  0  0
 13 45  1  0  0  0
 14 46  1  0  0  0
 14 47  1  0  0  0
 17 48  1  0  0  0
 18 49  1  0  0  0
 20 50  1  0  0  0
 21 51  1  0  0  0
 22 52  1  0  0  0
 24 53  1  0  0  0
 24 54  1  0  0  0
 24 55  1  0  0  0
 27 56  1  0  0  0
M  END
$$$$
