6mdc_ligand
  -I-interpret- 

 64 69  0  0  0  0  0  0  0  0999 V2000
   22.5040   40.1300    5.1530 C   0  0  0  0  0
   21.3350   40.8970    5.1450 C   0  0  0  0  0
   21.1150   41.9190    4.0880 C   0  0  0  0  0
   29.2640   42.8870    2.1170 O   0  0  0  0  0
   20.0870   42.5990    4.0880 O   0  0  0  0  0
   29.5340   42.2780    3.3470 C   0  0  0  0  0
   28.1860   42.5230    4.0610 C   0  0  0  0  0
   30.8100   42.9180    3.9010 C   0  0  0  0  0
   21.8630   42.8940    1.9830 C   0  0  0  0  0
   20.6170   40.5230    6.2340 C   0  0  0  0  0
   19.3000   40.8750    6.7640 C   0  0  0  0  0
   18.1080   40.7840    5.9970 C   0  0  0  0  0
   16.8800   41.1780    6.5930 C   0  0  0  0  0
   17.9510   41.7030    8.6000 C   0  0  0  0  0
   19.2050   41.2990    8.1010 C   0  0  0  0  0
   14.3980   41.5290    6.3320 C   0  0  0  0  0
   13.3440   42.0150    5.3670 C   0  0  0  0  0
   14.0340   42.9980    6.2900 C   0  0  0  0  0
   28.0110   42.4090    1.6760 C   0  0  0  0  0
   23.3090   41.1830    3.2700 C   0  0  0  0  0
   24.7930   42.7440    1.9850 C   0  0  0  0  0
   25.9520   43.2210    2.8890 C   0  0  0  0  0
   27.1520   42.2050    2.9510 C   0  0  0  0  0
   26.6550   40.7140    3.0780 C   0  0  0  0  0
   25.4060   40.3700    2.2100 C   0  0  0  0  0
   22.1110   42.0010    3.1500 N   0  0  0  0  0
   23.5240   40.3430    4.2530 N   0  0  0  0  0
   24.4010   41.4070    2.4360 N   0  0  0  0  0
   28.0570   43.8880    4.6390 N   0  3  0  0  0
   21.4360   39.5900    6.8190 N   0  0  0  0  0
   22.6090   39.3550    6.1840 N   0  0  0  0  0
   16.8160   41.6320    7.8670 N   0  0  0  0  0
   15.7030   41.0910    5.8280 N   0  0  0  0  0
   18.0980   40.1710    4.3750 Cl  0  0  0  0  0
   29.7775   41.2171    3.4051 H   0  0  0  0  0
   28.0529   41.9020    4.9469 H   0  0  0  0  0
   30.7001   44.0024    3.9021 H   0  0  0  0  0
   30.9781   42.5676    4.9193 H   0  0  0  0  0
   31.6569   42.6380    3.2746 H   0  0  0  0  0
   22.6629   43.6313    1.9149 H   0  0  0  0  0
   21.8374   42.2985    1.0704 H   0  0  0  0  0
   20.9080   43.4030    2.1131 H   0  0  0  0  0
   17.8928   42.0884    9.6179 H   0  0  0  0  0
   20.0871   41.3149    8.7411 H   0  0  0  0  0
   14.4353   40.7654    7.1090 H   0  0  0  0  0
   12.3304   41.7523    5.0641 H   0  0  0  0  0
   13.0999   41.9213    4.3088 H   0  0  0  0  0
   14.5342   43.9646    6.2310 H   0  0  0  0  0
   13.7682   43.7963    6.9829 H   0  0  0  0  0
   28.1192   41.4766    1.1220 H   0  0  0  0  0
   27.5391   43.1158    0.9934 H   0  0  0  0  0
   25.1107   42.7157    0.9427 H   0  0  0  0  0
   23.9496   43.4310    2.0540 H   0  0  0  0  0
   25.5586   43.3281    3.8999 H   0  0  0  0  0
   26.3317   44.1541    2.4728 H   0  0  0  0  0
   26.3709   40.5609    4.1191 H   0  0  0  0  0
   27.4686   40.0768    2.7314 H   0  0  0  0  0
   25.0099   39.3937    2.4895 H   0  0  0  0  0
   25.6785   40.3325    1.1553 H   0  0  0  0  0
   24.4186   39.8624    4.3482 H   0  0  0  0  0
   28.7682   44.0200    5.3582 H   0  0  0  0  0
   28.1843   44.5815    3.9019 H   0  0  0  0  0
   27.1304   43.9950    5.0517 H   0  0  0  0  0
   15.7597   40.7077    4.8845 H   0  0  0  0  0
  1  2  4  0  0  0
 27  1  1  0  0  0
  1 31  4  0  0  0
  3  2  1  0  0  0
  2 10  4  0  0  0
  3  5  2  0  0  0
 26  3  1  0  0  0
  4  6  1  0  0  0
 19  4  1  0  0  0
  7  6  1  0  0  0
  6  8  1  0  0  0
 23  7  1  0  0  0
  7 29  1  0  0  0
 26  9  1  0  0  0
 10 11  1  0  0  0
 10 30  4  0  0  0
 11 12  4  0  0  0
 11 15  4  0  0  0
 12 13  4  0  0  0
 12 34  1  0  0  0
 13 32  4  0  0  0
 13 33  1  0  0  0
 15 14  4  0  0  0
 14 32  4  0  0  0
 16 17  1  0  0  0
 16 18  1  0  0  0
 33 16  1  0  0  0
 18 17  1  0  0  0
 23 19  1  0  0  0
 20 26  4  0  0  0
 20 27  1  0  0  0
 28 20  1  0  0  0
 22 21  1  0  0  0
 21 28  1  0  0  0
 22 23  1  0  0  0
 23 24  1  0  0  0
 24 25  1  0  0  0
 25 28  1  0  0  0
 30 31  4  0  0  0
  6 35  1  0  0  0
  7 36  1  0  0  0
  8 37  1  0  0  0
  8 38  1  0  0  0
  8 39  1  0  0  0
  9 40  1  0  0  0
  9 41  1  0  0  0
  9 42  1  0  0  0
 14 43  1  0  0  0
 15 44  1  0  0  0
 16 45  1  0  0  0
 17 46  1  0  0  0
 17 47  1  0  0  0
 18 48  1  0  0  0
 18 49  1  0  0  0
 19 50  1  0  0  0
 19 51  1  0  0  0
 21 52  1  0  0  0
 21 53  1  0  0  0
 22 54  1  0  0  0
 22 55  1  0  0  0
 24 56  1  0  0  0
 24 57  1  0  0  0
 25 58  1  0  0  0
 25 59  1  0  0  0
 27 60  1  0  0  0
 29 61  1  0  0  0
 29 62  1  0  0  0
 29 63  1  0  0  0
 33 64  1  0  0  0
M  END
$$$$
