6gjd_ligand
  -I-interpret- 

117124  0  0  0  0  0  0  0  0999 V2000
   22.0340    6.7130   44.8070 C   0  0  0  0  0
   23.5230    6.4070   45.0000 C   0  0  0  0  0
   23.9570    4.9610   44.7620 C   0  0  0  0  0
   23.7340    4.4930   43.3560 C   0  0  0  0  0
   22.5620    4.3700   42.7600 C   0  0  0  0  0
   21.8920    5.3900   41.8880 C   0  0  0  0  0
   22.2150    6.8530   42.2040 C   0  0  0  0  0
    2.4970    6.9540   49.1750 O   0  0  0  0  0
    1.5140    6.8060   48.4540 C   0  0  0  0  0
    1.6940    6.8400   46.9500 C   0  0  0  0  0
    3.0390    7.2210   46.5290 N   0  3  0  0  0
    3.3550    8.6390   46.6860 C   0  0  0  0  0
    4.6120    8.8400   45.8380 C   0  0  0  0  0
    4.5740    7.6960   44.8180 C   0  0  0  0  0
    3.2630    6.9730   45.1000 C   0  0  0  0  0
    5.7950    6.7950   44.9500 C   0  0  0  0  0
    5.6970    5.6690   45.4150 O   0  0  0  0  0
    6.9460    7.3410   44.5260 N   0  0  0  0  0
    8.2340    6.7680   44.5270 C   0  0  0  0  0
    8.5210    5.6550   45.3110 C   0  0  0  0  0
    9.7820    5.0970   45.2750 C   0  0  0  0  0
   10.7730    5.7120   44.5150 C   0  0  0  0  0
   12.0850    5.4000   44.3380 N   0  0  0  0  0
   12.6770    6.2730   43.4970 N   0  0  0  0  0
   11.7410    7.1600   43.1310 C   0  0  0  0  0
   12.0610    8.2680   42.2150 C   0  0  0  0  0
   11.0990    8.7920   41.3550 C   0  0  0  0  0
   11.4180    9.8370   40.5160 C   0  0  0  0  0
   12.6400   10.3860   40.4730 N   0  0  0  0  0
   13.5770    9.8710   41.2850 C   0  0  0  0  0
   13.3340    8.8290   42.1640 C   0  0  0  0  0
   14.9260   10.5360   41.2410 C   0  0  0  0  0
   15.0170   11.7000   40.8470 O   0  0  0  0  0
   15.9760    9.8090   41.6430 N   0  0  0  0  0
   17.3370   10.3300   41.6230 C   0  0  0  0  0
   18.3560    9.3080   42.1000 C   0  0  0  0  0
   19.7980    9.8120   42.0420 C   0  0  0  0  0
   20.2310   10.3430   43.3260 N   0  0  0  0  0
   21.0760    9.6950   44.1770 C   0  0  0  0  0
   21.0250    9.8950   45.3850 O   0  0  0  0  0
   21.9780    8.8060   43.6030 O   0  0  0  0  0
   21.6180    7.4120   43.5050 C   0  0  0  0  0
   10.5310    6.8380   43.7670 C   0  0  0  0  0
    9.2380    7.3770   43.7840 C   0  0  0  0  0
    0.2700    6.6180   48.9470 N   0  0  0  0  0
   -0.0220    6.7550   50.3670 C   0  0  0  0  0
   -0.5030    8.1630   50.6380 C   0  0  0  0  0
   -1.6780    8.5200   49.8150 N   0  0  0  0  0
   -1.5040    8.1990   48.3810 C   0  0  0  0  0
   -0.9680    6.7880   48.1860 C   0  0  0  0  0
   -2.0520    9.8990   50.1070 C   0  0  0  0  0
   -2.5570   10.7520   49.1200 C   0  0  0  0  0
   -2.8980   12.0640   49.4310 C   0  0  0  0  0
   -2.7360   12.5600   50.7270 C   0  0  0  0  0
   -2.2030   11.7150   51.6980 C   0  0  0  0  0
   -1.8820   10.4090   51.4020 C   0  0  0  0  0
   -3.0400   13.9740   51.0610 C   0  0  0  0  0
   -3.8300   14.6520   50.2170 N   0  0  0  0  0
   -4.0620   15.9370   50.5250 C   0  0  0  0  0
   -3.5170   16.5220   51.6420 C   0  0  0  0  0
   -2.7100   15.7590   52.4480 C   0  0  0  0  0
   -2.4570   14.4750   52.1640 N   0  0  0  0  0
   21.7697    7.4031   45.6083 H   0  0  0  0  0
   21.5345    5.7443   44.7929 H   0  0  0  0  0
   23.7423    6.6202   46.0462 H   0  0  0  0  0
   24.0533    7.0074   44.2608 H   0  0  0  0  0
   23.3584    4.3276   45.4167 H   0  0  0  0  0
   25.0273    4.9036   44.9603 H   0  0  0  0  0
   24.0725    3.4581   43.4055 H   0  0  0  0  0
   24.2006    5.2890   42.7757 H   0  0  0  0  0
   21.8842    4.3296   43.6127 H   0  0  0  0  0
   22.7593    3.5677   42.0491 H   0  0  0  0  0
   20.8197    5.2711   42.0437 H   0  0  0  0  0
   22.2474    5.2087   40.8737 H   0  0  0  0  0
   21.7857    7.4421   41.3936 H   0  0  0  0  0
   23.2977    6.9089   42.3165 H   0  0  0  0  0
    1.0050    7.5870   46.5559 H   0  0  0  0  0
    1.5083    5.8330   46.5765 H   0  0  0  0  0
    3.6229    6.6497   47.1399 H   0  0  0  0  0
    3.5149    8.9115   47.7292 H   0  0  0  0  0
    2.5350    9.2810   46.3642 H   0  0  0  0  0
    5.5195    8.8193   46.4414 H   0  0  0  0  0
    4.6273    9.8172   45.3554 H   0  0  0  0  0
    4.6116    8.0480   43.7871 H   0  0  0  0  0
    2.4434    7.3341   44.4787 H   0  0  0  0  0
    3.3110    5.9104   44.8617 H   0  0  0  0  0
    6.8802    8.2896   44.1568 H   0  0  0  0  0
    7.7514    5.2251   45.9520 H   0  0  0  0  0
    9.9995    4.1869   45.8340 H   0  0  0  0  0
   10.0921    8.3746   41.3458 H   0  0  0  0  0
   10.6439   10.2342   39.8594 H   0  0  0  0  0
   14.1292    8.4529   42.8077 H   0  0  0  0  0
   15.8179    8.8575   41.9748 H   0  0  0  0  0
   17.3797   11.1875   42.2946 H   0  0  0  0  0
   17.5815   10.5951   40.5944 H   0  0  0  0  0
   18.2847    8.4423   41.4415 H   0  0  0  0  0
   18.1298    9.0814   43.1419 H   0  0  0  0  0
   19.8547   10.6103   41.3020 H   0  0  0  0  0
   20.4453    8.9754   41.7790 H   0  0  0  0  0
   19.8798   11.2584   43.6070 H   0  0  0  0  0
   20.5450    7.2386   43.4231 H   0  0  0  0  0
    9.0185    8.2783   43.2117 H   0  0  0  0  0
    0.8786    6.5563   50.9480 H   0  0  0  0  0
   -0.7945    6.0414   50.6536 H   0  0  0  0  0
    0.3056    8.8510   50.3910 H   0  0  0  0  0
   -0.7919    8.2266   51.6871 H   0  0  0  0  0
   -0.7886    8.9020   47.9543 H   0  0  0  0  0
   -2.4751    8.2701   47.8911 H   0  0  0  0  0
   -1.7085    6.0696   48.5376 H   0  0  0  0  0
   -0.7659    6.6225   47.1278 H   0  0  0  0  0
   -2.6840   10.3862   48.1011 H   0  0  0  0  0
   -3.2972   12.7144   48.6527 H   0  0  0  0  0
   -2.0376   12.0932   52.7068 H   0  0  0  0  0
   -1.4897    9.7618   52.1864 H   0  0  0  0  0
   -4.6997   16.5325   49.8717 H   0  0  0  0  0
   -3.7204   17.5656   51.8820 H   0  0  0  0  0
   -2.2661   16.2069   53.3370 H   0  0  0  0  0
  1  2  1  0  0  0
 42  1  1  0  0  0
  2  3  1  0  0  0
  3  4  1  0  0  0
  5  4  1  0  0  0
  6  5  1  0  0  0
  7  6  1  0  0  0
 42  7  1  0  0  0
  9  8  2  0  0  0
 10  9  1  0  0  0
  9 45  1  0  0  0
 11 10  1  0  0  0
 11 12  1  0  0  0
 15 11  1  0  0  0
 13 12  1  0  0  0
 14 13  1  0  0  0
 14 15  1  0  0  0
 16 14  1  0  0  0
 16 17  2  0  0  0
 18 16  1  0  0  0
 19 18  1  0  0  0
 20 19  4  0  0  0
 19 44  4  0  0  0
 21 20  4  0  0  0
 22 21  4  0  0  0
 22 23  4  0  0  0
 43 22  4  0  0  0
 24 23  4  0  0  0
 25 24  4  0  0  0
 26 25  1  0  0  0
 25 43  4  0  0  0
 26 27  4  0  0  0
 31 26  4  0  0  0
 28 27  4  0  0  0
 29 28  4  0  0  0
 30 29  4  0  0  0
 30 31  4  0  0  0
 32 30  1  0  0  0
 32 33  2  0  0  0
 34 32  1  0  0  0
 35 34  1  0  0  0
 36 35  1  0  0  0
 37 36  1  0  0  0
 38 37  1  0  0  0
 39 38  1  0  0  0
 39 40  2  0  0  0
 41 39  1  0  0  0
 41 42  1  0  0  0
 43 44  4  0  0  0
 45 46  1  0  0  0
 45 50  1  0  0  0
 46 47  1  0  0  0
 47 48  1  0  0  0
 48 49  1  0  0  0
 48 51  1  0  0  0
 49 50  1  0  0  0
 51 52  4  0  0  0
 51 56  4  0  0  0
 52 53  4  0  0  0
 53 54  4  0  0  0
 54 55  4  0  0  0
 54 57  1  0  0  0
 55 56  4  0  0  0
 57 58  4  0  0  0
 57 62  4  0  0  0
 58 59  4  0  0  0
 59 60  4  0  0  0
 60 61  4  0  0  0
 61 62  4  0  0  0
  1 63  1  0  0  0
  1 64  1  0  0  0
  2 65  1  0  0  0
  2 66  1  0  0  0
  3 67  1  0  0  0
  3 68  1  0  0  0
  4 69  1  0  0  0
  4 70  1  0  0  0
  5 71  1  0  0  0
  5 72  1  0  0  0
  6 73  1  0  0  0
  6 74  1  0  0  0
  7 75  1  0  0  0
  7 76  1  0  0  0
 10 77  1  0  0  0
 10 78  1  0  0  0
 11 79  1  0  0  0
 12 80  1  0  0  0
 12 81  1  0  0  0
 13 82  1  0  0  0
 13 83  1  0  0  0
 14 84  1  0  0  0
 15 85  1  0  0  0
 15 86  1  0  0  0
 18 87  1  0  0  0
 20 88  1  0  0  0
 21 89  1  0  0  0
 27 90  1  0  0  0
 28 91  1  0  0  0
 31 92  1  0  0  0
 34 93  1  0  0  0
 35 94  1  0  0  0
 35 95  1  0  0  0
 36 96  1  0  0  0
 36 97  1  0  0  0
 37 98  1  0  0  0
 37 99  1  0  0  0
 38100  1  0  0  0
 42101  1  0  0  0
 44102  1  0  0  0
 46103  1  0  0  0
 46104  1  0  0  0
 47105  1  0  0  0
 47106  1  0  0  0
 49107  1  0  0  0
 49108  1  0  0  0
 50109  1  0  0  0
 50110  1  0  0  0
 52111  1  0  0  0
 53112  1  0  0  0
 55113  1  0  0  0
 56114  1  0  0  0
 59115  1  0  0  0
 60116  1  0  0  0
 61117  1  0  0  0
M  END
$$$$
