4hrc_ligand
  -I-interpret- 

 89 88  0  0  0  0  0  0  0  0999 V2000
   58.0620 -134.9130   33.8310 C   0  0  0  0  0
   59.2210 -135.6450   34.4650 C   0  0  0  0  0
   59.3120 -136.8580   34.3660 O   0  0  0  0  0
   56.8840 -134.9370   34.8010 C   0  0  0  0  0
   55.7310 -134.1130   34.2500 C   0  0  0  0  0
   54.5790 -134.0470   35.2450 C   0  0  0  0  0
   53.2810 -133.7330   34.5270 C   0  0  0  0  0
   60.1020 -134.8930   35.1180 N   0  0  0  0  0
   61.2630 -135.4520   35.7780 C   0  0  0  0  0
   61.0050 -135.5740   37.2470 C   0  0  0  0  0
   60.5590 -134.6270   37.8640 O   0  0  0  0  0
   62.4980 -134.5990   35.4940 C   0  0  0  0  0
   62.9200 -134.7150   34.0370 C   0  0  0  0  0
   63.6670 -134.9630   36.3930 C   0  0  0  0  0
   62.4110 -136.9600   39.9570 C   0  0  0  0  0
   58.1600 -138.7620   39.0410 C   0  0  0  0  0
   59.4700 -138.7890   38.2850 C   0  0  0  0  0
   61.2900 -136.7550   37.7830 N   0  0  0  0  0
   58.0680 -138.1890   40.1160 O   0  0  0  0  0
   57.1310 -139.3870   38.4710 N   0  0  0  0  0
   56.2260 -138.7070   37.5490 C   0  0  0  0  0
   56.8370 -140.7920   38.7320 C   0  0  0  0  0
   61.1280 -137.1150   39.1770 C   0  0  0  0  0
   60.6300 -138.5500   39.2420 C   0  0  0  0  0
   63.4950 -136.9160   39.3790 O   0  0  0  0  0
   62.2810 -136.8880   41.2900 N   0  0  0  0  0
   62.0260 -137.5430   44.0420 O   0  0  0  0  0
   62.2600 -139.9440   41.6000 O   0  0  0  0  0
   63.3810 -136.6910   42.2190 C   0  0  0  0  0
   63.3490 -137.5770   43.4820 C   0  0  0  0  0
   64.3680 -134.2720   42.2000 C   0  0  0  0  0
   64.8250 -134.3970   40.7500 C   0  0  0  0  0
   63.9660 -132.8320   42.4950 C   0  0  0  0  0
   63.2330 -135.2150   42.5980 C   0  0  0  0  0
   62.5240 -139.9160   43.0040 C   0  0  0  0  0
   64.7610 -139.2210   42.1560 C   0  0  0  0  0
   63.7550 -139.0650   43.3000 C   0  0  0  0  0
   57.7831 -135.3978   32.8954 H   0  0  0  0  0
   58.3458 -133.8827   33.6162 H   0  0  0  0  0
   57.1996 -134.5147   35.7551 H   0  0  0  0  0
   56.5536 -135.9671   34.9347 H   0  0  0  0  0
   55.3737 -134.5824   33.3334 H   0  0  0  0  0
   56.0859 -133.1001   34.0598 H   0  0  0  0  0
   54.7821 -133.2615   35.9730 H   0  0  0  0  0
   54.4849 -135.0110   35.7450 H   0  0  0  0  0
   53.3705 -132.7717   34.0210 H   0  0  0  0  0
   53.0748 -134.5130   33.7941 H   0  0  0  0  0
   52.4679 -133.6893   35.2516 H   0  0  0  0  0
   59.9543 -133.8844   35.1553 H   0  0  0  0  0
   61.4549 -136.4504   35.3848 H   0  0  0  0  0
   62.2166 -133.5676   35.7063 H   0  0  0  0  0
   63.1539 -135.7550   33.8095 H   0  0  0  0  0
   62.1061 -134.3757   33.3962 H   0  0  0  0  0
   63.8013 -134.0971   33.8650 H   0  0  0  0  0
   63.3833 -134.8123   37.4346 H   0  0  0  0  0
   63.9334 -136.0081   36.2352 H   0  0  0  0  0
   64.5202 -134.3289   36.1521 H   0  0  0  0  0
   59.4629 -138.0048   37.5279 H   0  0  0  0  0
   59.5907 -139.7637   37.8123 H   0  0  0  0  0
   61.6556 -137.4729   37.1574 H   0  0  0  0  0
   55.7500 -137.8702   38.0601 H   0  0  0  0  0
   56.7912 -138.3378   36.6932 H   0  0  0  0  0
   55.4635 -139.4072   37.2077 H   0  0  0  0  0
   57.6889 -141.4020   38.4317 H   0  0  0  0  0
   56.6466 -140.9304   39.7963 H   0  0  0  0  0
   55.9566 -141.0896   38.1624 H   0  0  0  0  0
   60.4056 -136.4399   39.6357 H   0  0  0  0  0
   61.4496 -139.2105   38.9591 H   0  0  0  0  0
   60.2837 -138.7472   40.2566 H   0  0  0  0  0
   61.3427 -136.9780   41.6797 H   0  0  0  0  0
   61.9985 -138.0924   44.8287 H   0  0  0  0  0
   61.4835 -140.4830   41.4322 H   0  0  0  0  0
   64.3287 -136.9667   41.7564 H   0  0  0  0  0
   64.1104 -137.1474   44.1330 H   0  0  0  0  0
   65.2258 -134.5705   42.8026 H   0  0  0  0  0
   64.0095 -134.1078   40.0871 H   0  0  0  0  0
   65.6806 -133.7428   40.5824 H   0  0  0  0  0
   65.1104 -135.4294   40.5481 H   0  0  0  0  0
   64.8207 -132.1762   42.3290 H   0  0  0  0  0
   63.1496 -132.5413   41.8338 H   0  0  0  0  0
   63.6411 -132.7521   43.5324 H   0  0  0  0  0
   63.1985 -135.1921   43.6872 H   0  0  0  0  0
   62.3526 -134.8597   42.0625 H   0  0  0  0  0
   62.7056 -140.9335   43.3503 H   0  0  0  0  0
   61.6643 -139.4852   43.5172 H   0  0  0  0  0
   64.3132 -138.8634   41.2288 H   0  0  0  0  0
   65.6548 -138.6379   42.3778 H   0  0  0  0  0
   65.0285 -140.2723   42.0500 H   0  0  0  0  0
   64.2183 -139.4010   44.2277 H   0  0  0  0  0
  2  1  1  0  0  0
  1  4  1  0  0  0
  2  3  2  0  0  0
  8  2  1  0  0  0
  4  5  1  0  0  0
  5  6  1  0  0  0
  6  7  1  0  0  0
  9  8  1  0  0  0
 10  9  1  0  0  0
  9 12  1  0  0  0
 10 11  2  0  0  0
 18 10  1  0  0  0
 12 13  1  0  0  0
 12 14  1  0  0  0
 15 23  1  0  0  0
 15 25  2  0  0  0
 26 15  1  0  0  0
 17 16  1  0  0  0
 16 19  2  0  0  0
 16 20  1  0  0  0
 24 17  1  0  0  0
 23 18  1  0  0  0
 20 21  1  0  0  0
 20 22  1  0  0  0
 23 24  1  0  0  0
 29 26  1  0  0  0
 30 27  1  0  0  0
 35 28  1  0  0  0
 30 29  1  0  0  0
 29 34  1  0  0  0
 37 30  1  0  0  0
 31 32  1  0  0  0
 31 33  1  0  0  0
 34 31  1  0  0  0
 35 37  1  0  0  0
 37 36  1  0  0  0
  1 38  1  0  0  0
  1 39  1  0  0  0
  4 40  1  0  0  0
  4 41  1  0  0  0
  5 42  1  0  0  0
  5 43  1  0  0  0
  6 44  1  0  0  0
  6 45  1  0  0  0
  7 46  1  0  0  0
  7 47  1  0  0  0
  7 48  1  0  0  0
  8 49  1  0  0  0
  9 50  1  0  0  0
 12 51  1  0  0  0
 13 52  1  0  0  0
 13 53  1  0  0  0
 13 54  1  0  0  0
 14 55  1  0  0  0
 14 56  1  0  0  0
 14 57  1  0  0  0
 17 58  1  0  0  0
 17 59  1  0  0  0
 18 60  1  0  0  0
 21 61  1  0  0  0
 21 62  1  0  0  0
 21 63  1  0  0  0
 22 64  1  0  0  0
 22 65  1  0  0  0
 22 66  1  0  0  0
 23 67  1  0  0  0
 24 68  1  0  0  0
 24 69  1  0  0  0
 26 70  1  0  0  0
 27 71  1  0  0  0
 28 72  1  0  0  0
 29 73  1  0  0  0
 30 74  1  0  0  0
 31 75  1  0  0  0
 32 76  1  0  0  0
 32 77  1  0  0  0
 32 78  1  0  0  0
 33 79  1  0  0  0
 33 80  1  0  0  0
 33 81  1  0  0  0
 34 82  1  0  0  0
 34 83  1  0  0  0
 35 84  1  0  0  0
 35 85  1  0  0  0
 36 86  1  0  0  0
 36 87  1  0  0  0
 36 88  1  0  0  0
 37 89  1  0  0  0
M  END
$$$$
