1tlo_ligand
  -I-interpret- 

 54 53  0  0  0  0  0  0  0  0999 V2000
   11.3560   38.6840   21.2470 C   0  0  0  0  0
   12.0590   39.1600   20.2640 O   0  0  0  0  0
   11.8570   38.1280   22.1950 O   0  0  0  0  0
    9.8560   38.8710   21.0810 C   0  0  0  0  0
    9.2660   40.1820   21.7920 C   0  0  0  0  0
    9.2680   39.9510   23.1160 O   0  0  0  0  0
    7.8540   40.4750   21.2040 C   0  0  0  0  0
    7.5320   40.6680   19.9900 O   0  0  0  0  0
    6.8880   40.5200   22.1490 N   0  0  0  0  0
    5.4980   40.4710   21.9440 C   0  0  0  0  0
    4.8270   39.2110   22.3620 C   0  0  0  0  0
    5.2350   37.8430   21.9560 C   0  0  0  0  0
    4.2220   36.8430   22.6590 C   0  0  0  0  0
    5.1860   37.8330   20.3800 C   0  0  0  0  0
    4.7060   41.6090   22.6330 C   0  0  0  0  0
    5.1170   41.8990   23.7500 O   0  0  0  0  0
    3.7130   42.1920   22.0040 N   0  0  0  0  0
    2.8940   43.2910   22.4670 C   0  0  0  0  0
    3.1880   44.3060   21.3730 C   0  0  0  0  0
    1.9970   45.2000   21.3610 C   0  0  0  0  0
    1.9340   45.7620   19.9430 C   0  0  0  0  0
    1.6180   44.5160   19.2410 N   0  0  0  0  0
    1.3820   44.1600   17.8120 C   0  0  0  0  0
    1.1290   42.8130   17.7850 N   0  0  0  0  0
    1.3790   44.9150   16.5860 N   0  0  0  0  0
   11.4730   39.5595   19.6170 H   0  0  0  0  0
    9.3741   38.0114   21.5468 H   0  0  0  0  0
    9.6638   38.9736   20.0130 H   0  0  0  0  0
    9.8645   41.0744   21.6090 H   0  0  0  0  0
   10.1661   39.7789   23.4083 H   0  0  0  0  0
    7.2021   40.5980   23.1163 H   0  0  0  0  0
    5.4656   40.5671   20.8587 H   0  0  0  0  0
    3.8478   39.3066   21.8929 H   0  0  0  0  0
    5.0149   39.1968   23.4356 H   0  0  0  0  0
    6.2378   37.5397   22.2568 H   0  0  0  0  0
    4.2855   36.9641   23.7404 H   0  0  0  0  0
    3.2074   37.0622   22.3265 H   0  0  0  0  0
    4.4801   35.8184   22.3911 H   0  0  0  0  0
    4.1730   38.0600   20.0478 H   0  0  0  0  0
    5.8739   38.5840   19.9916 H   0  0  0  0  0
    5.4773   36.8481   20.0150 H   0  0  0  0  0
    3.4920   41.8266   21.0777 H   0  0  0  0  0
    3.1220   43.6330   23.4765 H   0  0  0  0  0
    1.8382   43.0497   22.5903 H   0  0  0  0  0
    3.3493   43.8286   20.4065 H   0  0  0  0  0
    4.1091   44.8565   21.5643 H   0  0  0  0  0
    2.0811   45.9925   22.1047 H   0  0  0  0  0
    1.0862   44.6606   21.6210 H   0  0  0  0  0
    2.8329   46.2761   19.6027 H   0  0  0  0  0
    1.2253   46.5765   19.7932 H   0  0  0  0  0
    1.5427   43.7148   19.8678 H   0  0  0  0  0
    1.1326   42.2759   18.6521 H   0  0  0  0  0
    1.1889   44.4475   15.6996 H   0  0  0  0  0
    1.5670   45.9174   16.6039 H   0  0  0  0  0
  1  2  1  0  0  0
  1  3  2  0  0  0
  1  4  1  0  0  0
  4  5  1  0  0  0
  5  6  1  0  0  0
  5  7  1  0  0  0
  7  8  2  0  0  0
  7  9  1  0  0  0
  9 10  1  0  0  0
 10 11  1  0  0  0
 10 15  1  0  0  0
 11 12  1  0  0  0
 12 13  1  0  0  0
 12 14  1  0  0  0
 15 16  2  0  0  0
 15 17  1  0  0  0
 17 18  1  0  0  0
 18 19  1  0  0  0
 19 20  1  0  0  0
 20 21  1  0  0  0
 21 22  1  0  0  0
 22 23  1  0  0  0
 23 24  2  0  0  0
 23 25  1  0  0  0
  2 26  1  0  0  0
  4 27  1  0  0  0
  4 28  1  0  0  0
  5 29  1  0  0  0
  6 30  1  0  0  0
  9 31  1  0  0  0
 10 32  1  0  0  0
 11 33  1  0  0  0
 11 34  1  0  0  0
 12 35  1  0  0  0
 13 36  1  0  0  0
 13 37  1  0  0  0
 13 38  1  0  0  0
 14 39  1  0  0  0
 14 40  1  0  0  0
 14 41  1  0  0  0
 17 42  1  0  0  0
 18 43  1  0  0  0
 18 44  1  0  0  0
 19 45  1  0  0  0
 19 46  1  0  0  0
 20 47  1  0  0  0
 20 48  1  0  0  0
 21 49  1  0  0  0
 21 50  1  0  0  0
 22 51  1  0  0  0
 24 52  1  0  0  0
 25 53  1  0  0  0
 25 54  1  0  0  0
M  END
$$$$
