### 
### Created by X-TOOL on Mon Sep 10 21:12:57 2018
### 

@<TRIPOS>MOLECULE
2z97_ligand
   70    77     1     0     0
SMALL
GAST_HUCK


@<TRIPOS>ATOM
      1 CHA       -20.2890  -11.0540    6.3150 C.ar      1 7HE        -0.0247
      2 CHB       -19.7030   -9.7610   11.0080 C.ar      1 7HE        -0.0242
      3 CHC       -18.4870  -14.5500   12.0170 C.ar      1 7HE        -0.0261
      4 CHD       -18.5900  -15.5630    7.2040 C.ar      1 7HE        -0.0259
      5 NA        -19.8950  -10.7870    8.7410 N.pl3     1 7HE        -0.1576
      6 C1A       -20.2180  -10.2600    7.5390 C.2       1 7HE         0.0779
      7 C2A       -20.4850   -8.9000    7.5400 C.2       1 7HE        -0.0355
      8 C3A       -20.3220   -8.5150    8.9470 C.2       1 7HE        -0.0355
      9 C4A       -19.9610   -9.7040    9.5660 C.2       1 7HE         0.0778
     10 CMA       -20.4660   -7.1390    9.5570 C.3       1 7HE        -0.0426
     11 CAA       -20.8740   -8.0250    6.3690 C.3       1 7HE        -0.0426
     12 NB        -18.9990  -12.2330   11.0580 N.pl3     1 7HE        -0.1540
     13 C1B       -19.3970  -10.9940   11.7420 C.2       1 7HE         0.0813
     14 C2B       -19.3000  -11.0300   13.1360 C.2       1 7HE        -0.0319
     15 C3B       -18.9560  -12.4220   13.4650 C.2       1 7HE        -0.0204
     16 C4B       -18.8800  -13.1580   12.1650 C.2       1 7HE         0.0787
     17 CMB       -19.5650   -9.9140   14.1300 C.3       1 7HE        -0.0398
     18 CAB       -18.7620  -13.0620   14.8060 C.2       1 7HE        -0.0887
     19 CBB       -18.9520  -12.4920   15.9920 C.2       1 7HE        -0.1207
     20 NC        -18.6610  -14.6780    9.5420 N.pl3     1 7HE        -0.1538
     21 C1C       -18.3640  -15.2420   10.7420 C.2       1 7HE         0.0784
     22 C2C       -17.8930  -16.5360   10.7010 C.2       1 7HE        -0.0347
     23 C3C       -17.8860  -16.8120    9.2680 C.2       1 7HE        -0.0222
     24 C4C       -18.3470  -15.6640    8.6590 C.2       1 7HE         0.0790
     25 CMC       -17.4740  -17.3990   11.8580 C.3       1 7HE        -0.0413
     26 CAC       -17.4790  -18.0950    8.6310 C.2       1 7HE        -0.0891
     27 CBC       -16.2970  -18.6500    8.8350 C.2       1 7HE        -0.1208
     28 ND        -19.4520  -13.2340    7.1390 N.pl3     1 7HE        -0.1578
     29 C1D       -19.1250  -14.3820    6.5080 C.2       1 7HE         0.0754
     30 C2D       -19.3170  -14.3930    5.1230 C.2       1 7HE        -0.0376
     31 C3D       -19.8330  -13.0590    4.8050 C.2       1 7HE        -0.0330
     32 C4D       -19.8650  -12.4270    6.1360 C.2       1 7HE         0.0776
     33 CMD       -19.0460  -15.5440    4.1810 C.3       1 7HE        -0.0439
     34 CAD       -20.1750  -12.4680    3.4590 C.3       1 7HE        -0.0194
     35 CBD       -21.6710  -12.2410    3.2810 C.3       1 7HE         0.0063
     36 CGD       -21.8330  -11.3930    2.0450 C.2       1 7HE         0.0363
     37 O1D       -22.7820  -11.6710    1.2740 O.co2     1 7HE        -0.5689
     38 O2D       -21.0190  -10.4580    1.8170 O.co2     1 7HE        -0.5689
     39 FE        -19.4150  -12.7580    9.1760 Fe        1 7HE         0.0000
     40 H1        -20.7052  -10.5607    5.4441 H         1 7HE         0.0432
     41 H2        -19.7407   -8.8333   11.5675 H         1 7HE         0.0430
     42 H3        -18.2705  -15.1116   12.9186 H         1 7HE         0.0383
     43 H4        -18.3544  -16.4314    6.5996 H         1 7HE         0.0386
     44 H5        -20.7672   -6.4226    8.7786 H         1 7HE         0.0343
     45 H6        -19.5040   -6.8272    9.9898 H         1 7HE         0.0343
     46 H7        -21.2316   -7.1661   10.3464 H         1 7HE         0.0343
     47 H8        -20.9048   -8.6319    5.4521 H         1 7HE         0.0343
     48 H9        -20.1339   -7.2199    6.2511 H         1 7HE         0.0343
     49 H10       -21.8663   -7.5870    6.5522 H         1 7HE         0.0343
     50 H11       -19.7970   -8.9863   13.5864 H         1 7HE         0.0361
     51 H12       -18.6727   -9.7596   14.7545 H         1 7HE         0.0361
     52 H13       -20.4173  -10.1872   14.7694 H         1 7HE         0.0361
     53 H14       -18.4317  -14.0997   14.8094 H         1 7HE         0.0550
     54 H15       -18.7774  -13.0611   16.9039 H         1 7HE         0.0324
     55 H16       -19.2822  -11.4560   16.0516 H         1 7HE         0.0324
     56 H17       -17.6230  -16.8487   12.7987 H         1 7HE         0.0355
     57 H18       -16.4115  -17.6635   11.7523 H         1 7HE         0.0355
     58 H19       -18.0809  -18.3164   11.8699 H         1 7HE         0.0355
     59 H20       -18.1842  -18.5965    7.9699 H         1 7HE         0.0550
     60 H21       -16.0452  -19.5900    8.3462 H         1 7HE         0.0324
     61 H22       -15.5749  -18.1673    9.4919 H         1 7HE         0.0324
     62 H23       -18.6616  -16.4022    4.7518 H         1 7HE         0.0337
     63 H24       -18.3002  -15.2377    3.4327 H         1 7HE         0.0337
     64 H25       -19.9790  -15.8297    3.6732 H         1 7HE         0.0337
     65 H26       -19.8273  -13.1555    2.6739 H         1 7HE         0.0395
     66 H27       -19.6577  -11.5026    3.3565 H         1 7HE         0.0395
     67 H28       -22.0826  -11.7180    4.1568 H         1 7HE         0.0448
     68 H29       -22.1883  -13.2031    3.1518 H         1 7HE         0.0448
     69 H30       -21.1710  -13.2459    9.5080 H         1 7HE         0.0000
     70 H31       -17.6590  -12.2701    8.8440 H         1 7HE         0.0000
@<TRIPOS>BOND
     1    6    1 1  
     2    1   32 1  
     3    2    9 1  
     4   13    2 1  
     5    3   16 1  
     6   21    3 1  
     7   24    4 1  
     8    4   29 1  
     9    5    6 1  
    10    9    5 1  
    11    7    6 2  
    12    8    7 1  
    13    7   11 1  
    14    9    8 2  
    15    8   10 1  
    16   12   13 1  
    17   16   12 1  
    18   14   13 2  
    19   15   14 1  
    20   14   17 1  
    21   16   15 2  
    22   15   18 1  
    23   18   19 2  
    24   20   21 1  
    25   20   24 1  
    26   21   22 2  
    27   22   23 1  
    28   22   25 1  
    29   23   24 2  
    30   23   26 1  
    31   26   27 2  
    32   29   28 1  
    33   28   32 1  
    34   29   30 2  
    35   30   31 1  
    36   30   33 1  
    37   31   32 2  
    38   31   34 1  
    39   34   35 1  
    40   35   36 1  
    41   36   37 ar 
    42   36   38 ar 
    43    5   39 1  
    44   39   12 1  
    45   39   20 1  
    46   39   28 1  
    47    1   40 1  
    48    2   41 1  
    49    3   42 1  
    50    4   43 1  
    51   10   44 1  
    52   10   45 1  
    53   10   46 1  
    54   11   47 1  
    55   11   48 1  
    56   11   49 1  
    57   17   50 1  
    58   17   51 1  
    59   17   52 1  
    60   18   53 1  
    61   19   54 1  
    62   19   55 1  
    63   25   56 1  
    64   25   57 1  
    65   25   58 1  
    66   26   59 1  
    67   27   60 1  
    68   27   61 1  
    69   33   62 1  
    70   33   63 1  
    71   33   64 1  
    72   34   65 1  
    73   34   66 1  
    74   35   67 1  
    75   35   68 1  
    76   39   69 1  
    77   39   70 1  
@<TRIPOS>SUBSTRUCTURE
     1 7HE         1

