2z97_ligand
  -I-interpret- 

 73 80  0  0  0  0  0  0  0  0999 V2000
  -20.2890  -11.0540    6.3150 C   0  0  0  0  0
  -19.7030   -9.7610   11.0080 C   0  0  0  0  0
  -18.4870  -14.5500   12.0170 C   0  0  0  0  0
  -18.5900  -15.5630    7.2040 C   0  0  0  0  0
  -19.8950  -10.7870    8.7410 N   0  0  0  0  0
  -20.2180  -10.2600    7.5390 C   0  0  0  0  0
  -20.4850   -8.9000    7.5400 C   0  0  0  0  0
  -20.3220   -8.5150    8.9470 C   0  0  0  0  0
  -19.9610   -9.7040    9.5660 C   0  0  0  0  0
  -20.4660   -7.1390    9.5570 C   0  0  0  0  0
  -20.8740   -8.0250    6.3690 C   0  0  0  0  0
  -18.9990  -12.2330   11.0580 N   0  0  0  0  0
  -19.3970  -10.9940   11.7420 C   0  0  0  0  0
  -19.3000  -11.0300   13.1360 C   0  0  0  0  0
  -18.9560  -12.4220   13.4650 C   0  0  0  0  0
  -18.8800  -13.1580   12.1650 C   0  0  0  0  0
  -19.5650   -9.9140   14.1300 C   0  0  0  0  0
  -18.7620  -13.0620   14.8060 C   0  0  0  0  0
  -18.9520  -12.4920   15.9920 C   0  0  0  0  0
  -18.6610  -14.6780    9.5420 N   0  0  0  0  0
  -18.3640  -15.2420   10.7420 C   0  0  0  0  0
  -17.8930  -16.5360   10.7010 C   0  0  0  0  0
  -17.8860  -16.8120    9.2680 C   0  0  0  0  0
  -18.3470  -15.6640    8.6590 C   0  0  0  0  0
  -17.4740  -17.3990   11.8580 C   0  0  0  0  0
  -17.4790  -18.0950    8.6310 C   0  0  0  0  0
  -16.2970  -18.6500    8.8350 C   0  0  0  0  0
  -19.4520  -13.2340    7.1390 N   0  0  0  0  0
  -19.1250  -14.3820    6.5080 C   0  0  0  0  0
  -19.3170  -14.3930    5.1230 C   0  0  0  0  0
  -19.8330  -13.0590    4.8050 C   0  0  0  0  0
  -19.8650  -12.4270    6.1360 C   0  0  0  0  0
  -19.0460  -15.5440    4.1810 C   0  0  0  0  0
  -20.1750  -12.4680    3.4590 C   0  0  0  0  0
  -21.6710  -12.2410    3.2810 C   0  0  0  0  0
  -21.8330  -11.3930    2.0450 C   0  0  0  0  0
  -22.7820  -11.6710    1.2740 O   0  0  0  0  0
  -21.0190  -10.4580    1.8170 O   0  0  0  0  0
  -19.4150  -12.7580    9.1760 Fe  0  0  0  0  0
  -19.5834  -10.5254    5.6741 H   0  0  0  0  0
  -21.3667  -11.1417    6.1773 H   0  0  0  0  0
  -20.6602   -9.4605   11.4341 H   0  0  0  0  0
  -18.7813   -9.1879   11.1087 H   0  0  0  0  0
  -19.3111  -15.0799   12.4946 H   0  0  0  0  0
  -17.4603  -14.5455   12.3831 H   0  0  0  0  0
  -19.3822  -16.2962    7.0528 H   0  0  0  0  0
  -17.5806  -15.6301    6.7981 H   0  0  0  0  0
  -19.7456   -6.4621    9.0976 H   0  0  0  0  0
  -21.4764   -6.7694    9.3822 H   0  0  0  0  0
  -20.2794   -7.1970   10.6293 H   0  0  0  0  0
  -20.0853   -8.0545    5.6172 H   0  0  0  0  0
  -21.8044   -8.3923    5.9359 H   0  0  0  0  0
  -21.0116   -6.9999    6.7130 H   0  0  0  0  0
  -18.8921   -9.0809   13.9269 H   0  0  0  0  0
  -20.5981   -9.5803   14.0327 H   0  0  0  0  0
  -19.3945  -10.2822   15.1417 H   0  0  0  0  0
  -18.4314  -14.1007   14.8094 H   0  0  0  0  0
  -19.2825  -11.4550   16.0516 H   0  0  0  0  0
  -18.7773  -13.0617   16.9047 H   0  0  0  0  0
  -16.6514  -16.9192   12.3883 H   0  0  0  0  0
  -18.3175  -17.5303   12.5358 H   0  0  0  0  0
  -17.1504  -18.3711   11.4860 H   0  0  0  0  0
  -18.1849  -18.5970    7.9693 H   0  0  0  0  0
  -15.5742  -18.1669    9.4925 H   0  0  0  0  0
  -16.0449  -19.5909    8.3458 H   0  0  0  0  0
  -17.9914  -15.8146    4.2339 H   0  0  0  0  0
  -19.6568  -16.3994    4.4694 H   0  0  0  0  0
  -19.2950  -15.2449    3.1628 H   0  0  0  0  0
  -19.8490  -13.1704    2.6919 H   0  0  0  0  0
  -19.6777  -11.5012    3.3814 H   0  0  0  0  0
  -22.0961  -11.7440    4.1530 H   0  0  0  0  0
  -22.1990  -13.1887    3.1753 H   0  0  0  0  0
  -20.3747  -10.4158    2.5275 H   0  0  0  0  0
  6  1  1  0  0  0
  1 32  1  0  0  0
  2  9  1  0  0  0
 13  2  1  0  0  0
  3 16  1  0  0  0
 21  3  1  0  0  0
 24  4  1  0  0  0
  4 29  1  0  0  0
  5  6  4  0  0  0
  9  5  4  0  0  0
  7  6  4  0  0  0
  8  7  4  0  0  0
  7 11  1  0  0  0
  9  8  4  0  0  0
  8 10  1  0  0  0
 12 13  4  0  0  0
 16 12  4  0  0  0
 14 13  4  0  0  0
 15 14  4  0  0  0
 14 17  1  0  0  0
 16 15  4  0  0  0
 15 18  1  0  0  0
 18 19  2  0  0  0
 20 21  4  0  0  0
 20 24  4  0  0  0
 21 22  4  0  0  0
 22 23  4  0  0  0
 22 25  1  0  0  0
 23 24  4  0  0  0
 23 26  1  0  0  0
 26 27  2  0  0  0
 29 28  4  0  0  0
 28 32  4  0  0  0
 29 30  4  0  0  0
 30 31  4  0  0  0
 30 33  1  0  0  0
 31 32  4  0  0  0
 31 34  1  0  0  0
 34 35  1  0  0  0
 35 36  1  0  0  0
 36 37  2  0  0  0
 36 38  1  0  0  0
  5 39  1  0  0  0
 39 12  1  0  0  0
 39 20  1  0  0  0
 39 28  1  0  0  0
  1 40  1  0  0  0
  1 41  1  0  0  0
  2 42  1  0  0  0
  2 43  1  0  0  0
  3 44  1  0  0  0
  3 45  1  0  0  0
  4 46  1  0  0  0
  4 47  1  0  0  0
 10 48  1  0  0  0
 10 49  1  0  0  0
 10 50  1  0  0  0
 11 51  1  0  0  0
 11 52  1  0  0  0
 11 53  1  0  0  0
 17 54  1  0  0  0
 17 55  1  0  0  0
 17 56  1  0  0  0
 18 57  1  0  0  0
 19 58  1  0  0  0
 19 59  1  0  0  0
 25 60  1  0  0  0
 25 61  1  0  0  0
 25 62  1  0  0  0
 26 63  1  0  0  0
 27 64  1  0  0  0
 27 65  1  0  0  0
 33 66  1  0  0  0
 33 67  1  0  0  0
 33 68  1  0  0  0
 34 69  1  0  0  0
 34 70  1  0  0  0
 35 71  1  0  0  0
 35 72  1  0  0  0
 38 73  1  0  0  0
M  END
$$$$
