1s26_ligand
  -I-interpret- 

 49 51  0  0  0  0  0  0  0  0999 V2000
   31.4970   73.4170   44.7920 P   0  0  0  0  0
   31.7570   74.8660   44.6250 O   0  0  0  0  0
   30.0670   73.1650   44.7420 O   0  0  0  0  0
   32.0270   72.9320   46.1970 O   0  0  0  0  0
   33.6690   71.9200   43.4350 P   0  0  0  0  0
   33.8930   71.5410   41.9960 O   0  0  0  0  0
   34.7350   72.8770   43.8550 O   0  0  0  0  0
   32.1730   72.5870   43.5970 O   0  0  0  0  0
   34.1390   68.7660   43.9930 P   0  0  0  0  0
   35.3200   68.2770   44.7710 O   0  0  0  0  0
   32.9750   67.8810   44.3660 O   0  0  0  0  0
   33.7310   70.4530   44.5210 C   0  0  0  0  0
   34.4510   68.6550   42.4240 O   0  0  0  0  0
   34.1040   67.4000   41.7830 C   0  0  0  0  0
   35.1520   66.3290   42.0540 C   0  0  0  0  0
   34.6570   65.5760   43.2000 O   0  0  0  0  0
   35.3920   65.3130   40.9150 C   0  0  0  0  0
   36.7730   65.3250   40.4120 O   0  0  0  0  0
   34.9270   63.9630   41.5070 C   0  0  0  0  0
   35.9720   62.9730   41.4960 O   0  0  0  0  0
   34.5330   64.2210   42.9440 C   0  0  0  0  0
   33.1590   63.8220   43.3700 N   0  0  0  0  0
   32.0120   64.6090   43.3910 C   0  0  0  0  0
   30.9310   63.9890   43.8410 N   0  0  0  0  0
   31.3730   62.6840   44.1450 C   0  0  0  0  0
   30.6830   61.5310   44.6850 C   0  0  0  0  0
   29.5030   61.4700   44.9850 N   0  0  0  0  0
   31.5350   60.4620   44.8180 N   0  0  0  0  0
   32.8870   60.4120   44.5120 C   0  0  0  0  0
   33.5240   61.4370   44.0320 N   0  0  0  0  0
   32.7410   62.5660   43.8650 C   0  0  0  0  0
   32.7029   75.0262   44.6589 H   0  0  0  0  0
   32.9724   73.0891   46.2528 H   0  0  0  0  0
   33.2108   70.9252   41.7185 H   0  0  0  0  0
   32.1932   68.1631   43.8856 H   0  0  0  0  0
   32.6896   70.3509   44.8261 H   0  0  0  0  0
   34.5643   70.6931   45.1813 H   0  0  0  0  0
   34.0479   67.5649   40.7070 H   0  0  0  0  0
   33.1493   67.0592   42.1836 H   0  0  0  0  0
   36.1032   66.8423   42.1947 H   0  0  0  0  0
   34.8309   65.5540   40.0121 H   0  0  0  0  0
   36.8621   64.6769   39.7094 H   0  0  0  0  0
   34.1030   63.5798   40.9051 H   0  0  0  0  0
   35.6396   62.1543   41.8712 H   0  0  0  0  0
   35.2080   63.5809   43.5121 H   0  0  0  0  0
   32.0034   65.6489   43.0645 H   0  0  0  0  0
   28.9026   62.2853   44.8615 H   0  0  0  0  0
   29.1161   60.6037   45.3595 H   0  0  0  0  0
   33.4321   59.4831   44.6797 H   0  0  0  0  0
  1  2  1  0  0  0
  1  3  2  0  0  0
  1  4  1  0  0  0
  8  1  1  0  0  0
  5  6  1  0  0  0
  5  7  2  0  0  0
  5  8  1  0  0  0
 12  5  1  0  0  0
  9 10  2  0  0  0
  9 11  1  0  0  0
  9 12  1  0  0  0
  9 13  1  0  0  0
 13 14  1  0  0  0
 14 15  1  0  0  0
 15 16  1  0  0  0
 15 17  1  0  0  0
 16 21  1  0  0  0
 17 18  1  0  0  0
 17 19  1  0  0  0
 19 20  1  0  0  0
 19 21  1  0  0  0
 21 22  1  0  0  0
 22 23  4  0  0  0
 22 31  4  0  0  0
 23 24  4  0  0  0
 24 25  4  0  0  0
 25 26  4  0  0  0
 25 31  4  0  0  0
 26 27  1  0  0  0
 26 28  4  0  0  0
 28 29  4  0  0  0
 29 30  4  0  0  0
 30 31  4  0  0  0
  2 32  1  0  0  0
  4 33  1  0  0  0
  6 34  1  0  0  0
 11 35  1  0  0  0
 12 36  1  0  0  0
 12 37  1  0  0  0
 14 38  1  0  0  0
 14 39  1  0  0  0
 15 40  1  0  0  0
 17 41  1  0  0  0
 18 42  1  0  0  0
 19 43  1  0  0  0
 20 44  1  0  0  0
 21 45  1  0  0  0
 23 46  1  0  0  0
 27 47  1  0  0  0
 27 48  1  0  0  0
 29 49  1  0  0  0
M  END
$$$$
