### 
### Created by X-TOOL on Mon Sep 10 21:12:52 2018
### 

@<TRIPOS>MOLECULE
1s26_ligand
   45    47     1     0     0
SMALL
GAST_HUCK


@<TRIPOS>ATOM
      1 PG         31.4970   73.4170   44.7920 P.3       1 APC         0.2050
      2 O1G        31.7570   74.8660   44.6250 O.co2     1 APC        -0.5889
      3 O2G        30.0670   73.1650   44.7420 O.co2     1 APC        -0.5889
      4 O3G        32.0270   72.9320   46.1970 O.co2     1 APC        -0.5889
      5 PB         33.6690   71.9200   43.4350 P.3       1 APC         0.2111
      6 O1B        33.8930   71.5410   41.9960 O.co2     1 APC        -0.5572
      7 O2B        34.7350   72.8770   43.8550 O.co2     1 APC        -0.5572
      8 O3B        32.1730   72.5870   43.5970 O.3       1 APC        -0.1814
      9 PA         34.1390   68.7660   43.9930 P.3       1 APC         0.1405
     10 O1A        35.3200   68.2770   44.7710 O.co2     1 APC        -0.6193
     11 O2A        32.9750   67.8810   44.3660 O.co2     1 APC        -0.6193
     12 C3A        33.7310   70.4530   44.5210 C.3       1 APC         0.1358
     13 O5         34.4510   68.6550   42.4240 O.3       1 APC        -0.2758
     14 C5         34.1040   67.4000   41.7830 C.3       1 APC         0.1108
     15 C4         35.1520   66.3290   42.0540 C.3       1 APC         0.1190
     16 O4         34.6570   65.5760   43.2000 O.3       1 APC        -0.3364
     17 C3         35.3920   65.3130   40.9150 C.3       1 APC         0.1150
     18 O3         36.7730   65.3250   40.4120 O.3       1 APC        -0.3864
     19 C2         34.9270   63.9630   41.5070 C.3       1 APC         0.1385
     20 O2         35.9720   62.9730   41.4960 O.3       1 APC        -0.3836
     21 C1         34.5330   64.2210   42.9440 C.3       1 APC         0.2010
     22 N9         33.1590   63.8220   43.3700 N.pl3     1 APC        -0.1919
     23 C8         32.0120   64.6090   43.3910 C.2       1 APC         0.1123
     24 N7         30.9310   63.9890   43.8410 N.2       1 APC        -0.2958
     25 C5         31.3730   62.6840   44.1450 C.ar      1 APC         0.1045
     26 C6         30.6830   61.5310   44.6850 C.ar      1 APC         0.1298
     27 N6         29.5030   61.4700   44.9850 N.pl3     1 APC        -0.3152
     28 N1         31.5350   60.4620   44.8180 N.ar      1 APC        -0.2698
     29 C2         32.8870   60.4120   44.5120 C.ar      1 APC         0.0533
     30 N3         33.5240   61.4370   44.0320 N.ar      1 APC        -0.2714
     31 C4         32.7410   62.5660   43.8650 C.ar      1 APC         0.1613
     32 H1         32.7299   70.3823   44.9712 H         1 APC         0.0719
     33 H2         34.4670   70.6994   45.3004 H         1 APC         0.0719
     34 H3         34.0296   67.5612   40.6974 H         1 APC         0.0650
     35 H4         33.1333   67.0568   42.1702 H         1 APC         0.0650
     36 H5         36.1072   66.8189   42.2939 H         1 APC         0.0651
     37 H6         34.7404   65.5670   40.0660 H         1 APC         0.0648
     38 H7         37.3686   65.1099   41.1201 H         1 APC         0.2100
     39 H8         34.0651   63.5881   40.9355 H         1 APC         0.0676
     40 H9         36.2536   62.8213   40.6015 H         1 APC         0.2101
     41 H10        35.2440   63.6684   43.5757 H         1 APC         0.0996
     42 H11        32.0034   65.6480   43.0648 H         1 APC         0.1349
     43 H12        29.1123   60.5952   45.3632 H         1 APC         0.1820
     44 H13        28.8967   62.2933   44.8603 H         1 APC         0.1820
     45 H14        33.4291   59.4882   44.6788 H         1 APC         0.0996
@<TRIPOS>BOND
     1    1    2 ar 
     2    1    3 ar 
     3    1    4 ar 
     4    8    1 1  
     5    5    6 ar 
     6    5    7 ar 
     7    5    8 1  
     8   12    5 1  
     9    9   10 ar 
    10    9   11 ar 
    11    9   12 1  
    12    9   13 1  
    13   13   14 1  
    14   14   15 1  
    15   15   16 1  
    16   15   17 1  
    17   16   21 1  
    18   17   18 1  
    19   17   19 1  
    20   19   20 1  
    21   19   21 1  
    22   21   22 1  
    23   22   23 1  
    24   22   31 1  
    25   23   24 2  
    26   24   25 1  
    27   25   26 ar 
    28   25   31 ar 
    29   26   27 1  
    30   26   28 ar 
    31   28   29 ar 
    32   29   30 ar 
    33   30   31 ar 
    34   12   32 1  
    35   12   33 1  
    36   14   34 1  
    37   14   35 1  
    38   15   36 1  
    39   17   37 1  
    40   18   38 1  
    41   19   39 1  
    42   20   40 1  
    43   21   41 1  
    44   23   42 1  
    45   27   43 1  
    46   27   44 1  
    47   29   45 1  
@<TRIPOS>SUBSTRUCTURE
     1 APC         1

