### 
### Created by X-TOOL on Mon Sep 10 21:13:25 2018
### 

@<TRIPOS>MOLECULE
4ofb_ligand
  226   228     1     0     0
SMALL
GAST_HUCK


@<TRIPOS>ATOM
      1 C         -12.8170   28.7340  -12.5320 C.2       1 ACE         0.1752
      2 O         -13.8170   28.6490  -11.8220 O.2       1 ACE        -0.3972
      3 CH3       -12.8250   28.2080  -13.9370 C.3       1 ACE         0.0258
      4 N         -11.6600   29.2840  -12.1520 N.am      1 THR        -0.2635
      5 CA        -11.3600   29.8710  -10.8440 C.3       1 THR         0.1564
      6 C         -11.7920   28.9660   -9.6910 C.2       1 THR         0.2065
      7 O         -12.9730   28.8740   -9.3570 O.2       1 THR        -0.3943
      8 CB        -12.0220   31.2530  -10.6750 C.3       1 THR         0.0924
      9 OG1       -11.5240   32.1480  -11.6780 O.3       1 THR        -0.3874
     10 CG2       -11.7130   31.8270   -9.2980 C.3       1 THR        -0.0346
     11 N         -10.8220   28.2980   -9.0820 N.am      1 ILE        -0.2634
     12 CA        -11.1100   27.4100   -7.9710 C.3       1 ILE         0.1335
     13 C         -10.4560   27.9340   -6.6990 C.2       1 ILE         0.2042
     14 O          -9.5290   28.7380   -6.7570 O.2       1 ILE        -0.3944
     15 CB        -10.6290   25.9830   -8.2570 C.3       1 ILE        -0.0037
     16 CG1        -9.1130   25.9050   -8.1830 C.3       1 ILE        -0.0491
     17 CG2       -11.1250   25.5130   -9.6160 C.3       1 ILE        -0.0582
     18 CD1        -8.6060   24.5000   -8.1780 C.3       1 ILE        -0.0648
     19 N         -10.9460   27.4820   -5.5500 N.am      1 ASP        -0.2622
     20 CA        -10.4490   27.9660   -4.2680 C.3       1 ASP         0.1423
     21 C          -9.2760   27.1410   -3.7680 C.2       1 ASP         0.2057
     22 O          -9.2080   25.9350   -4.0040 O.2       1 ASP        -0.3943
     23 CB        -11.5690   27.9610   -3.2320 C.3       1 ASP         0.0406
     24 CG        -12.7410   28.8150   -3.6520 C.2       1 ASP         0.0393
     25 OD1       -12.5140   29.7940   -4.3980 O.co2     1 ASP        -0.5688
     26 OD2       -13.8840   28.5080   -3.2440 O.co2     1 ASP        -0.5688
     27 N          -8.3580   27.7960   -3.0660 N.am      1 PFF        -0.2619
     28 CA         -7.1800   27.1330   -2.5640 C.3       1 PFF         0.1399
     29 C          -6.9410   27.3740   -1.0810 C.2       1 PFF         0.2060
     30 O          -6.3480   26.5840   -0.3440 O.2       1 PFF        -0.3942
     31 CB         -5.9070   27.5780   -3.3080 C.3       1 PFF         0.0196
     32 CG         -5.7890   26.8530   -4.5960 C.ar      1 PFF        -0.0424
     33 CD1        -5.2780   25.5530   -4.6190 C.ar      1 PFF        -0.0618
     34 CD2        -6.1940   27.4590   -5.7900 C.ar      1 PFF        -0.0618
     35 CE1        -5.1680   24.8560   -5.8160 C.ar      1 PFF        -0.0349
     36 CE2        -6.0870   26.7780   -6.9920 C.ar      1 PFF        -0.0349
     37 CZ         -5.5750   25.4700   -7.0120 C.ar      1 PFF         0.1248
     38 F          -5.4720   24.7990   -8.1840 F         1 PFF        -0.1893
     39 N          -7.4270   28.5240   -0.6300 N.am      1 ASP        -0.2620
     40 CA         -7.2500   28.9300    0.7580 C.3       1 ASP         0.1423
     41 C          -8.4070   28.4440    1.6210 C.2       1 ASP         0.2056
     42 O          -9.0280   29.2240    2.3430 O.2       1 ASP        -0.3943
     43 CB         -7.1140   30.4510    0.8550 C.3       1 ASP         0.0406
     44 CG         -5.9130   30.9780    0.0930 C.2       1 ASP         0.0393
     45 OD1        -4.7920   30.4750    0.3240 O.co2     1 ASP        -0.5688
     46 OD2        -6.0920   31.8870   -0.7460 O.co2     1 ASP        -0.5688
     47 N          -8.6920   27.1490    1.5360 N.am      1 GLU        -0.2635
     48 CA         -9.7360   26.5400    2.3450 C.3       1 GLU         0.1325
     49 C          -9.3910   26.6610    3.8160 C.2       1 GLU         0.2041
     50 O          -8.2270   26.5490    4.1960 O.2       1 GLU        -0.3944
     51 CB         -9.9220   25.0710    1.9770 C.3       1 GLU        -0.0008
     52 CG        -10.1080   24.8070    0.5020 C.3       1 GLU         0.0044
     53 CD        -10.0280   23.3330    0.1810 C.2       1 GLU         0.0350
     54 OE1       -10.7640   22.5430    0.8120 O.co2     1 GLU        -0.5690
     55 OE2        -9.2170   22.9630   -0.6920 O.co2     1 GLU        -0.5690
     56 N         -10.4030   26.8880    4.6430 N.am      1 TYR        -0.2621
     57 CA        -10.1910   27.0170    6.0770 C.3       1 TYR         0.1390
     58 C         -10.1260   25.6420    6.7270 C.2       1 TYR         0.2057
     59 O         -10.8520   24.7280    6.3380 O.2       1 TYR        -0.3942
     60 CB        -11.2980   27.8620    6.7110 C.3       1 TYR         0.0163
     61 CG        -11.1150   28.1060    8.1910 C.ar      1 TYR        -0.0493
     62 CD1       -10.2820   29.1210    8.6530 C.ar      1 TYR        -0.0685
     63 CD2       -11.7750   27.3230    9.1290 C.ar      1 TYR        -0.0685
     64 CE1       -10.1110   29.3480   10.0140 C.ar      1 TYR        -0.0398
     65 CE2       -11.6120   27.5410   10.4880 C.ar      1 TYR        -0.0398
     66 CZ        -10.7810   28.5550   10.9240 C.ar      1 TYR         0.0805
     67 OH        -10.6210   28.7680   12.2730 O.3       1 TYR        -0.3376
     68 N          -9.2410   25.5020    7.7090 N.am      1 ARG        -0.2636
     69 CA         -9.0710   24.2410    8.4210 C.3       1 ARG         0.1311
     70 C          -9.5970   24.3530    9.8490 C.2       1 ARG         0.2040
     71 O          -9.1890   25.2320   10.6070 O.2       1 ARG        -0.3944
     72 CB         -7.5980   23.8190    8.4160 C.3       1 ARG        -0.0092
     73 CG         -7.1220   23.2670    7.0780 C.3       1 ARG        -0.0156
     74 CD         -5.6080   23.3220    6.9510 C.3       1 ARG         0.0627
     75 NE         -5.1250   24.7000    6.9130 N.pl3     1 ARG        -0.2723
     76 CZ         -3.8420   25.0470    6.8580 C.cat     1 ARG         0.2882
     77 NH1        -2.9010   24.1110    6.8450 N.pl3     1 ARG        -0.2849
     78 NH2        -3.5000   26.3300    6.8310 N.pl3     1 ARG        -0.2849
     79 N         -10.5110   23.4570   10.2040 N.am      1 PFF        -0.2620
     80 CA        -11.1660   23.5030   11.4900 C.3       1 PFF         0.1399
     81 C         -10.4070   22.7160   12.5480 C.2       1 PFF         0.2059
     82 O         -10.5850   21.5190   12.7710 O.2       1 PFF        -0.3942
     83 CB        -12.6210   22.9890   11.3860 C.3       1 PFF         0.0196
     84 CG        -13.3610   23.8970   10.4690 C.ar      1 PFF        -0.0424
     85 CD1       -13.9830   25.0400   10.9790 C.ar      1 PFF        -0.0618
     86 CD2       -13.4200   23.6420    9.0930 C.ar      1 PFF        -0.0618
     87 CE1       -14.6690   25.9190   10.1480 C.ar      1 PFF        -0.0349
     88 CE2       -14.0980   24.5090    8.2420 C.ar      1 PFF        -0.0349
     89 CZ        -14.7250   25.6550    8.7690 C.ar      1 PFF         0.1248
     90 F         -15.3910   26.5100    7.9550 F         1 PFF        -0.1893
     91 N          -9.5140   23.4270   13.2260 N.am      1 ARG        -0.2636
     92 CA         -8.6560   22.8080   14.2280 C.3       1 ARG         0.1311
     93 C          -9.0810   23.1490   15.6540 C.2       1 ARG         0.2039
     94 O          -8.2630   23.6230   16.4470 O.2       1 ARG        -0.3944
     95 CB         -7.2050   23.2380   14.0290 C.3       1 ARG        -0.0092
     96 CG         -6.6380   23.0080   12.6480 C.3       1 ARG        -0.0156
     97 CD         -5.1350   23.1560   12.7200 C.3       1 ARG         0.0627
     98 NE         -4.5200   23.4910   11.4440 N.pl3     1 ARG        -0.2723
     99 CZ         -4.3960   24.7320   10.9870 C.cat     1 ARG         0.2882
    100 NH1        -4.8610   25.7530   11.6960 N.pl3     1 ARG        -0.2849
    101 NH2        -3.8120   24.9520    9.8200 N.pl3     1 ARG        -0.2849
    102 N         -10.3490   22.8980   15.9740 N.am      1 LYS        -0.2637
    103 CA        -10.9110   23.2280   17.2850 C.3       1 LYS         0.1310
    104 C         -10.7620   24.7110   17.5990 C.2       1 LYS         0.2040
    105 O         -11.5770   25.5260   17.1680 O.2       1 LYS        -0.3944
    106 CB        -10.2550   22.3990   18.3920 C.3       1 LYS        -0.0122
    107 CG        -10.6920   20.9480   18.4340 C.3       1 LYS        -0.0440
    108 CD        -12.1470   20.8320   18.8220 C.3       1 LYS        -0.0124
    109 CE        -12.6250   19.3950   18.7490 C.3       1 LYS        -0.0354
    110 NZ        -14.1060   19.3210   18.8860 N.4       1 LYS         0.2185
    111 N          -9.7090   25.0440   18.3430 N.am      1 THR        -0.2613
    112 CA         -9.4370   26.4120   18.7930 C.3       1 THR         0.1561
    113 C         -10.6740   27.0920   19.3870 C.2       1 THR         0.2017
    114 O         -10.9020   28.2830   19.1750 O.2       1 THR        -0.3946
    115 CB         -8.8700   27.2930   17.6460 C.3       1 THR         0.0924
    116 OG1        -9.8250   27.3930   16.5820 O.3       1 THR        -0.3874
    117 CG2        -7.5680   26.7070   17.1090 C.3       1 THR        -0.0346
    118 N         -11.4640   26.3290   20.1380 N.am      1 NH2        -0.2989
    119 H1        -11.8414   28.3798  -14.3984 H         1 ACE         0.0467
    120 H2        -13.5992   28.7292  -14.5193 H         1 ACE         0.0467
    121 H3        -13.0402   27.1294  -13.9235 H         1 ACE         0.0467
    122 H4        -10.9244   29.2961  -12.8293 H         1 THR         0.1883
    123 H5        -10.2698   30.0036  -10.7827 H         1 THR         0.0826
    124 H6        -13.1111   31.1474  -10.7873 H         1 THR         0.0639
    125 H7        -11.9328   32.9990  -11.5726 H         1 THR         0.2101
    126 H8        -12.1925   32.8116   -9.1952 H         1 THR         0.0257
    127 H9        -10.6246   31.9354   -9.1817 H         1 THR         0.0257
    128 H10       -12.0989   31.1486   -8.5229 H         1 THR         0.0257
    129 H11        -9.8779   28.4078   -9.3929 H         1 ILE         0.1883
    130 H12       -12.1995   27.3850   -7.8212 H         1 ILE         0.0803
    131 H13       -11.0469   25.3169   -7.4878 H         1 ILE         0.0345
    132 H14        -8.7800   26.4022   -7.2600 H         1 ILE         0.0267
    133 H15        -8.6911   26.4279   -9.0539 H         1 ILE         0.0267
    134 H16       -12.2226   25.5775   -9.6481 H         1 ILE         0.0235
    135 H17       -10.8140   24.4706   -9.7794 H         1 ILE         0.0235
    136 H18       -10.6971   26.1510  -10.4033 H         1 ILE         0.0235
    137 H19        -7.5074   24.5069   -8.1235 H         1 ILE         0.0230
    138 H20        -8.9241   23.9921   -9.1004 H         1 ILE         0.0230
    139 H21        -9.0130   23.9664   -7.3065 H         1 ILE         0.0230
    140 H22       -11.6720   26.7944   -5.5649 H         1 ASP         0.1884
    141 H23       -10.1054   29.0020   -4.4042 H         1 ASP         0.0819
    142 H24       -11.1731   28.3466   -2.2810 H         1 ASP         0.0478
    143 H25       -11.9169   26.9269   -3.0920 H         1 ASP         0.0478
    144 H26        -8.4867   28.7704   -2.8816 H         1 PFF         0.1885
    145 H27        -7.3184   26.0531   -2.7210 H         1 PFF         0.0823
    146 H28        -5.0268   27.3593   -2.6856 H         1 PFF         0.0466
    147 H29        -5.9588   28.6594   -3.5028 H         1 PFF         0.0466
    148 H30        -4.9642   25.0833   -3.6938 H         1 PFF         0.0547
    149 H31        -6.5936   28.4665   -5.7748 H         1 PFF         0.0547
    150 H32        -4.7715   23.8472   -5.8268 H         1 PFF         0.0587
    151 H33        -6.3978   27.2537   -7.9152 H         1 PFF         0.0587
    152 H34        -7.9250   29.1242   -1.2560 H         1 ASP         0.1884
    153 H35        -6.3229   28.4738    1.1354 H         1 ASP         0.0819
    154 H36        -7.0090   30.7287    1.9142 H         1 ASP         0.0478
    155 H37        -8.0232   30.9132    0.4431 H         1 ASP         0.0478
    156 H38        -8.1748   26.5778    0.8987 H         1 GLU         0.1883
    157 H39       -10.6804   27.0718    2.1573 H         1 GLU         0.0801
    158 H40       -10.8098   24.6952    2.5066 H         1 GLU         0.0330
    159 H41        -9.0327   24.5184    2.3141 H         1 GLU         0.0330
    160 H42        -9.3216   25.3360   -0.0563 H         1 GLU         0.0433
    161 H43       -11.0940   25.1853    0.1942 H         1 GLU         0.0433
    162 H44       -11.3287   26.9720    4.2743 H         1 TYR         0.1885
    163 H45        -9.2296   27.5253    6.2421 H         1 TYR         0.0821
    164 H46       -12.2568   27.3438    6.5621 H         1 TYR         0.0453
    165 H47       -11.3245   28.8361    6.2008 H         1 TYR         0.0453
    166 H48        -9.7573   29.7455    7.9390 H         1 TYR         0.0530
    167 H49       -12.4294   26.5271    8.7923 H         1 TYR         0.0530
    168 H50        -9.4569   30.1412   10.3578 H         1 TYR         0.0525
    169 H51       -12.1342   26.9187   11.2057 H         1 TYR         0.0525
    170 H52       -10.0238   29.4942   12.4092 H         1 TYR         0.2458
    171 H53        -8.6749   26.2849    7.9671 H         1 ARG         0.1883
    172 H54        -9.6537   23.4678    7.8989 H         1 ARG         0.0800
    173 H55        -7.4570   23.0420    9.1818 H         1 ARG         0.0313
    174 H56        -6.9847   24.6969    8.6671 H         1 ARG         0.0313
    175 H57        -7.5690   23.8620    6.2680 H         1 ARG         0.0301
    176 H58        -7.4490   22.2206    6.9879 H         1 ARG         0.0301
    177 H59        -5.3081   22.8122    6.0236 H         1 ARG         0.0689
    178 H60        -5.1578   22.8089    7.8136 H         1 ARG         0.0689
    179 H61        -5.8258   25.4547    6.9300 H         1 ARG         0.2642
    180 H62        -1.9076   24.3800    6.8024 H         1 ARG         0.2615
    181 H63        -3.1641   23.1157    6.8775 H         1 ARG         0.2615
    182 H64        -4.2290   27.0576    6.8410 H         1 ARG         0.2615
    183 H65        -2.5058   26.5974    6.8000 H         1 ARG         0.2615
    184 H66       -10.7525   22.7294    9.5619 H         1 PFF         0.1885
    185 H67       -11.1979   24.5546   11.8111 H         1 PFF         0.0823
    186 H68       -13.0921   22.9963   12.3800 H         1 PFF         0.0466
    187 H69       -12.6281   21.9650   10.9843 H         1 PFF         0.0466
    188 H70       -13.9297   25.2451   12.0421 H         1 PFF         0.0547
    189 H71       -12.9335   22.7621    8.6879 H         1 PFF         0.0547
    190 H72       -15.1544   26.7968   10.5589 H         1 PFF         0.0587
    191 H73       -14.1435   24.3036    7.1786 H         1 PFF         0.0587
    192 H74        -9.4285   24.4068   13.0454 H         1 ARG         0.1883
    193 H75        -8.7201   21.7172   14.1012 H         1 ARG         0.0800
    194 H76        -6.5855   22.6796   14.7461 H         1 ARG         0.0313
    195 H77        -7.1383   24.3141   14.2469 H         1 ARG         0.0313
    196 H78        -7.0514   23.7492   11.9482 H         1 ARG         0.0301
    197 H79        -6.8957   21.9954   12.3042 H         1 ARG         0.0301
    198 H80        -4.7085   22.2053   13.0724 H         1 ARG         0.0689
    199 H81        -4.8983   23.9533   13.4399 H         1 ARG         0.0689
    200 H82        -4.1602   22.7213   10.8618 H         1 ARG         0.2642
    201 H83        -4.7636   26.7144   11.3394 H         1 ARG         0.2615
    202 H84        -5.3193   25.5840   12.6028 H         1 ARG         0.2615
    203 H85        -3.4503   24.1612    9.2679 H         1 ARG         0.2615
    204 H86        -3.7191   25.9140    9.4638 H         1 ARG         0.2615
    205 H87       -10.9404   22.4673   15.2923 H         1 LYS         0.1883
    206 H88       -11.9841   22.9872   17.2635 H         1 LYS         0.0800
    207 H89       -10.5027   22.8604   19.3593 H         1 LYS         0.0312
    208 H90        -9.1657   22.4254   18.2413 H         1 LYS         0.0312
    209 H91       -10.0791   20.4089   19.1713 H         1 LYS         0.0269
    210 H92       -10.5481   20.5000   17.4397 H         1 LYS         0.0269
    211 H93       -12.7504   21.4453   18.1366 H         1 LYS         0.0317
    212 H94       -12.2736   21.1996   19.8510 H         1 LYS         0.0317
    213 H95       -12.1588   18.8184   19.5615 H         1 LYS         0.0813
    214 H96       -12.3310   18.9662   17.7796 H         1 LYS         0.0813
    215 H97       -14.4005   18.3583   18.8346 H         1 LYS         0.1994
    216 H98       -14.5389   19.8450   18.1416 H         1 LYS         0.1994
    217 H99       -14.3811   19.7095   19.7745 H         1 LYS         0.1994
    218 H100       -9.0699   24.3223   18.6088 H         1 THR         0.1884
    219 H101       -8.6742   26.3513   19.5832 H         1 THR         0.0826
    220 H102       -8.6694   28.2998   18.0411 H         1 THR         0.0639
    221 H103      -10.0136   26.5252   16.2446 H         1 THR         0.2101
    222 H104       -7.1850   27.3455   16.2993 H         1 THR         0.0257
    223 H105       -7.7541   25.6948   16.7208 H         1 THR         0.0257
    224 H106       -6.8260   26.6582   17.9196 H         1 THR         0.0257
    225 H107      -12.2868   26.7174   20.5529 H         1 NH2         0.1815
    226 H108      -11.2350   25.3671   20.2875 H         1 NH2         0.1815
@<TRIPOS>BOND
     1    1    2 2  
     2    1    3 1  
     3    1    4 am 
     4    4    5 1  
     5    5    6 1  
     6    5    8 1  
     7    6    7 2  
     8    6   11 am 
     9    8    9 1  
    10    8   10 1  
    11   11   12 1  
    12   12   13 1  
    13   12   15 1  
    14   13   14 2  
    15   13   19 am 
    16   15   16 1  
    17   15   17 1  
    18   16   18 1  
    19   19   20 1  
    20   20   21 1  
    21   20   23 1  
    22   21   22 2  
    23   21   27 am 
    24   23   24 1  
    25   24   25 ar 
    26   24   26 ar 
    27   27   28 1  
    28   28   29 1  
    29   28   31 1  
    30   29   30 2  
    31   29   39 am 
    32   31   32 1  
    33   32   33 ar 
    34   32   34 ar 
    35   33   35 ar 
    36   34   36 ar 
    37   35   37 ar 
    38   36   37 ar 
    39   37   38 1  
    40   39   40 1  
    41   40   41 1  
    42   40   43 1  
    43   41   42 2  
    44   41   47 am 
    45   43   44 1  
    46   44   45 ar 
    47   44   46 ar 
    48   47   48 1  
    49   48   49 1  
    50   48   51 1  
    51   49   50 2  
    52   49   56 am 
    53   51   52 1  
    54   52   53 1  
    55   53   54 ar 
    56   53   55 ar 
    57   56   57 1  
    58   57   58 1  
    59   57   60 1  
    60   58   59 2  
    61   58   68 am 
    62   60   61 1  
    63   61   62 ar 
    64   61   63 ar 
    65   62   64 ar 
    66   63   65 ar 
    67   64   66 ar 
    68   65   66 ar 
    69   66   67 1  
    70   68   69 1  
    71   69   70 1  
    72   69   72 1  
    73   70   71 2  
    74   70   79 am 
    75   72   73 1  
    76   73   74 1  
    77   74   75 1  
    78   75   76 ar 
    79   76   77 ar 
    80   76   78 ar 
    81   79   80 1  
    82   80   81 1  
    83   80   83 1  
    84   81   82 2  
    85   81   91 am 
    86   83   84 1  
    87   84   85 ar 
    88   84   86 ar 
    89   85   87 ar 
    90   86   88 ar 
    91   87   89 ar 
    92   88   89 ar 
    93   89   90 1  
    94   91   92 1  
    95   92   93 1  
    96   92   95 1  
    97   93   94 2  
    98   93  102 am 
    99   95   96 1  
   100   96   97 1  
   101   97   98 1  
   102   98   99 ar 
   103   99  100 ar 
   104   99  101 ar 
   105  102  103 1  
   106  103  104 1  
   107  103  106 1  
   108  104  105 2  
   109  104  111 am 
   110  106  107 1  
   111  107  108 1  
   112  108  109 1  
   113  109  110 1  
   114  111  112 1  
   115  112  113 1  
   116  112  115 1  
   117  113  114 2  
   118  113  118 am 
   119  115  116 1  
   120  115  117 1  
   121    3  119 1  
   122    3  120 1  
   123    3  121 1  
   124    4  122 1  
   125    5  123 1  
   126    8  124 1  
   127    9  125 1  
   128   10  126 1  
   129   10  127 1  
   130   10  128 1  
   131   11  129 1  
   132   12  130 1  
   133   15  131 1  
   134   16  132 1  
   135   16  133 1  
   136   17  134 1  
   137   17  135 1  
   138   17  136 1  
   139   18  137 1  
   140   18  138 1  
   141   18  139 1  
   142   19  140 1  
   143   20  141 1  
   144   23  142 1  
   145   23  143 1  
   146   27  144 1  
   147   28  145 1  
   148   31  146 1  
   149   31  147 1  
   150   33  148 1  
   151   34  149 1  
   152   35  150 1  
   153   36  151 1  
   154   39  152 1  
   155   40  153 1  
   156   43  154 1  
   157   43  155 1  
   158   47  156 1  
   159   48  157 1  
   160   51  158 1  
   161   51  159 1  
   162   52  160 1  
   163   52  161 1  
   164   56  162 1  
   165   57  163 1  
   166   60  164 1  
   167   60  165 1  
   168   62  166 1  
   169   63  167 1  
   170   64  168 1  
   171   65  169 1  
   172   67  170 1  
   173   68  171 1  
   174   69  172 1  
   175   72  173 1  
   176   72  174 1  
   177   73  175 1  
   178   73  176 1  
   179   74  177 1  
   180   74  178 1  
   181   75  179 1  
   182   77  180 1  
   183   77  181 1  
   184   78  182 1  
   185   78  183 1  
   186   79  184 1  
   187   80  185 1  
   188   83  186 1  
   189   83  187 1  
   190   85  188 1  
   191   86  189 1  
   192   87  190 1  
   193   88  191 1  
   194   91  192 1  
   195   92  193 1  
   196   95  194 1  
   197   95  195 1  
   198   96  196 1  
   199   96  197 1  
   200   97  198 1  
   201   97  199 1  
   202   98  200 1  
   203  100  201 1  
   204  100  202 1  
   205  101  203 1  
   206  101  204 1  
   207  102  205 1  
   208  103  206 1  
   209  106  207 1  
   210  106  208 1  
   211  107  209 1  
   212  107  210 1  
   213  108  211 1  
   214  108  212 1  
   215  109  213 1  
   216  109  214 1  
   217  110  215 1  
   218  110  216 1  
   219  110  217 1  
   220  111  218 1  
   221  112  219 1  
   222  115  220 1  
   223  116  221 1  
   224  117  222 1  
   225  117  223 1  
   226  117  224 1  
   227  118  225 1  
   228  118  226 1  
@<TRIPOS>SUBSTRUCTURE
     1 ACE         1

