4ofb_ligand
  -I-interpret- 

227229  0  0  0  0  0  0  0  0999 V2000
  -12.8170   28.7340  -12.5320 C   0  0  0  0  0
  -13.8170   28.6490  -11.8220 O   0  0  0  0  0
  -12.8250   28.2080  -13.9370 C   0  0  0  0  0
  -11.6600   29.2840  -12.1520 N   0  0  0  0  0
  -11.3600   29.8710  -10.8440 C   0  0  0  0  0
  -11.7920   28.9660   -9.6910 C   0  0  0  0  0
  -12.9730   28.8740   -9.3570 O   0  0  0  0  0
  -12.0220   31.2530  -10.6750 C   0  0  0  0  0
  -11.5240   32.1480  -11.6780 O   0  0  0  0  0
  -11.7130   31.8270   -9.2980 C   0  0  0  0  0
  -10.8220   28.2980   -9.0820 N   0  0  0  0  0
  -11.1100   27.4100   -7.9710 C   0  0  0  0  0
  -10.4560   27.9340   -6.6990 C   0  0  0  0  0
   -9.5290   28.7380   -6.7570 O   0  0  0  0  0
  -10.6290   25.9830   -8.2570 C   0  0  0  0  0
   -9.1130   25.9050   -8.1830 C   0  0  0  0  0
  -11.1250   25.5130   -9.6160 C   0  0  0  0  0
   -8.6060   24.5000   -8.1780 C   0  0  0  0  0
  -10.9460   27.4820   -5.5500 N   0  0  0  0  0
  -10.4490   27.9660   -4.2680 C   0  0  0  0  0
   -9.2760   27.1410   -3.7680 C   0  0  0  0  0
   -9.2080   25.9350   -4.0040 O   0  0  0  0  0
  -11.5690   27.9610   -3.2320 C   0  0  0  0  0
  -12.7410   28.8150   -3.6520 C   0  0  0  0  0
  -12.5140   29.7940   -4.3980 O   0  0  0  0  0
  -13.8840   28.5080   -3.2440 O   0  0  0  0  0
   -8.3580   27.7960   -3.0660 N   0  0  0  0  0
   -7.1800   27.1330   -2.5640 C   0  0  0  0  0
   -6.9410   27.3740   -1.0810 C   0  0  0  0  0
   -6.3480   26.5840   -0.3440 O   0  0  0  0  0
   -5.9070   27.5780   -3.3080 C   0  0  0  0  0
   -5.7890   26.8530   -4.5960 C   0  0  0  0  0
   -5.2780   25.5530   -4.6190 C   0  0  0  0  0
   -6.1940   27.4590   -5.7900 C   0  0  0  0  0
   -5.1680   24.8560   -5.8160 C   0  0  0  0  0
   -6.0870   26.7780   -6.9920 C   0  0  0  0  0
   -5.5750   25.4700   -7.0120 C   0  0  0  0  0
   -5.4720   24.7990   -8.1840 F   0  0  0  0  0
   -7.4270   28.5240   -0.6300 N   0  0  0  0  0
   -7.2500   28.9300    0.7580 C   0  0  0  0  0
   -8.4070   28.4440    1.6210 C   0  0  0  0  0
   -9.0280   29.2240    2.3430 O   0  0  0  0  0
   -7.1140   30.4510    0.8550 C   0  0  0  0  0
   -5.9130   30.9780    0.0930 C   0  0  0  0  0
   -4.7920   30.4750    0.3240 O   0  0  0  0  0
   -6.0920   31.8870   -0.7460 O   0  0  0  0  0
   -8.6920   27.1490    1.5360 N   0  0  0  0  0
   -9.7360   26.5400    2.3450 C   0  0  0  0  0
   -9.3910   26.6610    3.8160 C   0  0  0  0  0
   -8.2270   26.5490    4.1960 O   0  0  0  0  0
   -9.9220   25.0710    1.9770 C   0  0  0  0  0
  -10.1080   24.8070    0.5020 C   0  0  0  0  0
  -10.0280   23.3330    0.1810 C   0  0  0  0  0
  -10.7640   22.5430    0.8120 O   0  0  0  0  0
   -9.2170   22.9630   -0.6920 O   0  0  0  0  0
  -10.4030   26.8880    4.6430 N   0  0  0  0  0
  -10.1910   27.0170    6.0770 C   0  0  0  0  0
  -10.1260   25.6420    6.7270 C   0  0  0  0  0
  -10.8520   24.7280    6.3380 O   0  0  0  0  0
  -11.2980   27.8620    6.7110 C   0  0  0  0  0
  -11.1150   28.1060    8.1910 C   0  0  0  0  0
  -10.2820   29.1210    8.6530 C   0  0  0  0  0
  -11.7750   27.3230    9.1290 C   0  0  0  0  0
  -10.1110   29.3480   10.0140 C   0  0  0  0  0
  -11.6120   27.5410   10.4880 C   0  0  0  0  0
  -10.7810   28.5550   10.9240 C   0  0  0  0  0
  -10.6210   28.7680   12.2730 O   0  0  0  0  0
   -9.2410   25.5020    7.7090 N   0  0  0  0  0
   -9.0710   24.2410    8.4210 C   0  0  0  0  0
   -9.5970   24.3530    9.8490 C   0  0  0  0  0
   -9.1890   25.2320   10.6070 O   0  0  0  0  0
   -7.5980   23.8190    8.4160 C   0  0  0  0  0
   -7.1220   23.2670    7.0780 C   0  0  0  0  0
   -5.6080   23.3220    6.9510 C   0  0  0  0  0
   -5.1250   24.7000    6.9130 N   0  0  0  0  0
   -3.8420   25.0470    6.8580 C   0  0  0  0  0
   -2.9010   24.1110    6.8450 N   0  0  0  0  0
   -3.5000   26.3300    6.8310 N   0  0  0  0  0
  -10.5110   23.4570   10.2040 N   0  0  0  0  0
  -11.1660   23.5030   11.4900 C   0  0  0  0  0
  -10.4070   22.7160   12.5480 C   0  0  0  0  0
  -10.5850   21.5190   12.7710 O   0  0  0  0  0
  -12.6210   22.9890   11.3860 C   0  0  0  0  0
  -13.3610   23.8970   10.4690 C   0  0  0  0  0
  -13.9830   25.0400   10.9790 C   0  0  0  0  0
  -13.4200   23.6420    9.0930 C   0  0  0  0  0
  -14.6690   25.9190   10.1480 C   0  0  0  0  0
  -14.0980   24.5090    8.2420 C   0  0  0  0  0
  -14.7250   25.6550    8.7690 C   0  0  0  0  0
  -15.3910   26.5100    7.9550 F   0  0  0  0  0
   -9.5140   23.4270   13.2260 N   0  0  0  0  0
   -8.6560   22.8080   14.2280 C   0  0  0  0  0
   -9.0810   23.1490   15.6540 C   0  0  0  0  0
   -8.2630   23.6230   16.4470 O   0  0  0  0  0
   -7.2050   23.2380   14.0290 C   0  0  0  0  0
   -6.6380   23.0080   12.6480 C   0  0  0  0  0
   -5.1350   23.1560   12.7200 C   0  0  0  0  0
   -4.5200   23.4910   11.4440 N   0  0  0  0  0
   -4.3960   24.7320   10.9870 C   0  0  0  0  0
   -4.8610   25.7530   11.6960 N   0  0  0  0  0
   -3.8120   24.9520    9.8200 N   0  0  0  0  0
  -10.3490   22.8980   15.9740 N   0  0  0  0  0
  -10.9110   23.2280   17.2850 C   0  0  0  0  0
  -10.7620   24.7110   17.5990 C   0  0  0  0  0
  -11.5770   25.5260   17.1680 O   0  0  0  0  0
  -10.2550   22.3990   18.3920 C   0  0  0  0  0
  -10.6920   20.9480   18.4340 C   0  0  0  0  0
  -12.1470   20.8320   18.8220 C   0  0  0  0  0
  -12.6250   19.3950   18.7490 C   0  0  0  0  0
  -14.1060   19.3210   18.8860 N   0  3  0  0  0
   -9.7090   25.0440   18.3430 N   0  0  0  0  0
   -9.4370   26.4120   18.7930 C   0  0  0  0  0
  -10.6740   27.0920   19.3870 C   0  0  0  0  0
  -10.9020   28.2830   19.1750 O   0  0  0  0  0
   -8.8700   27.2930   17.6460 C   0  0  0  0  0
   -9.8250   27.3930   16.5820 O   0  0  0  0  0
   -7.5680   26.7070   17.1090 C   0  0  0  0  0
  -11.4640   26.3290   20.1380 N   0  0  0  0  0
  -13.0384   27.1392  -13.9223 H   0  0  0  0  0
  -13.5925   28.7251  -14.5128 H   0  0  0  0  0
  -11.8499   28.3789  -14.3931 H   0  0  0  0  0
  -10.9097   29.2963  -12.8428 H   0  0  0  0  0
  -10.2765   29.9851  -10.8099 H   0  0  0  0  0
  -13.1009   31.1377  -10.7791 H   0  0  0  0  0
  -11.7163   31.7907  -12.5480 H   0  0  0  0  0
  -10.6346   31.9405   -9.1867 H   0  0  0  0  0
  -12.1945   32.7994   -9.1947 H   0  0  0  0  0
  -12.0895   31.1504   -8.5309 H   0  0  0  0  0
   -9.8590   28.4099   -9.3991 H   0  0  0  0  0
  -12.1913   27.3813   -7.8365 H   0  0  0  0  0
  -11.0430   25.3224   -7.4952 H   0  0  0  0  0
   -8.7993   26.3767   -7.2518 H   0  0  0  0  0
   -8.7094   26.4027   -9.0648 H   0  0  0  0  0
  -12.2148   25.5281   -9.6287 H   0  0  0  0  0
  -10.7421   26.1773  -10.3907 H   0  0  0  0  0
  -10.7723   24.4980   -9.7990 H   0  0  0  0  0
   -9.0100   23.9724   -7.3140 H   0  0  0  0  0
   -8.9219   23.9978   -9.0924 H   0  0  0  0  0
   -7.5174   24.5081   -8.1239 H   0  0  0  0  0
  -11.6865   26.7807   -5.5652 H   0  0  0  0  0
  -10.0973   28.9868   -4.4176 H   0  0  0  0  0
  -11.1712   28.3663   -2.3016 H   0  0  0  0  0
  -11.9208   26.9356   -3.1190 H   0  0  0  0  0
  -13.8252   27.7275   -2.6882 H   0  0  0  0  0
   -8.4893   28.7899   -2.8779 H   0  0  0  0  0
   -7.3747   26.0737   -2.7317 H   0  0  0  0  0
   -5.0363   27.3552   -2.6913 H   0  0  0  0  0
   -5.9636   28.6487   -3.5044 H   0  0  0  0  0
   -4.9624   25.0807   -3.6887 H   0  0  0  0  0
   -6.5958   28.4721   -5.7747 H   0  0  0  0  0
   -4.7693   23.8416   -5.8268 H   0  0  0  0  0
   -6.3995   27.2563   -7.9203 H   0  0  0  0  0
   -7.9349   29.1362   -1.2685 H   0  0  0  0  0
   -6.3340   28.4719    1.1310 H   0  0  0  0  0
   -6.9851   30.7103    1.9058 H   0  0  0  0  0
   -8.0090   30.8965    0.4208 H   0  0  0  0  0
   -4.8792   29.7981    0.9991 H   0  0  0  0  0
   -8.1644   26.5663    0.8859 H   0  0  0  0  0
  -10.6700   27.0665    2.1487 H   0  0  0  0  0
  -10.8296   24.7319    2.4763 H   0  0  0  0  0
   -9.0130   24.5512    2.2796 H   0  0  0  0  0
   -9.3134   25.3192   -0.0405 H   0  0  0  0  0
  -11.0946   25.1677    0.2113 H   0  0  0  0  0
  -11.3061   23.0376    1.4309 H   0  0  0  0  0
  -11.3472   26.9737    4.2669 H   0  0  0  0  0
   -9.2399   27.5230    6.2428 H   0  0  0  0  0
  -12.2328   27.3153    6.5869 H   0  0  0  0  0
  -11.2838   28.8346    6.2191 H   0  0  0  0  0
   -9.7544   29.7490    7.9351 H   0  0  0  0  0
  -12.4330   26.5227    8.7904 H   0  0  0  0  0
   -9.4533   30.1455   10.3597 H   0  0  0  0  0
  -12.1371   26.9152   11.2096 H   0  0  0  0  0
  -11.1528   28.1351   12.7610 H   0  0  0  0  0
   -8.6636   26.3006    7.9723 H   0  0  0  0  0
   -9.6498   23.4738    7.9068 H   0  0  0  0  0
   -7.4844   23.0253    9.1544 H   0  0  0  0  0
   -7.0043   24.7074    8.6312 H   0  0  0  0  0
   -7.5548   23.8746    6.2832 H   0  0  0  0  0
   -7.4342   22.2251    7.0066 H   0  0  0  0  0
   -5.3208   22.8292    6.0221 H   0  0  0  0  0
   -5.1701   22.8259    7.8172 H   0  0  0  0  0
   -5.8190   25.4473    6.9298 H   0  0  0  0  0
   -3.1616   23.1254    6.8772 H   0  0  0  0  0
   -2.5155   26.5948    6.8003 H   0  0  0  0  0
   -4.2219   27.0506    6.8409 H   0  0  0  0  0
  -10.7574   22.7148    9.5491 H   0  0  0  0  0
  -11.1799   24.5476   11.8011 H   0  0  0  0  0
  -13.0902   22.9810   12.3698 H   0  0  0  0  0
  -12.6350   21.9694   11.0008 H   0  0  0  0  0
  -13.9294   25.2462   12.0480 H   0  0  0  0  0
  -12.9308   22.7572    8.6857 H   0  0  0  0  0
  -15.1571   26.8017   10.5612 H   0  0  0  0  0
  -14.1438   24.3025    7.1727 H   0  0  0  0  0
   -9.4268   24.4264   13.0418 H   0  0  0  0  0
   -8.7526   21.7307   14.0935 H   0  0  0  0  0
   -6.6075   22.6349   14.7127 H   0  0  0  0  0
   -7.1755   24.3141   14.1998 H   0  0  0  0  0
   -7.0518   23.7345   11.9486 H   0  0  0  0  0
   -6.8986   22.0088   12.2989 H   0  0  0  0  0
   -4.7272   22.1962   13.0371 H   0  0  0  0  0
   -4.9199   23.9716   13.4103 H   0  0  0  0  0
   -4.1637   22.7287   10.8675 H   0  0  0  0  0
   -4.7679   26.7047   11.3412 H   0  0  0  0  0
   -5.3115   25.5860   12.5957 H   0  0  0  0  0
   -3.4571   24.1686    9.2716 H   0  0  0  0  0
  -10.9522   22.4587   15.2786 H   0  0  0  0  0
  -11.9733   22.9869   17.2454 H   0  0  0  0  0
  -10.5467   22.8475   19.3417 H   0  0  0  0  0
   -9.1820   22.4035   18.2004 H   0  0  0  0  0
  -10.0895   20.4226   19.1750 H   0  0  0  0  0
  -10.5586   20.5138   17.4432 H   0  0  0  0  0
  -12.7391   21.4298   18.1291 H   0  0  0  0  0
  -12.2613   21.1836   19.8474 H   0  0  0  0  0
  -12.1688   18.8317   19.5630 H   0  0  0  0  0
  -12.3409   18.9794   17.7822 H   0  0  0  0  0
  -14.4028   18.3465   18.8339 H   0  0  0  0  0
  -14.3831   19.7144   19.7853 H   0  0  0  0  0
  -14.5429   19.8515   18.1323 H   0  0  0  0  0
   -9.0571   24.3079   18.6141 H   0  0  0  0  0
   -8.6867   26.3192   19.5782 H   0  0  0  0  0
   -8.6696   28.2864   18.0473 H   0  0  0  0  0
   -9.4640   27.9391   15.8798 H   0  0  0  0  0
   -6.8337   26.6592   17.9131 H   0  0  0  0  0
   -7.7537   25.7040   16.7247 H   0  0  0  0  0
   -7.1895   27.3405   16.3068 H   0  0  0  0  0
  -12.2998   26.7268   20.5665 H   0  0  0  0  0
  -11.2338   25.3463   20.2853 H   0  0  0  0  0
  1  2  2  0  0  0
  1  3  1  0  0  0
  1  4  1  0  0  0
  4  5  1  0  0  0
  5  6  1  0  0  0
  5  8  1  0  0  0
  6  7  2  0  0  0
  6 11  1  0  0  0
  8  9  1  0  0  0
  8 10  1  0  0  0
 11 12  1  0  0  0
 12 13  1  0  0  0
 12 15  1  0  0  0
 13 14  2  0  0  0
 13 19  1  0  0  0
 15 16  1  0  0  0
 15 17  1  0  0  0
 16 18  1  0  0  0
 19 20  1  0  0  0
 20 21  1  0  0  0
 20 23  1  0  0  0
 21 22  2  0  0  0
 21 27  1  0  0  0
 23 24  1  0  0  0
 24 25  2  0  0  0
 24 26  1  0  0  0
 27 28  1  0  0  0
 28 29  1  0  0  0
 28 31  1  0  0  0
 29 30  2  0  0  0
 29 39  1  0  0  0
 31 32  1  0  0  0
 32 33  4  0  0  0
 32 34  4  0  0  0
 33 35  4  0  0  0
 34 36  4  0  0  0
 35 37  4  0  0  0
 36 37  4  0  0  0
 37 38  1  0  0  0
 39 40  1  0  0  0
 40 41  1  0  0  0
 40 43  1  0  0  0
 41 42  2  0  0  0
 41 47  1  0  0  0
 43 44  1  0  0  0
 44 45  1  0  0  0
 44 46  2  0  0  0
 47 48  1  0  0  0
 48 49  1  0  0  0
 48 51  1  0  0  0
 49 50  2  0  0  0
 49 56  1  0  0  0
 51 52  1  0  0  0
 52 53  1  0  0  0
 53 54  1  0  0  0
 53 55  2  0  0  0
 56 57  1  0  0  0
 57 58  1  0  0  0
 57 60  1  0  0  0
 58 59  2  0  0  0
 58 68  1  0  0  0
 60 61  1  0  0  0
 61 62  4  0  0  0
 61 63  4  0  0  0
 62 64  4  0  0  0
 63 65  4  0  0  0
 64 66  4  0  0  0
 65 66  4  0  0  0
 66 67  1  0  0  0
 68 69  1  0  0  0
 69 70  1  0  0  0
 69 72  1  0  0  0
 70 71  2  0  0  0
 70 79  1  0  0  0
 72 73  1  0  0  0
 73 74  1  0  0  0
 74 75  1  0  0  0
 75 76  1  0  0  0
 76 77  2  0  0  0
 76 78  1  0  0  0
 79 80  1  0  0  0
 80 81  1  0  0  0
 80 83  1  0  0  0
 81 82  2  0  0  0
 81 91  1  0  0  0
 83 84  1  0  0  0
 84 85  4  0  0  0
 84 86  4  0  0  0
 85 87  4  0  0  0
 86 88  4  0  0  0
 87 89  4  0  0  0
 88 89  4  0  0  0
 89 90  1  0  0  0
 91 92  1  0  0  0
 92 93  1  0  0  0
 92 95  1  0  0  0
 93 94  2  0  0  0
 93102  1  0  0  0
 95 96  1  0  0  0
 96 97  1  0  0  0
 97 98  1  0  0  0
 98 99  1  0  0  0
 99100  1  0  0  0
 99101  2  0  0  0
102103  1  0  0  0
103104  1  0  0  0
103106  1  0  0  0
104105  2  0  0  0
104111  1  0  0  0
106107  1  0  0  0
107108  1  0  0  0
108109  1  0  0  0
109110  1  0  0  0
111112  1  0  0  0
112113  1  0  0  0
112115  1  0  0  0
113114  2  0  0  0
113118  1  0  0  0
115116  1  0  0  0
115117  1  0  0  0
  3119  1  0  0  0
  3120  1  0  0  0
  3121  1  0  0  0
  4122  1  0  0  0
  5123  1  0  0  0
  8124  1  0  0  0
  9125  1  0  0  0
 10126  1  0  0  0
 10127  1  0  0  0
 10128  1  0  0  0
 11129  1  0  0  0
 12130  1  0  0  0
 15131  1  0  0  0
 16132  1  0  0  0
 16133  1  0  0  0
 17134  1  0  0  0
 17135  1  0  0  0
 17136  1  0  0  0
 18137  1  0  0  0
 18138  1  0  0  0
 18139  1  0  0  0
 19140  1  0  0  0
 20141  1  0  0  0
 23142  1  0  0  0
 23143  1  0  0  0
 26144  1  0  0  0
 27145  1  0  0  0
 28146  1  0  0  0
 31147  1  0  0  0
 31148  1  0  0  0
 33149  1  0  0  0
 34150  1  0  0  0
 35151  1  0  0  0
 36152  1  0  0  0
 39153  1  0  0  0
 40154  1  0  0  0
 43155  1  0  0  0
 43156  1  0  0  0
 45157  1  0  0  0
 47158  1  0  0  0
 48159  1  0  0  0
 51160  1  0  0  0
 51161  1  0  0  0
 52162  1  0  0  0
 52163  1  0  0  0
 54164  1  0  0  0
 56165  1  0  0  0
 57166  1  0  0  0
 60167  1  0  0  0
 60168  1  0  0  0
 62169  1  0  0  0
 63170  1  0  0  0
 64171  1  0  0  0
 65172  1  0  0  0
 67173  1  0  0  0
 68174  1  0  0  0
 69175  1  0  0  0
 72176  1  0  0  0
 72177  1  0  0  0
 73178  1  0  0  0
 73179  1  0  0  0
 74180  1  0  0  0
 74181  1  0  0  0
 75182  1  0  0  0
 77183  1  0  0  0
 78184  1  0  0  0
 78185  1  0  0  0
 79186  1  0  0  0
 80187  1  0  0  0
 83188  1  0  0  0
 83189  1  0  0  0
 85190  1  0  0  0
 86191  1  0  0  0
 87192  1  0  0  0
 88193  1  0  0  0
 91194  1  0  0  0
 92195  1  0  0  0
 95196  1  0  0  0
 95197  1  0  0  0
 96198  1  0  0  0
 96199  1  0  0  0
 97200  1  0  0  0
 97201  1  0  0  0
 98202  1  0  0  0
100203  1  0  0  0
100204  1  0  0  0
101205  1  0  0  0
102206  1  0  0  0
103207  1  0  0  0
106208  1  0  0  0
106209  1  0  0  0
107210  1  0  0  0
107211  1  0  0  0
108212  1  0  0  0
108213  1  0  0  0
109214  1  0  0  0
109215  1  0  0  0
110216  1  0  0  0
110217  1  0  0  0
110218  1  0  0  0
111219  1  0  0  0
112220  1  0  0  0
115221  1  0  0  0
116222  1  0  0  0
117223  1  0  0  0
117224  1  0  0  0
117225  1  0  0  0
118226  1  0  0  0
118227  1  0  0  0
M  END
$$$$
