2am1_ligand
  -I-interpret- 

 50 53  0  0  0  0  0  0  0  0999 V2000
   11.5680   46.4530   55.3810 C   0  0  0  0  0
   14.6700   44.8410   53.8220 C   0  0  0  0  0
   14.3680   45.4210   56.1870 C   0  0  0  0  0
   10.9550   46.1540   52.4260 C   0  0  0  0  0
   16.5720   43.7390   52.8740 C   0  0  0  0  0
   18.3420   42.3170   54.1080 C   0  0  0  0  0
   20.6910   42.5100   53.3390 C   0  0  0  0  0
   23.4070   43.3850   49.5310 C   0  0  0  0  0
   12.5640   45.8460   54.4010 C   0  0  0  0  0
   13.9060   45.3520   54.8150 C   0  0  0  0  0
   12.2740   45.7120   53.0500 C   0  0  0  0  0
   13.7060   44.9740   52.3510 S   0  0  0  0  0
   10.1030   46.3400   54.8910 C   0  0  0  0  0
   15.9320   44.3280   53.9170 N   0  0  0  0  0
   14.7370   45.4690   57.2830 N   0  0  0  0  0
    9.9650   46.8500   53.4210 C   0  0  0  0  0
   17.9550   43.2620   53.0860 C   0  0  0  0  0
   16.0510   43.6290   51.7450 O   0  0  0  0  0
   18.9260   43.7920   52.2170 C   0  0  0  0  0
   20.2710   43.4330   52.3300 C   0  0  0  0  0
   19.7220   41.9520   54.2280 C   0  0  0  0  0
   17.1920   41.6230   55.2020 Cl  0  0  0  0  0
   21.4620   44.1650   51.1550 S   0  0  0  0  0
   22.3910   42.8510   50.4710 N   0  0  0  0  0
   22.3510   45.0410   51.8710 O   0  0  0  0  0
   20.7710   44.8860   50.1300 O   0  0  0  0  0
   22.3770   42.0700   53.4870 Cl  0  0  0  0  0
   21.4890   41.9180   49.7510 C   0  0  0  0  0
   22.3170   40.7510   49.1590 C   0  0  0  0  0
   24.2350   42.2250   48.9220 C   0  0  0  0  0
   23.7390   40.9410   49.3770 O   0  0  0  0  0
   11.8050   47.5117   55.4865 H   0  0  0  0  0
   11.6494   45.9081   56.3215 H   0  0  0  0  0
   10.4590   45.2552   52.0596 H   0  0  0  0  0
   11.1968   46.8845   51.6540 H   0  0  0  0  0
   24.0756   44.0552   50.0713 H   0  0  0  0  0
   22.9026   43.9230   48.7284 H   0  0  0  0  0
    9.4703   46.9513   55.5346 H   0  0  0  0  0
    9.8010   45.2933   54.9283 H   0  0  0  0  0
   16.4163   44.3901   54.8126 H   0  0  0  0  0
    8.9518   46.6242   53.0885 H   0  0  0  0  0
   10.1931   47.9159   53.4200 H   0  0  0  0  0
   18.6232   44.4955   51.4415 H   0  0  0  0  0
   20.0332   41.2472   54.9990 H   0  0  0  0  0
   20.9847   42.4506   48.9447 H   0  0  0  0  0
   20.7480   41.5216   50.4452 H   0  0  0  0  0
   22.1356   40.7100   48.0850 H   0  0  0  0  0
   22.0131   39.8279   49.6526 H   0  0  0  0  0
   25.2728   42.3317   49.2376 H   0  0  0  0  0
   24.1524   42.2679   47.8360 H   0  0  0  0  0
  9  1  1  0  0  0
  1 13  1  0  0  0
  2 10  4  0  0  0
  2 12  4  0  0  0
 14  2  1  0  0  0
 10  3  1  0  0  0
  3 15  3  0  0  0
 11  4  1  0  0  0
  4 16  1  0  0  0
  5 14  1  0  0  0
 17  5  1  0  0  0
  5 18  2  0  0  0
 17  6  4  0  0  0
 21  6  4  0  0  0
  6 22  1  0  0  0
 20  7  4  0  0  0
  7 21  4  0  0  0
  7 27  1  0  0  0
 24  8  1  0  0  0
  8 30  1  0  0  0
 10  9  4  0  0  0
 11  9  4  0  0  0
 12 11  4  0  0  0
 16 13  1  0  0  0
 19 17  4  0  0  0
 20 19  4  0  0  0
 23 20  1  0  0  0
 23 24  1  0  0  0
 23 25  2  0  0  0
 23 26  2  0  0  0
 24 28  1  0  0  0
 28 29  1  0  0  0
 29 31  1  0  0  0
 30 31  1  0  0  0
  1 32  1  0  0  0
  1 33  1  0  0  0
  4 34  1  0  0  0
  4 35  1  0  0  0
  8 36  1  0  0  0
  8 37  1  0  0  0
 13 38  1  0  0  0
 13 39  1  0  0  0
 14 40  1  0  0  0
 16 41  1  0  0  0
 16 42  1  0  0  0
 19 43  1  0  0  0
 21 44  1  0  0  0
 28 45  1  0  0  0
 28 46  1  0  0  0
 29 47  1  0  0  0
 29 48  1  0  0  0
 30 49  1  0  0  0
 30 50  1  0  0  0
M  END
$$$$
