4i8n_ligand
  -I-interpret- 

 52 55  0  0  0  0  0  0  0  0999 V2000
  -13.5560   36.6020   32.2970 C   0  0  0  0  0
  -12.3380   37.1380   31.8940 C   0  0  0  0  0
  -11.4630   36.3040   31.2130 C   0  0  0  0  0
  -12.5550   39.2960   35.2880 C   0  0  0  0  0
  -11.1000   42.1990   35.4620 C   0  0  0  0  0
   -9.6240   44.0730   35.9080 C   0  0  0  0  0
  -10.8360   41.7540   36.7440 C   0  0  0  0  0
   -8.0840   44.1720   39.1750 C   0  0  0  0  0
  -13.8650   38.5420   36.8970 C   0  0  0  0  0
   -6.1200   44.7140   40.2080 O   0  0  0  0  0
   -7.1530   45.1170   39.7430 C   0  0  0  0  0
   -7.3810   46.3980   39.7350 O   0  0  0  0  0
   -8.3910   43.2550   39.8690 O   0  0  0  0  0
   -8.5160   44.3610   37.9280 N   0  0  0  0  0
   -9.3560   43.6220   37.1760 C   0  0  0  0  0
  -10.4870   43.3750   35.0850 C   0  0  0  0  0
   -9.9680   42.4510   37.5830 C   0  0  0  0  0
  -12.0320   41.5250   34.4630 C   0  0  0  0  0
  -11.9150   40.0180   34.1820 C   0  0  0  0  0
  -12.8050   39.5500   32.8770 S   0  0  0  0  0
  -13.1880   40.6580   32.0120 O   0  0  0  0  0
  -14.0570   39.0640   33.4010 O   0  0  0  0  0
  -11.9710   38.4240   32.1120 N   0  0  0  0  0
  -13.8700   35.2630   32.0290 C   0  0  0  0  0
  -12.9850   34.4330   31.3540 C   0  0  0  0  0
  -13.2860   33.1430   31.0890 F   0  0  0  0  0
  -11.7770   34.9720   30.9480 C   0  0  0  0  0
  -11.8630   38.3000   35.8700 O   0  0  0  0  0
  -12.7150   37.8430   36.8770 C   0  0  0  0  0
  -12.4620   36.8310   37.7590 C   0  0  0  0  0
  -13.4290   36.5470   38.6970 C   0  0  0  0  0
  -14.5990   37.2550   38.7280 C   0  0  0  0  0
  -14.8280   38.2580   37.8220 C   0  0  0  0  0
  -13.7520   39.4280   35.8910 N   0  0  0  0  0
  -14.2733   37.2293   32.8263 H   0  0  0  0  0
  -10.5051   36.7007   30.8765 H   0  0  0  0  0
   -9.1531   44.9876   35.5477 H   0  0  0  0  0
  -11.3143   40.8434   37.1046 H   0  0  0  0  0
   -8.2378   46.5669   39.3362 H   0  0  0  0  0
   -8.1534   45.1974   37.4704 H   0  0  0  0  0
  -10.6928   43.7727   34.0912 H   0  0  0  0  0
   -9.7673   42.0642   38.5821 H   0  0  0  0  0
  -11.7901   41.9956   33.5100 H   0  0  0  0  0
  -13.0237   41.6406   34.9004 H   0  0  0  0  0
  -10.8545   39.8122   34.0367 H   0  0  0  0  0
  -11.0607   38.7037   31.7467 H   0  0  0  0  0
  -14.8298   34.8643   32.3575 H   0  0  0  0  0
  -11.0615   34.3468   30.4139 H   0  0  0  0  0
  -11.5288   36.2690   37.7215 H   0  0  0  0  0
  -13.2607   35.7505   39.4218 H   0  0  0  0  0
  -15.3542   37.0201   39.4780 H   0  0  0  0  0
  -15.7625   38.8188   37.8399 H   0  0  0  0  0
  2  1  4  0  0  0
  1 24  4  0  0  0
  2  3  4  0  0  0
 23  2  1  0  0  0
  3 27  4  0  0  0
 19  4  1  0  0  0
  4 28  4  0  0  0
  4 34  4  0  0  0
  5  7  4  0  0  0
  5 16  4  0  0  0
 18  5  1  0  0  0
  6 15  4  0  0  0
 16  6  4  0  0  0
  7 17  4  0  0  0
  8 11  1  0  0  0
  8 13  2  0  0  0
 14  8  1  0  0  0
  9 29  4  0  0  0
  9 33  4  0  0  0
 34  9  4  0  0  0
 11 10  2  0  0  0
 11 12  1  0  0  0
 15 14  1  0  0  0
 17 15  4  0  0  0
 19 18  1  0  0  0
 20 19  1  0  0  0
 20 21  2  0  0  0
 20 22  2  0  0  0
 20 23  1  0  0  0
 24 25  4  0  0  0
 25 26  1  0  0  0
 25 27  4  0  0  0
 28 29  4  0  0  0
 29 30  4  0  0  0
 30 31  4  0  0  0
 31 32  4  0  0  0
 32 33  4  0  0  0
  1 35  1  0  0  0
  3 36  1  0  0  0
  6 37  1  0  0  0
  7 38  1  0  0  0
 12 39  1  0  0  0
 14 40  1  0  0  0
 16 41  1  0  0  0
 17 42  1  0  0  0
 18 43  1  0  0  0
 18 44  1  0  0  0
 19 45  1  0  0  0
 23 46  1  0  0  0
 24 47  1  0  0  0
 27 48  1  0  0  0
 30 49  1  0  0  0
 31 50  1  0  0  0
 32 51  1  0  0  0
 33 52  1  0  0  0
M  END
$$$$
