2wa8_ligand
  -I-interpret- 

171172  0  0  0  0  0  0  0  0999 V2000
   15.2190   31.4750   28.5250 N   0  3  0  0  0
   14.4910   30.4400   27.7970 C   0  0  0  0  0
   13.3090   29.8750   28.5530 C   0  0  0  0  0
   13.0650   30.2110   29.7020 O   0  0  0  0  0
   15.4360   29.3150   27.3880 C   0  0  0  0  0
   16.6330   29.8000   26.6260 C   0  0  0  0  0
   16.4890   30.3170   25.3520 C   0  0  0  0  0
   17.8990   29.7640   27.1930 C   0  0  0  0  0
   17.6020   30.7750   24.6360 C   0  0  0  0  0
   19.0030   30.2030   26.4930 C   0  0  0  0  0
   18.8590   30.7050   25.1900 C   0  0  0  0  0
   12.5820   28.9910   27.8860 N   0  0  0  0  0
   11.3530   28.4540   28.4450 C   0  0  0  0  0
   11.5480   26.9680   28.7810 C   0  0  0  0  0
   12.0300   26.1880   27.9530 O   0  0  0  0  0
   10.2130   28.6400   27.4450 C   0  0  0  0  0
    9.1790   27.5240   27.4720 C   0  0  0  0  0
    8.1930   27.6740   26.3420 C   0  0  0  0  0
    6.9380   26.9940   26.6380 N   0  0  0  0  0
    6.6700   25.7310   26.3220 C   0  0  0  0  0
    7.5730   24.9880   25.6890 N   0  0  0  0  0
    5.4900   25.2140   26.6410 N   0  0  0  0  0
   11.2020   26.5860   30.0060 N   0  0  0  0  0
   11.2490   25.1760   30.3970 C   0  0  0  0  0
    9.8950   24.5660   30.1250 C   0  0  0  0  0
    8.8990   25.2770   29.9700 O   0  0  0  0  0
   11.5680   25.0240   31.8750 C   0  0  0  0  0
   10.6660   25.7930   32.6460 O   0  0  0  0  0
    9.8570   23.2450   30.0640 N   0  0  0  0  0
    8.6000   22.5470   29.8930 C   0  0  0  0  0
    8.4560   21.5650   31.0450 C   0  0  0  0  0
    7.6780   20.6150   30.9710 O   0  0  0  0  0
    8.5920   21.8270   28.5510 C   0  0  0  0  0
    9.0620   22.6950   27.3890 C   0  0  0  0  0
    9.5650   21.8500   26.2240 C   0  0  0  0  0
    8.4800   20.9160   25.7210 C   0  0  0  0  0
    7.2460   21.6720   25.3640 N   0  3  0  0  0
    9.2120   21.8160   32.1140 N   0  0  0  0  0
    9.3420   20.8760   33.2140 C   0  0  0  0  0
    9.9210   19.5470   32.7540 C   0  0  0  0  0
    9.2260   18.7390   32.1290 O   0  0  0  0  0
   11.1960   19.3140   33.0530 N   0  0  0  0  0
   11.8510   18.0590   32.6720 C   0  0  0  0  0
   12.3590   17.1830   33.8400 C   0  0  0  0  0
   11.7840   16.1120   34.0850 O   0  0  0  0  0
   12.9550   18.2980   31.6300 C   0  0  0  0  0
   12.5090   19.1340   30.4320 C   0  0  0  0  0
   12.9940   20.5730   30.5120 C   0  0  0  0  0
   12.1900   21.4970   30.2470 O   0  0  0  0  0
   14.1840   20.7760   30.8400 O   0  0  0  0  0
   13.3940   17.6000   34.5820 N   0  0  0  0  0
   14.0280   18.9230   34.5680 C   0  0  0  0  0
   14.8680   18.9500   35.8300 C   0  0  0  0  0
   14.3400   18.6310   36.9000 O   0  0  0  0  0
   12.9780   20.0130   34.7060 C   0  0  0  0  0
   13.4690   21.2870   35.3470 C   0  0  0  0  0
   13.6380   22.3990   34.3460 C   0  0  0  0  0
   13.6680   22.1070   33.1310 O   0  0  0  0  0
   13.7360   23.5650   34.7800 O   0  0  0  0  0
   16.1520   19.3050   35.7570 N   0  0  0  0  0
   16.8740   19.6830   34.5500 C   0  0  0  0  0
   18.2200   18.9570   34.5880 C   0  0  0  0  0
   18.9330   18.8760   33.5830 O   0  0  0  0  0
   17.1270   21.1870   34.5820 C   0  0  0  0  0
   17.6370   22.0280   33.4140 C   0  0  0  0  0
   16.8090   21.8120   32.1540 C   0  0  0  0  0
   17.6170   23.4940   33.8270 C   0  0  0  0  0
   18.5580   18.4310   35.7670 N   0  0  0  0  0
   19.8660   17.8040   36.0270 C   0  0  0  0  0
   21.0140   18.8050   35.8760 C   0  0  0  0  0
   22.0290   18.5020   35.2650 O   0  0  0  0  0
   20.0910   16.5500   35.1600 C   0  0  0  0  0
   18.8230   15.8370   34.8000 C   0  0  0  0  0
   17.9110   15.4810   35.7810 C   0  0  0  0  0
   18.5290   15.5370   33.4840 C   0  0  0  0  0
   16.7220   14.8450   35.4550 C   0  0  0  0  0
   17.3480   14.8940   33.1540 C   0  0  0  0  0
   16.4440   14.5490   34.1460 C   0  0  0  0  0
   20.8150   19.9960   36.4420 N   0  0  0  0  0
   21.7830   21.0990   36.4770 C   0  0  0  0  0
   21.0920   22.4610   36.4860 C   0  0  0  0  0
   20.1520   22.6980   37.2550 O   0  0  0  0  0
   22.7790   21.1020   35.3200 C   0  0  0  0  0
   23.8060   20.1520   35.5760 O   0  0  0  0  0
   23.4150   22.4740   35.2050 C   0  0  0  0  0
   14.5742   32.2192   28.7912 H   0  0  0  0  0
   15.6369   31.0698   29.3626 H   0  0  0  0  0
   15.9528   31.8567   27.9281 H   0  0  0  0  0
   14.0827   30.9276   26.9118 H   0  0  0  0  0
   14.8823   28.6371   26.7385 H   0  0  0  0  0
   15.7950   28.8364   28.2991 H   0  0  0  0  0
   15.4985   30.3687   24.8999 H   0  0  0  0  0
   18.0226   29.3831   28.2068 H   0  0  0  0  0
   17.4717   31.1885   23.6359 H   0  0  0  0  0
   19.9903   30.1601   26.9528 H   0  0  0  0  0
   19.7310   31.0347   24.6252 H   0  0  0  0  0
   12.8903   28.6820   26.9641 H   0  0  0  0  0
   11.0997   28.9861   29.3619 H   0  0  0  0  0
   10.6547   28.6480   26.4485 H   0  0  0  0  0
    9.6987   29.5642   27.7087 H   0  0  0  0  0
    8.6378   27.5714   28.4170 H   0  0  0  0  0
    9.6925   26.5687   27.3636 H   0  0  0  0  0
    8.6243   27.2299   25.4448 H   0  0  0  0  0
    7.9870   28.7350   26.2006 H   0  0  0  0  0
    6.2141   27.5251   27.1220 H   0  0  0  0  0
    7.3590   24.0202   25.4483 H   0  0  0  0  0
    8.4797   25.3859   25.4441 H   0  0  0  0  0
    4.7970   25.7850   27.1249 H   0  0  0  0  0
   10.8992   27.2856   30.6838 H   0  0  0  0  0
   12.0313   24.6765   29.8254 H   0  0  0  0  0
   12.5845   25.3714   32.0600 H   0  0  0  0  0
   11.4757   23.9748   32.1557 H   0  0  0  0  0
   10.8751   25.6908   33.5774 H   0  0  0  0  0
   10.7234   22.7119   30.1383 H   0  0  0  0  0
    7.7607   23.2424   29.8990 H   0  0  0  0  0
    7.5629   21.5335   28.3440 H   0  0  0  0  0
    9.2794   20.9846   28.6283 H   0  0  0  0  0
    9.8819   23.3228   27.7380 H   0  0  0  0  0
    8.2185   23.2919   27.0422 H   0  0  0  0  0
   10.4103   21.2523   26.5650 H   0  0  0  0  0
    9.8587   22.5144   25.4114 H   0  0  0  0  0
    8.2377   20.2048   26.5107 H   0  0  0  0  0
    8.8453   20.4035   24.8311 H   0  0  0  0  0
    6.5349   21.0215   25.0298 H   0  0  0  0  0
    6.8991   22.1629   26.1881 H   0  0  0  0  0
    7.4625   22.3471   24.6307 H   0  0  0  0  0
    9.7177   22.7005   32.1613 H   0  0  0  0  0
    8.3504   20.6933   33.6282 H   0  0  0  0  0
   10.0161   21.3059   33.9548 H   0  0  0  0  0
   11.7286   20.0227   33.5575 H   0  0  0  0  0
   11.0529   17.4675   32.2234 H   0  0  0  0  0
   13.2563   17.3223   31.2489 H   0  0  0  0  0
   13.7550   18.8467   32.1270 H   0  0  0  0  0
   11.4192   19.1470   30.4185 H   0  0  0  0  0
   12.9329   18.6861   29.5333 H   0  0  0  0  0
   11.3359   21.1215   30.0210 H   0  0  0  0  0
   13.7865   16.9187   35.2318 H   0  0  0  0  0
   14.5892   19.0874   33.6482 H   0  0  0  0  0
   12.1933   19.6166   35.3504 H   0  0  0  0  0
   12.6548   20.2705   33.6974 H   0  0  0  0  0
   14.4406   21.0868   35.7987 H   0  0  0  0  0
   12.7299   21.6029   36.0832 H   0  0  0  0  0
   13.5757   21.1569   33.0290 H   0  0  0  0  0
   16.6786   19.3124   36.6305 H   0  0  0  0  0
   16.3103   19.4249   33.6535 H   0  0  0  0  0
   17.9486   21.2645   35.2941 H   0  0  0  0  0
   16.1221   21.5838   34.7265 H   0  0  0  0  0
   18.6549   21.7196   33.1754 H   0  0  0  0  0
   16.8561   20.7620   31.8654 H   0  0  0  0  0
   15.7734   22.0904   32.3492 H   0  0  0  0  0
   17.2071   22.4296   31.3489 H   0  0  0  0  0
   16.5972   23.7855   34.0780 H   0  0  0  0  0
   18.2606   23.6343   34.6955 H   0  0  0  0  0
   17.9790   24.1075   33.0020 H   0  0  0  0  0
   17.8772   18.4646   36.5258 H   0  0  0  0  0
   19.8555   17.4744   37.0659 H   0  0  0  0  0
   20.7035   15.8578   35.7377 H   0  0  0  0  0
   20.5599   16.8739   34.2309 H   0  0  0  0  0
   18.1314   15.7042   36.8249 H   0  0  0  0  0
   19.2334   15.8091   32.6979 H   0  0  0  0  0
   16.0108   14.5814   36.2378 H   0  0  0  0  0
   17.1290   14.6588   32.1124 H   0  0  0  0  0
   15.5140   14.0434   33.8858 H   0  0  0  0  0
   19.9121   20.1542   36.8893 H   0  0  0  0  0
   22.3316   20.9290   37.4034 H   0  0  0  0  0
   21.4331   23.2385   35.8025 H   0  0  0  0  0
   22.2556   20.8508   34.3975 H   0  0  0  0  0
   24.4316   20.1548   34.8479 H   0  0  0  0  0
   22.6401   23.2180   35.0204 H   0  0  0  0  0
   23.9345   22.7112   36.1334 H   0  0  0  0  0
   24.1260   22.4754   34.3788 H   0  0  0  0  0
  1  2  1  0  0  0
  2  3  1  0  0  0
  2  5  1  0  0  0
  3  4  2  0  0  0
  3 12  1  0  0  0
  5  6  1  0  0  0
  6  7  4  0  0  0
  6  8  4  0  0  0
  7  9  4  0  0  0
  8 10  4  0  0  0
  9 11  4  0  0  0
 10 11  4  0  0  0
 12 13  1  0  0  0
 13 14  1  0  0  0
 13 16  1  0  0  0
 14 15  2  0  0  0
 14 23  1  0  0  0
 16 17  1  0  0  0
 17 18  1  0  0  0
 18 19  1  0  0  0
 19 20  1  0  0  0
 20 21  1  0  0  0
 20 22  2  0  0  0
 23 24  1  0  0  0
 24 25  1  0  0  0
 24 27  1  0  0  0
 25 26  2  0  0  0
 25 29  1  0  0  0
 27 28  1  0  0  0
 29 30  1  0  0  0
 30 31  1  0  0  0
 30 33  1  0  0  0
 31 32  2  0  0  0
 31 38  1  0  0  0
 33 34  1  0  0  0
 34 35  1  0  0  0
 35 36  1  0  0  0
 36 37  1  0  0  0
 38 39  1  0  0  0
 39 40  1  0  0  0
 40 41  2  0  0  0
 40 42  1  0  0  0
 42 43  1  0  0  0
 43 44  1  0  0  0
 43 46  1  0  0  0
 44 45  2  0  0  0
 44 51  1  0  0  0
 46 47  1  0  0  0
 47 48  1  0  0  0
 48 49  1  0  0  0
 48 50  2  0  0  0
 51 52  1  0  0  0
 52 53  1  0  0  0
 52 55  1  0  0  0
 53 54  2  0  0  0
 53 60  1  0  0  0
 55 56  1  0  0  0
 56 57  1  0  0  0
 57 58  1  0  0  0
 57 59  2  0  0  0
 60 61  1  0  0  0
 61 62  1  0  0  0
 61 64  1  0  0  0
 62 63  2  0  0  0
 62 68  1  0  0  0
 64 65  1  0  0  0
 65 66  1  0  0  0
 65 67  1  0  0  0
 68 69  1  0  0  0
 69 70  1  0  0  0
 69 72  1  0  0  0
 70 71  2  0  0  0
 70 79  1  0  0  0
 72 73  1  0  0  0
 73 74  4  0  0  0
 73 75  4  0  0  0
 74 76  4  0  0  0
 75 77  4  0  0  0
 76 78  4  0  0  0
 77 78  4  0  0  0
 79 80  1  0  0  0
 80 81  1  0  0  0
 80 83  1  0  0  0
 81 82  2  0  0  0
 83 84  1  0  0  0
 83 85  1  0  0  0
  1 86  1  0  0  0
  1 87  1  0  0  0
  1 88  1  0  0  0
  2 89  1  0  0  0
  5 90  1  0  0  0
  5 91  1  0  0  0
  7 92  1  0  0  0
  8 93  1  0  0  0
  9 94  1  0  0  0
 10 95  1  0  0  0
 11 96  1  0  0  0
 12 97  1  0  0  0
 13 98  1  0  0  0
 16 99  1  0  0  0
 16100  1  0  0  0
 17101  1  0  0  0
 17102  1  0  0  0
 18103  1  0  0  0
 18104  1  0  0  0
 19105  1  0  0  0
 21106  1  0  0  0
 21107  1  0  0  0
 22108  1  0  0  0
 23109  1  0  0  0
 24110  1  0  0  0
 27111  1  0  0  0
 27112  1  0  0  0
 28113  1  0  0  0
 29114  1  0  0  0
 30115  1  0  0  0
 33116  1  0  0  0
 33117  1  0  0  0
 34118  1  0  0  0
 34119  1  0  0  0
 35120  1  0  0  0
 35121  1  0  0  0
 36122  1  0  0  0
 36123  1  0  0  0
 37124  1  0  0  0
 37125  1  0  0  0
 37126  1  0  0  0
 38127  1  0  0  0
 39128  1  0  0  0
 39129  1  0  0  0
 42130  1  0  0  0
 43131  1  0  0  0
 46132  1  0  0  0
 46133  1  0  0  0
 47134  1  0  0  0
 47135  1  0  0  0
 49136  1  0  0  0
 51137  1  0  0  0
 52138  1  0  0  0
 55139  1  0  0  0
 55140  1  0  0  0
 56141  1  0  0  0
 56142  1  0  0  0
 58143  1  0  0  0
 60144  1  0  0  0
 61145  1  0  0  0
 64146  1  0  0  0
 64147  1  0  0  0
 65148  1  0  0  0
 66149  1  0  0  0
 66150  1  0  0  0
 66151  1  0  0  0
 67152  1  0  0  0
 67153  1  0  0  0
 67154  1  0  0  0
 68155  1  0  0  0
 69156  1  0  0  0
 72157  1  0  0  0
 72158  1  0  0  0
 74159  1  0  0  0
 75160  1  0  0  0
 76161  1  0  0  0
 77162  1  0  0  0
 78163  1  0  0  0
 79164  1  0  0  0
 80165  1  0  0  0
 81166  1  0  0  0
 83167  1  0  0  0
 84168  1  0  0  0
 85169  1  0  0  0
 85170  1  0  0  0
 85171  1  0  0  0
M  END
$$$$
