### 
### Created by X-TOOL on Mon Sep 10 21:13:01 2018
### 

@<TRIPOS>MOLECULE
2wa8_ligand
  170   171     1     0     0
SMALL
GAST_HUCK


@<TRIPOS>ATOM
      1 N          15.2190   31.4750   28.5250 N.4       1 PHE         0.2394
      2 CA         14.4910   30.4400   27.7970 C.3       1 PHE         0.0744
      3 C          13.3090   29.8750   28.5530 C.2       1 PHE         0.2288
      4 O          13.0650   30.2110   29.7020 O.2       1 PHE        -0.3905
      5 CB         15.4360   29.3150   27.3880 C.3       1 PHE         0.0416
      6 CG         16.6330   29.8000   26.6260 C.ar      1 PHE        -0.0353
      7 CD1        16.4890   30.3170   25.3520 C.ar      1 PHE        -0.0600
      8 CD2        17.8990   29.7640   27.1930 C.ar      1 PHE        -0.0600
      9 CE1        17.6020   30.7750   24.6360 C.ar      1 PHE        -0.0686
     10 CE2        19.0030   30.2030   26.4930 C.ar      1 PHE        -0.0686
     11 CZ         18.8590   30.7050   25.1900 C.ar      1 PHE        -0.0687
     12 N          12.5820   28.9910   27.8860 N.am      1 ARG        -0.2609
     13 CA         11.3530   28.4540   28.4450 C.3       1 ARG         0.1312
     14 C          11.5480   26.9680   28.7810 C.2       1 ARG         0.2040
     15 O          12.0300   26.1880   27.9530 O.2       1 ARG        -0.3944
     16 CB         10.2130   28.6400   27.4450 C.3       1 ARG        -0.0092
     17 CG          9.1790   27.5240   27.4720 C.3       1 ARG        -0.0156
     18 CD          8.1930   27.6740   26.3420 C.3       1 ARG         0.0627
     19 NE          6.9380   26.9940   26.6380 N.pl3     1 ARG        -0.2723
     20 CZ          6.6700   25.7310   26.3220 C.cat     1 ARG         0.2882
     21 NH1         7.5730   24.9880   25.6890 N.pl3     1 ARG        -0.2849
     22 NH2         5.4900   25.2140   26.6410 N.pl3     1 ARG        -0.2849
     23 N          11.2020   26.5860   30.0060 N.am      1 SER        -0.2616
     24 CA         11.2490   25.1760   30.3970 C.3       1 SER         0.1539
     25 C           9.8950   24.5660   30.1250 C.2       1 SER         0.2062
     26 O           8.8990   25.2770   29.9700 O.2       1 SER        -0.3943
     27 CB         11.5680   25.0240   31.8750 C.3       1 SER         0.0843
     28 OG         10.6660   25.7930   32.6460 O.3       1 SER        -0.3903
     29 N           9.8570   23.2450   30.0640 N.am      1 LYS        -0.2637
     30 CA          8.6000   22.5470   29.8930 C.3       1 LYS         0.1310
     31 C           8.4560   21.5650   31.0450 C.2       1 LYS         0.2037
     32 O           7.6780   20.6150   30.9710 O.2       1 LYS        -0.3944
     33 CB          8.5920   21.8270   28.5510 C.3       1 LYS        -0.0122
     34 CG          9.0620   22.6950   27.3890 C.3       1 LYS        -0.0440
     35 CD          9.5650   21.8500   26.2240 C.3       1 LYS        -0.0124
     36 CE          8.4800   20.9160   25.7210 C.3       1 LYS        -0.0354
     37 NZ          7.2460   21.6720   25.3640 N.4       1 LYS         0.2185
     38 N           9.2120   21.8160   32.1140 N.am      1 GLY        -0.2664
     39 CA          9.3420   20.8760   33.2140 C.3       1 GLY         0.1201
     40 C           9.9210   19.5470   32.7540 C.2       1 GLY         0.2007
     41 O           9.2260   18.7390   32.1290 O.2       1 GLY        -0.3947
     42 N          11.1960   19.3140   33.0530 N.am      1 GLU        -0.2639
     43 CA         11.8510   18.0590   32.6720 C.3       1 GLU         0.1324
     44 C          12.3590   17.1830   33.8400 C.2       1 GLU         0.2040
     45 O          11.7840   16.1120   34.0850 O.2       1 GLU        -0.3944
     46 CB         12.9550   18.2980   31.6300 C.3       1 GLU        -0.0008
     47 CG         12.5090   19.1340   30.4320 C.3       1 GLU         0.0044
     48 CD         12.9940   20.5730   30.5120 C.2       1 GLU         0.0350
     49 OE1        12.1900   21.4970   30.2470 O.co2     1 GLU        -0.5690
     50 OE2        14.1840   20.7760   30.8400 O.co2     1 GLU        -0.5690
     51 N          13.3940   17.6000   34.5820 N.am      1 GLU        -0.2636
     52 CA         14.0280   18.9230   34.5680 C.3       1 GLU         0.1325
     53 C          14.8680   18.9500   35.8300 C.2       1 GLU         0.2040
     54 O          14.3400   18.6310   36.9000 O.2       1 GLU        -0.3944
     55 CB         12.9780   20.0130   34.7060 C.3       1 GLU        -0.0008
     56 CG         13.4690   21.2870   35.3470 C.3       1 GLU         0.0044
     57 CD         13.6380   22.3990   34.3460 C.2       1 GLU         0.0350
     58 OE1        13.6680   22.1070   33.1310 O.co2     1 GLU        -0.5690
     59 OE2        13.7360   23.5650   34.7800 O.co2     1 GLU        -0.5690
     60 N          16.1520   19.3050   35.7570 N.am      1 LEU        -0.2637
     61 CA         16.8740   19.6830   34.5500 C.3       1 LEU         0.1312
     62 C          18.2200   18.9570   34.5880 C.2       1 LEU         0.2040
     63 O          18.9330   18.8760   33.5830 O.2       1 LEU        -0.3944
     64 CB         17.1270   21.1870   34.5820 C.3       1 LEU        -0.0101
     65 CG         17.6370   22.0280   33.4140 C.3       1 LEU        -0.0425
     66 CD1        16.8090   21.8120   32.1540 C.3       1 LEU        -0.0625
     67 CD2        17.6170   23.4940   33.8270 C.3       1 LEU        -0.0625
     68 N          18.5580   18.4310   35.7670 N.am      1 PHE        -0.2619
     69 CA         19.8660   17.8040   36.0270 C.3       1 PHE         0.1405
     70 C          21.0140   18.8050   35.8760 C.2       1 PHE         0.2061
     71 O          22.0290   18.5020   35.2650 O.2       1 PHE        -0.3942
     72 CB         20.0910   16.5500   35.1600 C.3       1 PHE         0.0214
     73 CG         18.8230   15.8370   34.8000 C.ar      1 PHE        -0.0386
     74 CD1        17.9110   15.4810   35.7810 C.ar      1 PHE        -0.0601
     75 CD2        18.5290   15.5370   33.4840 C.ar      1 PHE        -0.0601
     76 CE1        16.7220   14.8450   35.4550 C.ar      1 PHE        -0.0686
     77 CE2        17.3480   14.8940   33.1540 C.ar      1 PHE        -0.0686
     78 CZ         16.4440   14.5490   34.1460 C.ar      1 PHE        -0.0687
     79 N          20.8150   19.9960   36.4420 N.am      1 THR        -0.2623
     80 CA         21.7830   21.0990   36.4770 C.3       1 THR         0.1382
     81 C          21.0920   22.4610   36.4860 C.2       1 THR         0.1270
     82 O          20.1520   22.6980   37.2550 O.2       1 THR        -0.3724
     83 CB         22.7790   21.1020   35.3200 C.3       1 THR         0.0911
     84 OG1        23.8060   20.1520   35.5760 O.3       1 THR        -0.3873
     85 CG2        23.4150   22.4740   35.2050 C.3       1 THR        -0.0345
     86 H1         15.9888   31.8028   27.9629 H         1 PHE         0.2017
     87 H2         15.5722   31.0932   29.3884 H         1 PHE         0.2017
     88 H3         14.5988   32.2437   28.7263 H         1 PHE         0.2017
     89 H4         14.0993   30.9033   26.8795 H         1 PHE         0.1122
     90 H5         14.8825   28.6053   26.7556 H         1 PHE         0.0507
     91 H6         15.7838   28.8022   28.2968 H         1 PHE         0.0507
     92 H7         15.5040   30.3684   24.9024 H         1 PHE         0.0557
     93 H8         18.0220   29.3852   28.2012 H         1 PHE         0.0557
     94 H9         17.4724   31.1862   23.6414 H         1 PHE         0.0599
     95 H10        19.9849   30.1603   26.9503 H         1 PHE         0.0599
     96 H11        19.7262   31.0329   24.6283 H         1 PHE         0.0559
     97 H12        12.8842   28.6880   26.9822 H         1 ARG         0.1885
     98 H13        11.1086   28.9988   29.3688 H         1 ARG         0.0800
     99 H14        10.6438   28.6881   26.4340 H         1 ARG         0.0313
    100 H15         9.7044   29.5885   27.6724 H         1 ARG         0.0313
    101 H16         8.6375   27.5584   28.4288 H         1 ARG         0.0301
    102 H17         9.6921   26.5558   27.3756 H         1 ARG         0.0301
    103 H18         8.6272   27.2421   25.4283 H         1 ARG         0.0689
    104 H19         7.9916   28.7435   26.1822 H         1 ARG         0.0689
    105 H20         6.2070   27.5303   27.1267 H         1 ARG         0.2642
    106 H21         7.3576   24.0101   25.4477 H         1 ARG         0.2615
    107 H22         8.4879   25.3904   25.4400 H         1 ARG         0.2615
    108 H23         4.7909   25.7900   27.1313 H         1 ARG         0.2615
    109 H24         5.2733   24.2367   26.3982 H         1 ARG         0.2615
    110 H25        10.9052   27.2718   30.6705 H         1 SER         0.1884
    111 H26        12.0181   24.6584   29.8049 H         1 SER         0.0823
    112 H27        12.5950   25.3700   32.0635 H         1 SER         0.0606
    113 H28        11.4797   23.9652   32.1597 H         1 SER         0.0606
    114 H29        10.7424   26.7078   32.4017 H         1 SER         0.2097
    115 H30        10.7064   22.7224   30.1369 H         1 LYS         0.1883
    116 H31         7.7685   23.2667   29.9193 H         1 LYS         0.0800
    117 H32         7.5651   21.4927   28.3420 H         1 LYS         0.0312
    118 H33         9.2552   20.9523   28.6218 H         1 LYS         0.0312
    119 H34         9.8782   23.3453   27.7367 H         1 LYS         0.0269
    120 H35         8.2213   23.3146   27.0435 H         1 LYS         0.0269
    121 H36        10.4266   21.2534   26.5581 H         1 LYS         0.0317
    122 H37         9.8751   22.5152   25.4047 H         1 LYS         0.0317
    123 H38         8.2396   20.1869   26.5088 H         1 LYS         0.0813
    124 H39         8.8469   20.3855   24.8300 H         1 LYS         0.0813
    125 H40         6.5425   21.0301   25.0336 H         1 LYS         0.1994
    126 H41         7.4587   22.3395   24.6393 H         1 LYS         0.1994
    127 H42         6.9022   22.1575   26.1777 H         1 LYS         0.1994
    128 H43         9.7078   22.6832   32.1604 H         1 GLY         0.1881
    129 H44         8.3482   20.6994   33.6512 H         1 GLY         0.0763
    130 H45        10.0062   21.3092   33.9763 H         1 GLY         0.0763
    131 H46        11.7182   20.0088   33.5476 H         1 GLU         0.1883
    132 H47        11.0749   17.4615   32.1713 H         1 GLU         0.0801
    133 H48        13.2993   17.3208   31.2607 H         1 GLU         0.0330
    134 H49        13.7893   18.8183   32.1233 H         1 GLU         0.0330
    135 H50        11.4097   19.1342   30.3918 H         1 GLU         0.0433
    136 H51        12.9094   18.6775   29.5148 H         1 GLU         0.0433
    137 H52        13.7788   16.9321   35.2190 H         1 GLU         0.1883
    138 H53        14.6336   19.0715   33.6618 H         1 GLU         0.0801
    139 H54        12.1532   19.6182   35.3175 H         1 GLU         0.0330
    140 H55        12.6046   20.2577   33.7007 H         1 GLU         0.0330
    141 H56        14.4396   21.0913   35.8262 H         1 GLU         0.0433
    142 H57        12.7413   21.6037   36.1086 H         1 GLU         0.0433
    143 H58        16.6683   19.3122   36.6134 H         1 LEU         0.1883
    144 H59        16.3050   19.4067   33.6501 H         1 LEU         0.0800
    145 H60        17.8562   21.3415   35.3910 H         1 LEU         0.0315
    146 H61        16.1642   21.6373   34.8652 H         1 LEU         0.0315
    147 H62        18.6746   21.7344   33.1971 H         1 LEU         0.0298
    148 H63        17.2098   22.4348   31.3407 H         1 LEU         0.0232
    149 H64        15.7636   22.0927   32.3496 H         1 LEU         0.0232
    150 H65        16.8557   20.7526   31.8616 H         1 LEU         0.0232
    151 H66        18.2201   23.6267   34.7373 H         1 LEU         0.0232
    152 H67        16.5807   23.8050   34.0252 H         1 LEU         0.0232
    153 H68        18.0359   24.1090   33.0168 H         1 LEU         0.0232
    154 H69        17.8906   18.4640   36.5109 H         1 PHE         0.1885
    155 H70        19.8610   17.4734   37.0761 H         1 PHE         0.0823
    156 H71        20.7363   15.8537   35.7156 H         1 PHE         0.0474
    157 H72        20.5948   16.8548   34.2309 H         1 PHE         0.0474
    158 H73        18.1302   15.7030   36.8191 H         1 PHE         0.0557
    159 H74        19.2295   15.8076   32.7023 H         1 PHE         0.0557
    160 H75        16.0147   14.5829   36.2335 H         1 PHE         0.0599
    161 H76        17.1302   14.6601   32.1182 H         1 PHE         0.0599
    162 H77        15.5192   14.0462   33.8873 H         1 PHE         0.0559
    163 H78        19.9298   20.1511   36.8805 H         1 THR         0.1885
    164 H79        22.3538   20.9946   37.4115 H         1 THR         0.0816
    165 H80        21.4328   23.2378   35.8031 H         1 THR         0.1374
    166 H81        22.2602   20.8497   34.3834 H         1 THR         0.0640
    167 H82        23.4219   19.2874   35.6616 H         1 THR         0.2101
    168 H83        24.1328   22.4767   34.3714 H         1 THR         0.0257
    169 H84        23.9397   22.7146   36.1414 H         1 THR         0.0257
    170 H85        22.6339   23.2258   35.0187 H         1 THR         0.0257
@<TRIPOS>BOND
     1    1    2 1  
     2    2    3 1  
     3    2    5 1  
     4    3    4 2  
     5    3   12 am 
     6    5    6 1  
     7    6    7 ar 
     8    6    8 ar 
     9    7    9 ar 
    10    8   10 ar 
    11    9   11 ar 
    12   10   11 ar 
    13   12   13 1  
    14   13   14 1  
    15   13   16 1  
    16   14   15 2  
    17   14   23 am 
    18   16   17 1  
    19   17   18 1  
    20   18   19 1  
    21   19   20 ar 
    22   20   21 ar 
    23   20   22 ar 
    24   23   24 1  
    25   24   25 1  
    26   24   27 1  
    27   25   26 2  
    28   25   29 am 
    29   27   28 1  
    30   29   30 1  
    31   30   31 1  
    32   30   33 1  
    33   31   32 2  
    34   31   38 am 
    35   33   34 1  
    36   34   35 1  
    37   35   36 1  
    38   36   37 1  
    39   38   39 1  
    40   39   40 1  
    41   40   41 2  
    42   40   42 am 
    43   42   43 1  
    44   43   44 1  
    45   43   46 1  
    46   44   45 2  
    47   44   51 am 
    48   46   47 1  
    49   47   48 1  
    50   48   49 ar 
    51   48   50 ar 
    52   51   52 1  
    53   52   53 1  
    54   52   55 1  
    55   53   54 2  
    56   53   60 am 
    57   55   56 1  
    58   56   57 1  
    59   57   58 ar 
    60   57   59 ar 
    61   60   61 1  
    62   61   62 1  
    63   61   64 1  
    64   62   63 2  
    65   62   68 am 
    66   64   65 1  
    67   65   66 1  
    68   65   67 1  
    69   68   69 1  
    70   69   70 1  
    71   69   72 1  
    72   70   71 2  
    73   70   79 am 
    74   72   73 1  
    75   73   74 ar 
    76   73   75 ar 
    77   74   76 ar 
    78   75   77 ar 
    79   76   78 ar 
    80   77   78 ar 
    81   79   80 1  
    82   80   81 1  
    83   80   83 1  
    84   81   82 2  
    85   83   84 1  
    86   83   85 1  
    87    1   86 1  
    88    1   87 1  
    89    1   88 1  
    90    2   89 1  
    91    5   90 1  
    92    5   91 1  
    93    7   92 1  
    94    8   93 1  
    95    9   94 1  
    96   10   95 1  
    97   11   96 1  
    98   12   97 1  
    99   13   98 1  
   100   16   99 1  
   101   16  100 1  
   102   17  101 1  
   103   17  102 1  
   104   18  103 1  
   105   18  104 1  
   106   19  105 1  
   107   21  106 1  
   108   21  107 1  
   109   22  108 1  
   110   22  109 1  
   111   23  110 1  
   112   24  111 1  
   113   27  112 1  
   114   27  113 1  
   115   28  114 1  
   116   29  115 1  
   117   30  116 1  
   118   33  117 1  
   119   33  118 1  
   120   34  119 1  
   121   34  120 1  
   122   35  121 1  
   123   35  122 1  
   124   36  123 1  
   125   36  124 1  
   126   37  125 1  
   127   37  126 1  
   128   37  127 1  
   129   38  128 1  
   130   39  129 1  
   131   39  130 1  
   132   42  131 1  
   133   43  132 1  
   134   46  133 1  
   135   46  134 1  
   136   47  135 1  
   137   47  136 1  
   138   51  137 1  
   139   52  138 1  
   140   55  139 1  
   141   55  140 1  
   142   56  141 1  
   143   56  142 1  
   144   60  143 1  
   145   61  144 1  
   146   64  145 1  
   147   64  146 1  
   148   65  147 1  
   149   66  148 1  
   150   66  149 1  
   151   66  150 1  
   152   67  151 1  
   153   67  152 1  
   154   67  153 1  
   155   68  154 1  
   156   69  155 1  
   157   72  156 1  
   158   72  157 1  
   159   74  158 1  
   160   75  159 1  
   161   76  160 1  
   162   77  161 1  
   163   78  162 1  
   164   79  163 1  
   165   80  164 1  
   166   81  165 1  
   167   83  166 1  
   168   84  167 1  
   169   85  168 1  
   170   85  169 1  
   171   85  170 1  
@<TRIPOS>SUBSTRUCTURE
     1 PHE         1

