6f6n_ligand
  -I-interpret- 

 38 40  0  0  0  0  0  0  0  0999 V2000
  -49.1420   10.8700   -2.5260 Cl  0  0  0  0  0
  -48.1960   11.2930   -3.9760 C   0  0  0  0  0
  -48.2360   10.4690   -5.0880 C   0  0  0  0  0
  -49.2340    8.9870   -5.0560 Cl  0  0  0  0  0
  -47.4240   12.4420   -3.9880 C   0  0  0  0  0
  -46.6890   12.7770   -5.1110 C   0  0  0  0  0
  -46.7320   11.9570   -6.2270 C   0  0  0  0  0
  -47.4990   10.8010   -6.2160 C   0  0  0  0  0
  -45.8920   12.3290   -7.4950 C   0  0  0  0  0
  -46.2800   13.8220   -7.9430 C   0  0  0  0  0
  -47.6110   14.2080   -8.0500 C   0  0  0  0  0
  -47.9270   15.5090   -8.4420 C   0  0  0  0  0
  -46.9090   16.4310   -8.7300 C   0  0  0  0  0
  -45.5760   16.0440   -8.6230 C   0  0  0  0  0
  -45.2590   14.7470   -8.2340 C   0  0  0  0  0
  -43.7380   14.3060   -8.1110 C   0  0  0  0  0
  -43.1070   15.2080   -7.1070 N   0  3  0  0  0
  -41.7250   15.4570   -7.4800 C   0  0  0  0  0
  -43.3890   12.8860   -7.7220 C   0  0  0  0  0
  -44.4770   12.0170   -7.1170 C   0  0  0  0  0
  -47.3952   13.0856   -3.1087 H   0  0  0  0  0
  -46.0796   13.6807   -5.1179 H   0  0  0  0  0
  -47.5227   10.1539   -7.0928 H   0  0  0  0  0
  -46.0865   11.7657   -8.4076 H   0  0  0  0  0
  -48.4059   13.4959   -7.8282 H   0  0  0  0  0
  -48.9710   15.8112   -8.5251 H   0  0  0  0  0
  -47.1610   17.4463   -9.0363 H   0  0  0  0  0
  -44.7816   16.7569   -8.8439 H   0  0  0  0  0
  -43.3736   14.3726   -9.1361 H   0  0  0  0  0
  -43.1367   14.7670   -6.1877 H   0  0  0  0  0
  -43.6155   16.0917   -7.0770 H   0  0  0  0  0
  -41.1827   14.5120   -7.5118 H   0  0  0  0  0
  -41.6944   15.9282   -8.4624 H   0  0  0  0  0
  -41.2648   16.1170   -6.7446 H   0  0  0  0  0
  -42.6316   12.9801   -6.9438 H   0  0  0  0  0
  -43.1138   12.3929   -8.6543 H   0  0  0  0  0
  -44.2883   11.0083   -7.4843 H   0  0  0  0  0
  -44.4169   12.1747   -6.0401 H   0  0  0  0  0
  1  2  1  0  0  0
  2  3  4  0  0  0
  2  5  4  0  0  0
  3  4  1  0  0  0
  3  8  4  0  0  0
  5  6  4  0  0  0
  6  7  4  0  0  0
  7  8  4  0  0  0
  7  9  1  0  0  0
  9 10  1  0  0  0
  9 20  1  0  0  0
 10 11  4  0  0  0
 10 15  4  0  0  0
 11 12  4  0  0  0
 12 13  4  0  0  0
 13 14  4  0  0  0
 14 15  4  0  0  0
 15 16  1  0  0  0
 16 17  1  0  0  0
 16 19  1  0  0  0
 17 18  1  0  0  0
 19 20  1  0  0  0
  5 21  1  0  0  0
  6 22  1  0  0  0
  8 23  1  0  0  0
  9 24  1  0  0  0
 11 25  1  0  0  0
 12 26  1  0  0  0
 13 27  1  0  0  0
 14 28  1  0  0  0
 16 29  1  0  0  0
 17 30  1  0  0  0
 17 31  1  0  0  0
 18 32  1  0  0  0
 18 33  1  0  0  0
 18 34  1  0  0  0
 19 35  1  0  0  0
 19 36  1  0  0  0
 20 37  1  0  0  0
 20 38  1  0  0  0
M  END
$$$$
