4w57_ligand
  -I-interpret- 

 24 24  0  0  0  0  0  0  0  0999 V2000
  -40.5790   19.9630   12.3790 C   0  0  0  0  0
  -41.1410   19.4740   11.2060 C   0  0  0  0  0
  -42.5230   19.4100   11.0690 C   0  0  0  0  0
  -43.3490   19.8390   12.0970 C   0  0  0  0  0
  -42.7880   20.3280   13.2720 C   0  0  0  0  0
  -41.4010   20.3940   13.4090 C   0  0  0  0  0
  -39.0570   20.0330   12.5260 C   0  0  0  0  0
  -38.4730   18.7000   12.9950 C   0  0  0  0  0
  -39.0030   18.2620   14.3630 C   0  0  0  0  0
  -38.6610   19.2680   15.4690 C   0  0  0  0  0
  -40.4974   19.1401   10.3921 H   0  0  0  0  0
  -42.9594   19.0207   10.1491 H   0  0  0  0  0
  -44.4322   19.7932   11.9848 H   0  0  0  0  0
  -43.4322   20.6598   14.0862 H   0  0  0  0  0
  -40.9630   20.7851   14.3273 H   0  0  0  0  0
  -38.8181   20.7935   13.2695 H   0  0  0  0  0
  -38.6284   20.2726   11.5529 H   0  0  0  0  0
  -37.3934   18.8228   13.0813 H   0  0  0  0  0
  -38.7590   17.9388   12.2692 H   0  0  0  0  0
  -38.5379   17.3094   14.6167 H   0  0  0  0  0
  -40.0885   18.1878   14.2972 H   0  0  0  0  0
  -37.5784   19.3708   15.5428 H   0  0  0  0  0
  -39.1035   20.2347   15.2286 H   0  0  0  0  0
  -39.0590   18.9110   16.4189 H   0  0  0  0  0
  1  2  4  0  0  0
  1  6  4  0  0  0
  1  7  1  0  0  0
  2  3  4  0  0  0
  3  4  4  0  0  0
  4  5  4  0  0  0
  5  6  4  0  0  0
  7  8  1  0  0  0
  8  9  1  0  0  0
  9 10  1  0  0  0
  2 11  1  0  0  0
  3 12  1  0  0  0
  4 13  1  0  0  0
  5 14  1  0  0  0
  6 15  1  0  0  0
  7 16  1  0  0  0
  7 17  1  0  0  0
  8 18  1  0  0  0
  8 19  1  0  0  0
  9 20  1  0  0  0
  9 21  1  0  0  0
 10 22  1  0  0  0
 10 23  1  0  0  0
 10 24  1  0  0  0
M  END
$$$$
