4jbp_ligand
  -I-interpret- 

 81 86  0  0  0  0  0  0  0  0999 V2000
    1.5620   38.5130    2.2140 C   0  0  0  0  0
    2.7080   38.8140    1.2540 C   0  0  0  0  0
    2.2220   39.5470   -0.0120 C   0  0  0  0  0
    3.2860   39.6140   -0.9720 O   0  0  0  0  0
    1.0180   38.8170   -0.6280 C   0  0  0  0  0
   -0.0520   38.5450    0.4350 C   0  0  0  0  0
    0.5300   37.7310    1.5160 N   0  3  0  0  0
   -0.5220   37.3180    2.4510 C   0  0  0  0  0
    0.0520   36.3780    3.5020 C   0  0  0  0  0
    0.8320   35.3130    2.8700 O   0  0  0  0  0
    1.4900   34.5080    3.7430 C   0  0  0  0  0
    2.3320   33.5130    3.2510 C   0  0  0  0  0
    3.0100   32.6740    4.1330 C   0  0  0  0  0
    1.3180   34.6620    5.1200 C   0  0  0  0  0
    2.0080   33.8320    5.9950 C   0  0  0  0  0
    2.8490   32.8260    5.5140 C   0  0  0  0  0
    3.5070   32.0080    6.4380 C   0  0  0  0  0
    3.2800   32.2240    7.7600 O   0  0  0  0  0
    4.3990   31.0020    6.2970 C   0  0  0  0  0
    4.7320   30.5710    7.5300 C   0  0  0  0  0
    4.0220   31.3440    8.4570 C   0  0  0  0  0
    4.1360   31.1470    9.7720 N   0  0  0  0  0
    4.9400   30.1920   10.2170 C   0  0  0  0  0
    5.6390   29.4330    9.3820 N   0  0  0  0  0
    5.5790   29.5860    8.0440 C   0  0  0  0  0
    6.3330   28.7870    7.2760 N   0  0  0  0  0
    7.1850   27.7220    7.8720 C   0  0  0  0  0
    8.5440   28.2650    8.3840 C   0  0  0  0  0
    9.4290   27.1050    8.8600 C   0  0  0  0  0
    9.2820   26.6070   10.1490 C   0  0  0  0  0
   10.0590   25.5510   10.6120 C   0  0  0  0  0
   10.3720   26.5270    8.0180 C   0  0  0  0  0
   11.1420   25.4590    8.4760 C   0  0  0  0  0
   10.9880   24.9550    9.7740 C   0  0  0  0  0
   11.7440   23.9450   10.2470 N   0  0  0  0  0
   11.9340   22.7720    9.6150 C   0  0  0  0  0
   11.3930   22.5110    8.5460 O   0  0  0  0  0
   12.7550   21.9000   10.2220 N   0  0  0  0  0
   13.0860   20.6890    9.7520 C   0  0  0  0  0
   14.0170   19.9400   10.4750 C   0  0  0  0  0
   14.4170   18.6750   10.0450 C   0  0  0  0  0
   13.8870   18.1470    8.8710 C   0  0  0  0  0
   12.9570   18.8880    8.1420 C   0  0  0  0  0
   12.5600   20.1540    8.5780 C   0  0  0  0  0
    1.1304   39.4488    2.5693 H   0  0  0  0  0
    1.9392   37.9416    3.0621 H   0  0  0  0  0
    3.1557   37.8679    0.9498 H   0  0  0  0  0
    3.4231   39.4570    1.7672 H   0  0  0  0  0
    1.9167   40.5559    0.2656 H   0  0  0  0  0
    4.0366   40.0703   -0.5848 H   0  0  0  0  0
    1.3555   37.8659   -1.0399 H   0  0  0  0  0
    0.5876   39.4438   -1.4090 H   0  0  0  0  0
   -0.8863   38.0083   -0.0166 H   0  0  0  0  0
   -0.4093   39.4906    0.8428 H   0  0  0  0  0
    0.9585   36.8936    1.1215 H   0  0  0  0  0
   -1.3079   36.8014    1.8999 H   0  0  0  0  0
   -0.9289   38.2007    2.9444 H   0  0  0  0  0
   -0.7693   35.9299    4.0612 H   0  0  0  0  0
    0.7034   36.9463    4.1660 H   0  0  0  0  0
    2.4604   33.3908    2.1755 H   0  0  0  0  0
    3.6682   31.8964    3.7453 H   0  0  0  0  0
    0.6465   35.4288    5.5063 H   0  0  0  0  0
    1.8915   33.9677    7.0702 H   0  0  0  0  0
    4.7808   30.6095    5.3545 H   0  0  0  0  0
    5.0291   30.0264   11.2907 H   0  0  0  0  0
    6.3227   28.9112    6.2636 H   0  0  0  0  0
    7.3888   26.9822    7.0979 H   0  0  0  0  0
    6.6497   27.3001    8.7226 H   0  0  0  0  0
    8.3668   28.9452    9.2170 H   0  0  0  0  0
    9.0481   28.7904    7.5728 H   0  0  0  0  0
    8.5411   27.0541   10.8118 H   0  0  0  0  0
    9.9374   25.1920   11.6340 H   0  0  0  0  0
   10.5086   26.9067    7.0054 H   0  0  0  0  0
   11.8783   25.0073    7.8112 H   0  0  0  0  0
   12.2046   24.0787   11.1472 H   0  0  0  0  0
   13.1603   22.1823   11.1144 H   0  0  0  0  0
   14.4387   20.3516   11.3920 H   0  0  0  0  0
   15.1409   18.1027   10.6252 H   0  0  0  0  0
   14.1967   17.1613    8.5239 H   0  0  0  0  0
   12.5367   18.4757    7.2247 H   0  0  0  0  0
   11.8359   20.7257    7.9976 H   0  0  0  0  0
  1  2  1  0  0  0
  1  7  1  0  0  0
  2  3  1  0  0  0
  3  4  1  0  0  0
  3  5  1  0  0  0
  5  6  1  0  0  0
  6  7  1  0  0  0
  7  8  1  0  0  0
  8  9  1  0  0  0
  9 10  1  0  0  0
 10 11  1  0  0  0
 11 12  4  0  0  0
 11 14  4  0  0  0
 12 13  4  0  0  0
 13 16  4  0  0  0
 14 15  4  0  0  0
 15 16  4  0  0  0
 16 17  1  0  0  0
 17 18  4  0  0  0
 17 19  4  0  0  0
 18 21  4  0  0  0
 19 20  4  0  0  0
 20 21  4  0  0  0
 20 25  4  0  0  0
 21 22  4  0  0  0
 22 23  4  0  0  0
 23 24  4  0  0  0
 24 25  4  0  0  0
 25 26  1  0  0  0
 26 27  1  0  0  0
 27 28  1  0  0  0
 28 29  1  0  0  0
 29 30  4  0  0  0
 29 32  4  0  0  0
 30 31  4  0  0  0
 31 34  4  0  0  0
 32 33  4  0  0  0
 33 34  4  0  0  0
 34 35  1  0  0  0
 35 36  1  0  0  0
 36 37  2  0  0  0
 36 38  1  0  0  0
 38 39  1  0  0  0
 39 40  4  0  0  0
 39 44  4  0  0  0
 40 41  4  0  0  0
 41 42  4  0  0  0
 42 43  4  0  0  0
 43 44  4  0  0  0
  1 45  1  0  0  0
  1 46  1  0  0  0
  2 47  1  0  0  0
  2 48  1  0  0  0
  3 49  1  0  0  0
  4 50  1  0  0  0
  5 51  1  0  0  0
  5 52  1  0  0  0
  6 53  1  0  0  0
  6 54  1  0  0  0
  7 55  1  0  0  0
  8 56  1  0  0  0
  8 57  1  0  0  0
  9 58  1  0  0  0
  9 59  1  0  0  0
 12 60  1  0  0  0
 13 61  1  0  0  0
 14 62  1  0  0  0
 15 63  1  0  0  0
 19 64  1  0  0  0
 23 65  1  0  0  0
 26 66  1  0  0  0
 27 67  1  0  0  0
 27 68  1  0  0  0
 28 69  1  0  0  0
 28 70  1  0  0  0
 30 71  1  0  0  0
 31 72  1  0  0  0
 32 73  1  0  0  0
 33 74  1  0  0  0
 35 75  1  0  0  0
 38 76  1  0  0  0
 40 77  1  0  0  0
 41 78  1  0  0  0
 42 79  1  0  0  0
 43 80  1  0  0  0
 44 81  1  0  0  0
M  END
$$$$
