### 
### Created by X-TOOL on Mon Sep 10 21:13:34 2018
### 

@<TRIPOS>MOLECULE
5h1e_ligand
  175   175     1     0     0
SMALL
GAST_HUCK


@<TRIPOS>ATOM
      1 N           3.7810  -18.5480   14.0330 N.4       1 GLU         0.2380
      2 CA          3.1520  -17.8160   15.2000 C.3       1 GLU         0.0665
      3 C           3.1780  -16.3090   14.9510 C.2       1 GLU         0.2269
      4 O           2.1140  -15.6490   14.9010 O.2       1 GLU        -0.3907
      5 CB          3.7790  -18.1650   16.5670 C.3       1 GLU         0.0194
      6 CG          5.2520  -18.5720   16.5930 C.3       1 GLU         0.0075
      7 CD          5.4150  -20.0660   16.2620 C.2       1 GLU         0.0351
      8 OE1         6.3000  -20.7030   16.9200 O.co2     1 GLU        -0.5690
      9 OE2         4.6470  -20.6120   15.3760 O.co2     1 GLU        -0.5690
     10 N           4.3820  -15.7750   14.7600 N.am      1 ASN        -0.2589
     11 CA          4.5940  -14.3250   14.6280 C.3       1 ASN         0.1477
     12 C           4.1520  -13.8840   13.2260 C.2       1 ASN         0.2062
     13 O           4.5880  -14.4040   12.1980 O.2       1 ASN        -0.3942
     14 CB          6.0650  -13.9410   14.8020 C.3       1 ASN         0.0773
     15 CG          6.6690  -14.4600   16.1230 C.2       1 ASN         0.1780
     16 OD1         6.3220  -13.9860   17.2340 O.2       1 ASN        -0.3970
     17 ND2         7.5810  -15.4420   16.0140 N.am      1 ASN        -0.3007
     18 N           3.2570  -12.9140   13.2070 N.am      1 ALA        -0.2639
     19 CA          2.6310  -12.4590   11.9930 C.3       1 ALA         0.1282
     20 C           3.1040  -11.0830   11.6130 C.2       1 ALA         0.2036
     21 O           3.4600  -10.8450   10.4610 O.2       1 ALA        -0.3944
     22 CB          1.1210  -12.4460   12.2020 C.3       1 ALA        -0.0244
     23 N           3.0460  -10.1620   12.5670 N.am      1 LEU        -0.2637
     24 CA          3.4030   -8.7550   12.3500 C.3       1 LEU         0.1312
     25 C           4.8460   -8.5450   11.9130 C.2       1 LEU         0.2039
     26 O           5.1230   -7.6480   11.1170 O.2       1 LEU        -0.3944
     27 CB          3.1370   -7.9090   13.6020 C.3       1 LEU        -0.0101
     28 CG          1.7240   -7.9800   14.2280 C.3       1 LEU        -0.0425
     29 CD1         1.4700   -6.8550   15.2050 C.3       1 LEU        -0.0625
     30 CD2         0.6280   -7.9540   13.1620 C.3       1 LEU        -0.0625
     31 N           5.7530   -9.3650   12.4530 N.am      1 LEU        -0.2637
     32 CA          7.1600   -9.2830   12.1000 C.3       1 LEU         0.1312
     33 C           7.4130   -9.7570   10.6780 C.2       1 LEU         0.2039
     34 O           8.1350   -9.1260    9.8870 O.2       1 LEU        -0.3944
     35 CB          8.0090  -10.0780   13.1100 C.3       1 LEU        -0.0101
     36 CG          9.4990   -9.7150   13.2230 C.3       1 LEU        -0.0425
     37 CD1         9.7580   -8.2270   13.0100 C.3       1 LEU        -0.0625
     38 CD2        10.0100  -10.1300   14.5980 C.3       1 LEU        -0.0625
     39 N           6.7750  -10.8770   10.3630 N.am      1 ARG        -0.2637
     40 CA          6.8970  -11.4920    9.0530 C.3       1 ARG         0.1311
     41 C           6.4260  -10.5930    7.9660 C.2       1 ARG         0.2040
     42 O           7.0480  -10.5600    6.9300 O.2       1 ARG        -0.3944
     43 CB          6.1020  -12.7870    8.9810 C.3       1 ARG        -0.0092
     44 CG          6.8860  -13.9990    9.3740 C.3       1 ARG        -0.0156
     45 CD          6.2450  -15.2410    8.7830 C.3       1 ARG         0.0627
     46 NE          6.6490  -16.4510    9.5060 N.pl3     1 ARG        -0.2723
     47 CZ          7.5360  -17.3420    9.0760 C.cat     1 ARG         0.2882
     48 NH1         8.1620  -17.2280    7.8990 N.pl3     1 ARG        -0.2849
     49 NH2         7.8040  -18.3950    9.8240 N.pl3     1 ARG        -0.2849
     50 N           5.3040   -9.9110    8.1750 N.am      1 TYR        -0.2621
     51 CA          4.7880   -8.9820    7.1720 C.3       1 TYR         0.1390
     52 C           5.7710   -7.8300    6.9040 C.2       1 TYR         0.2057
     53 O           5.9710   -7.4100    5.7720 O.2       1 TYR        -0.3942
     54 CB          3.4300   -8.4410    7.6020 C.3       1 TYR         0.0163
     55 CG          3.0160   -7.1950    6.8610 C.ar      1 TYR        -0.0493
     56 CD1         2.3590   -7.2910    5.6220 C.ar      1 TYR        -0.0685
     57 CD2         3.3130   -5.9180    7.3720 C.ar      1 TYR        -0.0685
     58 CE1         2.0110   -6.1760    4.9300 C.ar      1 TYR        -0.0398
     59 CE2         2.9680   -4.7920    6.6600 C.ar      1 TYR        -0.0398
     60 CZ          2.3080   -4.9480    5.4430 C.ar      1 TYR         0.0805
     61 OH          1.8940   -3.9030    4.6770 O.3       1 TYR        -0.3376
     62 N           6.3840   -7.3260    7.9810 N.am      1 LEU        -0.2636
     63 CA          7.2350   -6.1260    7.8920 C.3       1 LEU         0.1312
     64 C           8.5900   -6.4640    7.2470 C.2       1 LEU         0.2039
     65 O           9.1230   -5.7080    6.4660 O.2       1 LEU        -0.3944
     66 CB          7.4080   -5.4960    9.2610 C.3       1 LEU        -0.0101
     67 CG          6.1680   -4.8580    9.8920 C.3       1 LEU        -0.0425
     68 CD1         6.4450   -4.4650   11.3520 C.3       1 LEU        -0.0625
     69 CD2         5.6660   -3.6540    9.1210 C.3       1 LEU        -0.0625
     70 N           9.1260   -7.6290    7.6000 N.am      1 LEU        -0.2637
     71 CA         10.3270   -8.1390    6.9620 C.3       1 LEU         0.1312
     72 C          10.1490   -8.4610    5.4780 C.2       1 LEU         0.2034
     73 O          11.1040   -8.3640    4.7020 O.2       1 LEU        -0.3944
     74 CB         10.8040   -9.3760    7.7050 C.3       1 LEU        -0.0101
     75 CG         11.4590   -9.1460    9.0760 C.3       1 LEU        -0.0425
     76 CD1        11.9070  -10.4950    9.6520 C.3       1 LEU        -0.0625
     77 CD2        12.6330   -8.1950    8.9280 C.3       1 LEU        -0.0625
     78 N           8.9400   -8.8520    5.0800 N.am      1 ASP        -0.2679
     79 CA          8.5890   -9.1530    3.6580 C.3       1 ASP         0.1057
     80 C           9.1760  -10.4610    3.2320 C.2       1 ASP         0.0618
     81 O           8.5260  -11.4800    3.4130 O.co2     1 ASP        -0.5665
     82 CB          8.9910   -8.0400    2.6660 C.3       1 ASP         0.0351
     83 CG          8.0920   -6.7900    2.7710 C.2       1 ASP         0.0387
     84 OD1         8.5290   -5.6380    2.5350 O.co2     1 ASP        -0.5688
     85 OD2         6.8870   -6.9390    3.0370 O.co2     1 ASP        -0.5688
     86 OXT        10.2850  -10.4640    2.7180 O.co2     1 ASP        -0.5665
     87 H1          3.7586  -19.5405   14.2075 H         1 GLU         0.2015
     88 H2          4.7369  -18.2476   13.9237 H         1 GLU         0.2015
     89 H3          3.2661  -18.3433   13.1910 H         1 GLU         0.2015
     90 H4          2.0978  -18.1269   15.2446 H         1 GLU         0.1099
     91 H5          3.2006  -18.9998   16.9896 H         1 GLU         0.0363
     92 H6          3.6717  -17.2807   17.2124 H         1 GLU         0.0363
     93 H7          5.6614  -18.3785   17.5954 H         1 GLU         0.0434
     94 H8          5.8033  -17.9765   15.8505 H         1 GLU         0.0434
     95 H9          5.1738  -16.3832   14.7040 H         1 ASN         0.1886
     96 H10         3.9931  -13.8051   15.3886 H         1 ASN         0.0826
     97 H11         6.1456  -12.8441   14.7864 H         1 ASN         0.0551
     98 H12         6.6393  -14.3628   13.9640 H         1 ASN         0.0551
     99 H13         8.0088  -15.8204   16.8348 H         1 ASN         0.1814
    100 H14         7.8315  -15.7939   15.1121 H         1 ASN         0.1814
    101 H15         3.0036  -12.4777   14.0704 H         1 ALA         0.1883
    102 H16         2.8798  -13.1557   11.1790 H         1 ALA         0.0797
    103 H17         0.6265  -12.1002   11.2823 H         1 ALA         0.0277
    104 H18         0.8713  -11.7666   13.0302 H         1 ALA         0.0277
    105 H19         0.7756  -13.4619   12.4442 H         1 ALA         0.0277
    106 H20         2.7441  -10.4405   13.4788 H         1 LEU         0.1883
    107 H21         2.7557   -8.3803   11.5434 H         1 LEU         0.0800
    108 H22         3.3264   -6.8587   13.3357 H         1 LEU         0.0315
    109 H23         3.8546   -8.2271   14.3726 H         1 LEU         0.0315
    110 H24         1.6513   -8.9319   14.7745 H         1 LEU         0.0298
    111 H25         0.4558   -6.9515   15.6197 H         1 LEU         0.0232
    112 H26         1.5633   -5.8900   14.6854 H         1 LEU         0.0232
    113 H27         2.2060   -6.9048   16.0210 H         1 LEU         0.0232
    114 H28         0.7979   -8.7677   12.4416 H         1 LEU         0.0232
    115 H29         0.6507   -6.9881   12.6362 H         1 LEU         0.0232
    116 H30        -0.3530   -8.0876   13.6413 H         1 LEU         0.0232
    117 H31         5.4558  -10.0518   13.1163 H         1 LEU         0.1883
    118 H32         7.4620   -8.2269   12.1591 H         1 LEU         0.0800
    119 H33         7.9486  -11.1396   12.8283 H         1 LEU         0.0315
    120 H34         7.5587   -9.9360   14.1035 H         1 LEU         0.0315
    121 H35        10.0508  -10.2743   12.4531 H         1 LEU         0.0298
    122 H36        10.8355   -8.0256   13.1017 H         1 LEU         0.0232
    123 H37         9.2109   -7.6474   13.7681 H         1 LEU         0.0232
    124 H38         9.4145   -7.9349   12.0067 H         1 LEU         0.0232
    125 H39         9.8226  -11.2032   14.7502 H         1 LEU         0.0232
    126 H40         9.4857   -9.5526   15.3737 H         1 LEU         0.0232
    127 H41        11.0904   -9.9338   14.6622 H         1 LEU         0.0232
    128 H42         6.1917  -11.3114   11.0494 H         1 ARG         0.1883
    129 H43         7.9595  -11.7198    8.8823 H         1 ARG         0.0800
    130 H44         5.7507  -12.9214    7.9473 H         1 ARG         0.0313
    131 H45         5.2364  -12.7005    9.6542 H         1 ARG         0.0313
    132 H46         6.9024  -14.0834   10.4706 H         1 ARG         0.0301
    133 H47         7.9155  -13.9055    8.9980 H         1 ARG         0.0301
    134 H48         6.5510  -15.3347    7.7306 H         1 ARG         0.0689
    135 H49         5.1511  -15.1397    8.8392 H         1 ARG         0.0689
    136 H50         6.2096  -16.6243   10.4213 H         1 ARG         0.2642
    137 H51         8.8427  -17.9435    7.6063 H         1 ARG         0.2615
    138 H52         7.9632  -16.4248    7.2856 H         1 ARG         0.2615
    139 H53         7.3383  -18.5113   10.7353 H         1 ARG         0.2615
    140 H54         8.4789  -19.1009    9.4967 H         1 ARG         0.2615
    141 H55         4.8051  -10.0358    9.0326 H         1 TYR         0.1885
    142 H56         4.6540   -9.5375    6.2321 H         1 TYR         0.0821
    143 H57         3.4721   -8.2091    8.6764 H         1 TYR         0.0453
    144 H58         2.6732   -9.2192    7.4242 H         1 TYR         0.0453
    145 H59         2.1272   -8.2681    5.2137 H         1 TYR         0.0530
    146 H60         3.8144   -5.8210    8.3282 H         1 TYR         0.0530
    147 H61         1.5011   -6.2613    3.9772 H         1 TYR         0.0525
    148 H62         3.2049   -3.8041    7.0382 H         1 TYR         0.0525
    149 H63         1.4693   -4.2342    3.8944 H         1 TYR         0.2458
    150 H64         6.2620   -7.7738    8.8668 H         1 LEU         0.1883
    151 H65         6.7274   -5.3951    7.2455 H         1 LEU         0.0800
    152 H66         8.1755   -4.7130    9.1718 H         1 LEU         0.0315
    153 H67         7.7625   -6.2807    9.9454 H         1 LEU         0.0315
    154 H68         5.3687   -5.6137    9.8872 H         1 LEU         0.0298
    155 H69         5.5431   -4.0092   11.7864 H         1 LEU         0.0232
    156 H70         7.2738   -3.7426   11.3864 H         1 LEU         0.0232
    157 H71         6.7163   -5.3620   11.9281 H         1 LEU         0.0232
    158 H72         5.4700   -3.9424    8.0777 H         1 LEU         0.0232
    159 H73         6.4268   -2.8599    9.1451 H         1 LEU         0.0232
    160 H74         4.7368   -3.2858    9.5804 H         1 LEU         0.0232
    161 H75         8.6914   -8.1669    8.3224 H         1 LEU         0.1883
    162 H76        11.1029   -7.3635    7.0426 H         1 LEU         0.0800
    163 H77        11.5391   -9.8865    7.0655 H         1 LEU         0.0315
    164 H78         9.9330  -10.0305    7.8570 H         1 LEU         0.0315
    165 H79        10.7224   -8.6953    9.7573 H         1 LEU         0.0298
    166 H80        12.3769  -10.3365   10.6339 H         1 LEU         0.0232
    167 H81        12.6322  -10.9624    8.9697 H         1 LEU         0.0232
    168 H82        11.0333  -11.1535    9.7656 H         1 LEU         0.0232
    169 H83        12.2804   -7.2389    8.5137 H         1 LEU         0.0232
    170 H84        13.3787   -8.6357    8.2499 H         1 LEU         0.0232
    171 H85        13.0906   -8.0212    9.9131 H         1 LEU         0.0232
    172 H86         8.2252   -8.9501    5.7724 H         1 ASP         0.1876
    173 H87         7.4941   -9.2471    3.6110 H         1 ASP         0.0745
    174 H88         8.9200   -8.4387    1.6433 H         1 ASP         0.0471
    175 H89        10.0299   -7.7437    2.8728 H         1 ASP         0.0471
@<TRIPOS>BOND
     1    1    2 1  
     2    2    3 1  
     3    2    5 1  
     4    3    4 2  
     5    3   10 am 
     6    5    6 1  
     7    6    7 1  
     8    7    8 ar 
     9    7    9 ar 
    10   10   11 1  
    11   11   12 1  
    12   11   14 1  
    13   12   13 2  
    14   12   18 am 
    15   14   15 1  
    16   15   16 2  
    17   15   17 am 
    18   18   19 1  
    19   19   20 1  
    20   19   22 1  
    21   20   21 2  
    22   20   23 am 
    23   23   24 1  
    24   24   25 1  
    25   24   27 1  
    26   25   26 2  
    27   25   31 am 
    28   27   28 1  
    29   28   29 1  
    30   28   30 1  
    31   31   32 1  
    32   32   33 1  
    33   32   35 1  
    34   33   34 2  
    35   33   39 am 
    36   35   36 1  
    37   36   37 1  
    38   36   38 1  
    39   39   40 1  
    40   40   41 1  
    41   40   43 1  
    42   41   42 2  
    43   41   50 am 
    44   43   44 1  
    45   44   45 1  
    46   45   46 1  
    47   46   47 ar 
    48   47   48 ar 
    49   47   49 ar 
    50   50   51 1  
    51   51   52 1  
    52   51   54 1  
    53   52   53 2  
    54   52   62 am 
    55   54   55 1  
    56   55   56 ar 
    57   55   57 ar 
    58   56   58 ar 
    59   57   59 ar 
    60   58   60 ar 
    61   59   60 ar 
    62   60   61 1  
    63   62   63 1  
    64   63   64 1  
    65   63   66 1  
    66   64   65 2  
    67   64   70 am 
    68   66   67 1  
    69   67   68 1  
    70   67   69 1  
    71   70   71 1  
    72   71   72 1  
    73   71   74 1  
    74   72   73 2  
    75   72   78 am 
    76   74   75 1  
    77   75   76 1  
    78   75   77 1  
    79   78   79 1  
    80   79   80 1  
    81   79   82 1  
    82   80   81 ar 
    83   80   86 ar 
    84   82   83 1  
    85   83   84 ar 
    86   83   85 ar 
    87    1   87 1  
    88    1   88 1  
    89    1   89 1  
    90    2   90 1  
    91    5   91 1  
    92    5   92 1  
    93    6   93 1  
    94    6   94 1  
    95   10   95 1  
    96   11   96 1  
    97   14   97 1  
    98   14   98 1  
    99   17   99 1  
   100   17  100 1  
   101   18  101 1  
   102   19  102 1  
   103   22  103 1  
   104   22  104 1  
   105   22  105 1  
   106   23  106 1  
   107   24  107 1  
   108   27  108 1  
   109   27  109 1  
   110   28  110 1  
   111   29  111 1  
   112   29  112 1  
   113   29  113 1  
   114   30  114 1  
   115   30  115 1  
   116   30  116 1  
   117   31  117 1  
   118   32  118 1  
   119   35  119 1  
   120   35  120 1  
   121   36  121 1  
   122   37  122 1  
   123   37  123 1  
   124   37  124 1  
   125   38  125 1  
   126   38  126 1  
   127   38  127 1  
   128   39  128 1  
   129   40  129 1  
   130   43  130 1  
   131   43  131 1  
   132   44  132 1  
   133   44  133 1  
   134   45  134 1  
   135   45  135 1  
   136   46  136 1  
   137   48  137 1  
   138   48  138 1  
   139   49  139 1  
   140   49  140 1  
   141   50  141 1  
   142   51  142 1  
   143   54  143 1  
   144   54  144 1  
   145   56  145 1  
   146   57  146 1  
   147   58  147 1  
   148   59  148 1  
   149   61  149 1  
   150   62  150 1  
   151   63  151 1  
   152   66  152 1  
   153   66  153 1  
   154   67  154 1  
   155   68  155 1  
   156   68  156 1  
   157   68  157 1  
   158   69  158 1  
   159   69  159 1  
   160   69  160 1  
   161   70  161 1  
   162   71  162 1  
   163   74  163 1  
   164   74  164 1  
   165   75  165 1  
   166   76  166 1  
   167   76  167 1  
   168   76  168 1  
   169   77  169 1  
   170   77  170 1  
   171   77  171 1  
   172   78  172 1  
   173   79  173 1  
   174   82  174 1  
   175   82  175 1  
@<TRIPOS>SUBSTRUCTURE
     1 GLU         1

