5h1e_ligand
  -I-interpret- 

177177  0  0  0  0  0  0  0  0999 V2000
    3.7810  -18.5480   14.0330 N   0  3  0  0  0
    3.1520  -17.8160   15.2000 C   0  0  0  0  0
    3.1780  -16.3090   14.9510 C   0  0  0  0  0
    2.1140  -15.6490   14.9010 O   0  0  0  0  0
    3.7790  -18.1650   16.5670 C   0  0  0  0  0
    5.2520  -18.5720   16.5930 C   0  0  0  0  0
    5.4150  -20.0660   16.2620 C   0  0  0  0  0
    6.3000  -20.7030   16.9200 O   0  0  0  0  0
    4.6470  -20.6120   15.3760 O   0  0  0  0  0
    4.3820  -15.7750   14.7600 N   0  0  0  0  0
    4.5940  -14.3250   14.6280 C   0  0  0  0  0
    4.1520  -13.8840   13.2260 C   0  0  0  0  0
    4.5880  -14.4040   12.1980 O   0  0  0  0  0
    6.0650  -13.9410   14.8020 C   0  0  0  0  0
    6.6690  -14.4600   16.1230 C   0  0  0  0  0
    6.3220  -13.9860   17.2340 O   0  0  0  0  0
    7.5810  -15.4420   16.0140 N   0  0  0  0  0
    3.2570  -12.9140   13.2070 N   0  0  0  0  0
    2.6310  -12.4590   11.9930 C   0  0  0  0  0
    3.1040  -11.0830   11.6130 C   0  0  0  0  0
    3.4600  -10.8450   10.4610 O   0  0  0  0  0
    1.1210  -12.4460   12.2020 C   0  0  0  0  0
    3.0460  -10.1620   12.5670 N   0  0  0  0  0
    3.4030   -8.7550   12.3500 C   0  0  0  0  0
    4.8460   -8.5450   11.9130 C   0  0  0  0  0
    5.1230   -7.6480   11.1170 O   0  0  0  0  0
    3.1370   -7.9090   13.6020 C   0  0  0  0  0
    1.7240   -7.9800   14.2280 C   0  0  0  0  0
    1.4700   -6.8550   15.2050 C   0  0  0  0  0
    0.6280   -7.9540   13.1620 C   0  0  0  0  0
    5.7530   -9.3650   12.4530 N   0  0  0  0  0
    7.1600   -9.2830   12.1000 C   0  0  0  0  0
    7.4130   -9.7570   10.6780 C   0  0  0  0  0
    8.1350   -9.1260    9.8870 O   0  0  0  0  0
    8.0090  -10.0780   13.1100 C   0  0  0  0  0
    9.4990   -9.7150   13.2230 C   0  0  0  0  0
    9.7580   -8.2270   13.0100 C   0  0  0  0  0
   10.0100  -10.1300   14.5980 C   0  0  0  0  0
    6.7750  -10.8770   10.3630 N   0  0  0  0  0
    6.8970  -11.4920    9.0530 C   0  0  0  0  0
    6.4260  -10.5930    7.9660 C   0  0  0  0  0
    7.0480  -10.5600    6.9300 O   0  0  0  0  0
    6.1020  -12.7870    8.9810 C   0  0  0  0  0
    6.8860  -13.9990    9.3740 C   0  0  0  0  0
    6.2450  -15.2410    8.7830 C   0  0  0  0  0
    6.6490  -16.4510    9.5060 N   0  0  0  0  0
    7.5360  -17.3420    9.0760 C   0  0  0  0  0
    8.1620  -17.2280    7.8990 N   0  0  0  0  0
    7.8040  -18.3950    9.8240 N   0  0  0  0  0
    5.3040   -9.9110    8.1750 N   0  0  0  0  0
    4.7880   -8.9820    7.1720 C   0  0  0  0  0
    5.7710   -7.8300    6.9040 C   0  0  0  0  0
    5.9710   -7.4100    5.7720 O   0  0  0  0  0
    3.4300   -8.4410    7.6020 C   0  0  0  0  0
    3.0160   -7.1950    6.8610 C   0  0  0  0  0
    2.3590   -7.2910    5.6220 C   0  0  0  0  0
    3.3130   -5.9180    7.3720 C   0  0  0  0  0
    2.0110   -6.1760    4.9300 C   0  0  0  0  0
    2.9680   -4.7920    6.6600 C   0  0  0  0  0
    2.3080   -4.9480    5.4430 C   0  0  0  0  0
    1.8940   -3.9030    4.6770 O   0  0  0  0  0
    6.3840   -7.3260    7.9810 N   0  0  0  0  0
    7.2350   -6.1260    7.8920 C   0  0  0  0  0
    8.5900   -6.4640    7.2470 C   0  0  0  0  0
    9.1230   -5.7080    6.4660 O   0  0  0  0  0
    7.4080   -5.4960    9.2610 C   0  0  0  0  0
    6.1680   -4.8580    9.8920 C   0  0  0  0  0
    6.4450   -4.4650   11.3520 C   0  0  0  0  0
    5.6660   -3.6540    9.1210 C   0  0  0  0  0
    9.1260   -7.6290    7.6000 N   0  0  0  0  0
   10.3270   -8.1390    6.9620 C   0  0  0  0  0
   10.1490   -8.4610    5.4780 C   0  0  0  0  0
   11.1040   -8.3640    4.7020 O   0  0  0  0  0
   10.8040   -9.3760    7.7050 C   0  0  0  0  0
   11.4590   -9.1460    9.0760 C   0  0  0  0  0
   11.9070  -10.4950    9.6520 C   0  0  0  0  0
   12.6330   -8.1950    8.9280 C   0  0  0  0  0
    8.9400   -8.8520    5.0800 N   0  0  0  0  0
    8.5890   -9.1530    3.6580 C   0  0  0  0  0
    9.1760  -10.4610    3.2320 C   0  0  0  0  0
    8.5260  -11.4800    3.4130 O   0  0  0  0  0
    8.9910   -8.0400    2.6660 C   0  0  0  0  0
    8.0920   -6.7900    2.7710 C   0  0  0  0  0
    8.5290   -5.6380    2.5350 O   0  0  0  0  0
    6.8870   -6.9390    3.0370 O   0  0  0  0  0
   10.2850  -10.4640    2.7180 O   0  0  0  0  0
    3.3178  -18.2684   13.1683 H   0  0  0  0  0
    4.7722  -18.3133   13.9804 H   0  0  0  0  0
    3.6751  -19.5536   14.1670 H   0  0  0  0  0
    2.1186  -18.1575   15.2594 H   0  0  0  0  0
    3.2303  -19.0363   16.9245 H   0  0  0  0  0
    3.7199  -17.2498   17.1561 H   0  0  0  0  0
    5.6486  -18.3890   17.5917 H   0  0  0  0  0
    5.7904  -17.9871   15.8473 H   0  0  0  0  0
    4.0601  -19.9467   15.0092 H   0  0  0  0  0
    5.1896  -16.3954   14.7029 H   0  0  0  0  0
    4.0126  -13.8337   15.4081 H   0  0  0  0  0
    6.1258  -12.8528   14.8132 H   0  0  0  0  0
    6.6252  -14.3890   13.9813 H   0  0  0  0  0
    8.0172  -15.8282   16.8513 H   0  0  0  0  0
    7.8367  -15.8008   15.0940 H   0  0  0  0  0
    2.9986  -12.4690   14.0877 H   0  0  0  0  0
    2.8998  -13.1360   11.1821 H   0  0  0  0  0
    0.7800  -13.4531   12.4419 H   0  0  0  0  0
    0.8749  -11.7725   13.0229 H   0  0  0  0  0
    0.6322  -12.1032   11.2901 H   0  0  0  0  0
    2.7381  -10.4461   13.4970 H   0  0  0  0  0
    2.7607   -8.4295   11.5318 H   0  0  0  0  0
    3.2662   -6.8732   13.2880 H   0  0  0  0  0
    3.8144   -8.2937   14.3644 H   0  0  0  0  0
    1.6905   -8.9289   14.7633 H   0  0  0  0  0
    2.1999   -6.9054   16.0129 H   0  0  0  0  0
    1.5628   -5.8994   14.6889 H   0  0  0  0  0
    0.4648   -6.9518   15.6152 H   0  0  0  0  0
    0.7026   -7.0301   12.5885 H   0  0  0  0  0
    0.7508   -8.8078   12.4956 H   0  0  0  0  0
   -0.3479   -8.0057   13.6448 H   0  0  0  0  0
    5.4499  -10.0656   13.1296 H   0  0  0  0  0
    7.4572   -8.2352   12.1436 H   0  0  0  0  0
    7.9835  -11.1120   12.7661 H   0  0  0  0  0
    7.5791   -9.8638   14.0885 H   0  0  0  0  0
   10.0297  -10.2495   12.4351 H   0  0  0  0  0
    9.4172   -7.9389   12.0155 H   0  0  0  0  0
    9.2153   -7.6538   13.7617 H   0  0  0  0  0
   10.8259   -8.0287   13.1011 H   0  0  0  0  0
    9.4445   -9.6052   15.3680 H   0  0  0  0  0
    9.8833  -11.2055   14.7219 H   0  0  0  0  0
   11.0663   -9.8750   14.6838 H   0  0  0  0  0
    6.1800  -11.3201   11.0631 H   0  0  0  0  0
    7.9584  -11.6951    8.9107 H   0  0  0  0  0
    5.7930  -12.9216    7.9444 H   0  0  0  0  0
    5.2702  -12.6972    9.6796 H   0  0  0  0  0
    6.8987  -14.0828   10.4607 H   0  0  0  0  0
    7.9049  -13.9062    8.9982 H   0  0  0  0  0
    6.5669  -15.3351    7.7459 H   0  0  0  0  0
    5.1623  -15.1395    8.8581 H   0  0  0  0  0
    6.2139  -16.6226   10.4124 H   0  0  0  0  0
    8.8253  -17.9440    7.6027 H   0  0  0  0  0
    7.9759  -16.4251    7.2981 H   0  0  0  0  0
    7.3325  -18.5173   10.7202 H   0  0  0  0  0
    4.7951  -10.0383    9.0498 H   0  0  0  0  0
    4.6693   -9.5323    6.2387 H   0  0  0  0  0
    3.4995   -8.1852    8.6593 H   0  0  0  0  0
    2.6884   -9.2107    7.3881 H   0  0  0  0  0
    2.1259   -8.2735    5.2115 H   0  0  0  0  0
    3.8172   -5.8205    8.3334 H   0  0  0  0  0
    1.4983   -6.2617    3.9720 H   0  0  0  0  0
    3.2062   -3.7987    7.0403 H   0  0  0  0  0
    2.1388   -3.0784    5.1033 H   0  0  0  0  0
    6.2596   -7.7827    8.8845 H   0  0  0  0  0
    6.7421   -5.3957    7.2503 H   0  0  0  0  0
    8.1252   -4.6861    9.1281 H   0  0  0  0  0
    7.6981   -6.3076    9.9283 H   0  0  0  0  0
    5.3825   -5.6129    9.8577 H   0  0  0  0  0
    6.7137   -5.3546   11.9217 H   0  0  0  0  0
    7.2664   -3.7492   11.3847 H   0  0  0  0  0
    5.5506   -4.0135   11.7813 H   0  0  0  0  0
    6.4480   -2.8955    9.0848 H   0  0  0  0  0
    5.4044   -3.9567    8.1071 H   0  0  0  0  0
    4.7858   -3.2468    9.6185 H   0  0  0  0  0
    8.6828   -8.1777    8.3368 H   0  0  0  0  0
   11.0705   -7.3436    7.0122 H   0  0  0  0  0
   11.5721   -9.8268    7.0766 H   0  0  0  0  0
    9.9135   -9.9755    7.8939 H   0  0  0  0  0
   10.7434   -8.6951    9.7635 H   0  0  0  0  0
   11.0404  -11.1466    9.7641 H   0  0  0  0  0
   12.6255  -10.9571    8.9750 H   0  0  0  0  0
   12.3724  -10.3367   10.6249 H   0  0  0  0  0
   13.3645   -8.6265    8.2448 H   0  0  0  0  0
   12.2801   -7.2432    8.5308 H   0  0  0  0  0
   13.0943   -8.0349    9.9025 H   0  0  0  0  0
    8.2109   -8.9520    5.7862 H   0  0  0  0  0
    7.5009   -9.2113    3.6289 H   0  0  0  0  0
    8.8892   -8.4400    1.6572 H   0  0  0  0  0
   10.0115   -7.7372    2.9004 H   0  0  0  0  0
    9.4694   -5.6858    2.3482 H   0  0  0  0  0
   10.6168   -9.5644    2.6703 H   0  0  0  0  0
  1  2  1  0  0  0
  2  3  1  0  0  0
  2  5  1  0  0  0
  3  4  2  0  0  0
  3 10  1  0  0  0
  5  6  1  0  0  0
  6  7  1  0  0  0
  7  8  2  0  0  0
  7  9  1  0  0  0
 10 11  1  0  0  0
 11 12  1  0  0  0
 11 14  1  0  0  0
 12 13  2  0  0  0
 12 18  1  0  0  0
 14 15  1  0  0  0
 15 16  2  0  0  0
 15 17  1  0  0  0
 18 19  1  0  0  0
 19 20  1  0  0  0
 19 22  1  0  0  0
 20 21  2  0  0  0
 20 23  1  0  0  0
 23 24  1  0  0  0
 24 25  1  0  0  0
 24 27  1  0  0  0
 25 26  2  0  0  0
 25 31  1  0  0  0
 27 28  1  0  0  0
 28 29  1  0  0  0
 28 30  1  0  0  0
 31 32  1  0  0  0
 32 33  1  0  0  0
 32 35  1  0  0  0
 33 34  2  0  0  0
 33 39  1  0  0  0
 35 36  1  0  0  0
 36 37  1  0  0  0
 36 38  1  0  0  0
 39 40  1  0  0  0
 40 41  1  0  0  0
 40 43  1  0  0  0
 41 42  2  0  0  0
 41 50  1  0  0  0
 43 44  1  0  0  0
 44 45  1  0  0  0
 45 46  1  0  0  0
 46 47  1  0  0  0
 47 48  1  0  0  0
 47 49  2  0  0  0
 50 51  1  0  0  0
 51 52  1  0  0  0
 51 54  1  0  0  0
 52 53  2  0  0  0
 52 62  1  0  0  0
 54 55  1  0  0  0
 55 56  4  0  0  0
 55 57  4  0  0  0
 56 58  4  0  0  0
 57 59  4  0  0  0
 58 60  4  0  0  0
 59 60  4  0  0  0
 60 61  1  0  0  0
 62 63  1  0  0  0
 63 64  1  0  0  0
 63 66  1  0  0  0
 64 65  2  0  0  0
 64 70  1  0  0  0
 66 67  1  0  0  0
 67 68  1  0  0  0
 67 69  1  0  0  0
 70 71  1  0  0  0
 71 72  1  0  0  0
 71 74  1  0  0  0
 72 73  2  0  0  0
 72 78  1  0  0  0
 74 75  1  0  0  0
 75 76  1  0  0  0
 75 77  1  0  0  0
 78 79  1  0  0  0
 79 80  1  0  0  0
 79 82  1  0  0  0
 80 81  2  0  0  0
 80 86  1  0  0  0
 82 83  1  0  0  0
 83 84  1  0  0  0
 83 85  2  0  0  0
  1 87  1  0  0  0
  1 88  1  0  0  0
  1 89  1  0  0  0
  2 90  1  0  0  0
  5 91  1  0  0  0
  5 92  1  0  0  0
  6 93  1  0  0  0
  6 94  1  0  0  0
  9 95  1  0  0  0
 10 96  1  0  0  0
 11 97  1  0  0  0
 14 98  1  0  0  0
 14 99  1  0  0  0
 17100  1  0  0  0
 17101  1  0  0  0
 18102  1  0  0  0
 19103  1  0  0  0
 22104  1  0  0  0
 22105  1  0  0  0
 22106  1  0  0  0
 23107  1  0  0  0
 24108  1  0  0  0
 27109  1  0  0  0
 27110  1  0  0  0
 28111  1  0  0  0
 29112  1  0  0  0
 29113  1  0  0  0
 29114  1  0  0  0
 30115  1  0  0  0
 30116  1  0  0  0
 30117  1  0  0  0
 31118  1  0  0  0
 32119  1  0  0  0
 35120  1  0  0  0
 35121  1  0  0  0
 36122  1  0  0  0
 37123  1  0  0  0
 37124  1  0  0  0
 37125  1  0  0  0
 38126  1  0  0  0
 38127  1  0  0  0
 38128  1  0  0  0
 39129  1  0  0  0
 40130  1  0  0  0
 43131  1  0  0  0
 43132  1  0  0  0
 44133  1  0  0  0
 44134  1  0  0  0
 45135  1  0  0  0
 45136  1  0  0  0
 46137  1  0  0  0
 48138  1  0  0  0
 48139  1  0  0  0
 49140  1  0  0  0
 50141  1  0  0  0
 51142  1  0  0  0
 54143  1  0  0  0
 54144  1  0  0  0
 56145  1  0  0  0
 57146  1  0  0  0
 58147  1  0  0  0
 59148  1  0  0  0
 61149  1  0  0  0
 62150  1  0  0  0
 63151  1  0  0  0
 66152  1  0  0  0
 66153  1  0  0  0
 67154  1  0  0  0
 68155  1  0  0  0
 68156  1  0  0  0
 68157  1  0  0  0
 69158  1  0  0  0
 69159  1  0  0  0
 69160  1  0  0  0
 70161  1  0  0  0
 71162  1  0  0  0
 74163  1  0  0  0
 74164  1  0  0  0
 75165  1  0  0  0
 76166  1  0  0  0
 76167  1  0  0  0
 76168  1  0  0  0
 77169  1  0  0  0
 77170  1  0  0  0
 77171  1  0  0  0
 78172  1  0  0  0
 79173  1  0  0  0
 82174  1  0  0  0
 82175  1  0  0  0
 84176  1  0  0  0
 86177  1  0  0  0
M  END
$$$$
