5o83_ligand
  -I-interpret- 

 57 60  0  0  0  0  0  0  0  0999 V2000
    2.0210  -33.9700  -20.4930 C   0  0  0  0  0
    3.3770  -34.6230  -20.6640 C   0  0  0  0  0
    5.2260  -35.2840  -22.1600 C   0  0  0  0  0
   13.2350  -29.5540  -22.0220 O   0  0  0  0  0
    8.2750  -29.1110  -25.8770 C   0  0  0  0  0
    7.6400  -31.1210  -24.4340 C   0  0  0  0  0
    6.2360  -30.8910  -24.9430 C   0  0  0  0  0
    9.7260  -29.8360  -24.0270 C   0  0  0  0  0
   10.8820  -29.3760  -24.6540 C   0  0  0  0  0
   12.0940  -29.6130  -22.7410 C   0  0  0  0  0
   14.3950  -29.0200  -22.6580 C   0  0  0  0  0
   11.0000  -30.0680  -21.9890 C   0  0  0  0  0
    9.7980  -30.1850  -22.6780 C   0  0  0  0  0
   10.9830  -30.3550  -20.5120 C   0  0  0  0  0
   11.7080  -29.4880  -19.8240 F   0  0  0  0  0
    9.7650  -30.2790  -19.9840 F   0  0  0  0  0
   11.4550  -31.5640  -20.2220 F   0  0  0  0  0
   12.0570  -29.2700  -24.0190 N   0  0  0  0  0
    8.5540  -30.0050  -24.7460 N   0  0  0  0  0
    6.8510  -28.5980  -25.8250 C   0  0  0  0  0
    5.8720  -29.7230  -25.6330 C   0  0  0  0  0
    4.6520  -29.5320  -26.1600 N   0  0  0  0  0
    3.7720  -30.5200  -25.9770 C   0  0  0  0  0
    3.9530  -31.6860  -25.3510 N   0  0  0  0  0
    5.1940  -31.8740  -24.8450 C   0  0  0  0  0
    5.4600  -33.0790  -24.2770 N   0  0  0  0  0
    4.5220  -34.1950  -24.1400 C   0  0  0  0  0
    5.2260  -35.4480  -23.6690 C   0  0  0  0  0
    3.4090  -34.0110  -23.1130 C   0  0  0  0  0
    3.9370  -34.6360  -21.8960 N   0  0  0  0  0
    3.9460  -35.1100  -19.6980 O   0  0  0  0  0
    1.8490  -33.3190  -19.1570 C   0  0  0  0  0
    1.2640  -34.7491  -20.5823 H   0  0  0  0  0
    1.9276  -33.1953  -21.2540 H   0  0  0  0  0
    6.0729  -34.7001  -21.7995 H   0  0  0  0  0
    5.3371  -36.2317  -21.6331 H   0  0  0  0  0
    8.4127  -29.6669  -26.8044 H   0  0  0  0  0
    8.9551  -28.2607  -25.8266 H   0  0  0  0  0
    8.0283  -32.0155  -24.9210 H   0  0  0  0  0
    7.5894  -31.2166  -23.3494 H   0  0  0  0  0
   10.8283  -29.0905  -25.7046 H   0  0  0  0  0
   14.6388  -29.6236  -23.5323 H   0  0  0  0  0
   14.1983  -27.9934  -22.9670 H   0  0  0  0  0
   15.2311  -29.0365  -21.9589 H   0  0  0  0  0
    8.9096  -30.5503  -22.1629 H   0  0  0  0  0
    6.6268  -28.1000  -26.7683 H   0  0  0  0  0
    6.7600  -27.9113  -24.9834 H   0  0  0  0  0
    2.7780  -30.3533  -26.3920 H   0  0  0  0  0
    6.4018  -33.2196  -23.9115 H   0  0  0  0  0
    4.0984  -34.2561  -25.1425 H   0  0  0  0  0
    4.7315  -36.3623  -23.9972 H   0  0  0  0  0
    6.2279  -35.5545  -24.0850 H   0  0  0  0  0
    2.4720  -34.4648  -23.4356 H   0  0  0  0  0
    3.1584  -32.9611  -22.9612 H   0  0  0  0  0
    1.9574  -34.0681  -18.3726 H   0  0  0  0  0
    2.6073  -32.5463  -19.0305 H   0  0  0  0  0
    0.8575  -32.8701  -19.0980 H   0  0  0  0  0
  2  1  1  0  0  0
  1 32  1  0  0  0
 30  2  1  0  0  0
  2 31  2  0  0  0
 28  3  1  0  0  0
  3 30  1  0  0  0
 10  4  1  0  0  0
  4 11  1  0  0  0
 19  5  1  0  0  0
 20  5  1  0  0  0
  7  6  1  0  0  0
  6 19  1  0  0  0
  7 21  4  0  0  0
 25  7  4  0  0  0
  8  9  4  0  0  0
  8 13  4  0  0  0
 19  8  1  0  0  0
  9 18  4  0  0  0
 12 10  4  0  0  0
 18 10  4  0  0  0
 13 12  4  0  0  0
 12 14  1  0  0  0
 14 15  1  0  0  0
 14 16  1  0  0  0
 14 17  1  0  0  0
 21 20  1  0  0  0
 21 22  4  0  0  0
 23 22  4  0  0  0
 24 23  4  0  0  0
 25 24  4  0  0  0
 26 25  1  0  0  0
 27 26  1  0  0  0
 27 28  1  0  0  0
 27 29  1  0  0  0
 29 30  1  0  0  0
  1 33  1  0  0  0
  1 34  1  0  0  0
  3 35  1  0  0  0
  3 36  1  0  0  0
  5 37  1  0  0  0
  5 38  1  0  0  0
  6 39  1  0  0  0
  6 40  1  0  0  0
  9 41  1  0  0  0
 11 42  1  0  0  0
 11 43  1  0  0  0
 11 44  1  0  0  0
 13 45  1  0  0  0
 20 46  1  0  0  0
 20 47  1  0  0  0
 23 48  1  0  0  0
 26 49  1  0  0  0
 27 50  1  0  0  0
 28 51  1  0  0  0
 28 52  1  0  0  0
 29 53  1  0  0  0
 29 54  1  0  0  0
 32 55  1  0  0  0
 32 56  1  0  0  0
 32 57  1  0  0  0
M  END
$$$$
