2oo8_ligand
  -I-interpret- 

 69 72  0  0  0  0  0  0  0  0999 V2000
   47.7220    4.8050   69.1940 C   0  0  0  0  0
   48.1310    5.5200   67.9610 N   0  3  0  0  0
   47.3220    5.1350   66.7830 C   0  0  0  0  0
   49.5770    5.3540   67.6860 C   0  0  0  0  0
   50.0420    3.9000   67.5080 C   0  0  0  0  0
   51.4590    3.8820   66.9380 C   0  0  0  0  0
   52.5050    3.6470   68.0510 C   0  0  0  0  0
   52.3400    2.6060   68.9780 C   0  0  0  0  0
   53.6120    4.5050   68.1330 C   0  0  0  0  0
   54.5780    4.3070   69.1350 C   0  0  0  0  0
   55.8000    5.2480   69.2450 C   0  0  0  0  0
   55.4290    6.4110   69.7890 F   0  0  0  0  0
   56.7500    4.6740   70.0060 F   0  0  0  0  0
   56.3060    5.5180   68.0370 F   0  0  0  0  0
   54.4080    3.2650   70.0610 C   0  0  0  0  0
   53.2760    2.4150   70.0030 C   0  0  0  0  0
   53.1440    1.3800   70.8590 N   0  0  0  0  0
   53.6190    1.3270   72.1150 C   0  0  0  0  0
   54.1970    2.2520   72.6770 O   0  0  0  0  0
   53.3900    0.0110   72.8860 C   0  0  0  0  0
   53.6130    0.0030   74.2620 C   0  0  0  0  0
   53.0070   -1.1710   72.2350 C   0  0  0  0  0
   52.8210   -2.3450   72.9760 C   0  0  0  0  0
   53.0400   -2.3420   74.3690 C   0  0  0  0  0
   52.8350   -3.6500   75.1600 C   0  0  0  0  0
   53.4220   -1.1600   75.0220 C   0  0  0  0  0
   53.6760   -1.1230   76.3470 N   0  0  0  0  0
   52.8050   -0.9480   77.3320 C   0  0  0  0  0
   51.5180   -0.7250   77.0310 N   0  0  0  0  0
   50.5910   -0.5390   77.9610 C   0  0  0  0  0
   50.9370   -0.5590   79.3090 C   0  0  0  0  0
   52.2660   -0.7670   79.6760 C   0  0  0  0  0
   53.2240   -0.9810   78.6790 C   0  0  0  0  0
   54.5540   -1.1730   79.0750 C   0  0  0  0  0
   54.8950   -1.1310   80.4200 C   0  0  0  0  0
   56.2300   -1.3130   80.7790 C   0  0  0  0  0
   57.1410   -1.5040   79.8410 N   0  0  0  0  0
   56.7990   -1.5130   78.5620 C   0  0  0  0  0
   55.5380   -1.3410   78.1840 N   0  0  0  0  0
   47.9307    3.7411   69.0817 H   0  0  0  0  0
   48.2809    5.1986   70.0430 H   0  0  0  0  0
   46.6548    4.9516   69.3604 H   0  0  0  0  0
   47.9530    6.5092   68.1348 H   0  0  0  0  0
   47.5929    5.7653   65.9360 H   0  0  0  0  0
   47.5150    4.0908   66.5369 H   0  0  0  0  0
   46.2643    5.2663   67.0116 H   0  0  0  0  0
   50.1092    5.7508   68.5505 H   0  0  0  0  0
   49.7791    5.8662   66.7453 H   0  0  0  0  0
   49.3689    3.3857   66.8221 H   0  0  0  0  0
   50.0337    3.3960   68.4744 H   0  0  0  0  0
   51.6586    4.8462   66.4704 H   0  0  0  0  0
   51.5328    3.0707   66.2138 H   0  0  0  0  0
   51.4788    1.9424   68.9000 H   0  0  0  0  0
   53.7228    5.3232   67.4214 H   0  0  0  0  0
   55.1582    3.1078   70.8360 H   0  0  0  0  0
   52.6366    0.5621   70.5213 H   0  0  0  0  0
   53.9418    0.9172   74.7562 H   0  0  0  0  0
   52.8546   -1.1759   71.1557 H   0  0  0  0  0
   52.5069   -3.2611   72.4758 H   0  0  0  0  0
   51.8041   -3.9849   75.0450 H   0  0  0  0  0
   53.5115   -4.4143   74.7775 H   0  0  0  0  0
   53.0450   -3.4720   76.2147 H   0  0  0  0  0
   54.6506   -1.2436   76.6229 H   0  0  0  0  0
   49.5546   -0.3699   77.6687 H   0  0  0  0  0
   50.1736   -0.4129   80.0732 H   0  0  0  0  0
   52.5551   -0.7629   80.7270 H   0  0  0  0  0
   54.1337   -0.9590   81.1809 H   0  0  0  0  0
   56.5210   -1.2978   81.8293 H   0  0  0  0  0
   57.5679   -1.6646   77.8044 H   0  0  0  0  0
  1  2  1  0  0  0
  2  3  1  0  0  0
  2  4  1  0  0  0
  4  5  1  0  0  0
  5  6  1  0  0  0
  6  7  1  0  0  0
  7  8  4  0  0  0
  7  9  4  0  0  0
  8 16  4  0  0  0
  9 10  4  0  0  0
 10 11  1  0  0  0
 10 15  4  0  0  0
 11 12  1  0  0  0
 11 13  1  0  0  0
 11 14  1  0  0  0
 15 16  4  0  0  0
 16 17  1  0  0  0
 17 18  1  0  0  0
 18 19  2  0  0  0
 18 20  1  0  0  0
 20 21  4  0  0  0
 20 22  4  0  0  0
 21 26  4  0  0  0
 22 23  4  0  0  0
 23 24  4  0  0  0
 24 25  1  0  0  0
 24 26  4  0  0  0
 26 27  1  0  0  0
 27 28  1  0  0  0
 28 29  4  0  0  0
 28 33  4  0  0  0
 29 30  4  0  0  0
 30 31  4  0  0  0
 31 32  4  0  0  0
 32 33  4  0  0  0
 33 34  1  0  0  0
 34 35  4  0  0  0
 34 39  4  0  0  0
 35 36  4  0  0  0
 36 37  4  0  0  0
 37 38  4  0  0  0
 38 39  4  0  0  0
  1 40  1  0  0  0
  1 41  1  0  0  0
  1 42  1  0  0  0
  2 43  1  0  0  0
  3 44  1  0  0  0
  3 45  1  0  0  0
  3 46  1  0  0  0
  4 47  1  0  0  0
  4 48  1  0  0  0
  5 49  1  0  0  0
  5 50  1  0  0  0
  6 51  1  0  0  0
  6 52  1  0  0  0
  8 53  1  0  0  0
  9 54  1  0  0  0
 15 55  1  0  0  0
 17 56  1  0  0  0
 21 57  1  0  0  0
 22 58  1  0  0  0
 23 59  1  0  0  0
 25 60  1  0  0  0
 25 61  1  0  0  0
 25 62  1  0  0  0
 27 63  1  0  0  0
 30 64  1  0  0  0
 31 65  1  0  0  0
 32 66  1  0  0  0
 35 67  1  0  0  0
 36 68  1  0  0  0
 38 69  1  0  0  0
M  END
$$$$
