5exm_ligand
  -I-interpret- 

 71 74  0  0  0  0  0  0  0  0999 V2000
   44.6380  -21.1640   30.2690 C   0  0  0  0  0
   39.0510  -18.4600   29.0700 C   0  0  0  0  0
   41.4110  -20.6050   28.4990 C   0  0  0  0  0
   46.5230  -21.9040   32.2480 C   0  0  0  0  0
   40.1180  -23.2930   28.6710 C   0  0  0  0  0
   48.8450  -22.0190   33.2580 C   0  0  0  0  0
   37.1410  -16.9290   29.5200 C   0  0  0  0  0
   38.9260  -16.2570   27.7940 C   0  0  0  0  0
   36.2450  -15.7760   29.0330 C   0  0  0  0  0
   37.9740  -15.1560   27.2820 C   0  0  0  0  0
   38.1480  -17.4130   28.4630 C   0  0  0  0  0
   42.3100  -20.9100   29.5070 C   0  0  0  0  0
   43.1220  -20.3040   26.9590 C   0  0  0  0  0
   39.3450  -22.0740   28.1950 C   0  0  0  0  0
   41.6480  -25.4550   29.6010 C   0  0  0  0  0
   40.7410  -24.8160   30.4550 C   0  0  0  0  0
   41.8050  -24.9990   28.2800 C   0  0  0  0  0
   44.2650  -22.0180   31.3240 C   0  0  0  0  0
   45.9550  -20.6780   30.2060 C   0  0  0  0  0
   39.9930  -23.7260   29.9940 C   0  0  0  0  0
   41.0440  -23.9120   27.8170 C   0  0  0  0  0
   45.1940  -22.3710   32.3210 C   0  0  0  0  0
   46.9010  -21.0710   31.1720 C   0  0  0  0  0
   44.0960  -20.5660   27.9230 C   0  0  0  0  0
   43.6730  -20.8330   29.2320 C   0  0  0  0  0
   37.0800  -14.6260   28.4240 C   0  0  0  0  0
   50.8240  -22.2880   34.6180 C   0  0  0  0  0
   36.1710  -13.4680   27.9760 C   0  0  0  0  0
   39.9210  -20.7600   28.7960 C   0  0  0  0  0
   41.7890  -20.3210   27.2200 N   0  0  0  0  0
   36.9500  -12.3770   27.4660 N   0  3  0  0  0
   47.4670  -22.3120   33.2070 N   0  0  0  0  0
   39.1250  -19.6340   28.3560 N   0  0  0  0  0
   39.6300  -18.2730   30.1390 O   0  0  0  0  0
   49.4620  -21.3230   32.4600 O   0  0  0  0  0
   49.4380  -22.5810   34.3690 O   0  0  0  0  0
   36.4904  -17.7696   29.7614 H   0  0  0  0  0
   37.7124  -16.5619   30.3725 H   0  0  0  0  0
   39.5953  -15.8179   28.5338 H   0  0  0  0  0
   39.4778  -16.6587   26.9442 H   0  0  0  0  0
   35.6913  -15.3854   29.8868 H   0  0  0  0  0
   35.5756  -16.1609   28.2637 H   0  0  0  0  0
   37.3367  -15.5773   26.5046 H   0  0  0  0  0
   38.5699  -14.3310   26.8916 H   0  0  0  0  0
   37.5920  -17.8726   27.6458 H   0  0  0  0  0
   41.9580  -21.2044   30.4957 H   0  0  0  0  0
   43.4473  -20.0739   25.9445 H   0  0  0  0  0
   38.3090  -22.1754   28.5183 H   0  0  0  0  0
   39.4230  -22.0192   27.1092 H   0  0  0  0  0
   42.2309  -26.3036   29.9591 H   0  0  0  0  0
   40.6172  -25.1674   31.4794 H   0  0  0  0  0
   42.5168  -25.4885   27.6153 H   0  0  0  0  0
   43.2486  -22.4091   31.3693 H   0  0  0  0  0
   46.2449  -19.9951   29.4074 H   0  0  0  0  0
   39.3097  -23.2124   30.6703 H   0  0  0  0  0
   41.1726  -23.5504   26.7968 H   0  0  0  0  0
   44.8857  -23.0065   33.1511 H   0  0  0  0  0
   47.9329  -20.7298   31.0887 H   0  0  0  0  0
   45.1551  -20.5631   27.6654 H   0  0  0  0  0
   37.7434  -14.2238   29.1897 H   0  0  0  0  0
   51.4235  -22.6292   33.7740 H   0  0  0  0  0
   50.9498  -21.2126   34.7435 H   0  0  0  0  0
   51.1453  -22.8009   35.5245 H   0  0  0  0  0
   35.5973  -13.1191   28.8346 H   0  0  0  0  0
   35.5088  -13.8258   27.1876 H   0  0  0  0  0
   39.8529  -20.8026   29.8830 H   0  0  0  0  0
   36.3276  -11.6228   27.1759 H   0  0  0  0  0
   37.5783  -12.0394   28.1951 H   0  0  0  0  0
   37.4961  -12.6957   26.6656 H   0  0  0  0  0
   47.1085  -22.8951   33.9632 H   0  0  0  0  0
   38.5999  -19.7136   27.4852 H   0  0  0  0  0
  1 18  4  0  0  0
  1 19  4  0  0  0
 25  1  1  0  0  0
  2 11  1  0  0  0
 33  2  1  0  0  0
  2 34  2  0  0  0
  3 12  4  0  0  0
 29  3  1  0  0  0
  3 30  4  0  0  0
 22  4  4  0  0  0
 23  4  4  0  0  0
  4 32  1  0  0  0
 14  5  1  0  0  0
  5 20  4  0  0  0
  5 21  4  0  0  0
 32  6  1  0  0  0
  6 35  2  0  0  0
  6 36  1  0  0  0
  7  9  1  0  0  0
 11  7  1  0  0  0
  8 10  1  0  0  0
 11  8  1  0  0  0
  9 26  1  0  0  0
 10 26  1  0  0  0
 12 25  4  0  0  0
 13 24  4  0  0  0
 30 13  4  0  0  0
 29 14  1  0  0  0
 16 15  4  0  0  0
 17 15  4  0  0  0
 20 16  4  0  0  0
 21 17  4  0  0  0
 18 22  4  0  0  0
 19 23  4  0  0  0
 25 24  4  0  0  0
 26 28  1  0  0  0
 36 27  1  0  0  0
 28 31  1  0  0  0
 29 33  1  0  0  0
  7 37  1  0  0  0
  7 38  1  0  0  0
  8 39  1  0  0  0
  8 40  1  0  0  0
  9 41  1  0  0  0
  9 42  1  0  0  0
 10 43  1  0  0  0
 10 44  1  0  0  0
 11 45  1  0  0  0
 12 46  1  0  0  0
 13 47  1  0  0  0
 14 48  1  0  0  0
 14 49  1  0  0  0
 15 50  1  0  0  0
 16 51  1  0  0  0
 17 52  1  0  0  0
 18 53  1  0  0  0
 19 54  1  0  0  0
 20 55  1  0  0  0
 21 56  1  0  0  0
 22 57  1  0  0  0
 23 58  1  0  0  0
 24 59  1  0  0  0
 26 60  1  0  0  0
 27 61  1  0  0  0
 27 62  1  0  0  0
 27 63  1  0  0  0
 28 64  1  0  0  0
 28 65  1  0  0  0
 29 66  1  0  0  0
 31 67  1  0  0  0
 31 68  1  0  0  0
 31 69  1  0  0  0
 32 70  1  0  0  0
 33 71  1  0  0  0
M  END
$$$$
