1ogd_ligand
  -I-interpret- 

 20 20  0  0  0  0  0  0  0  0999 V2000
   51.0970   36.4020   26.1760 C   0  0  0  0  0
   51.5540   37.7740   25.7480 C   0  0  0  0  0
   50.6340   38.8280   26.3390 C   0  0  0  0  0
   50.4810   38.7330   27.8500 C   0  0  0  0  0
   50.0230   37.3150   28.1830 C   0  0  0  0  0
   49.8760   36.0550   25.5550 O   0  0  0  0  0
   52.8780   37.9420   26.1990 O   0  0  0  0  0
   51.0590   40.1150   25.9700 O   0  0  0  0  0
   51.7110   38.9730   28.5000 O   0  0  0  0  0
   50.8790   36.3050   27.6080 O   0  0  0  0  0
   51.9000   35.7275   25.8789 H   0  0  0  0  0
   51.5201   37.8794   24.6636 H   0  0  0  0  0
   49.6461   38.6326   25.9218 H   0  0  0  0  0
   49.7612   39.4790   28.1869 H   0  0  0  0  0
   49.0227   37.1805   27.7714 H   0  0  0  0  0
   50.0499   37.1999   29.2666 H   0  0  0  0  0
   49.9771   36.1066   24.6017 H   0  0  0  0  0
   53.4356   37.2640   25.8105 H   0  0  0  0  0
   51.1508   40.1590   25.0154 H   0  0  0  0  0
   52.0100   39.8626   28.2982 H   0  0  0  0  0
  1  2  1  0  0  0
  1  6  1  0  0  0
  1 10  1  0  0  0
  2  3  1  0  0  0
  2  7  1  0  0  0
  3  4  1  0  0  0
  3  8  1  0  0  0
  4  5  1  0  0  0
  4  9  1  0  0  0
  5 10  1  0  0  0
  1 11  1  0  0  0
  2 12  1  0  0  0
  3 13  1  0  0  0
  4 14  1  0  0  0
  5 15  1  0  0  0
  5 16  1  0  0  0
  6 17  1  0  0  0
  7 18  1  0  0  0
  8 19  1  0  0  0
  9 20  1  0  0  0
M  END
$$$$
