2xni_ligand
  -I-interpret- 

 95 98  0  0  0  0  0  0  0  0999 V2000
    7.0800   29.5860   12.8570 N   0  0  0  0  0
    7.8120   30.3600   12.0390 C   0  0  0  0  0
    7.1400   31.3390   11.0300 C   0  0  0  0  0
    7.6980   32.6870   11.2940 N   0  0  0  0  0
    6.9530   33.7920   11.4890 C   0  0  0  0  0
    7.6780   34.9190   11.6810 O   0  0  0  0  0
    7.8840   35.3010   13.0370 C   0  0  0  0  0
    8.4330   36.7560   13.1820 C   0  0  0  0  0
    7.7120   37.6740   12.1590 C   0  0  0  0  0
    9.9650   36.7760   12.8980 C   0  0  0  0  0
    8.1770   37.2890   14.6320 C   0  0  0  0  0
    8.6650   36.3020   15.7290 C   0  0  0  0  0
    7.4740   35.8420   16.6100 C   0  0  0  0  0
    7.9970   34.8320   17.6570 C   0  0  0  0  0
    6.9070   34.3330   18.6390 C   0  0  0  0  0
    6.0470   33.2470   18.3540 C   0  0  0  0  0
    5.9300   32.3700   17.1370 C   0  0  0  0  0
    4.8480   31.4020   17.3900 N   0  0  0  0  0
    4.5170   30.4670   16.4490 C   0  0  0  0  0
    5.2380   30.5030   15.2980 O   0  0  0  0  0
    5.5030   29.2650   14.5960 C   0  0  0  0  0
    5.6110   29.5080   13.0950 C   0  0  0  0  0
    6.8190   28.6420   15.0520 C   0  0  0  0  0
    7.8340   28.8510   13.8990 C   0  0  0  0  0
    8.3500   27.5060   13.3550 C   0  0  0  0  0
    9.3170   26.8380   13.9990 N   0  0  0  0  0
    9.8300   25.5440   13.4980 C   0  0  0  0  0
    9.9230   24.4630   14.6920 B   0  0  0  0  0
    9.9330   23.1890   14.2160 O   0  0  0  0  0
    8.8720   24.6140   15.5290 O   0  0  0  0  0
   11.2280   25.7390   12.8320 C   0  0  0  0  0
   11.1100   26.4820   11.4750 C   0  0  0  0  0
   10.8200   27.8470   11.7060 O   0  0  0  0  0
    8.0200   27.1670   12.2610 O   0  0  0  0  0
    3.6450   29.6680   16.6280 O   0  0  0  0  0
    4.2800   31.6530   18.7460 C   0  0  0  0  0
    5.0910   32.8430   19.2990 C   0  0  0  0  0
    5.0100   33.5240   20.5200 C   0  0  0  0  0
    5.8680   34.5940   20.8130 C   0  0  0  0  0
    6.8190   34.9970   19.8710 C   0  0  0  0  0
    5.7620   33.7990   11.4100 O   0  0  0  0  0
    7.2760   30.9230    9.5190 C   0  0  0  0  0
    6.8240   32.0770    8.5690 C   0  0  0  0  0
    6.3500   29.7060    9.2350 C   0  0  0  0  0
    8.7370   30.5350    9.1430 C   0  0  0  0  0
    9.0000   30.2960   12.0840 O   0  0  0  0  0
    6.0624   31.3191   11.1926 H   0  0  0  0  0
    8.7127   32.7839   11.3303 H   0  0  0  0  0
    8.6217   34.6226   13.4655 H   0  0  0  0  0
    6.9209   35.2564   13.5454 H   0  0  0  0  0
    7.9003   37.3089   11.1494 H   0  0  0  0  0
    6.6401   37.6641   12.3563 H   0  0  0  0  0
    8.0911   38.6914   12.2554 H   0  0  0  0  0
   10.4738   36.1266   13.6104 H   0  0  0  0  0
   10.1500   36.4208   11.8842 H   0  0  0  0  0
   10.3391   37.7945   13.0014 H   0  0  0  0  0
    7.1020   37.4211   14.7550 H   0  0  0  0  0
    8.7315   38.2201   14.7490 H   0  0  0  0  0
    9.3991   36.8051   16.3584 H   0  0  0  0  0
    9.1101   35.4300   15.2498 H   0  0  0  0  0
    6.7122   35.3715   15.9884 H   0  0  0  0  0
    7.0301   36.7014   17.1125 H   0  0  0  0  0
    8.7599   35.3397   18.2472 H   0  0  0  0  0
    8.3695   33.9632   17.1143 H   0  0  0  0  0
    6.8698   31.8505   16.9501 H   0  0  0  0  0
    5.7057   32.9701   16.2552 H   0  0  0  0  0
    4.6730   28.5943   14.8182 H   0  0  0  0  0
    5.1354   28.7207   12.5102 H   0  0  0  0  0
    5.0894   30.4120   12.7806 H   0  0  0  0  0
    6.6918   27.5816   15.2700 H   0  0  0  0  0
    7.1727   29.1104   15.9705 H   0  0  0  0  0
    8.7168   29.3966   14.2324 H   0  0  0  0  0
    9.7086   27.2311   14.8549 H   0  0  0  0  0
    9.1337   25.1657   12.7496 H   0  0  0  0  0
    9.9889   22.5743   14.9513 H   0  0  0  0  0
    8.9328   23.9684   16.2369 H   0  0  0  0  0
   11.6657   24.7571   12.6521 H   0  0  0  0  0
   11.8496   26.3351   13.5001 H   0  0  0  0  0
   10.3087   26.0358   10.8859 H   0  0  0  0  0
   12.0518   26.3982   10.9328 H   0  0  0  0  0
   10.7475   28.3043   10.8651 H   0  0  0  0  0
    4.3585   30.7754   19.3876 H   0  0  0  0  0
    3.2133   31.8732   18.7047 H   0  0  0  0  0
    4.2668   33.2169   21.2558 H   0  0  0  0  0
    5.7937   35.1090   21.7708 H   0  0  0  0  0
    7.4909   35.8259   20.0937 H   0  0  0  0  0
    6.9223   31.7526    7.5330 H   0  0  0  0  0
    5.7837   32.3291    8.7750 H   0  0  0  0  0
    7.4516   32.9520    8.7382 H   0  0  0  0  0
    5.3150   29.9844    9.4336 H   0  0  0  0  0
    6.4536   29.4079    8.1917 H   0  0  0  0  0
    6.6347   28.8758    9.8814 H   0  0  0  0  0
    8.7678   30.2031    8.1052 H   0  0  0  0  0
    9.3855   31.4022    9.2679 H   0  0  0  0  0
    9.0765   29.7291    9.7937 H   0  0  0  0  0
  1  2  1  0  0  0
  1 22  1  0  0  0
  1 24  1  0  0  0
  2  3  1  0  0  0
  2 46  2  0  0  0
  3  4  1  0  0  0
  3 42  1  0  0  0
  4  5  1  0  0  0
  5  6  1  0  0  0
  5 41  2  0  0  0
  6  7  1  0  0  0
  7  8  1  0  0  0
  8  9  1  0  0  0
  8 10  1  0  0  0
  8 11  1  0  0  0
 11 12  1  0  0  0
 12 13  1  0  0  0
 13 14  1  0  0  0
 14 15  1  0  0  0
 15 16  4  0  0  0
 15 40  4  0  0  0
 16 17  1  0  0  0
 16 37  4  0  0  0
 17 18  1  0  0  0
 18 19  1  0  0  0
 18 36  1  0  0  0
 19 20  1  0  0  0
 19 35  2  0  0  0
 20 21  1  0  0  0
 21 22  1  0  0  0
 21 23  1  0  0  0
 23 24  1  0  0  0
 24 25  1  0  0  0
 25 26  1  0  0  0
 25 34  2  0  0  0
 26 27  1  0  0  0
 27 28  1  0  0  0
 27 31  1  0  0  0
 28 29  1  0  0  0
 28 30  1  0  0  0
 31 32  1  0  0  0
 32 33  1  0  0  0
 36 37  1  0  0  0
 37 38  4  0  0  0
 38 39  4  0  0  0
 39 40  4  0  0  0
 42 43  1  0  0  0
 42 44  1  0  0  0
 42 45  1  0  0  0
  3 47  1  0  0  0
  4 48  1  0  0  0
  7 49  1  0  0  0
  7 50  1  0  0  0
  9 51  1  0  0  0
  9 52  1  0  0  0
  9 53  1  0  0  0
 10 54  1  0  0  0
 10 55  1  0  0  0
 10 56  1  0  0  0
 11 57  1  0  0  0
 11 58  1  0  0  0
 12 59  1  0  0  0
 12 60  1  0  0  0
 13 61  1  0  0  0
 13 62  1  0  0  0
 14 63  1  0  0  0
 14 64  1  0  0  0
 17 65  1  0  0  0
 17 66  1  0  0  0
 21 67  1  0  0  0
 22 68  1  0  0  0
 22 69  1  0  0  0
 23 70  1  0  0  0
 23 71  1  0  0  0
 24 72  1  0  0  0
 26 73  1  0  0  0
 27 74  1  0  0  0
 29 75  1  0  0  0
 30 76  1  0  0  0
 31 77  1  0  0  0
 31 78  1  0  0  0
 32 79  1  0  0  0
 32 80  1  0  0  0
 33 81  1  0  0  0
 36 82  1  0  0  0
 36 83  1  0  0  0
 38 84  1  0  0  0
 39 85  1  0  0  0
 40 86  1  0  0  0
 43 87  1  0  0  0
 43 88  1  0  0  0
 43 89  1  0  0  0
 44 90  1  0  0  0
 44 91  1  0  0  0
 44 92  1  0  0  0
 45 93  1  0  0  0
 45 94  1  0  0  0
 45 95  1  0  0  0
M  END
$$$$
