### 
### Created by X-TOOL on Mon Sep 10 21:13:07 2018
### 

@<TRIPOS>MOLECULE
2xni_ligand
   95    98     1     0     0
SMALL
GAST_HUCK


@<TRIPOS>ATOM
      1 N01         7.0800   29.5860   12.8570 N.am      1 TR8        -0.2470
      2 C02         7.8120   30.3600   12.0390 C.2       1 TR8         0.2070
      3 C03         7.1400   31.3390   11.0300 C.3       1 TR8         0.1378
      4 N04         7.6980   32.6870   11.2940 N.am      1 TR8        -0.2407
      5 C05         6.9530   33.7920   11.4890 C.2       1 TR8         0.3218
      6 O06         7.6780   34.9190   11.6810 O.3       1 TR8        -0.2633
      7 C07         7.8840   35.3010   13.0370 C.3       1 TR8         0.0824
      8 C08         8.4330   36.7560   13.1820 C.3       1 TR8        -0.0072
      9 C09         7.7120   37.6740   12.1590 C.3       1 TR8        -0.0574
     10 C10         9.9650   36.7760   12.8980 C.3       1 TR8        -0.0574
     11 C11         8.1770   37.2890   14.6320 C.3       1 TR8        -0.0453
     12 C12         8.6650   36.3020   15.7290 C.3       1 TR8        -0.0508
     13 C13         7.4740   35.8420   16.6100 C.3       1 TR8        -0.0444
     14 C14         7.9970   34.8320   17.6570 C.3       1 TR8        -0.0232
     15 C15         6.9070   34.3330   18.6390 C.ar      1 TR8        -0.0456
     16 C16         6.0470   33.2470   18.3540 C.ar      1 TR8        -0.0151
     17 C17         5.9300   32.3700   17.1370 C.3       1 TR8         0.0665
     18 N18         4.8480   31.4020   17.3900 N.am      1 TR8        -0.2301
     19 C19         4.5170   30.4670   16.4490 C.2       1 TR8         0.3258
     20 O20         5.2380   30.5030   15.2980 O.3       1 TR8        -0.2580
     21 C21         5.5030   29.2650   14.5960 C.3       1 TR8         0.1127
     22 C22         5.6110   29.5080   13.0950 C.3       1 TR8         0.0674
     23 C23         6.8190   28.6420   15.0520 C.3       1 TR8         0.0203
     24 C24         7.8340   28.8510   13.8990 C.3       1 TR8         0.1340
     25 C25         8.3500   27.5060   13.3550 C.2       1 TR8         0.1738
     26 N26         9.3170   26.8380   13.9990 N.am      1 TR8        -0.4362
     27 C27         9.8300   25.5440   13.4980 C.3       1 TR8        -0.2242
     28 B28         9.9230   24.4630   14.6920 B         1 TR8         3.0000
     29 O29         9.9330   23.1890   14.2160 O.3       1 TR8        -0.8710
     30 O30         8.8720   24.6140   15.5290 O.3       1 TR8        -0.8710
     31 C31        11.2280   25.7390   12.8320 C.3       1 TR8        -0.1374
     32 C32        11.1100   26.4820   11.4750 C.3       1 TR8         0.0189
     33 O33        10.8200   27.8470   11.7060 O.3       1 TR8        -0.3975
     34 O34         8.0200   27.1670   12.2610 O.2       1 TR8        -0.3971
     35 O35         3.6450   29.6680   16.6280 O.2       1 TR8        -0.3772
     36 C36         4.2800   31.6530   18.7460 C.3       1 TR8         0.0673
     37 C37         5.0910   32.8430   19.2990 C.ar      1 TR8        -0.0233
     38 C38         5.0100   33.5240   20.5200 C.ar      1 TR8        -0.0717
     39 C39         5.8680   34.5940   20.8130 C.ar      1 TR8        -0.0819
     40 C40         6.8190   34.9970   19.8710 C.ar      1 TR8        -0.0736
     41 O41         5.7620   33.7990   11.4100 O.2       1 TR8        -0.3774
     42 C42         7.2760   30.9230    9.5190 C.3       1 TR8         0.0025
     43 C43         6.8240   32.0770    8.5690 C.3       1 TR8        -0.0558
     44 C44         6.3500   29.7060    9.2350 C.3       1 TR8        -0.0558
     45 C45         8.7370   30.5350    9.1430 C.3       1 TR8        -0.0558
     46 O46         9.0000   30.2960   12.0840 O.2       1 TR8        -0.3942
     47 H           6.0624   31.3191   11.1926 H         1 TR8         0.0805
     48 H           8.7127   32.7839   11.3303 H         1 TR8         0.1899
     49 H           8.6217   34.6226   13.4655 H         1 TR8         0.0617
     50 H           6.9209   35.2564   13.5454 H         1 TR8         0.0617
     51 H           7.9003   37.3089   11.1494 H         1 TR8         0.0236
     52 H           6.6401   37.6641   12.3563 H         1 TR8         0.0236
     53 H           8.0911   38.6914   12.2554 H         1 TR8         0.0236
     54 H          10.4738   36.1266   13.6104 H         1 TR8         0.0236
     55 H          10.1500   36.4208   11.8842 H         1 TR8         0.0236
     56 H          10.3391   37.7945   13.0014 H         1 TR8         0.0236
     57 H           7.1020   37.4211   14.7550 H         1 TR8         0.0271
     58 H           8.7315   38.2201   14.7490 H         1 TR8         0.0271
     59 H           9.3991   36.8051   16.3584 H         1 TR8         0.0267
     60 H           9.1101   35.4300   15.2498 H         1 TR8         0.0267
     61 H           6.7122   35.3715   15.9884 H         1 TR8         0.0286
     62 H           7.0301   36.7014   17.1125 H         1 TR8         0.0286
     63 H           8.7599   35.3397   18.2472 H         1 TR8         0.0410
     64 H           8.3695   33.9632   17.1143 H         1 TR8         0.0410
     65 H           6.8698   31.8505   16.9501 H         1 TR8         0.0656
     66 H           5.7057   32.9701   16.2552 H         1 TR8         0.0656
     67 H           4.6730   28.5943   14.8182 H         1 TR8         0.0670
     68 H           5.1354   28.7207   12.5102 H         1 TR8         0.0553
     69 H           5.0894   30.4120   12.7806 H         1 TR8         0.0553
     70 H           6.6918   27.5816   15.2700 H         1 TR8         0.0342
     71 H           7.1727   29.1104   15.9705 H         1 TR8         0.0342
     72 H           8.7168   29.3966   14.2324 H         1 TR8         0.0802
     73 H           9.7086   27.2311   14.8549 H         1 TR8         0.1459
     74 H           9.1337   25.1657   12.7496 H         1 TR8        -0.1821
     75 H          10.0128   22.5751   14.9497 H         1 TR8        -0.1290
     76 H           8.8606   25.5122   15.8678 H         1 TR8        -0.1290
     77 H          11.6657   24.7571   12.6521 H         1 TR8        -0.0043
     78 H          11.8496   26.3351   13.5001 H         1 TR8        -0.0043
     79 H          10.3087   26.0358   10.8859 H         1 TR8         0.0532
     80 H          12.0518   26.3982   10.9328 H         1 TR8         0.0532
     81 H           9.9907   27.9204   12.1839 H         1 TR8         0.2093
     82 H           4.3585   30.7754   19.3876 H         1 TR8         0.0670
     83 H           3.2133   31.8732   18.7047 H         1 TR8         0.0670
     84 H           4.2668   33.2169   21.2558 H         1 TR8         0.0482
     85 H           5.7937   35.1090   21.7708 H         1 TR8         0.0525
     86 H           7.4909   35.8259   20.0937 H         1 TR8         0.0482
     87 H           6.9223   31.7526    7.5330 H         1 TR8         0.0237
     88 H           5.7837   32.3291    8.7750 H         1 TR8         0.0237
     89 H           7.4516   32.9520    8.7382 H         1 TR8         0.0237
     90 H           5.3150   29.9844    9.4336 H         1 TR8         0.0237
     91 H           6.4536   29.4079    8.1917 H         1 TR8         0.0237
     92 H           6.6347   28.8758    9.8814 H         1 TR8         0.0237
     93 H           8.7678   30.2031    8.1052 H         1 TR8         0.0237
     94 H           9.3855   31.4022    9.2679 H         1 TR8         0.0237
     95 H           9.0765   29.7291    9.7937 H         1 TR8         0.0237
@<TRIPOS>BOND
     1    1    2 am 
     2    1   22 1  
     3    1   24 1  
     4    2    3 1  
     5    2   46 2  
     6    3    4 1  
     7    3   42 1  
     8    4    5 am 
     9    5    6 1  
    10    5   41 2  
    11    6    7 1  
    12    7    8 1  
    13    8    9 1  
    14    8   10 1  
    15    8   11 1  
    16   11   12 1  
    17   12   13 1  
    18   13   14 1  
    19   14   15 1  
    20   15   16 ar 
    21   15   40 ar 
    22   16   17 1  
    23   16   37 ar 
    24   17   18 1  
    25   18   19 am 
    26   18   36 1  
    27   19   20 1  
    28   19   35 2  
    29   20   21 1  
    30   21   22 1  
    31   21   23 1  
    32   23   24 1  
    33   24   25 1  
    34   25   26 am 
    35   25   34 2  
    36   26   27 1  
    37   27   28 1  
    38   27   31 1  
    39   28   29 1  
    40   28   30 1  
    41   31   32 1  
    42   32   33 1  
    43   36   37 1  
    44   37   38 ar 
    45   38   39 ar 
    46   39   40 ar 
    47   42   43 1  
    48   42   44 1  
    49   42   45 1  
    50    3   47 1  
    51    4   48 1  
    52    7   49 1  
    53    7   50 1  
    54    9   51 1  
    55    9   52 1  
    56    9   53 1  
    57   10   54 1  
    58   10   55 1  
    59   10   56 1  
    60   11   57 1  
    61   11   58 1  
    62   12   59 1  
    63   12   60 1  
    64   13   61 1  
    65   13   62 1  
    66   14   63 1  
    67   14   64 1  
    68   17   65 1  
    69   17   66 1  
    70   21   67 1  
    71   22   68 1  
    72   22   69 1  
    73   23   70 1  
    74   23   71 1  
    75   24   72 1  
    76   26   73 1  
    77   27   74 1  
    78   29   75 1  
    79   30   76 1  
    80   31   77 1  
    81   31   78 1  
    82   32   79 1  
    83   32   80 1  
    84   33   81 1  
    85   36   82 1  
    86   36   83 1  
    87   38   84 1  
    88   39   85 1  
    89   40   86 1  
    90   43   87 1  
    91   43   88 1  
    92   43   89 1  
    93   44   90 1  
    94   44   91 1  
    95   44   92 1  
    96   45   93 1  
    97   45   94 1  
    98   45   95 1  
@<TRIPOS>SUBSTRUCTURE
     1 TR8         1

