4dzy_ligand
  -I-interpret- 

 21 21  0  0  0  0  0  0  0  0999 V2000
   -6.9060  -32.7550   13.4570 O   0  0  0  0  0
   -7.6960  -31.8640   13.6720 C   0  0  0  0  0
   -8.3340  -31.3040   12.6360 O   0  0  0  0  0
   -7.9540  -31.4330   15.0790 C   0  0  0  0  0
   -8.3260  -29.6840   15.0330 Cl  0  0  0  0  0
   -9.1130  -32.2520   15.6920 C   0  0  0  0  0
   -9.0450  -32.1140   17.1980 C   0  0  0  0  0
   -9.8720  -31.2100   17.8500 C   0  0  0  0  0
   -8.1450  -32.8780   17.9340 C   0  0  0  0  0
   -8.0660  -32.7250   19.3160 C   0  0  0  0  0
   -8.8890  -31.8140   19.9750 C   0  0  0  0  0
   -9.7910  -31.0580   19.2350 C   0  0  0  0  0
   -8.9235  -30.6179   12.9576 H   0  0  0  0  0
   -7.0842  -31.6098   15.7117 H   0  0  0  0  0
   -9.0226  -33.3003   15.4073 H   0  0  0  0  0
  -10.0696  -31.8806   15.3245 H   0  0  0  0  0
  -10.5866  -30.6172   17.2789 H   0  0  0  0  0
   -7.5008  -33.5973   17.4283 H   0  0  0  0  0
   -7.3549  -33.3225   19.8865 H   0  0  0  0  0
   -8.8264  -31.6956   21.0567 H   0  0  0  0  0
  -10.4393  -30.3418   19.7398 H   0  0  0  0  0
  1  2  2  0  0  0
  2  3  1  0  0  0
  2  4  1  0  0  0
  4  5  1  0  0  0
  4  6  1  0  0  0
  6  7  1  0  0  0
  7  8  4  0  0  0
  7  9  4  0  0  0
  8 12  4  0  0  0
  9 10  4  0  0  0
 10 11  4  0  0  0
 11 12  4  0  0  0
  3 13  1  0  0  0
  4 14  1  0  0  0
  6 15  1  0  0  0
  6 16  1  0  0  0
  8 17  1  0  0  0
  9 18  1  0  0  0
 10 19  1  0  0  0
 11 20  1  0  0  0
 12 21  1  0  0  0
M  END
$$$$
