2fv9_ligand
  -I-interpret- 

 67 67  0  0  0  0  0  0  0  0999 V2000
   46.8220   28.7360   39.6060 C   0  0  0  0  0
   47.3620   28.0340   38.3430 C   0  0  0  0  0
   47.5920   29.0540   37.2270 C   0  0  0  0  0
   48.4130   28.4900   36.0770 C   0  0  0  0  0
   47.1640   31.0380   40.1700 C   0  0  0  0  0
   46.6160   27.6990   40.7140 C   0  0  0  0  0
   45.0330   26.1340   41.6460 C   0  0  0  0  0
   44.1100   26.4530   42.8300 C   0  0  0  0  0
   49.2550   34.1450   39.3140 C   0  0  0  0  0
   48.2670   33.0140   39.1740 C   0  0  0  0  0
   44.3710   25.0810   40.7680 C   0  0  0  0  0
   46.3620   26.9550   37.9090 C   0  0  0  0  0
   47.7210   29.8260   39.9930 N   0  0  0  0  0
   47.5720   27.2580   41.3530 O   0  0  0  0  0
   44.7760   23.9020   40.8430 O   0  0  0  0  0
   49.7640   36.2780   39.7670 O   0  0  0  0  0
   44.8290   27.0700   44.0370 C   0  0  0  0  0
   46.0700   26.2600   44.4160 C   0  0  0  0  0
   43.8840   27.1450   45.2400 C   0  0  0  0  0
   48.7580   35.3740   39.5170 N   0  0  0  0  0
   50.4620   33.9280   39.2410 O   0  0  0  0  0
   48.1640   32.1600   40.4390 C   0  0  0  0  0
   47.7340   32.9890   41.6620 C   0  0  0  0  0
   45.9630   31.2790   40.1090 O   0  0  0  0  0
   45.3280   27.3570   40.9080 N   0  0  0  0  0
   43.4500   25.4420   40.0020 O   0  0  0  0  0
   47.8720   32.1800   42.9370 C   0  0  0  0  0
   49.0780   32.2360   43.6910 C   0  0  0  0  0
   49.1970   31.5090   44.9110 C   0  0  0  0  0
   48.1080   30.7170   45.3760 C   0  0  0  0  0
   46.9120   30.6330   44.6100 C   0  0  0  0  0
   46.7920   31.3650   43.3900 C   0  0  0  0  0
   45.8512   29.1904   39.4083 H   0  0  0  0  0
   48.3204   27.5629   38.5613 H   0  0  0  0  0
   48.1416   29.8950   37.6500 H   0  0  0  0  0
   46.6182   29.3441   36.8325 H   0  0  0  0  0
   49.3880   28.1749   36.4486 H   0  0  0  0  0
   47.8930   27.6343   35.6464 H   0  0  0  0  0
   48.5442   29.2582   35.3149 H   0  0  0  0  0
   45.9817   25.7305   42.0000 H   0  0  0  0  0
   43.6739   25.5107   43.1617 H   0  0  0  0  0
   43.3798   27.1835   42.4818 H   0  0  0  0  0
   48.6076   32.3706   38.3627 H   0  0  0  0  0
   47.2858   33.4485   38.9828 H   0  0  0  0  0
   45.4090   27.4229   37.6622 H   0  0  0  0  0
   46.7495   26.4332   37.0339 H   0  0  0  0  0
   46.2194   26.2448   38.7235 H   0  0  0  0  0
   48.7212   29.6735   40.1221 H   0  0  0  0  0
   49.3832   37.1478   39.9085 H   0  0  0  0  0
   45.1415   28.0757   43.7560 H   0  0  0  0  0
   45.7743   25.2421   44.6700 H   0  0  0  0  0
   46.7604   26.2395   43.5728 H   0  0  0  0  0
   46.5565   26.7233   45.2743 H   0  0  0  0  0
   43.0223   27.7622   44.9856 H   0  0  0  0  0
   43.5492   26.1410   45.5005 H   0  0  0  0  0
   44.4104   27.5851   46.0870 H   0  0  0  0  0
   47.7654   35.6074   39.4896 H   0  0  0  0  0
   49.1460   31.7499   40.6749 H   0  0  0  0  0
   46.6901   33.2784   41.5408 H   0  0  0  0  0
   48.3741   33.8684   41.7329 H   0  0  0  0  0
   44.5742   27.9412   40.5463 H   0  0  0  0  0
   43.3008   26.3847   40.1049 H   0  0  0  0  0
   49.9140   32.8374   43.3338 H   0  0  0  0  0
   50.1205   31.5589   45.4878 H   0  0  0  0  0
   48.1910   30.1755   46.3183 H   0  0  0  0  0
   46.0870   30.0096   44.9547 H   0  0  0  0  0
   45.8749   31.3012   42.8044 H   0  0  0  0  0
  1  2  1  0  0  0
  1  6  1  0  0  0
 13  1  1  0  0  0
  2  3  1  0  0  0
  2 12  1  0  0  0
  3  4  1  0  0  0
  5 13  1  0  0  0
 22  5  1  0  0  0
  5 24  2  0  0  0
  6 14  2  0  0  0
  6 25  1  0  0  0
  7  8  1  0  0  0
  7 11  1  0  0  0
 25  7  1  0  0  0
  8 17  1  0  0  0
 10  9  1  0  0  0
  9 20  1  0  0  0
  9 21  2  0  0  0
 10 22  1  0  0  0
 11 15  2  0  0  0
 11 26  1  0  0  0
 20 16  1  0  0  0
 17 18  1  0  0  0
 17 19  1  0  0  0
 22 23  1  0  0  0
 23 27  1  0  0  0
 27 28  4  0  0  0
 27 32  4  0  0  0
 28 29  4  0  0  0
 29 30  4  0  0  0
 30 31  4  0  0  0
 31 32  4  0  0  0
  1 33  1  0  0  0
  2 34  1  0  0  0
  3 35  1  0  0  0
  3 36  1  0  0  0
  4 37  1  0  0  0
  4 38  1  0  0  0
  4 39  1  0  0  0
  7 40  1  0  0  0
  8 41  1  0  0  0
  8 42  1  0  0  0
 10 43  1  0  0  0
 10 44  1  0  0  0
 12 45  1  0  0  0
 12 46  1  0  0  0
 12 47  1  0  0  0
 13 48  1  0  0  0
 16 49  1  0  0  0
 17 50  1  0  0  0
 18 51  1  0  0  0
 18 52  1  0  0  0
 18 53  1  0  0  0
 19 54  1  0  0  0
 19 55  1  0  0  0
 19 56  1  0  0  0
 20 57  1  0  0  0
 22 58  1  0  0  0
 23 59  1  0  0  0
 23 60  1  0  0  0
 25 61  1  0  0  0
 26 62  1  0  0  0
 28 63  1  0  0  0
 29 64  1  0  0  0
 30 65  1  0  0  0
 31 66  1  0  0  0
 32 67  1  0  0  0
M  END
$$$$
