4uct_ligand
  -I-interpret- 

 28 29  0  0  0  0  0  0  0  0999 V2000
  112.2840   87.3200   26.4630 N   0  0  0  0  0
  112.0320   88.6310   26.4420 C   0  0  0  0  0
  112.2620   89.4730   27.4130 N   0  0  0  0  0
  111.8400   90.7110   26.9450 N   0  0  0  0  0
  111.8510   91.9210   27.5480 C   0  0  0  0  0
  111.5040   89.2540   25.3540 N   0  0  0  0  0
  111.3440   90.5820   25.6320 C   0  0  0  0  0
  110.8620   91.5890   24.9130 N   0  0  0  0  0
  110.8840   92.7730   25.5130 C   0  0  0  0  0
  111.3810   93.0000   26.8170 C   0  0  0  0  0
  111.3600   94.3550   27.4760 C   0  0  0  0  0
  110.4070   93.8600   24.8690 O   0  0  0  0  0
  109.8250   93.8770   23.5220 C   0  0  0  0  0
  109.5490   95.3210   23.2450 C   0  0  0  0  0
  108.5460   93.0490   23.4480 C   0  0  0  0  0
  112.6940   86.8927   27.2935 H   0  0  0  0  0
  112.0665   86.7458   25.6485 H   0  0  0  0  0
  112.2150   92.0427   28.5682 H   0  0  0  0  0
  110.7249   94.3174   28.3611 H   0  0  0  0  0
  112.3735   94.6323   27.7660 H   0  0  0  0  0
  110.9665   95.0920   26.7759 H   0  0  0  0  0
  110.4979   93.4356   22.7869 H   0  0  0  0  0
  108.8544   95.7065   23.9913 H   0  0  0  0  0
  110.4818   95.8831   23.2904 H   0  0  0  0  0
  109.1105   95.4218   22.2522 H   0  0  0  0  0
  108.7681   92.0153   23.7129 H   0  0  0  0  0
  107.8117   93.4541   24.1443 H   0  0  0  0  0
  108.1475   93.0881   22.4342 H   0  0  0  0  0
  1  2  1  0  0  0
  2  3  4  0  0  0
  2  6  4  0  0  0
  3  4  4  0  0  0
  4  5  4  0  0  0
  4  7  4  0  0  0
  5 10  4  0  0  0
  6  7  4  0  0  0
  7  8  4  0  0  0
  8  9  4  0  0  0
  9 10  4  0  0  0
  9 12  1  0  0  0
 10 11  1  0  0  0
 12 13  1  0  0  0
 13 14  1  0  0  0
 13 15  1  0  0  0
  1 16  1  0  0  0
  1 17  1  0  0  0
  5 18  1  0  0  0
 11 19  1  0  0  0
 11 20  1  0  0  0
 11 21  1  0  0  0
 13 22  1  0  0  0
 14 23  1  0  0  0
 14 24  1  0  0  0
 14 25  1  0  0  0
 15 26  1  0  0  0
 15 27  1  0  0  0
 15 28  1  0  0  0
M  END
$$$$
