4aq4_ligand
  -I-interpret- 

 19 18  0  0  0  0  0  0  0  0999 V2000
   44.8840   26.3180  179.1960 O   0  0  0  0  0
   44.4610   25.0030  178.9720 C   0  0  0  0  0
   42.9800   24.7700  178.8740 C   0  0  0  0  0
   42.4730   25.4150  177.7500 O   0  0  0  0  0
   42.6810   23.3030  178.7210 C   0  0  0  0  0
   43.3010   22.6640  177.6380 O   0  0  0  0  0
   42.6290   20.3520  178.2570 O   0  0  0  0  0
   43.7830   20.7740  176.1200 O   0  0  0  0  0
   41.4050   21.5210  176.4430 O   0  0  0  0  0
   42.7500   21.3120  177.1010 P   0  0  0  0  0
   45.8427   26.3415  179.2395 H   0  0  0  0  0
   44.7954   24.4314  179.8377 H   0  0  0  0  0
   44.8715   24.7194  178.0029 H   0  0  0  0  0
   42.5234   25.1548  179.7859 H   0  0  0  0  0
   42.6480   26.3566  177.8166 H   0  0  0  0  0
   41.6072   23.2236  178.5517 H   0  0  0  0  0
   43.0563   22.8167  179.6214 H   0  0  0  0  0
   43.8661   21.3801  175.3802 H   0  0  0  0  0
   41.5003   22.1339  175.7103 H   0  0  0  0  0
  1  2  1  0  0  0
  2  3  1  0  0  0
  3  4  1  0  0  0
  3  5  1  0  0  0
  5  6  1  0  0  0
  6 10  1  0  0  0
 10  7  2  0  0  0
 10  8  1  0  0  0
 10  9  1  0  0  0
  1 11  1  0  0  0
  2 12  1  0  0  0
  2 13  1  0  0  0
  3 14  1  0  0  0
  4 15  1  0  0  0
  5 16  1  0  0  0
  5 17  1  0  0  0
  8 18  1  0  0  0
  9 19  1  0  0  0
M  END
$$$$
