1qxz_ligand
  -I-interpret- 

 29 29  0  0  0  0  0  0  0  0999 V2000
   16.6960    2.9840    1.1790 N   0  3  0  0  0
   16.3050    3.2690    2.5540 C   0  0  0  0  0
   17.4030    4.1880    3.0830 C   0  0  0  0  0
   18.7680    3.5010    3.1040 C   0  0  0  0  0
   20.1420    4.5880    3.6080 S   0  0  0  0  0
   20.0090    4.1010    5.2380 C   0  0  0  0  0
   14.8820    3.8460    2.5570 C   0  0  0  0  0
   14.0720    3.0510    1.6930 O   0  0  0  0  0
   14.8810    5.1820    2.0730 O   0  0  0  0  0
   14.2670    3.7530    3.9390 C   0  0  0  0  0
   13.6810    4.8220    4.4880 N   0  0  0  0  0
   13.1830    4.4970    5.7200 C   0  0  0  0  0
   13.4010    3.1630    6.0040 C   0  0  0  0  0
   14.2010    2.2930    4.7930 S   0  0  0  0  0
   17.6409    2.6000    1.1681 H   0  0  0  0  0
   16.0480    2.3072    0.7759 H   0  0  0  0  0
   16.6717    3.8460    0.6342 H   0  0  0  0  0
   16.2376    2.4030    3.2124 H   0  0  0  0  0
   17.1481    4.4686    4.1050 H   0  0  0  0  0
   17.4684    5.0536    2.4238 H   0  0  0  0  0
   18.9768    3.1682    2.0873 H   0  0  0  0  0
   18.7112    2.6939    3.8344 H   0  0  0  0  0
   19.0140    4.3464    5.6092 H   0  0  0  0  0
   20.1694    3.0252    5.3087 H   0  0  0  0  0
   20.7590    4.6214    5.8337 H   0  0  0  0  0
   14.0636    2.1444    2.0086 H   0  0  0  0  0
   15.4232    5.7291    2.6459 H   0  0  0  0  0
   12.6813    5.1971    6.3881 H   0  0  0  0  0
   13.0812    2.7043    6.9396 H   0  0  0  0  0
  1  2  1  0  0  0
  2  3  1  0  0  0
  2  7  1  0  0  0
  3  4  1  0  0  0
  4  5  1  0  0  0
  5  6  1  0  0  0
  7  8  1  0  0  0
  7  9  1  0  0  0
  7 10  1  0  0  0
 10 11  4  0  0  0
 10 14  4  0  0  0
 11 12  4  0  0  0
 12 13  4  0  0  0
 13 14  4  0  0  0
  1 15  1  0  0  0
  1 16  1  0  0  0
  1 17  1  0  0  0
  2 18  1  0  0  0
  3 19  1  0  0  0
  3 20  1  0  0  0
  4 21  1  0  0  0
  4 22  1  0  0  0
  6 23  1  0  0  0
  6 24  1  0  0  0
  6 25  1  0  0  0
  8 26  1  0  0  0
  9 27  1  0  0  0
 12 28  1  0  0  0
 13 29  1  0  0  0
M  END
$$$$
