6abp_ligand
  -I-interpret- 

 20 20  0  0  0  0  0  0  0  0999 V2000
   14.3290   56.6010   55.1940 C   0  0  0  0  0
   12.9450   57.1400   54.8190 C   0  0  0  0  0
   12.4230   56.4070   53.7740 C   0  0  0  0  0
   13.2900   56.4430   52.4480 C   0  0  0  0  0
   14.7570   56.0830   52.8150 C   0  0  0  0  0
   14.8230   57.3560   56.2070 O   0  0  0  0  0
   12.0900   56.8890   55.9580 O   0  0  0  0  0
   11.0620   56.7740   53.3450 O   0  0  0  0  0
   13.3570   57.7810   51.8870 O   0  0  0  0  0
   15.1350   56.8380   54.0550 O   0  0  0  0  0
   14.2996   55.5522   55.4892 H   0  0  0  0  0
   13.0110   58.1930   54.5454 H   0  0  0  0  0
   12.4206   55.4170   54.2301 H   0  0  0  0  0
   12.8324   55.7537   51.7384 H   0  0  0  0  0
   15.4232   56.3542   51.9960 H   0  0  0  0  0
   14.8448   55.0108   52.9903 H   0  0  0  0  0
   14.2946   57.2158   56.9962 H   0  0  0  0  0
   12.4152   57.3811   56.7154 H   0  0  0  0  0
   10.4765   56.7724   54.1058 H   0  0  0  0  0
   12.4752   58.0664   51.6369 H   0  0  0  0  0
  2  1  1  0  0  0
  1  6  1  0  0  0
  1 10  1  0  0  0
  3  2  1  0  0  0
  2  7  1  0  0  0
  4  3  1  0  0  0
  3  8  1  0  0  0
  4  5  1  0  0  0
  4  9  1  0  0  0
  5 10  1  0  0  0
  1 11  1  0  0  0
  2 12  1  0  0  0
  3 13  1  0  0  0
  4 14  1  0  0  0
  5 15  1  0  0  0
  5 16  1  0  0  0
  6 17  1  0  0  0
  7 18  1  0  0  0
  8 19  1  0  0  0
  9 20  1  0  0  0
M  END
$$$$
