5yun_ligand
  -I-interpret- 

 33 35  0  0  0  0  0  0  0  0999 V2000
  -24.2820   -2.6870  -14.5350 C   0  0  0  0  0
  -24.2690   -1.3070  -14.4000 C   0  0  0  0  0
  -24.4980   -0.4920  -15.5990 C   0  0  0  0  0
  -24.7280   -1.1690  -16.8890 C   0  0  0  0  0
  -24.7180   -2.5430  -16.9180 C   0  0  0  0  0
  -24.5030   -3.2860  -15.7800 C   0  0  0  0  0
  -24.5020    0.9770  -15.5350 C   0  0  0  0  0
  -24.7440    1.6920  -16.8040 C   0  0  0  0  0
  -24.9520    0.9050  -18.0500 C   0  0  0  0  0
  -25.2130    1.5760  -19.3400 C   0  0  0  0  0
  -26.2170    1.0380  -20.1360 C   0  0  0  0  0
  -26.5500    1.5860  -21.3590 C   0  0  0  0  0
  -25.8140    2.7760  -21.8040 C   0  0  0  0  0
  -24.7520    3.3210  -20.9130 C   0  0  0  0  0
  -24.4880    2.6930  -19.7110 C   0  0  0  0  0
  -24.9500   -0.4650  -18.0450 O   0  0  0  0  0
  -24.3050    1.5560  -14.4560 O   0  0  0  0  0
  -24.0210    4.4130  -21.2460 O   0  0  0  0  0
  -26.1340    3.3190  -23.0110 O   0  0  0  0  0
  -27.5280    1.0470  -22.1330 O   0  0  0  0  0
  -24.7630    3.0390  -16.8450 O   0  0  0  0  0
  -24.5100   -4.6350  -15.9370 O   0  0  0  0  0
  -24.0500   -0.6860  -13.2160 O   0  0  0  0  0
  -24.1177   -3.3141  -13.6587 H   0  0  0  0  0
  -24.8843   -3.0564  -17.8650 H   0  0  0  0  0
  -26.7570    0.1586  -19.7851 H   0  0  0  0  0
  -23.7076    3.0785  -19.0549 H   0  0  0  0  0
  -23.3935    4.6026  -20.5447 H   0  0  0  0  0
  -25.5789    4.0852  -23.1732 H   0  0  0  0  0
  -27.6158    1.5605  -22.9394 H   0  0  0  0  0
  -24.6139    3.3870  -15.9628 H   0  0  0  0  0
  -24.6773   -4.8480  -16.8580 H   0  0  0  0  0
  -24.0829    0.2649  -13.3438 H   0  0  0  0  0
  1  2  4  0  0  0
  1  6  4  0  0  0
  2  3  4  0  0  0
  2 23  1  0  0  0
  3  4  4  0  0  0
  3  7  1  0  0  0
  4  5  4  0  0  0
  4 16  1  0  0  0
  5  6  4  0  0  0
  6 22  1  0  0  0
  7  8  1  0  0  0
  7 17  2  0  0  0
  8  9  2  0  0  0
  8 21  1  0  0  0
  9 10  1  0  0  0
  9 16  1  0  0  0
 10 11  4  0  0  0
 10 15  4  0  0  0
 11 12  4  0  0  0
 12 13  4  0  0  0
 12 20  1  0  0  0
 13 14  4  0  0  0
 13 19  1  0  0  0
 14 15  4  0  0  0
 14 18  1  0  0  0
  1 24  1  0  0  0
  5 25  1  0  0  0
 11 26  1  0  0  0
 15 27  1  0  0  0
 18 28  1  0  0  0
 19 29  1  0  0  0
 20 30  1  0  0  0
 21 31  1  0  0  0
 22 32  1  0  0  0
 23 33  1  0  0  0
M  END
$$$$
