1nok_ligand
  -I-interpret- 

 24 25  0  0  0  0  0  0  0  0999 V2000
   34.2220   22.6130   27.5810 C   0  0  0  0  0
   34.1850   23.0950   26.1230 C   0  0  0  0  0
   32.8880   22.5700   25.5160 C   0  0  0  0  0
   32.6040   21.1180   25.9260 C   0  0  0  0  0
   32.2920   20.9990   27.4650 C   0  0  0  0  0
   32.1480   19.5640   28.0230 C   0  0  0  0  0
   33.3500   21.6550   28.1260 N   0  0  0  0  0
   33.7280   21.5170   29.4530 N   0  0  0  0  0
   34.8110   22.3620   29.6840 N   0  0  0  0  0
   35.1390   23.0620   28.5180 N   0  0  0  0  0
   34.3020   24.5200   25.9540 O   0  0  0  0  0
   32.9400   22.5910   24.0970 O   0  0  0  0  0
   31.4940   20.6920   25.1650 O   0  0  0  0  0
   33.2270   18.7170   27.5520 O   0  0  0  0  0
   35.0641   22.7035   25.6111 H   0  0  0  0  0
   32.1024   23.2266   25.8900 H   0  0  0  0  0
   33.4791   20.4958   25.7387 H   0  0  0  0  0
   31.3109   21.4427   27.6341 H   0  0  0  0  0
   31.2002   19.1478   27.6817 H   0  0  0  0  0
   32.1834   19.6052   29.1116 H   0  0  0  0  0
   35.1256   24.8209   26.3447 H   0  0  0  0  0
   33.1166   23.4859   23.7976 H   0  0  0  0  0
   31.6991   20.7703   24.2304 H   0  0  0  0  0
   33.1178   17.8329   27.9098 H   0  0  0  0  0
  1  2  1  0  0  0
  7  1  4  0  0  0
  1 10  4  0  0  0
  3  2  1  0  0  0
  2 11  1  0  0  0
  4  3  1  0  0  0
  3 12  1  0  0  0
  5  4  1  0  0  0
  4 13  1  0  0  0
  6  5  1  0  0  0
  5  7  1  0  0  0
  6 14  1  0  0  0
  7  8  4  0  0  0
  8  9  4  0  0  0
  9 10  4  0  0  0
  2 15  1  0  0  0
  3 16  1  0  0  0
  4 17  1  0  0  0
  5 18  1  0  0  0
  6 19  1  0  0  0
  6 20  1  0  0  0
 11 21  1  0  0  0
 12 22  1  0  0  0
 13 23  1  0  0  0
 14 24  1  0  0  0
M  END
$$$$
