6g37_ligand
  -I-interpret- 

 33 35  0  0  0  0  0  0  0  0999 V2000
   10.6680   12.2440   10.6040 F   0  0  0  0  0
   11.5030   11.8990   11.6120 C   0  0  0  0  0
   12.4250   10.8970   11.5930 C   0  0  0  0  0
   11.5640   12.5350   12.8760 C   0  0  0  0  0
   12.5770   11.8640   13.5900 C   0  0  0  0  0
   12.9440   12.1610   14.8440 N   0  0  0  0  0
   12.2630   13.1890   15.3630 C   0  0  0  0  0
   11.2920   13.9140   14.8020 N   0  0  0  0  0
   10.9060   13.5930   13.5530 C   0  0  0  0  0
    9.9300   14.3030   12.9990 N   0  0  0  0  0
   13.0940   10.8750   12.7960 N   0  0  0  0  0
   14.1650    9.9630   13.1900 C   0  0  0  0  0
   13.6750    8.7470   13.9780 C   0  0  0  0  0
   14.6930    8.3370   14.8920 O   0  0  0  0  0
   13.4320    7.7450   12.8500 C   0  0  0  0  0
   13.4640    6.3850   13.2970 O   0  0  0  0  0
   14.7830    9.4660   12.0180 O   0  0  0  0  0
   14.5910    8.0390   11.9060 C   0  0  0  0  0
   14.3940    7.6520   10.4610 C   0  0  0  0  0
   13.1890    8.1740    9.8970 O   0  0  0  0  0
   12.6048   10.2199   10.7579 H   0  0  0  0  0
   12.5373   13.4725   16.3791 H   0  0  0  0  0
    9.6251   14.0957   12.0480 H   0  0  0  0  0
    9.4852   15.0556   13.5245 H   0  0  0  0  0
   14.8399   10.5340   13.8276 H   0  0  0  0  0
   12.7912    8.8964   14.5982 H   0  0  0  0  0
   14.3878    7.5738   15.3879 H   0  0  0  0  0
   12.4453    7.8509   12.3990 H   0  0  0  0  0
   13.3063    5.8006   12.5518 H   0  0  0  0  0
   15.4468    7.4312   12.1999 H   0  0  0  0  0
   14.3357    6.5645   10.4155 H   0  0  0  0  0
   15.2290    8.0618    9.8927 H   0  0  0  0  0
   13.1191    7.8958    8.9808 H   0  0  0  0  0
  1  2  1  0  0  0
  2  3  4  0  0  0
  2  4  4  0  0  0
  3 11  4  0  0  0
  4  5  4  0  0  0
  4  9  4  0  0  0
  5  6  4  0  0  0
  5 11  4  0  0  0
  6  7  4  0  0  0
  7  8  4  0  0  0
  8  9  4  0  0  0
  9 10  1  0  0  0
 11 12  1  0  0  0
 12 13  1  0  0  0
 12 17  1  0  0  0
 13 14  1  0  0  0
 13 15  1  0  0  0
 15 16  1  0  0  0
 15 18  1  0  0  0
 17 18  1  0  0  0
 18 19  1  0  0  0
 19 20  1  0  0  0
  3 21  1  0  0  0
  7 22  1  0  0  0
 10 23  1  0  0  0
 10 24  1  0  0  0
 12 25  1  0  0  0
 13 26  1  0  0  0
 14 27  1  0  0  0
 15 28  1  0  0  0
 16 29  1  0  0  0
 18 30  1  0  0  0
 19 31  1  0  0  0
 19 32  1  0  0  0
 20 33  1  0  0  0
M  END
$$$$
