2v83_ligand
  -I-interpret- 

168167  0  0  0  0  0  0  0  0999 V2000
   13.4280   20.1910   34.9820 N   0  3  0  0  0
   12.6600   19.5020   33.8980 C   0  0  0  0  0
   12.4510   18.0410   34.2770 C   0  0  0  0  0
   13.2900   17.4350   34.9490 O   0  0  0  0  0
   13.4200   19.5920   32.5790 C   0  0  0  0  0
   11.3280   17.4680   33.8720 N   0  0  0  0  0
   11.0970   16.0740   34.1940 C   0  0  0  0  0
   11.7860   15.1920   33.1700 C   0  0  0  0  0
   11.7760   15.4760   31.9640 O   0  0  0  0  0
    9.6050   15.7810   34.2770 C   0  0  0  0  0
    8.9790   16.3000   35.5770 C   0  0  0  0  0
    9.7500   15.8120   36.8190 C   0  0  0  0  0
    8.9350   15.8860   38.0320 N   0  0  0  0  0
    8.6590   14.8460   38.8180 C   0  0  0  0  0
    9.1360   13.6400   38.5270 N   0  0  0  0  0
    7.8880   15.0050   39.8890 N   0  0  0  0  0
   12.4080   14.1290   33.6660 N   0  0  0  0  0
   13.1540   13.2160   32.8160 C   0  0  0  0  0
   12.8240   11.7630   33.1070 C   0  0  0  0  0
   12.1030   11.4520   34.0490 O   0  0  0  0  0
   14.6680   13.4160   33.0310 C   0  0  0  0  0
   14.9820   13.1580   34.4040 O   0  0  0  0  0
   15.0790   14.8530   32.7060 C   0  0  0  0  0
   13.3650   10.8810   32.2780 N   0  0  0  0  0
   13.1850    9.4440   32.4240 C   0  0  0  0  0
   12.2690    8.8850   31.3250 C   0  0  0  0  0
   10.8130    9.2970   31.4180 C   0  0  0  0  0
    9.9990    8.6780   30.2890 C   0  0  0  0  0
    8.5230    9.0900   30.3750 C   0  0  0  0  0
    7.5980    8.5330   29.3230 N   0  3  0  0  0
   14.5590    8.7930   32.3040 C   0  0  0  0  0
   15.4200    9.2610   31.5550 O   0  0  0  0  0
    7.6610    7.0340   29.3180 C   0  0  0  0  0
    6.2080    8.9660   29.6940 C   0  0  0  0  0
    7.9470    9.0370   27.9570 C   0  0  0  0  0
   14.7590    7.7160   33.0500 N   0  0  0  0  0
   16.0150    6.9860   33.0220 C   0  0  0  0  0
   17.2280    7.8600   33.3460 C   0  0  0  0  0
   18.3090    7.6620   32.8020 O   0  0  0  0  0
   16.1990    6.3340   31.6530 C   0  0  0  0  0
   15.0170    5.5030   31.2020 C   0  0  0  0  0
   14.6480    4.4000   32.1810 C   0  0  0  0  0
   15.4810    3.5670   32.5450 O   0  0  0  0  0
   13.3880    4.3820   32.6010 N   0  0  0  0  0
   17.0420    8.8310   34.2300 N   0  0  0  0  0
   18.1360    9.7010   34.6350 C   0  0  0  0  0
   18.5390    9.3250   36.0450 C   0  0  0  0  0
   19.4590    9.9060   36.6190 O   0  0  0  0  0
   17.7310   11.1770   34.6230 C   0  0  0  0  0
   16.3980   11.3140   35.1250 O   0  0  0  0  0
   17.8140   11.7290   33.2240 C   0  0  0  0  0
   17.8260    8.3520   36.6040 N   0  0  0  0  0
   18.1250    7.8860   37.9430 C   0  0  0  0  0
   19.4640    7.1680   37.9310 C   0  0  0  0  0
   19.7810    6.3680   37.0500 O   0  0  0  0  0
   17.0250    6.9610   38.4650 C   0  0  0  0  0
   20.2340    7.5190   38.9410 N   0  0  0  0  0
   21.5680    7.0450   39.2530 C   0  0  0  0  0
   21.5860    5.5850   39.7160 C   0  0  0  0  0
   21.0400    5.2700   40.7730 O   0  0  0  0  0
   22.0210    7.9130   40.3910 C   0  0  0  0  0
   20.7950    8.1950   41.2680 C   0  0  0  0  0
   20.3680    9.6220   41.1340 C   0  0  0  0  0
   21.3310   10.4010   41.8900 N   0  0  0  0  0
   21.7110   11.6390   41.6070 C   0  0  0  0  0
   22.6080   12.2290   42.3860 N   0  0  0  0  0
   21.2060   12.2820   40.5600 N   0  0  0  0  0
   22.2240    4.6980   38.9570 N   0  0  0  0  0
   22.3000    3.2920   39.3590 C   0  0  0  0  0
   23.4550    3.0840   40.3400 C   0  0  0  0  0
   24.4740    3.8020   40.2100 O   0  0  0  0  0
   22.4940    2.3930   38.1330 C   0  0  0  0  0
   23.2470    3.0680   36.9900 C   0  0  0  0  0
   24.2790    2.1440   36.3510 C   0  0  0  0  0
   23.7210    1.3620   35.1740 C   0  0  0  0  0
   23.7540    2.0990   33.8730 N   0  3  0  0  0
   23.3300    2.2000   41.2170 O   0  0  0  0  0
   12.9107   20.1245   35.8586 H   0  0  0  0  0
   14.3387   19.7442   35.0885 H   0  0  0  0  0
   13.5562   21.1723   34.7351 H   0  0  0  0  0
   11.6919   19.9885   33.7783 H   0  0  0  0  0
   14.3894   19.1053   32.6858 H   0  0  0  0  0
   12.8468   19.0952   31.7962 H   0  0  0  0  0
   13.5651   20.6397   32.3155 H   0  0  0  0  0
   10.6369   17.9990   33.3421 H   0  0  0  0  0
   11.5226   15.8554   35.1734 H   0  0  0  0  0
    9.4714   14.6996   34.2465 H   0  0  0  0  0
    9.1156   16.2837   33.4428 H   0  0  0  0  0
    7.9575   15.9246   35.6388 H   0  0  0  0  0
    9.0102   17.3894   35.5609 H   0  0  0  0  0
   10.6215   16.4527   36.9535 H   0  0  0  0  0
   10.0309   14.7710   36.6593 H   0  0  0  0  0
    8.5525   16.7947   38.2935 H   0  0  0  0  0
    9.7163   13.5073   37.6987 H   0  0  0  0  0
    7.6661   14.2046   40.4811 H   0  0  0  0  0
    7.5182   15.9274   40.1188 H   0  0  0  0  0
   12.3611   13.9485   34.6688 H   0  0  0  0  0
   12.8720   13.4398   31.7872 H   0  0  0  0  0
   15.2038   12.7326   32.3722 H   0  0  0  0  0
   15.9237   13.2809   34.5443 H   0  0  0  0  0
   14.8399   15.0714   31.6652 H   0  0  0  0  0
   14.5378   15.5402   33.3563 H   0  0  0  0  0
   16.1511   14.9678   32.8657 H   0  0  0  0  0
   13.9326   11.2248   31.5034 H   0  0  0  0  0
   12.7233    9.2322   33.3884 H   0  0  0  0  0
   12.2917    7.7997   31.4239 H   0  0  0  0  0
   12.6431    9.2774   30.3794 H   0  0  0  0  0
   10.7505   10.3824   31.3405 H   0  0  0  0  0
   10.4111    8.9507   32.3702 H   0  0  0  0  0
   10.0617    7.5929   30.3705 H   0  0  0  0  0
   10.4021    9.0276   29.3385 H   0  0  0  0  0
    8.5067   10.1720   30.2445 H   0  0  0  0  0
    8.1599    8.7033   31.3272 H   0  0  0  0  0
    8.6807    6.7152   29.1020 H   0  0  0  0  0
    7.3599    6.6557   30.2949 H   0  0  0  0  0
    6.9880    6.6459   28.5535 H   0  0  0  0  0
    5.9568    8.5721   30.6788 H   0  0  0  0  0
    6.1612   10.0548   29.7140 H   0  0  0  0  0
    5.5011    8.5841   28.9574 H   0  0  0  0  0
    7.8704   10.1242   27.9417 H   0  0  0  0  0
    8.9664    8.7398   27.7110 H   0  0  0  0  0
    7.2573    8.6126   27.2274 H   0  0  0  0  0
   14.0100    7.3904   33.6611 H   0  0  0  0  0
   15.9576    6.2271   33.8023 H   0  0  0  0  0
   17.0555    5.6639   31.7269 H   0  0  0  0  0
   16.3249    7.1372   30.9270 H   0  0  0  0  0
   15.2887    5.0288   30.2589 H   0  0  0  0  0
   14.1587    6.1696   31.1184 H   0  0  0  0  0
   13.0771    3.6593   33.2501 H   0  0  0  0  0
   12.7314    5.0909   32.2744 H   0  0  0  0  0
   16.1155    8.9705   34.6332 H   0  0  0  0  0
   18.9565    9.5718   33.9292 H   0  0  0  0  0
   18.4147   11.7381   35.2601 H   0  0  0  0  0
   16.1475   12.2407   35.1160 H   0  0  0  0  0
   18.8367   11.6364   32.8583 H   0  0  0  0  0
   17.1421   11.1692   32.5734 H   0  0  0  0  0
   17.5231   12.7794   33.2314 H   0  0  0  0  0
   17.0583    7.9279   36.0833 H   0  0  0  0  0
   18.1755    8.7440   38.6134 H   0  0  0  0  0
   16.0783    7.5008   38.4873 H   0  0  0  0  0
   16.9364    6.0966   37.8070 H   0  0  0  0  0
   17.2789    6.6285   39.4715 H   0  0  0  0  0
   19.8433    8.2093   39.5823 H   0  0  0  0  0
   22.2030    7.0952   38.3685 H   0  0  0  0  0
   22.4451    8.8444   40.0160 H   0  0  0  0  0
   22.7972    7.4114   40.9689 H   0  0  0  0  0
   21.0533    8.0002   42.3089 H   0  0  0  0  0
   19.9765    7.5502   40.9481 H   0  0  0  0  0
   19.3568    9.7686   41.5137 H   0  0  0  0  0
   20.3446    9.9303   40.0888 H   0  0  0  0  0
   21.7507    9.9589   42.7078 H   0  0  0  0  0
   22.9938   11.7304   43.1878 H   0  0  0  0  0
   21.5077   13.2339   40.3520 H   0  0  0  0  0
   20.5165   11.8238   39.9641 H   0  0  0  0  0
   22.6639    4.9999   38.0877 H   0  0  0  0  0
   21.3634    3.0238   39.8479 H   0  0  0  0  0
   24.3465    4.4065   39.4752 H   0  0  0  0  0
   21.5035    2.1312   37.7609 H   0  0  0  0  0
   23.0847    1.5333   38.4495 H   0  0  0  0  0
   23.7724    3.9327   37.3954 H   0  0  0  0  0
   22.5220    3.3456   36.2249 H   0  0  0  0  0
   24.5980    1.4266   37.1071 H   0  0  0  0  0
   25.0977    2.7622   35.9828 H   0  0  0  0  0
   22.6749    1.1513   35.3964 H   0  0  0  0  0
   24.3427    0.4746   35.0553 H   0  0  0  0  0
   23.3640    1.5080   33.1388 H   0  0  0  0  0
   23.2016    2.9527   33.9531 H   0  0  0  0  0
   24.7187    2.3371   33.6429 H   0  0  0  0  0
  1  2  1  0  0  0
  2  3  1  0  0  0
  2  5  1  0  0  0
  3  4  2  0  0  0
  3  6  1  0  0  0
  6  7  1  0  0  0
  7  8  1  0  0  0
  7 10  1  0  0  0
  8  9  2  0  0  0
  8 17  1  0  0  0
 10 11  1  0  0  0
 11 12  1  0  0  0
 12 13  1  0  0  0
 13 14  1  0  0  0
 14 15  2  0  0  0
 14 16  1  0  0  0
 17 18  1  0  0  0
 18 19  1  0  0  0
 18 21  1  0  0  0
 19 20  2  0  0  0
 19 24  1  0  0  0
 21 22  1  0  0  0
 21 23  1  0  0  0
 24 25  1  0  0  0
 25 26  1  0  0  0
 25 31  1  0  0  0
 26 27  1  0  0  0
 27 28  1  0  0  0
 28 29  1  0  0  0
 29 30  1  0  0  0
 30 33  1  0  0  0
 30 34  1  0  0  0
 30 35  1  0  0  0
 31 32  2  0  0  0
 31 36  1  0  0  0
 36 37  1  0  0  0
 37 38  1  0  0  0
 37 40  1  0  0  0
 38 39  2  0  0  0
 38 45  1  0  0  0
 40 41  1  0  0  0
 41 42  1  0  0  0
 42 43  2  0  0  0
 42 44  1  0  0  0
 45 46  1  0  0  0
 46 47  1  0  0  0
 46 49  1  0  0  0
 47 48  2  0  0  0
 47 52  1  0  0  0
 49 50  1  0  0  0
 49 51  1  0  0  0
 52 53  1  0  0  0
 53 54  1  0  0  0
 53 56  1  0  0  0
 54 55  2  0  0  0
 54 57  1  0  0  0
 57 58  1  0  0  0
 58 59  1  0  0  0
 58 61  1  0  0  0
 59 60  2  0  0  0
 59 68  1  0  0  0
 61 62  1  0  0  0
 62 63  1  0  0  0
 63 64  1  0  0  0
 64 65  1  0  0  0
 65 66  2  0  0  0
 65 67  1  0  0  0
 68 69  1  0  0  0
 69 70  1  0  0  0
 69 72  1  0  0  0
 70 71  1  0  0  0
 70 77  2  0  0  0
 72 73  1  0  0  0
 73 74  1  0  0  0
 74 75  1  0  0  0
 75 76  1  0  0  0
  1 78  1  0  0  0
  1 79  1  0  0  0
  1 80  1  0  0  0
  2 81  1  0  0  0
  5 82  1  0  0  0
  5 83  1  0  0  0
  5 84  1  0  0  0
  6 85  1  0  0  0
  7 86  1  0  0  0
 10 87  1  0  0  0
 10 88  1  0  0  0
 11 89  1  0  0  0
 11 90  1  0  0  0
 12 91  1  0  0  0
 12 92  1  0  0  0
 13 93  1  0  0  0
 15 94  1  0  0  0
 16 95  1  0  0  0
 16 96  1  0  0  0
 17 97  1  0  0  0
 18 98  1  0  0  0
 21 99  1  0  0  0
 22100  1  0  0  0
 23101  1  0  0  0
 23102  1  0  0  0
 23103  1  0  0  0
 24104  1  0  0  0
 25105  1  0  0  0
 26106  1  0  0  0
 26107  1  0  0  0
 27108  1  0  0  0
 27109  1  0  0  0
 28110  1  0  0  0
 28111  1  0  0  0
 29112  1  0  0  0
 29113  1  0  0  0
 33114  1  0  0  0
 33115  1  0  0  0
 33116  1  0  0  0
 34117  1  0  0  0
 34118  1  0  0  0
 34119  1  0  0  0
 35120  1  0  0  0
 35121  1  0  0  0
 35122  1  0  0  0
 36123  1  0  0  0
 37124  1  0  0  0
 40125  1  0  0  0
 40126  1  0  0  0
 41127  1  0  0  0
 41128  1  0  0  0
 44129  1  0  0  0
 44130  1  0  0  0
 45131  1  0  0  0
 46132  1  0  0  0
 49133  1  0  0  0
 50134  1  0  0  0
 51135  1  0  0  0
 51136  1  0  0  0
 51137  1  0  0  0
 52138  1  0  0  0
 53139  1  0  0  0
 56140  1  0  0  0
 56141  1  0  0  0
 56142  1  0  0  0
 57143  1  0  0  0
 58144  1  0  0  0
 61145  1  0  0  0
 61146  1  0  0  0
 62147  1  0  0  0
 62148  1  0  0  0
 63149  1  0  0  0
 63150  1  0  0  0
 64151  1  0  0  0
 66152  1  0  0  0
 67153  1  0  0  0
 67154  1  0  0  0
 68155  1  0  0  0
 69156  1  0  0  0
 71157  1  0  0  0
 72158  1  0  0  0
 72159  1  0  0  0
 73160  1  0  0  0
 73161  1  0  0  0
 74162  1  0  0  0
 74163  1  0  0  0
 75164  1  0  0  0
 75165  1  0  0  0
 76166  1  0  0  0
 76167  1  0  0  0
 76168  1  0  0  0
M  END
$$$$
