### 
### Created by X-TOOL on Mon Sep 10 21:12:55 2018
### 

@<TRIPOS>MOLECULE
2v83_ligand
  169   168     1     0     0
SMALL
GAST_HUCK


@<TRIPOS>ATOM
      1 N          13.4280   20.1910   34.9820 N.4       1 ALA         0.2377
      2 CA         12.6600   19.5020   33.8980 C.3       1 ALA         0.0621
      3 C          12.4510   18.0410   34.2770 C.2       1 ALA         0.2264
      4 O          13.2900   17.4350   34.9490 O.2       1 ALA        -0.3907
      5 CB         13.4200   19.5920   32.5790 C.3       1 ALA        -0.0040
      6 N          11.3280   17.4680   33.8720 N.am      1 ARG        -0.2610
      7 CA         11.0970   16.0740   34.1940 C.3       1 ARG         0.1312
      8 C          11.7860   15.1920   33.1700 C.2       1 ARG         0.2040
      9 O          11.7760   15.4760   31.9640 O.2       1 ARG        -0.3944
     10 CB          9.6050   15.7810   34.2770 C.3       1 ARG        -0.0092
     11 CG          8.9790   16.3000   35.5770 C.3       1 ARG        -0.0156
     12 CD          9.7500   15.8120   36.8190 C.3       1 ARG         0.0627
     13 NE          8.9350   15.8860   38.0320 N.pl3     1 ARG        -0.2723
     14 CZ          8.6590   14.8460   38.8180 C.cat     1 ARG         0.2882
     15 NH1         9.1360   13.6400   38.5270 N.pl3     1 ARG        -0.2849
     16 NH2         7.8880   15.0050   39.8890 N.pl3     1 ARG        -0.2849
     17 N          12.4080   14.1290   33.6660 N.am      1 THR        -0.2613
     18 CA         13.1540   13.2160   32.8160 C.3       1 THR         0.1565
     19 C          12.8240   11.7630   33.1070 C.2       1 THR         0.2065
     20 O          12.1030   11.4520   34.0490 O.2       1 THR        -0.3943
     21 CB         14.6680   13.4160   33.0310 C.3       1 THR         0.0924
     22 OG1        14.9820   13.1580   34.4040 O.3       1 THR        -0.3874
     23 CG2        15.0790   14.8530   32.7060 C.3       1 THR        -0.0346
     24 N          13.3650   10.8810   32.2780 N.am      1 M3L        -0.2637
     25 CA         13.1850    9.4440   32.4240 C.3       1 M3L         0.1310
     26 CB         12.2690    8.8850   31.3250 C.3       1 M3L        -0.0122
     27 CG         10.8130    9.2970   31.4180 C.3       1 M3L        -0.0440
     28 CD          9.9990    8.6780   30.2890 C.3       1 M3L        -0.0123
     29 CE          8.5230    9.0900   30.3750 C.3       1 M3L        -0.0309
     30 NZ          7.5980    8.5330   29.3230 N.4       1 M3L         0.2369
     31 C          14.5590    8.7930   32.3040 C.2       1 M3L         0.2039
     32 O          15.4200    9.2610   31.5550 O.2       1 M3L        -0.3944
     33 CM1         7.6610    7.0340   29.3180 C.3       1 M3L        -0.0418
     34 CM2         6.2080    8.9660   29.6940 C.3       1 M3L        -0.0418
     35 CM3         7.9470    9.0370   27.9570 C.3       1 M3L        -0.0418
     36 N          14.7590    7.7160   33.0500 N.am      1 GLN        -0.2636
     37 CA         16.0150    6.9860   33.0220 C.3       1 GLN         0.1330
     38 C          17.2280    7.8600   33.3460 C.2       1 GLN         0.2041
     39 O          18.3090    7.6620   32.8020 O.2       1 GLN        -0.3944
     40 CB         16.1990    6.3340   31.6530 C.3       1 GLN         0.0045
     41 CG         15.0170    5.5030   31.2020 C.3       1 GLN         0.0412
     42 CD         14.6480    4.4000   32.1810 C.2       1 GLN         0.1737
     43 OE1        15.4810    3.5670   32.5450 O.2       1 GLN        -0.3973
     44 NE2        13.3880    4.3820   32.6010 N.am      1 GLN        -0.3009
     45 N          17.0420    8.8310   34.2300 N.am      1 THR        -0.2613
     46 CA         18.1360    9.7010   34.6350 C.3       1 THR         0.1565
     47 C          18.5390    9.3250   36.0450 C.2       1 THR         0.2065
     48 O          19.4590    9.9060   36.6190 O.2       1 THR        -0.3943
     49 CB         17.7310   11.1770   34.6230 C.3       1 THR         0.0924
     50 OG1        16.3980   11.3140   35.1250 O.3       1 THR        -0.3874
     51 CG2        17.8140   11.7290   33.2240 C.3       1 THR        -0.0346
     52 N          17.8260    8.3520   36.6040 N.am      1 ALA        -0.2639
     53 CA         18.1250    7.8860   37.9430 C.3       1 ALA         0.1282
     54 C          19.4640    7.1680   37.9310 C.2       1 ALA         0.2036
     55 O          19.7810    6.3680   37.0500 O.2       1 ALA        -0.3944
     56 CB         17.0250    6.9610   38.4650 C.3       1 ALA        -0.0244
     57 N          20.2340    7.5190   38.9410 N.am      1 ARG        -0.2637
     58 CA         21.5680    7.0450   39.2530 C.3       1 ARG         0.1310
     59 C          21.5860    5.5850   39.7160 C.2       1 ARG         0.2033
     60 O          21.0400    5.2700   40.7730 O.2       1 ARG        -0.3944
     61 CB         22.0210    7.9130   40.3910 C.3       1 ARG        -0.0092
     62 CG         20.7950    8.1950   41.2680 C.3       1 ARG        -0.0156
     63 CD         20.3680    9.6220   41.1340 C.3       1 ARG         0.0627
     64 NE         21.3310   10.4010   41.8900 N.pl3     1 ARG        -0.2723
     65 CZ         21.7110   11.6390   41.6070 C.cat     1 ARG         0.2882
     66 NH1        22.6080   12.2290   42.3860 N.pl3     1 ARG        -0.2849
     67 NH2        21.2060   12.2820   40.5600 N.pl3     1 ARG        -0.2849
     68 N          22.2240    4.6980   38.9570 N.am      1 LYS        -0.2695
     69 CA         22.3000    3.2920   39.3590 C.3       1 LYS         0.0944
     70 C          23.4550    3.0840   40.3400 C.2       1 LYS         0.0601
     71 O          24.4740    3.8020   40.2100 O.co2     1 LYS        -0.5666
     72 CB         22.4940    2.3930   38.1330 C.3       1 LYS        -0.0177
     73 CG         23.2470    3.0680   36.9900 C.3       1 LYS        -0.0446
     74 CD         24.2790    2.1440   36.3510 C.3       1 LYS        -0.0125
     75 CE         23.7210    1.3620   35.1740 C.3       1 LYS        -0.0354
     76 NZ         23.7540    2.0990   33.8730 N.4       1 LYS         0.2185
     77 OXT        23.3300    2.2000   41.2170 O.co2     1 LYS        -0.5666
     78 H1         13.5671   21.1577   34.7328 H         1 ALA         0.2015
     79 H2         14.3229   19.7417   35.0975 H         1 ALA         0.2015
     80 H3         12.9113   20.1378   35.8458 H         1 ALA         0.2015
     81 H4         11.6809   19.9899   33.7827 H         1 ALA         0.1095
     82 H5         12.8469   19.0828   31.7902 H         1 ALA         0.0310
     83 H6         14.4024   19.1093   32.6881 H         1 ALA         0.0310
     84 H7         13.5589   20.6488   32.3072 H         1 ALA         0.0310
     85 H8         10.6505   17.9886   33.3525 H         1 ARG         0.1884
     86 H9         11.5396   15.8670   35.1795 H         1 ARG         0.0800
     87 H10         9.4551   14.6926   34.2227 H         1 ARG         0.0313
     88 H11         9.1023   16.2633   33.4257 H         1 ARG         0.0313
     89 H12         7.9406   15.9425   35.6395 H         1 ARG         0.0301
     90 H13         8.9879   17.3999   35.5620 H         1 ARG         0.0301
     91 H14        10.6434   16.4398   36.9522 H         1 ARG         0.0689
     92 H15        10.0562   14.7676   36.6597 H         1 ARG         0.0689
     93 H16         8.5487   16.8036   38.2960 H         1 ARG         0.2642
     94 H17         8.9197   12.8394   39.1379 H         1 ARG         0.2615
     95 H18         9.7220   13.5060   37.6906 H         1 ARG         0.2615
     96 H19         7.5146   15.9365   40.1211 H         1 ARG         0.2615
     97 H20         7.6640   14.1968   40.4869 H         1 ARG         0.2615
     98 H21        12.3621   13.9521   34.6492 H         1 THR         0.1884
     99 H22        12.9042   13.4336   31.7671 H         1 THR         0.0826
    100 H23        15.2228   12.7207   32.3839 H         1 THR         0.0639
    101 H24        14.7425   12.2644   34.6199 H         1 THR         0.2101
    102 H25        16.1609   14.9702   32.8668 H         1 THR         0.0257
    103 H26        14.5336   15.5476   33.3617 H         1 THR         0.0257
    104 H27        14.8383   15.0746   31.6558 H         1 THR         0.0257
    105 H28        13.9215   11.2180   31.5186 H         1 M3L         0.1883
    106 H29        12.7480    9.2245   33.4093 H         1 M3L         0.0800
    107 H30        12.3143    7.7869   31.3719 H         1 M3L         0.0312
    108 H31        12.6567    9.2269   30.3540 H         1 M3L         0.0312
    109 H32        10.7440   10.3929   31.3526 H         1 M3L         0.0269
    110 H33        10.4046    8.9608   32.3824 H         1 M3L         0.0269
    111 H34        10.0696    7.5823   30.3553 H         1 M3L         0.0317
    112 H35        10.4093    9.0142   29.3254 H         1 M3L         0.0317
    113 H36         8.4796   10.1871   30.3087 H         1 M3L         0.0815
    114 H37         8.1441    8.7667   31.3557 H         1 M3L         0.0815
    115 H38         6.9822    6.6411   28.5468 H         1 M3L         0.0778
    116 H39         7.3573    6.6509   30.3034 H         1 M3L         0.0778
    117 H40         8.6897    6.7109   29.1001 H         1 M3L         0.0778
    118 H41         6.1554   10.0647   29.6994 H         1 M3L         0.0778
    119 H42         5.9591    8.5821   30.6943 H         1 M3L         0.0778
    120 H43         5.4918    8.5683   28.9599 H         1 M3L         0.0778
    121 H44         8.9658    8.7142   27.6963 H         1 M3L         0.0778
    122 H45         7.8969   10.1358   27.9477 H         1 M3L         0.0778
    123 H46         7.2349    8.6312   27.2234 H         1 M3L         0.0778
    124 H47        14.0247    7.3967   33.6491 H         1 GLN         0.1883
    125 H48        15.9600    6.1926   33.7819 H         1 GLN         0.0801
    126 H49        17.0836    5.6816   31.6968 H         1 GLN         0.0337
    127 H50        16.3659    7.1288   30.9111 H         1 GLN         0.0337
    128 H51        15.2633    5.0424   30.2339 H         1 GLN         0.0504
    129 H52        14.1488    6.1676   31.0816 H         1 GLN         0.0504
    130 H53        13.0859    3.6799   33.2458 H         1 GLN         0.1814
    131 H54        12.7415    5.0705   32.2724 H         1 GLN         0.1814
    132 H55        16.1337    8.9678   34.6253 H         1 THR         0.1884
    133 H56        18.9855    9.5554   33.9515 H         1 THR         0.0826
    134 H57        18.4179   11.7418   35.2704 H         1 THR         0.0639
    135 H58        16.1501   12.2311   35.1161 H         1 THR         0.2101
    136 H59        17.5206   12.7891   33.2301 H         1 THR         0.0257
    137 H60        17.1363   11.1649   32.5664 H         1 THR         0.0257
    138 H61        18.8457   11.6362   32.8538 H         1 THR         0.0257
    139 H62        17.0733    7.9362   36.0935 H         1 ALA         0.1883
    140 H63        18.1942    8.7561   38.6124 H         1 ALA         0.0797
    141 H64        17.2801    6.6248   39.4808 H         1 ALA         0.0277
    142 H65        16.9346    6.0881   37.8018 H         1 ALA         0.0277
    143 H66        16.0690    7.5047   38.4880 H         1 ALA         0.0277
    144 H67        19.8510    8.1957   39.5698 H         1 ARG         0.1883
    145 H68        22.2269    7.1607   38.3798 H         1 ARG         0.0800
    146 H69        22.4314    8.8572   40.0036 H         1 ARG         0.0313
    147 H70        22.7914    7.3917   40.9781 H         1 ARG         0.0313
    148 H71        21.0477    7.9906   42.3189 H         1 ARG         0.0301
    149 H72        19.9686    7.5397   40.9554 H         1 ARG         0.0301
    150 H73        19.3576    9.7589   41.5467 H         1 ARG         0.0689
    151 H74        20.3765    9.9257   40.0768 H         1 ARG         0.0689
    152 H75        21.7548    9.9545   42.7158 H         1 ARG         0.2642
    153 H76        22.9149   13.1906   42.1812 H         1 ARG         0.2615
    154 H77        22.9976   11.7255   43.1957 H         1 ARG         0.2615
    155 H78        20.5097   11.8193   39.9583 H         1 ARG         0.2615
    156 H79        21.5107   13.2432   40.3499 H         1 ARG         0.2615
    157 H80        22.6553    4.9940   38.1047 H         1 LYS         0.1875
    158 H81        21.3581    3.0158   39.8554 H         1 LYS         0.0726
    159 H82        21.5030    2.0896   37.7645 H         1 LYS         0.0305
    160 H83        23.0590    1.5013   38.4422 H         1 LYS         0.0305
    161 H84        23.7629    3.9567   37.3824 H         1 LYS         0.0269
    162 H85        22.5224    3.3742   36.2212 H         1 LYS         0.0269
    163 H86        24.6309    1.4312   37.1113 H         1 LYS         0.0317
    164 H87        25.1252    2.7523   35.9991 H         1 LYS         0.0317
    165 H88        22.6753    1.1037   35.3969 H         1 LYS         0.0813
    166 H89        24.3107    0.4401   35.0625 H         1 LYS         0.0813
    167 H90        23.3688    1.5158   33.1466 H         1 LYS         0.1994
    168 H91        24.7070    2.3349   33.6445 H         1 LYS         0.1994
    169 H92        23.2084    2.9430   33.9510 H         1 LYS         0.1994
@<TRIPOS>BOND
     1    1    2 1  
     2    2    3 1  
     3    2    5 1  
     4    3    4 2  
     5    3    6 am 
     6    6    7 1  
     7    7    8 1  
     8    7   10 1  
     9    8    9 2  
    10    8   17 am 
    11   10   11 1  
    12   11   12 1  
    13   12   13 1  
    14   13   14 ar 
    15   14   15 ar 
    16   14   16 ar 
    17   17   18 1  
    18   18   19 1  
    19   18   21 1  
    20   19   20 2  
    21   19   24 am 
    22   21   22 1  
    23   21   23 1  
    24   24   25 1  
    25   25   26 1  
    26   25   31 1  
    27   26   27 1  
    28   27   28 1  
    29   28   29 1  
    30   29   30 1  
    31   30   33 1  
    32   30   34 1  
    33   30   35 1  
    34   31   32 2  
    35   31   36 am 
    36   36   37 1  
    37   37   38 1  
    38   37   40 1  
    39   38   39 2  
    40   38   45 am 
    41   40   41 1  
    42   41   42 1  
    43   42   43 2  
    44   42   44 am 
    45   45   46 1  
    46   46   47 1  
    47   46   49 1  
    48   47   48 2  
    49   47   52 am 
    50   49   50 1  
    51   49   51 1  
    52   52   53 1  
    53   53   54 1  
    54   53   56 1  
    55   54   55 2  
    56   54   57 am 
    57   57   58 1  
    58   58   59 1  
    59   58   61 1  
    60   59   60 2  
    61   59   68 am 
    62   61   62 1  
    63   62   63 1  
    64   63   64 1  
    65   64   65 ar 
    66   65   66 ar 
    67   65   67 ar 
    68   68   69 1  
    69   69   70 1  
    70   69   72 1  
    71   70   71 ar 
    72   70   77 ar 
    73   72   73 1  
    74   73   74 1  
    75   74   75 1  
    76   75   76 1  
    77    1   78 1  
    78    1   79 1  
    79    1   80 1  
    80    2   81 1  
    81    5   82 1  
    82    5   83 1  
    83    5   84 1  
    84    6   85 1  
    85    7   86 1  
    86   10   87 1  
    87   10   88 1  
    88   11   89 1  
    89   11   90 1  
    90   12   91 1  
    91   12   92 1  
    92   13   93 1  
    93   15   94 1  
    94   15   95 1  
    95   16   96 1  
    96   16   97 1  
    97   17   98 1  
    98   18   99 1  
    99   21  100 1  
   100   22  101 1  
   101   23  102 1  
   102   23  103 1  
   103   23  104 1  
   104   24  105 1  
   105   25  106 1  
   106   26  107 1  
   107   26  108 1  
   108   27  109 1  
   109   27  110 1  
   110   28  111 1  
   111   28  112 1  
   112   29  113 1  
   113   29  114 1  
   114   33  115 1  
   115   33  116 1  
   116   33  117 1  
   117   34  118 1  
   118   34  119 1  
   119   34  120 1  
   120   35  121 1  
   121   35  122 1  
   122   35  123 1  
   123   36  124 1  
   124   37  125 1  
   125   40  126 1  
   126   40  127 1  
   127   41  128 1  
   128   41  129 1  
   129   44  130 1  
   130   44  131 1  
   131   45  132 1  
   132   46  133 1  
   133   49  134 1  
   134   50  135 1  
   135   51  136 1  
   136   51  137 1  
   137   51  138 1  
   138   52  139 1  
   139   53  140 1  
   140   56  141 1  
   141   56  142 1  
   142   56  143 1  
   143   57  144 1  
   144   58  145 1  
   145   61  146 1  
   146   61  147 1  
   147   62  148 1  
   148   62  149 1  
   149   63  150 1  
   150   63  151 1  
   151   64  152 1  
   152   66  153 1  
   153   66  154 1  
   154   67  155 1  
   155   67  156 1  
   156   68  157 1  
   157   69  158 1  
   158   72  159 1  
   159   72  160 1  
   160   73  161 1  
   161   73  162 1  
   162   74  163 1  
   163   74  164 1  
   164   75  165 1  
   165   75  166 1  
   166   76  167 1  
   167   76  168 1  
   168   76  169 1  
@<TRIPOS>SUBSTRUCTURE
     1 ALA         1

