### 
### Created by X-TOOL on Sun Sep  9 21:51:15 2018
### 

@<TRIPOS>MOLECULE
2wyi_ligand
   27    28     1     0     0
SMALL
GAST_HUCK


@<TRIPOS>ATOM
      1 C1          7.1940  -33.7210   -3.0740 C.3       1 NON         0.0420
      2 O1          7.7380  -34.2600   -1.8730 O.3       1 NON        -0.3935
      3 C3          7.1300  -34.8400   -4.1200 C.3       1 NON        -0.0446
      4 N4          6.3970  -34.4460   -5.3610 N.4       1 NON         0.4103
      5 C5          5.7490  -33.1240   -5.3220 C.3       1 NON        -0.1122
      6 C6          4.9140  -32.9860   -4.0450 C.3       1 NON        -0.0695
      7 C2          5.7840  -33.1690   -2.7870 C.3       1 NON        -0.0303
      8 C9          7.3010  -34.6240   -6.5090 C.3       1 NON        -0.0833
      9 C8          8.2810  -35.7110   -6.0540 C.3       1 NON         0.0612
     10 O13         9.5120  -35.6170   -6.7770 O.3       1 NON        -0.3913
     11 C7          8.5010  -35.4320   -4.5570 C.3       1 NON         0.0659
     12 O11         9.6230  -34.5680   -4.3090 O.3       1 NON        -0.3910
     13 H           7.8163  -32.9088   -3.4498 H         1 NON         0.0576
     14 H           8.6191  -34.5995   -2.0463 H         1 NON         0.2097
     15 H           6.5848  -35.6133   -3.5788 H         1 NON         0.0104
     16 H           5.0972  -33.0188   -6.1893 H         1 NON         0.0017
     17 H           6.5153  -32.3489   -5.3344 H         1 NON         0.0017
     18 H           4.1426  -33.7561   -4.0492 H         1 NON         0.0246
     19 H           4.4757  -31.9883   -4.0224 H         1 NON         0.0246
     20 H           5.9081  -32.1853   -2.3341 H         1 NON         0.0289
     21 H           5.2782  -33.8917   -2.1467 H         1 NON         0.0289
     22 H           7.8104  -33.6985   -6.7777 H         1 NON         0.0043
     23 H           6.7641  -34.9082   -7.4140 H         1 NON         0.0043
     24 H           7.8985  -36.7158   -6.2334 H         1 NON         0.0598
     25 H          10.1109  -36.3051   -6.4778 H         1 NON         0.2098
     26 H           8.7707  -36.3177   -3.9818 H         1 NON         0.0601
     27 H           9.7145  -34.4275   -3.3637 H         1 NON         0.2098
@<TRIPOS>BOND
     1    1    2 1  
     2    1    3 1  
     3    1    7 1  
     4    3    4 1  
     5    3   11 1  
     6    4    5 1  
     7    4    8 1  
     8    5    6 1  
     9    6    7 1  
    10    8    9 1  
    11    9   10 1  
    12    9   11 1  
    13   11   12 1  
    14    1   13 1  
    15    2   14 1  
    16    3   15 1  
    17    5   16 1  
    18    5   17 1  
    19    6   18 1  
    20    6   19 1  
    21    7   20 1  
    22    7   21 1  
    23    8   22 1  
    24    8   23 1  
    25    9   24 1  
    26   10   25 1  
    27   11   26 1  
    28   12   27 1  
@<TRIPOS>SUBSTRUCTURE
     1 NON         1

