2wyi_ligand
  -I-interpret- 

 28 29  0  0  0  0  0  0  0  0999 V2000
    7.1940  -33.7210   -3.0740 C   0  0  0  0  0
    7.7380  -34.2600   -1.8730 O   0  0  0  0  0
    7.1300  -34.8400   -4.1200 C   0  0  0  0  0
    6.3970  -34.4460   -5.3610 N   0  3  0  0  0
    5.7490  -33.1240   -5.3220 C   0  0  0  0  0
    4.9140  -32.9860   -4.0450 C   0  0  0  0  0
    5.7840  -33.1690   -2.7870 C   0  0  0  0  0
    7.3010  -34.6240   -6.5090 C   0  0  0  0  0
    8.2810  -35.7110   -6.0540 C   0  0  0  0  0
    9.5120  -35.6170   -6.7770 O   0  0  0  0  0
    8.5010  -35.4320   -4.5570 C   0  0  0  0  0
    9.6230  -34.5680   -4.3090 O   0  0  0  0  0
    7.8163  -32.9088   -3.4498 H   0  0  0  0  0
    8.6167  -34.6050   -2.0477 H   0  0  0  0  0
    6.5848  -35.6133   -3.5788 H   0  0  0  0  0
    5.5929  -35.0666   -5.4543 H   0  0  0  0  0
    5.0972  -33.0188   -6.1893 H   0  0  0  0  0
    6.5153  -32.3489   -5.3344 H   0  0  0  0  0
    4.1426  -33.7561   -4.0492 H   0  0  0  0  0
    4.4757  -31.9883   -4.0224 H   0  0  0  0  0
    5.9081  -32.1853   -2.3341 H   0  0  0  0  0
    5.2782  -33.8917   -2.1467 H   0  0  0  0  0
    7.8104  -33.6985   -6.7777 H   0  0  0  0  0
    6.7641  -34.9082   -7.4140 H   0  0  0  0  0
    7.8985  -36.7158   -6.2334 H   0  0  0  0  0
   10.1109  -36.3051   -6.4778 H   0  0  0  0  0
    8.7707  -36.3177   -3.9818 H   0  0  0  0  0
    9.7145  -34.4275   -3.3637 H   0  0  0  0  0
  1  2  1  0  0  0
  1  3  1  0  0  0
  1  7  1  0  0  0
  3  4  1  0  0  0
  3 11  1  0  0  0
  4  5  1  0  0  0
  4  8  1  0  0  0
  5  6  1  0  0  0
  6  7  1  0  0  0
  8  9  1  0  0  0
  9 10  1  0  0  0
  9 11  1  0  0  0
 11 12  1  0  0  0
  1 13  1  0  0  0
  2 14  1  0  0  0
  3 15  1  0  0  0
  4 16  1  0  0  0
  5 17  1  0  0  0
  5 18  1  0  0  0
  6 19  1  0  0  0
  6 20  1  0  0  0
  7 21  1  0  0  0
  7 22  1  0  0  0
  8 23  1  0  0  0
  8 24  1  0  0  0
  9 25  1  0  0  0
 10 26  1  0  0  0
 11 27  1  0  0  0
 12 28  1  0  0  0
M  END
$$$$
