### 
### Created by X-TOOL on Mon Sep 10 21:13:03 2018
### 

@<TRIPOS>MOLECULE
3kn0_ligand
   47    49     1     0     0
SMALL
GAST_HUCK


@<TRIPOS>ATOM
      1 C1         22.0640   13.0650   24.7090 C.ar      1 3TO        -0.0554
      2 N1         22.8530   11.0020   25.6470 N.ar      1 3TO        -0.2937
      3 O1         30.0320   10.5220   22.2070 O.3       1 3TO        -0.2709
      4 C2         22.7520   12.3500   25.7180 C.ar      1 3TO        -0.0120
      5 N2         22.4330    8.9260   24.5940 N.pl3     1 3TO        -0.3249
      6 C3         22.2990   10.2510   24.6050 C.ar      1 3TO         0.1115
      7 N3         27.1590   11.0080   20.5200 N.4       1 3TO         0.4128
      8 C4         21.5950   10.9310   23.5650 C.ar      1 3TO         0.0053
      9 C5         21.4890   12.3430   23.6370 C.ar      1 3TO        -0.0524
     10 C6         20.9650   10.1850   22.3940 C.3       1 3TO        -0.0067
     11 C7         22.0360    9.5190   21.4740 C.3       1 3TO        -0.0117
     12 C8         22.7890   10.5310   20.6120 C.ar      1 3TO        -0.0481
     13 C9         24.1710   10.3260   20.3520 C.ar      1 3TO        -0.0610
     14 C10        24.8960   11.2560   19.5540 C.ar      1 3TO        -0.0697
     15 C11        24.2390   12.3980   19.0120 C.ar      1 3TO        -0.0692
     16 C12        22.8550   12.6080   19.2690 C.ar      1 3TO        -0.0753
     17 C13        22.1300   11.6750   20.0680 C.ar      1 3TO        -0.0671
     18 C14        26.3650   11.0320   19.2800 C.3       1 3TO        -0.0754
     19 C15        29.0830    9.8570   21.4970 C.2       1 3TO         0.0755
     20 C16        28.4780   10.4220   20.2360 C.3       1 3TO        -0.0433
     21 C17        28.7620    8.6750   22.0390 C.2       1 3TO        -0.0726
     22 C18        29.5820    8.5550   23.2180 C.2       1 3TO        -0.0809
     23 C19        30.3080    9.6790   23.2590 C.2       1 3TO         0.0668
     24 C20        27.3070   12.3730   21.0600 C.3       1 3TO        -0.1200
     25 H          21.9788   14.1506   24.7569 H         1 3TO         0.0578
     26 H          23.2015   12.8858   26.5540 H         1 3TO         0.0717
     27 H          22.9398    8.4584   25.3456 H         1 3TO         0.1746
     28 H          22.0288    8.3788   23.8340 H         1 3TO         0.1746
     29 H          20.9556   12.8811   22.8534 H         1 3TO         0.0631
     30 H          20.4043   10.9037   21.7963 H         1 3TO         0.0437
     31 H          20.3275    9.3980   22.7969 H         1 3TO         0.0437
     32 H          21.5195    8.8303   20.8054 H         1 3TO         0.0446
     33 H          22.7631    9.0207   22.1152 H         1 3TO         0.0446
     34 H          24.6778    9.4538   20.7649 H         1 3TO         0.0493
     35 H          24.7952   13.1095   18.4017 H         1 3TO         0.0499
     36 H          22.3496   13.4809   18.8557 H         1 3TO         0.0582
     37 H          21.0699   11.8358   20.2639 H         1 3TO         0.0499
     38 H          26.4765   10.0675   18.7847 H         1 3TO         0.0184
     39 H          26.7255   11.8527   18.6598 H         1 3TO         0.0184
     40 H          29.1348   11.1981   19.8432 H         1 3TO         0.0215
     41 H          28.3614    9.6199   19.5072 H         1 3TO         0.0215
     42 H          28.0334    7.9549   21.6665 H         1 3TO         0.0218
     43 H          29.6060    7.7260   23.9253 H         1 3TO         0.0296
     44 H          31.0365    9.9016   24.0387 H         1 3TO         0.0854
     45 H          27.8122   13.0002   20.3254 H         1 3TO        -0.0013
     46 H          26.3215   12.7858   21.2758 H         1 3TO        -0.0013
     47 H          27.8962   12.3379   21.9763 H         1 3TO        -0.0013
@<TRIPOS>BOND
     1    1    4 ar 
     2    9    1 ar 
     3    2    4 ar 
     4    6    2 ar 
     5   19    3 1  
     6    3   23 1  
     7    6    5 1  
     8    8    6 ar 
     9    7   18 1  
    10   20    7 1  
    11    7   24 1  
    12    8    9 ar 
    13   10    8 1  
    14   11   10 1  
    15   12   11 1  
    16   13   12 ar 
    17   12   17 ar 
    18   14   13 ar 
    19   14   15 ar 
    20   18   14 1  
    21   15   16 ar 
    22   16   17 ar 
    23   19   20 1  
    24   19   21 2  
    25   21   22 1  
    26   22   23 2  
    27    1   25 1  
    28    4   26 1  
    29    5   27 1  
    30    5   28 1  
    31    9   29 1  
    32   10   30 1  
    33   10   31 1  
    34   11   32 1  
    35   11   33 1  
    36   13   34 1  
    37   15   35 1  
    38   16   36 1  
    39   17   37 1  
    40   18   38 1  
    41   18   39 1  
    42   20   40 1  
    43   20   41 1  
    44   21   42 1  
    45   22   43 1  
    46   23   44 1  
    47   24   45 1  
    48   24   46 1  
    49   24   47 1  
@<TRIPOS>SUBSTRUCTURE
     1 3TO         1

