3kn0_ligand
  -I-interpret- 

 48 50  0  0  0  0  0  0  0  0999 V2000
   22.0640   13.0650   24.7090 C   0  0  0  0  0
   22.8530   11.0020   25.6470 N   0  0  0  0  0
   30.0320   10.5220   22.2070 O   0  0  0  0  0
   22.7520   12.3500   25.7180 C   0  0  0  0  0
   22.4330    8.9260   24.5940 N   0  0  0  0  0
   22.2990   10.2510   24.6050 C   0  0  0  0  0
   27.1590   11.0080   20.5200 N   0  3  0  0  0
   21.5950   10.9310   23.5650 C   0  0  0  0  0
   21.4890   12.3430   23.6370 C   0  0  0  0  0
   20.9650   10.1850   22.3940 C   0  0  0  0  0
   22.0360    9.5190   21.4740 C   0  0  0  0  0
   22.7890   10.5310   20.6120 C   0  0  0  0  0
   24.1710   10.3260   20.3520 C   0  0  0  0  0
   24.8960   11.2560   19.5540 C   0  0  0  0  0
   24.2390   12.3980   19.0120 C   0  0  0  0  0
   22.8550   12.6080   19.2690 C   0  0  0  0  0
   22.1300   11.6750   20.0680 C   0  0  0  0  0
   26.3650   11.0320   19.2800 C   0  0  0  0  0
   29.0830    9.8570   21.4970 C   0  0  0  0  0
   28.4780   10.4220   20.2360 C   0  0  0  0  0
   28.7620    8.6750   22.0390 C   0  0  0  0  0
   29.5820    8.5550   23.2180 C   0  0  0  0  0
   30.3080    9.6790   23.2590 C   0  0  0  0  0
   27.3070   12.3730   21.0600 C   0  0  0  0  0
   21.9788   14.1506   24.7569 H   0  0  0  0  0
   23.2015   12.8858   26.5540 H   0  0  0  0  0
   22.9398    8.4584   25.3456 H   0  0  0  0  0
   22.0288    8.3788   23.8340 H   0  0  0  0  0
   26.6805   10.4403   21.2194 H   0  0  0  0  0
   20.9556   12.8811   22.8534 H   0  0  0  0  0
   20.4043   10.9037   21.7963 H   0  0  0  0  0
   20.3275    9.3980   22.7969 H   0  0  0  0  0
   21.5195    8.8303   20.8054 H   0  0  0  0  0
   22.7631    9.0207   22.1152 H   0  0  0  0  0
   24.6778    9.4538   20.7649 H   0  0  0  0  0
   24.7952   13.1095   18.4017 H   0  0  0  0  0
   22.3496   13.4809   18.8557 H   0  0  0  0  0
   21.0699   11.8358   20.2639 H   0  0  0  0  0
   26.4765   10.0675   18.7847 H   0  0  0  0  0
   26.7255   11.8527   18.6598 H   0  0  0  0  0
   29.1348   11.1981   19.8432 H   0  0  0  0  0
   28.3614    9.6199   19.5072 H   0  0  0  0  0
   28.0334    7.9549   21.6665 H   0  0  0  0  0
   29.6060    7.7260   23.9253 H   0  0  0  0  0
   31.0365    9.9016   24.0387 H   0  0  0  0  0
   27.8122   13.0002   20.3254 H   0  0  0  0  0
   26.3215   12.7858   21.2758 H   0  0  0  0  0
   27.8962   12.3379   21.9763 H   0  0  0  0  0
  1  4  4  0  0  0
  9  1  4  0  0  0
  2  4  4  0  0  0
  6  2  4  0  0  0
 19  3  4  0  0  0
  3 23  4  0  0  0
  6  5  1  0  0  0
  8  6  4  0  0  0
  7 18  1  0  0  0
 20  7  1  0  0  0
  7 24  1  0  0  0
  8  9  4  0  0  0
 10  8  1  0  0  0
 11 10  1  0  0  0
 12 11  1  0  0  0
 13 12  4  0  0  0
 12 17  4  0  0  0
 14 13  4  0  0  0
 14 15  4  0  0  0
 18 14  1  0  0  0
 15 16  4  0  0  0
 16 17  4  0  0  0
 19 20  1  0  0  0
 19 21  4  0  0  0
 21 22  4  0  0  0
 22 23  4  0  0  0
  1 25  1  0  0  0
  4 26  1  0  0  0
  5 27  1  0  0  0
  5 28  1  0  0  0
  7 29  1  0  0  0
  9 30  1  0  0  0
 10 31  1  0  0  0
 10 32  1  0  0  0
 11 33  1  0  0  0
 11 34  1  0  0  0
 13 35  1  0  0  0
 15 36  1  0  0  0
 16 37  1  0  0  0
 17 38  1  0  0  0
 18 39  1  0  0  0
 18 40  1  0  0  0
 20 41  1  0  0  0
 20 42  1  0  0  0
 21 43  1  0  0  0
 22 44  1  0  0  0
 23 45  1  0  0  0
 24 46  1  0  0  0
 24 47  1  0  0  0
 24 48  1  0  0  0
M  END
$$$$
