1iig_ligand
  -I-interpret- 

 16 15  0  0  0  0  0  0  0  0999 V2000
   47.5290   16.2470  -10.7480 C   0  0  0  0  0
   46.3880   15.3810  -10.3120 C   0  0  0  0  0
   47.3900   16.7460  -12.4690 P   0  0  0  0  0
   46.2700   15.3260   -8.8110 C   0  0  0  0  0
   45.2810   14.8000   -8.2230 O   0  0  0  0  0
   47.2720   15.8150   -8.2090 O   0  0  0  0  0
   48.7630   16.8080  -13.1140 O   0  0  0  0  0
   46.5480   15.6520  -13.0970 O   0  0  0  0  0
   46.7970   18.1250  -12.5410 O   0  0  0  0  0
   48.4496   15.6743  -10.6358 H   0  0  0  0  0
   47.5233   17.1475  -10.1338 H   0  0  0  0  0
   46.5650   14.3701  -10.6793 H   0  0  0  0  0
   45.4658   15.8013  -10.7132 H   0  0  0  0  0
   47.8958   16.1568   -8.8537 H   0  0  0  0  0
   49.1692   15.9387  -13.0835 H   0  0  0  0  0
   47.0000   14.8099  -13.0061 H   0  0  0  0  0
  1  2  1  0  0  0
  1  3  1  0  0  0
  2  4  1  0  0  0
  3  7  1  0  0  0
  3  8  1  0  0  0
  3  9  2  0  0  0
  4  5  2  0  0  0
  4  6  1  0  0  0
  1 10  1  0  0  0
  1 11  1  0  0  0
  2 12  1  0  0  0
  2 13  1  0  0  0
  6 14  1  0  0  0
  7 15  1  0  0  0
  8 16  1  0  0  0
M  END
$$$$
