### 
### Created by X-TOOL on Mon Sep 10 21:12:48 2018
### 

@<TRIPOS>MOLECULE
1iig_ligand
   13    12     1     0     0
SMALL
GAST_HUCK


@<TRIPOS>ATOM
      1 CB         47.5290   16.2470  -10.7480 C.3       1 3PP         0.0310
      2 CG         46.3880   15.3810  -10.3120 C.3       1 3PP         0.0152
      3 P          47.3900   16.7460  -12.4690 P.3       1 3PP         0.0595
      4 CD         46.2700   15.3260   -8.8110 C.2       1 3PP         0.0361
      5 OE1        45.2810   14.8000   -8.2230 O.co2     1 3PP        -0.5690
      6 OE2        47.2720   15.8150   -8.2090 O.co2     1 3PP        -0.5690
      7 O1         48.7630   16.8080  -13.1140 O.co2     1 3PP        -0.5622
      8 O2         46.5480   15.6520  -13.0970 O.co2     1 3PP        -0.5622
      9 O3         46.7970   18.1250  -12.5410 O.co2     1 3PP        -0.5622
     10 H1         48.4673   15.6880  -10.6168 H         1 3PP         0.0469
     11 H2         47.5485   17.1491  -10.1189 H         1 3PP         0.0469
     12 H3         46.5479   14.3620  -10.6942 H         1 3PP         0.0444
     13 H4         45.4539   15.7864  -10.7281 H         1 3PP         0.0444
@<TRIPOS>BOND
     1    1    2 1  
     2    1    3 1  
     3    2    4 1  
     4    3    7 ar 
     5    3    8 ar 
     6    3    9 ar 
     7    4    5 ar 
     8    4    6 ar 
     9    1   10 1  
    10    1   11 1  
    11    2   12 1  
    12    2   13 1  
@<TRIPOS>SUBSTRUCTURE
     1 3PP         1

