6itj_ligand
  -I-interpret- 

 45 49  0  0  0  0  0  0  0  0999 V2000
  405.7290    0.2230   83.5890 C   0  0  0  0  0
  405.9710   -0.7050   84.5390 N   0  0  0  0  0
  407.3280    5.4990   82.3870 C   0  0  0  0  0
  407.8240    6.6020   81.7170 C   0  0  0  0  0
  409.0290    6.5330   81.0300 C   0  0  0  0  0
  409.2680    4.2500   81.6760 C   0  0  0  0  0
  407.0180    2.6890   79.3600 C   0  0  0  0  0
  403.8630    3.3750   78.4840 C   0  0  0  0  0
  401.8090    3.8970   77.0640 C   0  0  0  0  0
  402.4850    3.6460   78.3950 C   0  0  0  0  0
  401.6790    3.6850   79.5300 C   0  0  0  0  0
  402.2450    3.4520   80.7760 C   0  0  0  0  0
  403.6280    3.1850   80.8720 C   0  0  0  0  0
  405.6930    2.7130   81.6070 C   0  0  0  0  0
  406.6380    2.4430   82.5940 C   0  0  0  0  0
  406.5810    1.3410   83.4700 C   0  0  0  0  0
  407.8630    0.4790   85.3000 C   0  0  0  0  0
  407.6490    1.4640   84.3170 C   0  0  0  0  0
  408.0660    4.3290   82.3680 C   0  0  0  0  0
  409.7600    5.3510   81.0040 C   0  0  0  0  0
  405.7720    2.8340   80.2150 C   0  0  0  0  0
  404.4490    3.1370   79.7610 C   0  0  0  0  0
  404.6370    0.0730   82.7000 N   0  0  0  0  0
  407.0310   -0.5790   85.3710 N   0  0  0  0  0
  408.3110    2.6140   83.9940 N   0  0  0  0  0
  407.6660    3.2100   82.9740 N   0  0  0  0  0
  404.4020    2.9190   81.9720 O   0  0  0  0  0
  408.8210    0.5830   86.0490 O   0  0  0  0  0
  405.3493   -1.5085   84.6306 H   0  0  0  0  0
  406.3774    5.5501   82.9179 H   0  0  0  0  0
  407.2629    7.5364   81.7281 H   0  0  0  0  0
  409.4045    7.4126   80.5071 H   0  0  0  0  0
  409.8257    3.3136   81.6636 H   0  0  0  0  0
  407.7537    3.4341   79.6629 H   0  0  0  0  0
  407.4343    1.6905   79.4932 H   0  0  0  0  0
  406.7575    2.8387   78.3122 H   0  0  0  0  0
  404.4770    3.3474   77.5838 H   0  0  0  0  0
  402.2633    4.7644   76.5851 H   0  0  0  0  0
  401.9310    3.0222   76.4253 H   0  0  0  0  0
  400.7476    4.0845   77.2266 H   0  0  0  0  0
  400.6134    3.8965   79.4408 H   0  0  0  0  0
  401.6265    3.4750   81.6732 H   0  0  0  0  0
  410.7045    5.2945   80.4629 H   0  0  0  0  0
  404.4686    0.7721   81.9766 H   0  0  0  0  0
  407.2045   -1.3024   86.0688 H   0  0  0  0  0
  1  2  1  0  0  0
 16  1  1  0  0  0
  1 23  2  0  0  0
  2 24  1  0  0  0
  3  4  4  0  0  0
 19  3  4  0  0  0
  4  5  4  0  0  0
 20  5  4  0  0  0
 19  6  4  0  0  0
  6 20  4  0  0  0
 21  7  1  0  0  0
  8 10  4  0  0  0
 22  8  4  0  0  0
 10  9  1  0  0  0
 11 10  4  0  0  0
 12 11  4  0  0  0
 13 12  4  0  0  0
 13 22  4  0  0  0
 27 13  4  0  0  0
 15 14  1  0  0  0
 14 21  4  0  0  0
 14 27  4  0  0  0
 15 16  4  0  0  0
 26 15  4  0  0  0
 16 18  4  0  0  0
 18 17  1  0  0  0
 17 24  1  0  0  0
 17 28  2  0  0  0
 18 25  4  0  0  0
 19 26  1  0  0  0
 21 22  4  0  0  0
 25 26  4  0  0  0
  2 29  1  0  0  0
  3 30  1  0  0  0
  4 31  1  0  0  0
  5 32  1  0  0  0
  6 33  1  0  0  0
  7 34  1  0  0  0
  7 35  1  0  0  0
  7 36  1  0  0  0
  8 37  1  0  0  0
  9 38  1  0  0  0
  9 39  1  0  0  0
  9 40  1  0  0  0
 11 41  1  0  0  0
 12 42  1  0  0  0
 20 43  1  0  0  0
 23 44  1  0  0  0
 24 45  1  0  0  0
M  END
$$$$
