4bj8_ligand
  -I-interpret- 

 32 33  0  0  0  0  0  0  0  0999 V2000
  220.1320    8.1360    6.3560 C   0  0  0  0  0
  220.5780    7.1000    6.9220 O   0  0  0  0  0
  219.8690    8.1370    5.1490 O   0  0  0  0  0
  219.9540    9.4480    7.0860 C   0  0  0  0  0
  219.7670    9.2260    8.5750 C   0  0  0  0  0
  218.5080    8.3870    8.8510 C   0  0  0  0  0
  217.9880    8.5250   10.2930 C   0  0  0  0  0
  216.7930    7.6260   10.5530 C   0  0  0  0  0
  215.2670    8.5420   10.4150 S   0  0  0  0  0
  214.3660    7.2130   11.1490 C   0  0  0  0  0
  215.2530    6.6420   12.2520 C   0  0  0  0  0
  214.9740    7.3080   13.4980 N   0  0  0  0  0
  215.9880    8.0200   13.9080 C   0  0  0  0  0
  215.9780    8.7280   14.9070 O   0  0  0  0  0
  216.9910    7.8650   13.0610 N   0  0  0  0  0
  216.7110    6.9900   11.9580 C   0  0  0  0  0
  220.7236    7.2829    7.8531 H   0  0  0  0  0
  219.0674    9.9466    6.6944 H   0  0  0  0  0
  220.8467   10.0547    6.9340 H   0  0  0  0  0
  219.6566   10.1946    9.0626 H   0  0  0  0  0
  220.6354    8.6926    8.9616 H   0  0  0  0  0
  218.7688    7.3404    8.6937 H   0  0  0  0  0
  217.7232    8.7412    8.1826 H   0  0  0  0  0
  217.6777    9.5585   10.4467 H   0  0  0  0  0
  218.7882    8.2348   10.9738 H   0  0  0  0  0
  216.9291    6.8432    9.8068 H   0  0  0  0  0
  214.1254    6.4500   10.4087 H   0  0  0  0  0
  213.4169    7.5633   11.5547 H   0  0  0  0  0
  215.0718    5.5683   12.3024 H   0  0  0  0  0
  214.0894    7.2323   14.0002 H   0  0  0  0  0
  217.8910    8.3295   13.1814 H   0  0  0  0  0
  217.4349    6.1768   11.9056 H   0  0  0  0  0
  1  2  1  0  0  0
  1  3  2  0  0  0
  1  4  1  0  0  0
  4  5  1  0  0  0
  5  6  1  0  0  0
  6  7  1  0  0  0
  7  8  1  0  0  0
  8  9  1  0  0  0
  8 16  1  0  0  0
  9 10  1  0  0  0
 10 11  1  0  0  0
 11 12  1  0  0  0
 11 16  1  0  0  0
 12 13  1  0  0  0
 13 14  2  0  0  0
 13 15  1  0  0  0
 15 16  1  0  0  0
  2 17  1  0  0  0
  4 18  1  0  0  0
  4 19  1  0  0  0
  5 20  1  0  0  0
  5 21  1  0  0  0
  6 22  1  0  0  0
  6 23  1  0  0  0
  7 24  1  0  0  0
  7 25  1  0  0  0
  8 26  1  0  0  0
 10 27  1  0  0  0
 10 28  1  0  0  0
 11 29  1  0  0  0
 12 30  1  0  0  0
 15 31  1  0  0  0
 16 32  1  0  0  0
M  END
$$$$
