1yz3_ligand
  -I-interpret- 

 22 23  0  0  0  0  0  0  0  0999 V2000
   26.6830   41.4430   16.4840 Cl  0  0  0  0  0
   27.2580   43.0760   16.4370 C   0  0  0  0  0
   27.8860   43.6150   17.5590 C   0  0  0  0  0
   28.0740   42.8070   18.8460 C   0  0  0  0  0
   29.1060   43.4070   19.7110 N   0  3  0  0  0
   28.8180   44.8240   19.9750 C   0  0  0  0  0
   29.0420   45.6150   18.6840 C   0  0  0  0  0
   28.3320   44.9360   17.5080 C   0  0  0  0  0
   28.1520   45.6970   16.3600 C   0  0  0  0  0
   27.5240   45.1510   15.2430 C   0  0  0  0  0
   27.0760   43.8370   15.2820 C   0  0  0  0  0
   26.3020   43.1920   13.8760 Cl  0  0  0  0  0
   28.3894   41.7984   18.5789 H   0  0  0  0  0
   27.1294   42.7968   19.3897 H   0  0  0  0  0
   30.0072   43.3400   19.2380 H   0  0  0  0  0
   29.1187   42.9058   20.5993 H   0  0  0  0  0
   29.4770   45.1975   20.7588 H   0  0  0  0  0
   27.7859   44.9380   20.3064 H   0  0  0  0  0
   30.1111   45.6570   18.4756 H   0  0  0  0  0
   28.6375   46.6194   18.8095 H   0  0  0  0  0
   28.5045   46.7281   16.3331 H   0  0  0  0  0
   27.3850   45.7513   14.3439 H   0  0  0  0  0
  1  2  1  0  0  0
  2  3  4  0  0  0
  2 11  4  0  0  0
  3  4  1  0  0  0
  3  8  4  0  0  0
  4  5  1  0  0  0
  5  6  1  0  0  0
  6  7  1  0  0  0
  7  8  1  0  0  0
  8  9  4  0  0  0
  9 10  4  0  0  0
 10 11  4  0  0  0
 11 12  1  0  0  0
  4 13  1  0  0  0
  4 14  1  0  0  0
  5 15  1  0  0  0
  5 16  1  0  0  0
  6 17  1  0  0  0
  6 18  1  0  0  0
  7 19  1  0  0  0
  7 20  1  0  0  0
  9 21  1  0  0  0
 10 22  1  0  0  0
M  END
$$$$
