### 
### Created by X-TOOL on Mon Sep 10 21:12:48 2018
### 

@<TRIPOS>MOLECULE
1j81_ligand
  241   242     1     0     0
SMALL
GAST_HUCK


@<TRIPOS>ATOM
      1 N         -13.2400    8.1620   20.1230 N.4       1 LYS         0.2379
      2 CA        -14.5260    7.6250   19.5950 C.3       1 LYS         0.0650
      3 C         -14.4300    6.1190   19.3390 C.2       1 LYS         0.2267
      4 O         -14.4820    5.3210   20.2790 O.2       1 LYS        -0.3907
      5 CB        -14.9110    8.3580   18.3040 C.3       1 LYS         0.0080
      6 CG        -16.3600    8.8490   18.2490 C.3       1 LYS        -0.0410
      7 CD        -16.5360    9.9820   17.2300 C.3       1 LYS        -0.0123
      8 CE        -16.7790    9.4380   15.8190 C.3       1 LYS        -0.0354
      9 NZ        -17.1230   10.5210   14.8430 N.4       1 LYS         0.2185
     10 N         -14.2890    5.7380   18.0700 N.am      1 GLU        -0.2609
     11 CA        -14.2020    4.3290   17.6990 C.3       1 GLU         0.1326
     12 C         -12.7830    3.7330   17.6740 C.2       1 GLU         0.2041
     13 O         -11.9490    4.1090   16.8510 O.2       1 GLU        -0.3944
     14 CB        -14.8750    4.1210   16.3360 C.3       1 GLU        -0.0008
     15 CG        -15.2980    2.6830   16.0990 C.3       1 GLU         0.0044
     16 CD        -15.9230    2.4450   14.7330 C.2       1 GLU         0.0350
     17 OE1       -15.4160    2.9980   13.7300 O.co2     1 GLU        -0.5690
     18 OE2       -16.9220    1.6910   14.6760 O.co2     1 GLU        -0.5690
     19 N         -12.5140    2.7990   18.5820 N.am      1 THR        -0.2613
     20 CA        -11.2160    2.1360   18.6430 C.3       1 THR         0.1565
     21 C         -11.0710    1.1960   17.4510 C.2       1 THR         0.2065
     22 O         -12.0460    0.9160   16.7540 O.2       1 THR        -0.3943
     23 CB        -11.0720    1.2990   19.9060 C.3       1 THR         0.0924
     24 OG1       -11.9130    0.1440   19.8070 O.3       1 THR        -0.3874
     25 CG2       -11.4650    2.1070   21.1240 C.3       1 THR        -0.0346
     26 N          -9.8560    0.6960   17.2360 N.am      1 ALA        -0.2639
     27 CA         -9.5750   -0.2080   16.1230 C.3       1 ALA         0.1282
     28 C         -10.3060   -1.5480   16.2180 C.2       1 ALA         0.2036
     29 O         -10.7360   -2.1030   15.2020 O.2       1 ALA        -0.3944
     30 CB         -8.0870   -0.4340   16.0300 C.3       1 ALA        -0.0244
     31 N         -10.4380   -2.0670   17.4380 N.am      1 ALA        -0.2640
     32 CA        -11.1290   -3.3360   17.6700 C.3       1 ALA         0.1282
     33 C         -12.6340   -3.1460   17.4770 C.2       1 ALA         0.2036
     34 O         -13.3230   -4.0400   16.9900 O.2       1 ALA        -0.3944
     35 CB        -10.8430   -3.8500   19.0840 C.3       1 ALA        -0.0244
     36 N         -13.1400   -1.9760   17.8550 N.am      1 ALA        -0.2640
     37 CA        -14.5600   -1.6860   17.6970 C.3       1 ALA         0.1282
     38 C         -14.8780   -1.6360   16.2150 C.2       1 ALA         0.2036
     39 O         -15.8820   -2.1880   15.7580 O.2       1 ALA        -0.3944
     40 CB        -14.9050   -0.3470   18.3330 C.3       1 ALA        -0.0244
     41 N         -14.0130   -0.9590   15.4670 N.am      1 LYS        -0.2637
     42 CA        -14.1930   -0.8160   14.0300 C.3       1 LYS         0.1310
     43 C         -14.1570   -2.1470   13.2830 C.2       1 LYS         0.2040
     44 O         -14.8980   -2.3510   12.3110 O.2       1 LYS        -0.3944
     45 CB        -13.1260    0.1090   13.4740 C.3       1 LYS        -0.0122
     46 CG        -13.3180    0.4330   12.0140 C.3       1 LYS        -0.0440
     47 CD        -12.1760    1.2910   11.5410 C.3       1 LYS        -0.0124
     48 CE        -11.9640    1.1680   10.0620 C.3       1 LYS        -0.0354
     49 NZ        -11.5950    2.4970    9.4970 N.4       1 LYS         0.2185
     50 N         -13.3000   -3.0560   13.7370 N.am      1 PHE        -0.2619
     51 CA        -13.1980   -4.3620   13.1070 C.3       1 PHE         0.1404
     52 C         -14.5410   -5.0610   13.2830 C.2       1 PHE         0.2060
     53 O         -15.0490   -5.6880   12.3590 O.2       1 PHE        -0.3942
     54 CB        -12.0870   -5.1940   13.7580 C.3       1 PHE         0.0214
     55 CG        -12.0250   -6.6220   13.2620 C.ar      1 PHE        -0.0386
     56 CD1       -11.1580   -6.9810   12.2410 C.ar      1 PHE        -0.0601
     57 CD2       -12.8340   -7.6120   13.8270 C.ar      1 PHE        -0.0601
     58 CE1       -11.0930   -8.3050   11.7840 C.ar      1 PHE        -0.0686
     59 CE2       -12.7780   -8.9450   13.3740 C.ar      1 PHE        -0.0686
     60 CZ        -11.9060   -9.2840   12.3540 C.ar      1 PHE        -0.0687
     61 N         -15.1190   -4.9390   14.4750 N.am      1 GLU        -0.2635
     62 CA        -16.4020   -5.5680   14.7680 C.3       1 GLU         0.1325
     63 C         -17.5460   -5.0280   13.9110 C.2       1 GLU         0.2040
     64 O         -18.3730   -5.7960   13.4090 O.2       1 GLU        -0.3944
     65 CB        -16.7220   -5.3990   16.2500 C.3       1 GLU        -0.0008
     66 CG        -15.8390   -6.2540   17.1540 C.3       1 GLU         0.0044
     67 CD        -15.9320   -5.8740   18.6290 C.2       1 GLU         0.0350
     68 OE1       -16.2660   -4.7110   18.9300 O.co2     1 GLU        -0.5690
     69 OE2       -15.6670   -6.7400   19.4920 O.co2     1 GLU        -0.5690
     70 N         -17.5880   -3.7130   13.7280 N.am      1 ARG        -0.2637
     71 CA        -18.6500   -3.0990   12.9350 C.3       1 ARG         0.1311
     72 C         -18.5090   -3.4400   11.4570 C.2       1 ARG         0.2039
     73 O         -19.4870   -3.6510   10.7520 O.2       1 ARG        -0.3944
     74 CB        -18.6240   -1.5790   13.1210 C.3       1 ARG        -0.0092
     75 CG        -19.5240   -0.8200   12.1680 C.3       1 ARG        -0.0156
     76 CD        -19.4650    0.6830   12.4210 C.3       1 ARG         0.0627
     77 NE        -18.1070    1.1990   12.2580 N.pl3     1 ARG        -0.2723
     78 CZ        -17.6140    1.6840   11.1220 C.cat     1 ARG         0.2882
     79 NH1       -16.3640    2.1300   11.0750 N.pl3     1 ARG        -0.2849
     80 NH2       -18.3720    1.7300   10.0330 N.pl3     1 ARG        -0.2849
     81 N         -17.2700   -3.5150   11.0040 N.am      1 GLN        -0.2636
     82 CA        -16.9800   -3.8030    9.6150 C.3       1 GLN         0.1330
     83 C         -17.0250   -5.2640    9.1880 C.2       1 GLN         0.2041
     84 O         -17.3700   -5.5550    8.0450 O.2       1 GLN        -0.3944
     85 CB        -15.5970   -3.2610    9.2660 C.3       1 GLN         0.0045
     86 CG        -15.5140   -1.7710    9.0750 C.3       1 GLN         0.0412
     87 CD        -14.2470   -1.3820    8.3520 C.2       1 GLN         0.1737
     88 OE1       -13.2280   -2.0660    8.4590 O.2       1 GLN        -0.3973
     89 NE2       -14.3000   -0.2860    7.6050 N.am      1 GLN        -0.3009
     90 N         -16.6730   -6.1790   10.0840 N.am      1 HIS        -0.2625
     91 CA        -16.6220   -7.5820    9.7040 C.3       1 HIS         0.1369
     92 C         -17.4430   -8.5940   10.4820 C.2       1 HIS         0.2054
     93 O         -17.5830   -9.7280   10.0310 O.2       1 HIS        -0.3942
     94 CB        -15.1620   -8.0560    9.6980 C.3       1 HIS         0.0145
     95 CG        -14.2200   -7.1180    9.0060 C.2       1 HIS        -0.0027
     96 ND1       -14.2790   -6.8670    7.6530 N.2       1 HIS        -0.3252
     97 CD2       -13.1890   -6.3780    9.4800 C.2       1 HIS         0.0291
     98 CE1       -13.3260   -6.0140    7.3210 C.2       1 HIS         0.0907
     99 NE2       -12.6480   -5.7030    8.4100 N.pl3     1 HIS        -0.2752
    100 N         -17.9880   -8.2210   11.6320 N.am      1 MET        -0.2636
    101 CA        -18.7530   -9.1910   12.4140 C.3       1 MET         0.1317
    102 C         -20.2420   -9.2570   12.0890 C.2       1 MET         0.2040
    103 O         -20.9330   -8.2500   12.0890 O.2       1 MET        -0.3944
    104 CB        -18.5860   -8.9110   13.9140 C.3       1 MET        -0.0034
    105 CG        -17.2420   -9.3170   14.4810 C.3       1 MET        -0.0024
    106 SD        -16.7540  -10.9700   13.9330 S.3       1 MET        -0.1639
    107 CE        -18.0600  -11.9700   14.6310 C.3       1 MET        -0.0181
    108 N         -20.7260  -10.4540   11.8010 N.am      1 ASP        -0.2622
    109 CA        -22.1360  -10.6590   11.5440 C.3       1 ASP         0.1423
    110 C         -22.4610  -12.0650   12.0000 C.2       1 ASP         0.2057
    111 O         -22.7310  -12.9440   11.1880 O.2       1 ASP        -0.3943
    112 CB        -22.4900  -10.5110   10.0690 C.3       1 ASP         0.0406
    113 CG        -23.9870  -10.6370    9.8230 C.2       1 ASP         0.0393
    114 OD1       -24.7680  -10.3140   10.7480 O.co2     1 ASP        -0.5688
    115 OD2       -24.3920  -11.0630    8.7180 O.co2     1 ASP        -0.5688
    116 N         -22.4280  -12.2620   13.3130 N.am      1 SER        -0.2615
    117 CA        -22.7080  -13.5550   13.9120 C.3       1 SER         0.1536
    118 C         -24.0970  -14.0600   13.5240 C.2       1 SER         0.2015
    119 O         -24.2640  -15.2170   13.1210 O.2       1 SER        -0.3947
    120 CB        -22.5970  -13.4380   15.4320 C.3       1 SER         0.0843
    121 OG        -21.7160  -12.3810   15.7860 O.3       1 SER        -0.3903
    122 N         -25.0940  -13.1860   13.6400 N.am      1 NH2        -0.2989
    123 H1        -13.3301    9.1532   20.2826 H         1 LYS         0.2015
    124 H2        -12.5057    7.9950   19.4529 H         1 LYS         0.2015
    125 H3        -13.0144    7.7012   20.9906 H         1 LYS         0.2015
    126 H4        -15.3107    7.8004   20.3457 H         1 LYS         0.1098
    127 H5        -14.7509    7.6708   17.4601 H         1 LYS         0.0346
    128 H6        -14.2502    9.2308   18.1966 H         1 LYS         0.0346
    129 H7        -16.6501    9.2164   19.2444 H         1 LYS         0.0270
    130 H8        -17.0106    8.0090   17.9642 H         1 LYS         0.0270
    131 H9        -15.6261   10.6001   17.2225 H         1 LYS         0.0317
    132 H10       -17.3963   10.5995   17.5276 H         1 LYS         0.0317
    133 H11       -17.6099    8.7181   15.8557 H         1 LYS         0.0813
    134 H12       -15.8671    8.9282   15.4746 H         1 LYS         0.0813
    135 H13       -17.2735   10.1168   13.9319 H         1 LYS         0.1994
    136 H14       -16.3650   11.1837   14.7955 H         1 LYS         0.1994
    137 H15       -17.9620   10.9912   15.1447 H         1 LYS         0.1994
    138 H16       -14.2416    6.4346   17.3541 H         1 GLU         0.1885
    139 H17       -14.7718    3.7640   18.4514 H         1 GLU         0.0801
    140 H18       -14.1667    4.4130   15.5467 H         1 GLU         0.0330
    141 H19       -15.7672    4.7623   16.2836 H         1 GLU         0.0330
    142 H20       -16.0324    2.4059   16.8696 H         1 GLU         0.0433
    143 H21       -14.4099    2.0405   16.1909 H         1 GLU         0.0433
    144 H22       -13.2214    2.5441   19.2413 H         1 THR         0.1884
    145 H23       -10.4227    2.8976   18.6170 H         1 THR         0.0826
    146 H24       -10.0246    0.9790   20.0091 H         1 THR         0.0639
    147 H25       -11.8242   -0.3795   20.5947 H         1 THR         0.2101
    148 H26       -11.3550    1.4873   22.0262 H         1 THR         0.0257
    149 H27       -12.5118    2.4309   21.0271 H         1 THR         0.0257
    150 H28       -10.8139    2.9900   21.2040 H         1 THR         0.0257
    151 H29        -9.1124    0.9470   17.8557 H         1 ALA         0.1883
    152 H30        -9.9093    0.2862   15.1989 H         1 ALA         0.0797
    153 H31        -7.8711   -1.1143   15.1930 H         1 ALA         0.0277
    154 H32        -7.7245   -0.8801   16.9679 H         1 ALA         0.0277
    155 H33        -7.5799    0.5274   15.8612 H         1 ALA         0.0277
    156 H34       -10.0533   -1.5745   18.2187 H         1 ALA         0.1883
    157 H35       -10.7660   -4.0772   16.9428 H         1 ALA         0.0797
    158 H36       -11.3693   -4.8031   19.2411 H         1 ALA         0.0277
    159 H37       -11.1936   -3.1119   19.8204 H         1 ALA         0.0277
    160 H38        -9.7608   -4.0044   19.2062 H         1 ALA         0.0277
    161 H39       -12.5375   -1.2846   18.2537 H         1 ALA         0.1883
    162 H40       -15.1519   -2.4794   18.1768 H         1 ALA         0.0797
    163 H41       -15.9787   -0.1456   18.2040 H         1 ALA         0.0277
    164 H42       -14.3217    0.4501   17.8488 H         1 ALA         0.0277
    165 H43       -14.6640   -0.3777   19.4058 H         1 ALA         0.0277
    166 H44       -13.2180   -0.5370   15.9028 H         1 LYS         0.1883
    167 H45       -15.1784   -0.3587   13.8571 H         1 LYS         0.0800
    168 H46       -12.1458   -0.3745   13.5981 H         1 LYS         0.0312
    169 H47       -13.1464    1.0486   14.0455 H         1 LYS         0.0312
    170 H48       -14.2654    0.9754   11.8794 H         1 LYS         0.0269
    171 H49       -13.3432   -0.4993   11.4308 H         1 LYS         0.0269
    172 H50       -11.2575    0.9791   12.0597 H         1 LYS         0.0317
    173 H51       -12.3954    2.3413   11.7833 H         1 LYS         0.0317
    174 H52       -12.8909    0.8133    9.5876 H         1 LYS         0.0813
    175 H53       -11.1541    0.4497    9.8668 H         1 LYS         0.0813
    176 H54       -11.4530    2.4117    8.5027 H         1 LYS         0.1994
    177 H55       -10.7454    2.8225    9.9310 H         1 LYS         0.1994
    178 H56       -12.3370    3.1556    9.6751 H         1 LYS         0.1994
    179 H57       -12.7186   -2.8389   14.5211 H         1 PHE         0.1885
    180 H58       -12.9780   -4.2403   12.0361 H         1 PHE         0.0823
    181 H59       -12.2576   -5.2111   14.8445 H         1 PHE         0.0474
    182 H60       -11.1219   -4.7108   13.5459 H         1 PHE         0.0474
    183 H61       -10.5219   -6.2279   11.7901 H         1 PHE         0.0557
    184 H62       -13.5162   -7.3497   14.6275 H         1 PHE         0.0557
    185 H63       -10.4089   -8.5682   10.9854 H         1 PHE         0.0599
    186 H64       -13.4139   -9.7003   13.8215 H         1 PHE         0.0599
    187 H65       -11.8553  -10.3071   11.9995 H         1 PHE         0.0559
    188 H66       -14.6635   -4.4038   15.1864 H         1 GLU         0.1883
    189 H67       -16.3058   -6.6429   14.5550 H         1 GLU         0.0801
    190 H68       -17.7717   -5.6827   16.4161 H         1 GLU         0.0330
    191 H69       -16.5805   -4.3422   16.5205 H         1 GLU         0.0330
    192 H70       -14.7941   -6.1394   16.8299 H         1 GLU         0.0433
    193 H71       -16.1435   -7.3054   17.0452 H         1 GLU         0.0433
    194 H72       -16.8827   -3.1353   14.1389 H         1 ARG         0.1883
    195 H73       -19.6173   -3.4832   13.2908 H         1 ARG         0.0800
    196 H74       -17.5914   -1.2309   12.9708 H         1 ARG         0.0313
    197 H75       -18.9416   -1.3521   14.1494 H         1 ARG         0.0313
    198 H76       -20.5597   -1.1648   12.3033 H         1 ARG         0.0301
    199 H77       -19.2024   -1.0215   11.1356 H         1 ARG         0.0301
    200 H78       -19.8043    0.8867   13.4473 H         1 ARG         0.0689
    201 H79       -20.1293    1.1923   11.7073 H         1 ARG         0.0689
    202 H80       -17.4881    1.1860   13.0813 H         1 ARG         0.2642
    203 H81       -15.9839    2.5053   10.1943 H         1 ARG         0.2615
    204 H82       -15.7746    2.1006   11.9192 H         1 ARG         0.2615
    205 H83       -19.3419    1.3850   10.0657 H         1 ARG         0.2615
    206 H84       -17.9901    2.1107    9.1554 H         1 ARG         0.2615
    207 H85       -16.5111   -3.3687   11.6385 H         1 GLN         0.1883
    208 H86       -17.7303   -3.2669    9.0153 H         1 GLN         0.0801
    209 H87       -15.2709   -3.7410    8.3315 H         1 GLN         0.0337
    210 H88       -14.9098   -3.5371   10.0793 H         1 GLN         0.0337
    211 H89       -15.5294   -1.2817   10.0601 H         1 GLN         0.0504
    212 H90       -16.3804   -1.4362    8.4857 H         1 GLN         0.0504
    213 H91       -13.4893    0.0175    7.1043 H         1 GLN         0.1814
    214 H92       -15.1506    0.2362    7.5430 H         1 GLN         0.1814
    215 H93       -16.4436   -5.9040   11.0177 H         1 HIS         0.1885
    216 H94       -16.9948   -7.6229    8.6699 H         1 HIS         0.0817
    217 H95       -15.1165   -9.0300    9.1889 H         1 HIS         0.0420
    218 H96       -14.8314   -8.1715   10.7408 H         1 HIS         0.0420
    219 H97       -12.8516   -6.3269   10.5142 H         1 HIS         0.0729
    220 H98       -13.1328   -5.6325    6.3194 H         1 HIS         0.1199
    221 H99       -11.8447   -5.0597    8.4520 H         1 HIS         0.2361
    222 H100      -17.8766   -7.2835   11.9618 H         1 MET         0.1883
    223 H101      -18.3283  -10.1828   12.1996 H         1 MET         0.0800
    224 H102      -19.3685   -9.4623   14.4560 H         1 MET         0.0320
    225 H103      -18.7168   -7.8314   14.0790 H         1 MET         0.0320
    226 H104      -17.3018   -9.3092   15.5793 H         1 MET         0.0378
    227 H105      -16.4825   -8.5934   14.1499 H         1 MET         0.0378
    228 H106      -17.8911  -13.0259   14.3728 H         1 MET         0.0340
    229 H107      -19.0287  -11.6436   14.2248 H         1 MET         0.0340
    230 H108      -18.0641  -11.8562   15.7251 H         1 MET         0.0340
    231 H109      -20.1035  -11.2355   11.7598 H         1 ASP         0.1884
    232 H110      -22.7217   -9.9307   12.1241 H         1 ASP         0.0819
    233 H111      -21.9699  -11.2951    9.4992 H         1 ASP         0.0478
    234 H112      -22.1557   -9.5223    9.7216 H         1 ASP         0.0478
    235 H113      -22.2023  -11.4925   13.9105 H         1 SER         0.1884
    236 H114      -21.9609  -14.2786   13.5540 H         1 SER         0.0823
    237 H115      -22.2109  -14.3834   15.8408 H         1 SER         0.0606
    238 H116      -23.5928  -13.2358   15.8533 H         1 SER         0.0606
    239 H117      -21.6583  -12.3219   16.7324 H         1 SER         0.2097
    240 H118      -26.0266  -13.4568   13.4013 H         1 NH2         0.1815
    241 H119      -24.9105  -12.2586   13.9659 H         1 NH2         0.1815
@<TRIPOS>BOND
     1    1    2 1  
     2    2    3 1  
     3    2    5 1  
     4    3    4 2  
     5    3   10 am 
     6    5    6 1  
     7    6    7 1  
     8    7    8 1  
     9    8    9 1  
    10   10   11 1  
    11   11   12 1  
    12   11   14 1  
    13   12   13 2  
    14   12   19 am 
    15   14   15 1  
    16   15   16 1  
    17   16   17 ar 
    18   16   18 ar 
    19   19   20 1  
    20   20   21 1  
    21   20   23 1  
    22   21   22 2  
    23   21   26 am 
    24   23   24 1  
    25   23   25 1  
    26   26   27 1  
    27   27   28 1  
    28   27   30 1  
    29   28   29 2  
    30   28   31 am 
    31   31   32 1  
    32   32   33 1  
    33   32   35 1  
    34   33   34 2  
    35   33   36 am 
    36   36   37 1  
    37   37   38 1  
    38   37   40 1  
    39   38   39 2  
    40   38   41 am 
    41   41   42 1  
    42   42   43 1  
    43   42   45 1  
    44   43   44 2  
    45   43   50 am 
    46   45   46 1  
    47   46   47 1  
    48   47   48 1  
    49   48   49 1  
    50   50   51 1  
    51   51   52 1  
    52   51   54 1  
    53   52   53 2  
    54   52   61 am 
    55   54   55 1  
    56   55   56 ar 
    57   55   57 ar 
    58   56   58 ar 
    59   57   59 ar 
    60   58   60 ar 
    61   59   60 ar 
    62   61   62 1  
    63   62   63 1  
    64   62   65 1  
    65   63   64 2  
    66   63   70 am 
    67   65   66 1  
    68   66   67 1  
    69   67   68 ar 
    70   67   69 ar 
    71   70   71 1  
    72   71   72 1  
    73   71   74 1  
    74   72   73 2  
    75   72   81 am 
    76   74   75 1  
    77   75   76 1  
    78   76   77 1  
    79   77   78 ar 
    80   78   79 ar 
    81   78   80 ar 
    82   81   82 1  
    83   82   83 1  
    84   82   85 1  
    85   83   84 2  
    86   83   90 am 
    87   85   86 1  
    88   86   87 1  
    89   87   88 2  
    90   87   89 am 
    91   90   91 1  
    92   91   92 1  
    93   91   94 1  
    94   92   93 2  
    95   92  100 am 
    96   94   95 1  
    97   95   96 1  
    98   95   97 2  
    99   96   98 2  
   100   97   99 1  
   101   98   99 1  
   102  100  101 1  
   103  101  102 1  
   104  101  104 1  
   105  102  103 2  
   106  102  108 am 
   107  104  105 1  
   108  105  106 1  
   109  106  107 1  
   110  108  109 1  
   111  109  110 1  
   112  109  112 1  
   113  110  111 2  
   114  110  116 am 
   115  112  113 1  
   116  113  114 ar 
   117  113  115 ar 
   118  116  117 1  
   119  117  118 1  
   120  117  120 1  
   121  118  119 2  
   122  118  122 am 
   123  120  121 1  
   124    1  123 1  
   125    1  124 1  
   126    1  125 1  
   127    2  126 1  
   128    5  127 1  
   129    5  128 1  
   130    6  129 1  
   131    6  130 1  
   132    7  131 1  
   133    7  132 1  
   134    8  133 1  
   135    8  134 1  
   136    9  135 1  
   137    9  136 1  
   138    9  137 1  
   139   10  138 1  
   140   11  139 1  
   141   14  140 1  
   142   14  141 1  
   143   15  142 1  
   144   15  143 1  
   145   19  144 1  
   146   20  145 1  
   147   23  146 1  
   148   24  147 1  
   149   25  148 1  
   150   25  149 1  
   151   25  150 1  
   152   26  151 1  
   153   27  152 1  
   154   30  153 1  
   155   30  154 1  
   156   30  155 1  
   157   31  156 1  
   158   32  157 1  
   159   35  158 1  
   160   35  159 1  
   161   35  160 1  
   162   36  161 1  
   163   37  162 1  
   164   40  163 1  
   165   40  164 1  
   166   40  165 1  
   167   41  166 1  
   168   42  167 1  
   169   45  168 1  
   170   45  169 1  
   171   46  170 1  
   172   46  171 1  
   173   47  172 1  
   174   47  173 1  
   175   48  174 1  
   176   48  175 1  
   177   49  176 1  
   178   49  177 1  
   179   49  178 1  
   180   50  179 1  
   181   51  180 1  
   182   54  181 1  
   183   54  182 1  
   184   56  183 1  
   185   57  184 1  
   186   58  185 1  
   187   59  186 1  
   188   60  187 1  
   189   61  188 1  
   190   62  189 1  
   191   65  190 1  
   192   65  191 1  
   193   66  192 1  
   194   66  193 1  
   195   70  194 1  
   196   71  195 1  
   197   74  196 1  
   198   74  197 1  
   199   75  198 1  
   200   75  199 1  
   201   76  200 1  
   202   76  201 1  
   203   77  202 1  
   204   79  203 1  
   205   79  204 1  
   206   80  205 1  
   207   80  206 1  
   208   81  207 1  
   209   82  208 1  
   210   85  209 1  
   211   85  210 1  
   212   86  211 1  
   213   86  212 1  
   214   89  213 1  
   215   89  214 1  
   216   90  215 1  
   217   91  216 1  
   218   94  217 1  
   219   94  218 1  
   220   97  219 1  
   221   98  220 1  
   222   99  221 1  
   223  100  222 1  
   224  101  223 1  
   225  104  224 1  
   226  104  225 1  
   227  105  226 1  
   228  105  227 1  
   229  107  228 1  
   230  107  229 1  
   231  107  230 1  
   232  108  231 1  
   233  109  232 1  
   234  112  233 1  
   235  112  234 1  
   236  116  235 1  
   237  117  236 1  
   238  120  237 1  
   239  120  238 1  
   240  121  239 1  
   241  122  240 1  
   242  122  241 1  
@<TRIPOS>SUBSTRUCTURE
     1 LYS         1

