1j81_ligand
  -I-interpret- 

242243  0  0  0  0  0  0  0  0999 V2000
  -13.2400    8.1620   20.1230 N   0  3  0  0  0
  -14.5260    7.6250   19.5950 C   0  0  0  0  0
  -14.4300    6.1190   19.3390 C   0  0  0  0  0
  -14.4820    5.3210   20.2790 O   0  0  0  0  0
  -14.9110    8.3580   18.3040 C   0  0  0  0  0
  -16.3600    8.8490   18.2490 C   0  0  0  0  0
  -16.5360    9.9820   17.2300 C   0  0  0  0  0
  -16.7790    9.4380   15.8190 C   0  0  0  0  0
  -17.1230   10.5210   14.8430 N   0  3  0  0  0
  -14.2890    5.7380   18.0700 N   0  0  0  0  0
  -14.2020    4.3290   17.6990 C   0  0  0  0  0
  -12.7830    3.7330   17.6740 C   0  0  0  0  0
  -11.9490    4.1090   16.8510 O   0  0  0  0  0
  -14.8750    4.1210   16.3360 C   0  0  0  0  0
  -15.2980    2.6830   16.0990 C   0  0  0  0  0
  -15.9230    2.4450   14.7330 C   0  0  0  0  0
  -15.4160    2.9980   13.7300 O   0  0  0  0  0
  -16.9220    1.6910   14.6760 O   0  0  0  0  0
  -12.5140    2.7990   18.5820 N   0  0  0  0  0
  -11.2160    2.1360   18.6430 C   0  0  0  0  0
  -11.0710    1.1960   17.4510 C   0  0  0  0  0
  -12.0460    0.9160   16.7540 O   0  0  0  0  0
  -11.0720    1.2990   19.9060 C   0  0  0  0  0
  -11.9130    0.1440   19.8070 O   0  0  0  0  0
  -11.4650    2.1070   21.1240 C   0  0  0  0  0
   -9.8560    0.6960   17.2360 N   0  0  0  0  0
   -9.5750   -0.2080   16.1230 C   0  0  0  0  0
  -10.3060   -1.5480   16.2180 C   0  0  0  0  0
  -10.7360   -2.1030   15.2020 O   0  0  0  0  0
   -8.0870   -0.4340   16.0300 C   0  0  0  0  0
  -10.4380   -2.0670   17.4380 N   0  0  0  0  0
  -11.1290   -3.3360   17.6700 C   0  0  0  0  0
  -12.6340   -3.1460   17.4770 C   0  0  0  0  0
  -13.3230   -4.0400   16.9900 O   0  0  0  0  0
  -10.8430   -3.8500   19.0840 C   0  0  0  0  0
  -13.1400   -1.9760   17.8550 N   0  0  0  0  0
  -14.5600   -1.6860   17.6970 C   0  0  0  0  0
  -14.8780   -1.6360   16.2150 C   0  0  0  0  0
  -15.8820   -2.1880   15.7580 O   0  0  0  0  0
  -14.9050   -0.3470   18.3330 C   0  0  0  0  0
  -14.0130   -0.9590   15.4670 N   0  0  0  0  0
  -14.1930   -0.8160   14.0300 C   0  0  0  0  0
  -14.1570   -2.1470   13.2830 C   0  0  0  0  0
  -14.8980   -2.3510   12.3110 O   0  0  0  0  0
  -13.1260    0.1090   13.4740 C   0  0  0  0  0
  -13.3180    0.4330   12.0140 C   0  0  0  0  0
  -12.1760    1.2910   11.5410 C   0  0  0  0  0
  -11.9640    1.1680   10.0620 C   0  0  0  0  0
  -11.5950    2.4970    9.4970 N   0  3  0  0  0
  -13.3000   -3.0560   13.7370 N   0  0  0  0  0
  -13.1980   -4.3620   13.1070 C   0  0  0  0  0
  -14.5410   -5.0610   13.2830 C   0  0  0  0  0
  -15.0490   -5.6880   12.3590 O   0  0  0  0  0
  -12.0870   -5.1940   13.7580 C   0  0  0  0  0
  -12.0250   -6.6220   13.2620 C   0  0  0  0  0
  -11.1580   -6.9810   12.2410 C   0  0  0  0  0
  -12.8340   -7.6120   13.8270 C   0  0  0  0  0
  -11.0930   -8.3050   11.7840 C   0  0  0  0  0
  -12.7780   -8.9450   13.3740 C   0  0  0  0  0
  -11.9060   -9.2840   12.3540 C   0  0  0  0  0
  -15.1190   -4.9390   14.4750 N   0  0  0  0  0
  -16.4020   -5.5680   14.7680 C   0  0  0  0  0
  -17.5460   -5.0280   13.9110 C   0  0  0  0  0
  -18.3730   -5.7960   13.4090 O   0  0  0  0  0
  -16.7220   -5.3990   16.2500 C   0  0  0  0  0
  -15.8390   -6.2540   17.1540 C   0  0  0  0  0
  -15.9320   -5.8740   18.6290 C   0  0  0  0  0
  -16.2660   -4.7110   18.9300 O   0  0  0  0  0
  -15.6670   -6.7400   19.4920 O   0  0  0  0  0
  -17.5880   -3.7130   13.7280 N   0  0  0  0  0
  -18.6500   -3.0990   12.9350 C   0  0  0  0  0
  -18.5090   -3.4400   11.4570 C   0  0  0  0  0
  -19.4870   -3.6510   10.7520 O   0  0  0  0  0
  -18.6240   -1.5790   13.1210 C   0  0  0  0  0
  -19.5240   -0.8200   12.1680 C   0  0  0  0  0
  -19.4650    0.6830   12.4210 C   0  0  0  0  0
  -18.1070    1.1990   12.2580 N   0  0  0  0  0
  -17.6140    1.6840   11.1220 C   0  0  0  0  0
  -16.3640    2.1300   11.0750 N   0  0  0  0  0
  -18.3720    1.7300   10.0330 N   0  0  0  0  0
  -17.2700   -3.5150   11.0040 N   0  0  0  0  0
  -16.9800   -3.8030    9.6150 C   0  0  0  0  0
  -17.0250   -5.2640    9.1880 C   0  0  0  0  0
  -17.3700   -5.5550    8.0450 O   0  0  0  0  0
  -15.5970   -3.2610    9.2660 C   0  0  0  0  0
  -15.5140   -1.7710    9.0750 C   0  0  0  0  0
  -14.2470   -1.3820    8.3520 C   0  0  0  0  0
  -13.2280   -2.0660    8.4590 O   0  0  0  0  0
  -14.3000   -0.2860    7.6050 N   0  0  0  0  0
  -16.6730   -6.1790   10.0840 N   0  0  0  0  0
  -16.6220   -7.5820    9.7040 C   0  0  0  0  0
  -17.4430   -8.5940   10.4820 C   0  0  0  0  0
  -17.5830   -9.7280   10.0310 O   0  0  0  0  0
  -15.1620   -8.0560    9.6980 C   0  0  0  0  0
  -14.2200   -7.1180    9.0060 C   0  0  0  0  0
  -14.2790   -6.8670    7.6530 N   0  0  0  0  0
  -13.1890   -6.3780    9.4800 C   0  0  0  0  0
  -13.3260   -6.0140    7.3210 C   0  0  0  0  0
  -12.6480   -5.7030    8.4100 N   0  0  0  0  0
  -17.9880   -8.2210   11.6320 N   0  0  0  0  0
  -18.7530   -9.1910   12.4140 C   0  0  0  0  0
  -20.2420   -9.2570   12.0890 C   0  0  0  0  0
  -20.9330   -8.2500   12.0890 O   0  0  0  0  0
  -18.5860   -8.9110   13.9140 C   0  0  0  0  0
  -17.2420   -9.3170   14.4810 C   0  0  0  0  0
  -16.7540  -10.9700   13.9330 S   0  0  0  0  0
  -18.0600  -11.9700   14.6310 C   0  0  0  0  0
  -20.7260  -10.4540   11.8010 N   0  0  0  0  0
  -22.1360  -10.6590   11.5440 C   0  0  0  0  0
  -22.4610  -12.0650   12.0000 C   0  0  0  0  0
  -22.7310  -12.9440   11.1880 O   0  0  0  0  0
  -22.4900  -10.5110   10.0690 C   0  0  0  0  0
  -23.9870  -10.6370    9.8230 C   0  0  0  0  0
  -24.7680  -10.3140   10.7480 O   0  0  0  0  0
  -24.3920  -11.0630    8.7180 O   0  0  0  0  0
  -22.4280  -12.2620   13.3130 N   0  0  0  0  0
  -22.7080  -13.5550   13.9120 C   0  0  0  0  0
  -24.0970  -14.0600   13.5240 C   0  0  0  0  0
  -24.2640  -15.2170   13.1210 O   0  0  0  0  0
  -22.5970  -13.4380   15.4320 C   0  0  0  0  0
  -21.7160  -12.3810   15.7860 O   0  0  0  0  0
  -25.0940  -13.1860   13.6400 N   0  0  0  0  0
  -12.9934    7.6682   20.9807 H   0  0  0  0  0
  -12.5056    8.0267   19.4282 H   0  0  0  0  0
  -13.3440    9.1573   20.3202 H   0  0  0  0  0
  -15.2990    7.7919   20.3452 H   0  0  0  0  0
  -14.7881    7.6457   17.4881 H   0  0  0  0  0
  -14.2759    9.2416   18.2415 H   0  0  0  0  0
  -16.6323    9.2275   19.2342 H   0  0  0  0  0
  -16.9943    8.0150   17.9487 H   0  0  0  0  0
  -15.6237   10.5784   17.2169 H   0  0  0  0  0
  -17.4004   10.5778   17.5231 H   0  0  0  0  0
  -17.6187    8.7445   15.8641 H   0  0  0  0  0
  -15.8619    8.9563   15.4799 H   0  0  0  0  0
  -17.2751   10.1109   13.9215 H   0  0  0  0  0
  -17.9720   10.9960   15.1494 H   0  0  0  0  0
  -16.3553   11.1909   14.7958 H   0  0  0  0  0
  -14.2407    6.4485   17.3398 H   0  0  0  0  0
  -14.7188    3.7891   18.4925 H   0  0  0  0  0
  -14.1527    4.3869   15.5642 H   0  0  0  0  0
  -15.7716    4.7402   16.3097 H   0  0  0  0  0
  -16.0506    2.4376   16.8483 H   0  0  0  0  0
  -14.4013    2.0661   16.1584 H   0  0  0  0  0
  -17.1378    1.3804   15.5584 H   0  0  0  0  0
  -13.2355    2.5390   19.2545 H   0  0  0  0  0
  -10.4517    2.9131   18.6361 H   0  0  0  0  0
  -10.0312    0.9924   20.0102 H   0  0  0  0  0
  -11.8232   -0.3850   20.6031 H   0  0  0  0  0
  -10.8191    2.9816   21.2021 H   0  0  0  0  0
  -12.5023    2.4273   21.0267 H   0  0  0  0  0
  -11.3556    1.4920   22.0172 H   0  0  0  0  0
   -9.0975    0.9520   17.8681 H   0  0  0  0  0
   -9.9498    0.2745   15.2203 H   0  0  0  0  0
   -7.5857    0.5194   15.8628 H   0  0  0  0  0
   -7.7291   -0.8759   16.9599 H   0  0  0  0  0
   -7.8743   -1.1082   15.2003 H   0  0  0  0  0
  -10.0456   -1.5647   18.2343 H   0  0  0  0  0
  -10.7640   -4.0718   16.9535 H   0  0  0  0  0
   -9.7704   -4.0025   19.2038 H   0  0  0  0  0
  -11.1908   -3.1177   19.8127 H   0  0  0  0  0
  -11.3650   -4.7943   19.2384 H   0  0  0  0  0
  -12.5255   -1.2707   18.2616 H   0  0  0  0  0
  -15.1455   -2.4633   18.1881 H   0  0  0  0  0
  -14.6657   -0.3787   19.3959 H   0  0  0  0  0
  -14.3264    0.4419   17.8524 H   0  0  0  0  0
  -15.9691   -0.1486   18.2045 H   0  0  0  0  0
  -13.2021   -0.5286   15.9115 H   0  0  0  0  0
  -15.1864   -0.3947   13.8760 H   0  0  0  0  0
  -12.1661   -0.3975   13.5752 H   0  0  0  0  0
  -13.1807    1.0456   14.0289 H   0  0  0  0  0
  -14.2574    0.9692   11.8796 H   0  0  0  0  0
  -13.3446   -0.4905   11.4356 H   0  0  0  0  0
  -11.2678    0.9622   12.0462 H   0  0  0  0  0
  -12.4110    2.3308   11.7685 H   0  0  0  0  0
  -12.8832    0.8176    9.5925 H   0  0  0  0  0
  -11.1605    0.4571    9.8694 H   0  0  0  0  0
  -11.4516    2.4095    8.4909 H   0  0  0  0  0
  -12.3465    3.1625    9.6779 H   0  0  0  0  0
  -10.7353    2.8253    9.9369 H   0  0  0  0  0
  -12.7070   -2.8345   14.5368 H   0  0  0  0  0
  -12.9522   -4.2504   12.0510 H   0  0  0  0  0
  -12.2915   -5.2297   14.8280 H   0  0  0  0  0
  -11.1372   -4.7211   13.5081 H   0  0  0  0  0
  -10.5184   -6.2237   11.7876 H   0  0  0  0  0
  -13.5200   -7.3482   14.6319 H   0  0  0  0  0
  -10.4051   -8.5697   10.9810 H   0  0  0  0  0
  -13.4174   -9.7045   13.8240 H   0  0  0  0  0
  -11.8550  -10.3128   11.9975 H   0  0  0  0  0
  -14.6544   -4.3931   15.2006 H   0  0  0  0  0
  -16.3089   -6.6254   14.5203 H   0  0  0  0  0
  -17.7548   -5.7119   16.4037 H   0  0  0  0  0
  -16.5487   -4.3546   16.5094 H   0  0  0  0  0
  -14.8058   -6.1036   16.8409 H   0  0  0  0  0
  -16.1749   -7.2866   17.0593 H   0  0  0  0  0
  -15.4339   -7.5632   19.0566 H   0  0  0  0  0
  -16.8686   -3.1237   14.1471 H   0  0  0  0  0
  -19.6034   -3.4959   13.2836 H   0  0  0  0  0
  -17.6028   -1.2495   12.9294 H   0  0  0  0  0
  -18.9790   -1.3729   14.1308 H   0  0  0  0  0
  -20.5497   -1.1558   12.3204 H   0  0  0  0  0
  -19.1881   -1.0121   11.1490 H   0  0  0  0  0
  -19.7873    0.8744   13.4445 H   0  0  0  0  0
  -20.1131    1.1809   11.6998 H   0  0  0  0  0
  -17.4942    1.1862   13.0733 H   0  0  0  0  0
  -15.9892    2.5063   10.2042 H   0  0  0  0  0
  -15.7787    2.0962   11.9097 H   0  0  0  0  0
  -19.3341    1.3930   10.0667 H   0  0  0  0  0
  -16.4959   -3.3658   11.6512 H   0  0  0  0  0
  -17.7920   -3.3165    9.0746 H   0  0  0  0  0
  -15.3184   -3.7118    8.3135 H   0  0  0  0  0
  -14.9477   -3.5025   10.1076 H   0  0  0  0  0
  -15.5151   -1.2943   10.0553 H   0  0  0  0  0
  -16.3675   -1.4490    8.4784 H   0  0  0  0  0
  -13.4747    0.0206    7.0900 H   0  0  0  0  0
  -15.1661    0.2496    7.5460 H   0  0  0  0  0
  -16.4390   -5.8985   11.0363 H   0  0  0  0  0
  -17.0993   -7.5681    8.7242 H   0  0  0  0  0
  -15.1313   -9.0023    9.1579 H   0  0  0  0  0
  -14.8411   -8.1285   10.7372 H   0  0  0  0  0
  -12.8513   -6.3269   10.5151 H   0  0  0  0  0
  -13.1327   -5.6322    6.3185 H   0  0  0  0  0
  -17.8744   -7.2648   11.9684 H   0  0  0  0  0
  -18.3376  -10.1600   12.1372 H   0  0  0  0  0
  -19.3429   -9.4974   14.4348 H   0  0  0  0  0
  -18.6780   -7.8335   14.0502 H   0  0  0  0  0
  -17.3169   -9.3246   15.5684 H   0  0  0  0  0
  -16.4937   -8.6054   14.1320 H   0  0  0  0  0
  -18.0630  -11.8564   15.7151 H   0  0  0  0  0
  -19.0193  -11.6456   14.2277 H   0  0  0  0  0
  -17.8916  -13.0159   14.3745 H   0  0  0  0  0
  -20.0910  -11.2511   11.7590 H   0  0  0  0  0
  -22.7122   -9.9040   12.0788 H   0  0  0  0  0
  -21.9871  -11.3055    9.5176 H   0  0  0  0  0
  -22.1742   -9.5205    9.7416 H   0  0  0  0  0
  -24.2592  -10.0151   11.5052 H   0  0  0  0  0
  -22.1978  -11.4771   13.9224 H   0  0  0  0  0
  -21.9793  -14.2755   13.5406 H   0  0  0  0  0
  -22.2065  -14.3738   15.8319 H   0  0  0  0  0
  -23.5842  -13.2297   15.8444 H   0  0  0  0  0
  -21.6577  -12.3213   16.7424 H   0  0  0  0  0
  -26.0444  -13.4606   13.3916 H   0  0  0  0  0
  -24.9077  -12.2416   13.9773 H   0  0  0  0  0
  1  2  1  0  0  0
  2  3  1  0  0  0
  2  5  1  0  0  0
  3  4  2  0  0  0
  3 10  1  0  0  0
  5  6  1  0  0  0
  6  7  1  0  0  0
  7  8  1  0  0  0
  8  9  1  0  0  0
 10 11  1  0  0  0
 11 12  1  0  0  0
 11 14  1  0  0  0
 12 13  2  0  0  0
 12 19  1  0  0  0
 14 15  1  0  0  0
 15 16  1  0  0  0
 16 17  2  0  0  0
 16 18  1  0  0  0
 19 20  1  0  0  0
 20 21  1  0  0  0
 20 23  1  0  0  0
 21 22  2  0  0  0
 21 26  1  0  0  0
 23 24  1  0  0  0
 23 25  1  0  0  0
 26 27  1  0  0  0
 27 28  1  0  0  0
 27 30  1  0  0  0
 28 29  2  0  0  0
 28 31  1  0  0  0
 31 32  1  0  0  0
 32 33  1  0  0  0
 32 35  1  0  0  0
 33 34  2  0  0  0
 33 36  1  0  0  0
 36 37  1  0  0  0
 37 38  1  0  0  0
 37 40  1  0  0  0
 38 39  2  0  0  0
 38 41  1  0  0  0
 41 42  1  0  0  0
 42 43  1  0  0  0
 42 45  1  0  0  0
 43 44  2  0  0  0
 43 50  1  0  0  0
 45 46  1  0  0  0
 46 47  1  0  0  0
 47 48  1  0  0  0
 48 49  1  0  0  0
 50 51  1  0  0  0
 51 52  1  0  0  0
 51 54  1  0  0  0
 52 53  2  0  0  0
 52 61  1  0  0  0
 54 55  1  0  0  0
 55 56  4  0  0  0
 55 57  4  0  0  0
 56 58  4  0  0  0
 57 59  4  0  0  0
 58 60  4  0  0  0
 59 60  4  0  0  0
 61 62  1  0  0  0
 62 63  1  0  0  0
 62 65  1  0  0  0
 63 64  2  0  0  0
 63 70  1  0  0  0
 65 66  1  0  0  0
 66 67  1  0  0  0
 67 68  2  0  0  0
 67 69  1  0  0  0
 70 71  1  0  0  0
 71 72  1  0  0  0
 71 74  1  0  0  0
 72 73  2  0  0  0
 72 81  1  0  0  0
 74 75  1  0  0  0
 75 76  1  0  0  0
 76 77  1  0  0  0
 77 78  1  0  0  0
 78 79  1  0  0  0
 78 80  2  0  0  0
 81 82  1  0  0  0
 82 83  1  0  0  0
 82 85  1  0  0  0
 83 84  2  0  0  0
 83 90  1  0  0  0
 85 86  1  0  0  0
 86 87  1  0  0  0
 87 88  2  0  0  0
 87 89  1  0  0  0
 90 91  1  0  0  0
 91 92  1  0  0  0
 91 94  1  0  0  0
 92 93  2  0  0  0
 92100  1  0  0  0
 94 95  1  0  0  0
 95 96  4  0  0  0
 95 97  4  0  0  0
 96 98  4  0  0  0
 97 99  4  0  0  0
 98 99  4  0  0  0
100101  1  0  0  0
101102  1  0  0  0
101104  1  0  0  0
102103  2  0  0  0
102108  1  0  0  0
104105  1  0  0  0
105106  1  0  0  0
106107  1  0  0  0
108109  1  0  0  0
109110  1  0  0  0
109112  1  0  0  0
110111  2  0  0  0
110116  1  0  0  0
112113  1  0  0  0
113114  1  0  0  0
113115  2  0  0  0
116117  1  0  0  0
117118  1  0  0  0
117120  1  0  0  0
118119  2  0  0  0
118122  1  0  0  0
120121  1  0  0  0
  1123  1  0  0  0
  1124  1  0  0  0
  1125  1  0  0  0
  2126  1  0  0  0
  5127  1  0  0  0
  5128  1  0  0  0
  6129  1  0  0  0
  6130  1  0  0  0
  7131  1  0  0  0
  7132  1  0  0  0
  8133  1  0  0  0
  8134  1  0  0  0
  9135  1  0  0  0
  9136  1  0  0  0
  9137  1  0  0  0
 10138  1  0  0  0
 11139  1  0  0  0
 14140  1  0  0  0
 14141  1  0  0  0
 15142  1  0  0  0
 15143  1  0  0  0
 18144  1  0  0  0
 19145  1  0  0  0
 20146  1  0  0  0
 23147  1  0  0  0
 24148  1  0  0  0
 25149  1  0  0  0
 25150  1  0  0  0
 25151  1  0  0  0
 26152  1  0  0  0
 27153  1  0  0  0
 30154  1  0  0  0
 30155  1  0  0  0
 30156  1  0  0  0
 31157  1  0  0  0
 32158  1  0  0  0
 35159  1  0  0  0
 35160  1  0  0  0
 35161  1  0  0  0
 36162  1  0  0  0
 37163  1  0  0  0
 40164  1  0  0  0
 40165  1  0  0  0
 40166  1  0  0  0
 41167  1  0  0  0
 42168  1  0  0  0
 45169  1  0  0  0
 45170  1  0  0  0
 46171  1  0  0  0
 46172  1  0  0  0
 47173  1  0  0  0
 47174  1  0  0  0
 48175  1  0  0  0
 48176  1  0  0  0
 49177  1  0  0  0
 49178  1  0  0  0
 49179  1  0  0  0
 50180  1  0  0  0
 51181  1  0  0  0
 54182  1  0  0  0
 54183  1  0  0  0
 56184  1  0  0  0
 57185  1  0  0  0
 58186  1  0  0  0
 59187  1  0  0  0
 60188  1  0  0  0
 61189  1  0  0  0
 62190  1  0  0  0
 65191  1  0  0  0
 65192  1  0  0  0
 66193  1  0  0  0
 66194  1  0  0  0
 69195  1  0  0  0
 70196  1  0  0  0
 71197  1  0  0  0
 74198  1  0  0  0
 74199  1  0  0  0
 75200  1  0  0  0
 75201  1  0  0  0
 76202  1  0  0  0
 76203  1  0  0  0
 77204  1  0  0  0
 79205  1  0  0  0
 79206  1  0  0  0
 80207  1  0  0  0
 81208  1  0  0  0
 82209  1  0  0  0
 85210  1  0  0  0
 85211  1  0  0  0
 86212  1  0  0  0
 86213  1  0  0  0
 89214  1  0  0  0
 89215  1  0  0  0
 90216  1  0  0  0
 91217  1  0  0  0
 94218  1  0  0  0
 94219  1  0  0  0
 97220  1  0  0  0
 98221  1  0  0  0
100222  1  0  0  0
101223  1  0  0  0
104224  1  0  0  0
104225  1  0  0  0
105226  1  0  0  0
105227  1  0  0  0
107228  1  0  0  0
107229  1  0  0  0
107230  1  0  0  0
108231  1  0  0  0
109232  1  0  0  0
112233  1  0  0  0
112234  1  0  0  0
114235  1  0  0  0
116236  1  0  0  0
117237  1  0  0  0
120238  1  0  0  0
120239  1  0  0  0
121240  1  0  0  0
122241  1  0  0  0
122242  1  0  0  0
M  END
$$$$
