3r6t_ligand
  -I-interpret- 

 61 65  0  0  0  0  0  0  0  0999 V2000
   -2.9410   13.6250   24.6430 O   0  0  0  0  0
   -1.8930   13.0690   24.8990 C   0  0  0  0  0
   -0.5610   13.7280   24.7390 C   0  0  0  0  0
    0.6500   13.1970   25.2320 C   0  0  0  0  0
    0.7370   12.0850   25.9710 O   0  0  0  0  0
    1.8390   13.9070   24.9680 C   0  0  0  0  0
    2.9820   13.3870   25.4530 O   0  0  0  0  0
    1.8010   15.0910   24.2490 C   0  0  0  0  0
   -0.5740   14.9170   24.0170 C   0  0  0  0  0
    0.5840   15.6400   23.7580 C   0  0  0  0  0
    0.5720   16.9080   22.9840 C   0  0  0  0  0
    1.4130   17.9580   23.3660 C   0  0  0  0  0
    1.4020   19.1640   22.6400 C   0  0  0  0  0
   -0.2800   17.0910   21.8930 C   0  0  0  0  0
   -0.2900   18.2420   21.1690 C   0  0  0  0  0
    0.5570   19.2690   21.5520 C   0  0  0  0  0
    0.5590   20.4000   20.8580 F   0  0  0  0  0
   -1.8850   11.8160   25.3220 N   0  0  0  0  0
   -3.1380   11.0530   25.3910 C   0  0  0  0  0
   -2.7850    9.5900   25.3230 C   0  0  0  0  0
   -3.3800    8.6950   24.5850 C   0  0  0  0  0
   -3.0380    7.2430   24.5690 C   0  0  0  0  0
   -3.6600    6.5470   23.3660 C   0  0  0  0  0
   -5.0690    6.2780   23.9180 C   0  0  0  0  0
   -5.8120    5.3300   23.1790 O   0  0  0  0  0
   -4.7010    5.8100   25.3370 C   0  0  0  0  0
   -3.5700    6.5650   25.7400 O   0  0  0  0  0
   -5.7750    6.0210   26.3210 N   0  0  0  0  0
   -6.2340    5.1340   27.2270 C   0  0  0  0  0
   -7.1700    5.8580   28.0110 C   0  0  0  0  0
   -7.2010    7.1570   27.6100 N   0  0  0  0  0
   -6.3500    7.2450   26.6210 C   0  0  0  0  0
   -5.9680    3.8220   27.3650 N   0  0  0  0  0
   -6.6490    3.2500   28.3570 C   0  0  0  0  0
   -7.5950    3.8350   29.1210 N   0  0  0  0  0
   -7.8840    5.1440   28.9360 C   0  0  0  0  0
   -8.9640    5.7630   29.7380 C   0  0  0  0  0
    1.6568   11.9189   26.1901 H   0  0  0  0  0
    3.7180   13.9539   25.2113 H   0  0  0  0  0
    2.7343   15.6190   24.0532 H   0  0  0  0  0
   -1.5252   15.2944   23.6416 H   0  0  0  0  0
    2.0755   17.8428   24.2239 H   0  0  0  0  0
    2.0449   19.9953   22.9294 H   0  0  0  0  0
   -0.9588   16.2855   21.6127 H   0  0  0  0  0
   -0.9488   18.3538   20.3078 H   0  0  0  0  0
   -1.0068   11.3786   25.6009 H   0  0  0  0  0
   -3.7944   11.3245   24.5643 H   0  0  0  0  0
   -3.6669   11.2737   26.3182 H   0  0  0  0  0
   -1.9583    9.2494   25.9465 H   0  0  0  0  0
   -4.1855    9.0320   23.9325 H   0  0  0  0  0
   -1.9497    7.1889   24.5407 H   0  0  0  0  0
   -3.1270    5.6561   23.0338 H   0  0  0  0  0
   -3.6390    7.1304   22.4455 H   0  0  0  0  0
   -5.7429    7.1336   23.8752 H   0  0  0  0  0
   -6.6755    5.2165   23.5829 H   0  0  0  0  0
   -4.5132    4.7368   25.3035 H   0  0  0  0  0
   -6.1203    8.1717   26.0950 H   0  0  0  0  0
   -6.4193    2.2065   28.5727 H   0  0  0  0  0
   -8.5534    6.5841   30.3256 H   0  0  0  0  0
   -9.7378    6.1432   29.0711 H   0  0  0  0  0
   -9.3930    5.0157   30.4056 H   0  0  0  0  0
  1  2  2  0  0  0
  2  3  1  0  0  0
  2 18  1  0  0  0
  3  4  4  0  0  0
  3  9  4  0  0  0
  4  5  1  0  0  0
  4  6  4  0  0  0
  6  7  1  0  0  0
  6  8  4  0  0  0
  8 10  4  0  0  0
  9 10  4  0  0  0
 10 11  1  0  0  0
 11 12  4  0  0  0
 11 14  4  0  0  0
 12 13  4  0  0  0
 13 16  4  0  0  0
 14 15  4  0  0  0
 15 16  4  0  0  0
 16 17  1  0  0  0
 18 19  1  0  0  0
 19 20  1  0  0  0
 20 21  2  0  0  0
 21 22  1  0  0  0
 22 23  1  0  0  0
 22 27  1  0  0  0
 23 24  1  0  0  0
 24 25  1  0  0  0
 24 26  1  0  0  0
 26 27  1  0  0  0
 26 28  1  0  0  0
 28 29  4  0  0  0
 28 32  4  0  0  0
 29 30  4  0  0  0
 29 33  4  0  0  0
 30 31  4  0  0  0
 30 36  4  0  0  0
 31 32  4  0  0  0
 33 34  4  0  0  0
 34 35  4  0  0  0
 35 36  4  0  0  0
 36 37  1  0  0  0
  5 38  1  0  0  0
  7 39  1  0  0  0
  8 40  1  0  0  0
  9 41  1  0  0  0
 12 42  1  0  0  0
 13 43  1  0  0  0
 14 44  1  0  0  0
 15 45  1  0  0  0
 18 46  1  0  0  0
 19 47  1  0  0  0
 19 48  1  0  0  0
 20 49  1  0  0  0
 21 50  1  0  0  0
 22 51  1  0  0  0
 23 52  1  0  0  0
 23 53  1  0  0  0
 24 54  1  0  0  0
 25 55  1  0  0  0
 26 56  1  0  0  0
 32 57  1  0  0  0
 34 58  1  0  0  0
 37 59  1  0  0  0
 37 60  1  0  0  0
 37 61  1  0  0  0
M  END
$$$$
