### 
### Created by X-TOOL on Mon Sep 10 21:12:53 2018
### 

@<TRIPOS>MOLECULE
1y2a_ligand
  165   167     1     0     0
SMALL
GAST_HUCK


@<TRIPOS>ATOM
      1 N          77.7140   79.7890   53.0160 N.4       1 GLY         0.2357
      2 CA         79.1600   80.1910   52.9370 C.3       1 GLY         0.0545
      3 C          79.4760   81.2530   53.9710 C.2       1 GLY         0.2236
      4 O          80.1480   80.9900   54.9630 O.2       1 GLY        -0.3910
      5 N          78.9890   82.4630   53.7370 N.am      1 LYS        -0.2613
      6 CA         79.2090   83.5670   54.6640 C.3       1 LYS         0.1311
      7 C          77.8800   84.2790   54.9010 C.2       1 LYS         0.2039
      8 O          77.0080   84.2660   54.0380 O.2       1 LYS        -0.3944
      9 CB         80.2400   84.5440   54.0890 C.3       1 LYS        -0.0122
     10 CG         81.6560   83.9740   53.9970 C.3       1 LYS        -0.0440
     11 CD         82.6100   84.9560   53.3320 C.3       1 LYS        -0.0124
     12 CE         84.0050   84.3530   53.1960 C.3       1 LYS        -0.0354
     13 NZ         84.9200   85.1980   52.3720 N.4       1 LYS         0.2185
     14 N          77.7120   84.8670   56.0790 N.am      1 ILE        -0.2635
     15 CA         76.4790   85.5860   56.3940 C.3       1 ILE         0.1335
     16 C          76.7510   86.7440   57.3430 C.2       1 ILE         0.2042
     17 O          77.4740   86.5980   58.3270 O.2       1 ILE        -0.3944
     18 CB         75.4030   84.6690   57.0560 C.3       1 ILE        -0.0037
     19 CG1        75.9510   84.0540   58.3410 C.3       1 ILE        -0.0491
     20 CG2        74.9550   83.5920   56.0750 C.3       1 ILE        -0.0582
     21 CD1        74.8930   83.3640   59.1850 C.3       1 ILE        -0.0648
     22 N          76.1690   87.8980   57.0400 N.am      1 SER        -0.2616
     23 CA         76.3450   89.0670   57.8920 C.3       1 SER         0.1539
     24 C          75.0870   89.2880   58.7180 C.2       1 SER         0.2062
     25 O          74.0060   88.8190   58.3550 O.2       1 SER        -0.3943
     26 CB         76.6310   90.3060   57.0470 C.3       1 SER         0.0843
     27 OG         75.6650   90.4410   56.0230 O.3       1 SER        -0.3903
     28 N          75.2530   90.0150   59.8200 N.am      1 LYS        -0.2637
     29 CA         74.1810   90.3440   60.7590 C.3       1 LYS         0.1310
     30 C          73.8410   91.8510   60.7010 C.2       1 LYS         0.2040
     31 O          74.7130   92.6790   60.4070 O.2       1 LYS        -0.3944
     32 CB         74.6420   89.9730   62.1790 C.3       1 LYS        -0.0122
     33 CG         73.6650   90.3430   63.2800 C.3       1 LYS        -0.0440
     34 CD         74.3370   90.3360   64.6470 C.3       1 LYS        -0.0124
     35 CE         73.3110   90.5370   65.7450 C.3       1 LYS        -0.0354
     36 NZ         73.8730   90.5810   67.1110 N.4       1 LYS         0.2185
     37 N          72.5840   92.2090   60.9750 N.am      1 HIS        -0.2625
     38 CA         72.1920   93.6270   60.9720 C.3       1 HIS         0.1369
     39 C          70.8520   94.0250   61.6120 C.2       1 HIS         0.2054
     40 O          69.7780   93.7610   61.0650 O.2       1 HIS        -0.3942
     41 CB         72.2410   94.1950   59.5510 C.3       1 HIS         0.0145
     42 CG         71.8070   93.2300   58.4950 C.2       1 HIS        -0.0027
     43 ND1        70.7960   92.3120   58.6950 N.2       1 HIS        -0.3252
     44 CD2        72.2250   93.0620   57.2150 C.2       1 HIS         0.0291
     45 CE1        70.6110   91.6200   57.5830 C.2       1 HIS         0.0907
     46 NE2        71.4630   92.0560   56.6690 N.pl3     1 HIS        -0.2752
     47 N          70.9390   94.6760   62.7730 N.am      1 TRP        -0.2625
     48 CA         69.7760   95.1670   63.5180 C.3       1 TRP         0.1352
     49 C          70.2380   95.9810   64.7230 C.2       1 TRP         0.2052
     50 O          71.1670   96.7940   64.5880 O.2       1 TRP        -0.3942
     51 CB         68.8410   94.0090   63.9430 C.3       1 TRP         0.0042
     52 CG         69.4380   92.8400   64.6960 C.2       1 TRP        -0.0418
     53 CD1        69.6920   92.7650   66.0400 C.2       1 TRP         0.0167
     54 CD2        69.7570   91.5420   64.1550 C.ar      1 TRP        -0.0214
     55 NE1        70.1410   91.4960   66.3720 N.pl3     1 TRP        -0.2890
     56 CE2        70.1890   90.7300   65.2340 C.ar      1 TRP         0.0603
     57 CE3        69.7140   90.9860   62.8640 C.ar      1 TRP        -0.0747
     58 CZ2        70.5760   89.3860   65.0600 C.ar      1 TRP        -0.0443
     59 CZ3        70.1030   89.6400   62.6910 C.ar      1 TRP        -0.0792
     60 CH2        70.5260   88.8640   63.7880 C.ar      1 TRP        -0.0768
     61 N          69.6040   95.7790   65.8820 N.am      1 THR        -0.2612
     62 CA         69.9580   96.4950   67.1290 C.3       1 THR         0.1565
     63 C          70.2420   97.9920   66.9030 C.2       1 THR         0.2063
     64 O          69.9000   98.5560   65.8520 O.2       1 THR        -0.3943
     65 CB         71.2120   95.8560   67.8220 C.3       1 THR         0.0924
     66 OG1        71.1060   94.4290   67.7910 O.3       1 THR        -0.3874
     67 CG2        71.3220   96.2960   69.2890 C.3       1 THR        -0.0346
     68 N          70.8570   98.6360   67.8940 N.am      1 GLY        -0.2663
     69 CA         71.1770  100.0480   67.7630 C.3       1 GLY         0.1201
     70 C          70.7370  100.8600   68.9620 C.2       1 GLY         0.2002
     71 O          69.5300  101.1050   69.1410 O.2       1 GLY        -0.3947
     72 N          71.6980  101.2680   69.7920 N.am      1 ILE        -0.2695
     73 CA         71.3860  102.0710   70.9730 C.3       1 ILE         0.0969
     74 C          72.2620  103.3400   71.0330 C.2       1 ILE         0.0604
     75 O          71.9030  104.3330   70.3430 O.co2     1 ILE        -0.5666
     76 CB         71.5750  101.2480   72.2760 C.3       1 ILE        -0.0092
     77 CG1        70.8510   99.8970   72.1550 C.3       1 ILE        -0.0497
     78 CG2        71.0080  102.0320   73.4750 C.3       1 ILE        -0.0588
     79 CD1        71.1780   98.9010   73.2900 C.3       1 ILE        -0.0649
     80 OXT        73.2980  103.3320   71.7460 O.co2     1 ILE        -0.5666
     81 H1         77.5231   79.0832   52.3221 H         1 GLY         0.2012
     82 H2         77.1317   80.5939   52.8456 H         1 GLY         0.2012
     83 H3         77.5174   79.4201   53.9332 H         1 GLY         0.2012
     84 H4         79.3700   80.5897   51.9336 H         1 GLY         0.1061
     85 H5         79.7910   79.3089   53.1205 H         1 GLY         0.1061
     86 H6         78.4580   82.6229   52.9049 H         1 LYS         0.1884
     87 H7         79.5847   83.1709   55.6190 H         1 LYS         0.0800
     88 H8         80.2676   85.4356   54.7326 H         1 LYS         0.0312
     89 H9         79.9170   84.8316   53.0776 H         1 LYS         0.0312
     90 H10        81.6302   83.0458   53.4074 H         1 LYS         0.0269
     91 H11        82.0195   83.7539   55.0116 H         1 LYS         0.0269
     92 H12        82.6704   85.8690   53.9426 H         1 LYS         0.0317
     93 H13        82.2277   85.2083   52.3319 H         1 LYS         0.0317
     94 H14        83.9165   83.3645   52.7217 H         1 LYS         0.0813
     95 H15        84.4392   84.2403   54.2004 H         1 LYS         0.0813
     96 H16        85.8242   84.7562   52.3140 H         1 LYS         0.1994
     97 H17        85.0163   86.1053   52.8004 H         1 LYS         0.1994
     98 H18        84.5373   85.3028   51.4454 H         1 LYS         0.1994
     99 H19        78.4407   84.8173   56.7620 H         1 ILE         0.1883
    100 H20        76.0693   85.9844   55.4541 H         1 ILE         0.0803
    101 H21        74.5296   85.2859   57.3139 H         1 ILE         0.0345
    102 H22        76.4078   84.8540   58.9420 H         1 ILE         0.0267
    103 H23        76.7186   83.3134   58.0722 H         1 ILE         0.0267
    104 H24        74.5663   84.0665   55.1619 H         1 ILE         0.0235
    105 H25        74.1644   82.9819   56.5361 H         1 ILE         0.0235
    106 H26        75.8109   82.9503   55.8188 H         1 ILE         0.0235
    107 H27        75.3599   82.9474   60.0897 H         1 ILE         0.0230
    108 H28        74.4319   82.5522   58.6033 H         1 ILE         0.0230
    109 H29        74.1211   84.0928   59.4732 H         1 ILE         0.0230
    110 H30        75.6036   87.9658   56.2180 H         1 SER         0.1884
    111 H31        77.1946   88.8922   58.5685 H         1 SER         0.0823
    112 H32        77.6287   90.2124   56.5933 H         1 SER         0.0606
    113 H33        76.6031   91.1975   57.6907 H         1 SER         0.0606
    114 H34        75.8576   91.2155   55.5077 H         1 SER         0.2097
    115 H35        76.1706   90.3589   60.0192 H         1 LYS         0.1883
    116 H36        73.2829   89.7635   60.5014 H         1 LYS         0.0800
    117 H37        75.5926   90.4899   62.3766 H         1 LYS         0.0312
    118 H38        74.8018   88.8853   62.2141 H         1 LYS         0.0312
    119 H39        72.8389   89.6167   63.2840 H         1 LYS         0.0269
    120 H40        73.2676   91.3494   63.0821 H         1 LYS         0.0269
    121 H41        75.0773   91.1484   64.6905 H         1 LYS         0.0317
    122 H42        74.8427   89.3707   64.7967 H         1 LYS         0.0317
    123 H43        72.5901   89.7075   65.6971 H         1 LYS         0.0813
    124 H44        72.7896   91.4873   65.5577 H         1 LYS         0.0813
    125 H45        73.1282   90.7166   67.7765 H         1 LYS         0.1994
    126 H46        74.5284   91.3437   67.1803 H         1 LYS         0.1994
    127 H47        74.3456   89.7128   67.3080 H         1 LYS         0.1994
    128 H48        71.9032   91.5070   61.1841 H         1 HIS         0.1885
    129 H49        72.9664   94.1436   61.5581 H         1 HIS         0.0817
    130 H50        73.2756   94.5005   59.3361 H         1 HIS         0.0420
    131 H51        71.5822   95.0748   59.5073 H         1 HIS         0.0420
    132 H52        73.0154   93.6192   56.7143 H         1 HIS         0.0729
    133 H53        69.8802   90.8249   57.4431 H         1 HIS         0.1199
    134 H54        71.5424   91.6999   55.7058 H         1 HIS         0.2361
    135 H55        71.8482   94.8381   63.1565 H         1 TRP         0.1884
    136 H56        69.2039   95.8332   62.8555 H         1 TRP         0.0815
    137 H57        68.3850   93.6064   63.0265 H         1 TRP         0.0397
    138 H58        68.0578   94.4417   64.5828 H         1 TRP         0.0397
    139 H59        69.5603   93.5839   66.7457 H         1 TRP         0.0795
    140 H60        70.3968   91.1796   67.3182 H         1 TRP         0.2216
    141 H61        69.3883   91.5798   62.0176 H         1 TRP         0.0540
    142 H62        70.9021   88.7837   65.9002 H         1 TRP         0.0541
    143 H63        70.0759   89.1980   61.7016 H         1 TRP         0.0510
    144 H64        70.8186   87.8328   63.6264 H         1 TRP         0.0530
    145 H65        68.8571   95.1146   65.9083 H         1 THR         0.1884
    146 H66        69.1014   96.4092   67.8137 H         1 THR         0.0826
    147 H67        72.1170   96.1695   67.2810 H         1 THR         0.0639
    148 H68        71.8673   94.0468   68.2116 H         1 THR         0.2101
    149 H69        72.2089   95.8322   69.7454 H         1 THR         0.0257
    150 H70        70.4210   95.9800   69.8352 H         1 THR         0.0257
    151 H71        71.4150   97.3910   69.3374 H         1 THR         0.0257
    152 H72        71.0995   98.1461   68.7314 H         1 GLY         0.1881
    153 H73        70.6735  100.4414   66.8676 H         1 GLY         0.0763
    154 H74        72.2659  100.1529   67.6473 H         1 GLY         0.0763
    155 H75        72.6483  101.0203   69.6032 H         1 ILE         0.1875
    156 H76        70.3322  102.3796   70.9070 H         1 ILE         0.0729
    157 H77        72.6484  101.0689   72.4362 H         1 ILE         0.0338
    158 H78        71.1376   99.4362   71.1982 H         1 ILE         0.0267
    159 H79        69.7671  100.0843   72.1618 H         1 ILE         0.0267
    160 H80        71.5271  102.9981   73.5599 H         1 ILE         0.0234
    161 H81        71.1597  101.4520   74.3972 H         1 ILE         0.0234
    162 H82        69.9324  102.2058   73.3239 H         1 ILE         0.0234
    163 H83        70.6221   97.9657   73.1285 H         1 ILE         0.0230
    164 H84        70.8871   99.3381   74.2566 H         1 ILE         0.0230
    165 H85        72.2576   98.6900   73.2930 H         1 ILE         0.0230
@<TRIPOS>BOND
     1    1    2 1  
     2    2    3 1  
     3    3    4 2  
     4    3    5 am 
     5    5    6 1  
     6    6    7 1  
     7    6    9 1  
     8    7    8 2  
     9    7   14 am 
    10    9   10 1  
    11   10   11 1  
    12   11   12 1  
    13   12   13 1  
    14   14   15 1  
    15   15   16 1  
    16   15   18 1  
    17   16   17 2  
    18   16   22 am 
    19   18   19 1  
    20   18   20 1  
    21   19   21 1  
    22   22   23 1  
    23   23   24 1  
    24   23   26 1  
    25   24   25 2  
    26   24   28 am 
    27   26   27 1  
    28   28   29 1  
    29   29   30 1  
    30   29   32 1  
    31   30   31 2  
    32   30   37 am 
    33   32   33 1  
    34   33   34 1  
    35   34   35 1  
    36   35   36 1  
    37   37   38 1  
    38   38   39 1  
    39   38   41 1  
    40   39   40 2  
    41   39   47 am 
    42   41   42 1  
    43   42   43 1  
    44   42   44 2  
    45   43   45 2  
    46   44   46 1  
    47   45   46 1  
    48   47   48 1  
    49   48   49 1  
    50   48   51 1  
    51   49   50 2  
    52   49   61 am 
    53   51   52 1  
    54   52   53 2  
    55   52   54 1  
    56   53   55 1  
    57   54   56 ar 
    58   54   57 ar 
    59   55   56 1  
    60   56   58 ar 
    61   57   59 ar 
    62   58   60 ar 
    63   59   60 ar 
    64   61   62 1  
    65   62   63 1  
    66   62   65 1  
    67   63   64 2  
    68   63   68 am 
    69   65   66 1  
    70   65   67 1  
    71   68   69 1  
    72   69   70 1  
    73   70   71 2  
    74   70   72 am 
    75   72   73 1  
    76   73   74 1  
    77   73   76 1  
    78   74   75 ar 
    79   74   80 ar 
    80   76   77 1  
    81   76   78 1  
    82   77   79 1  
    83    1   81 1  
    84    1   82 1  
    85    1   83 1  
    86    2   84 1  
    87    2   85 1  
    88    5   86 1  
    89    6   87 1  
    90    9   88 1  
    91    9   89 1  
    92   10   90 1  
    93   10   91 1  
    94   11   92 1  
    95   11   93 1  
    96   12   94 1  
    97   12   95 1  
    98   13   96 1  
    99   13   97 1  
   100   13   98 1  
   101   14   99 1  
   102   15  100 1  
   103   18  101 1  
   104   19  102 1  
   105   19  103 1  
   106   20  104 1  
   107   20  105 1  
   108   20  106 1  
   109   21  107 1  
   110   21  108 1  
   111   21  109 1  
   112   22  110 1  
   113   23  111 1  
   114   26  112 1  
   115   26  113 1  
   116   27  114 1  
   117   28  115 1  
   118   29  116 1  
   119   32  117 1  
   120   32  118 1  
   121   33  119 1  
   122   33  120 1  
   123   34  121 1  
   124   34  122 1  
   125   35  123 1  
   126   35  124 1  
   127   36  125 1  
   128   36  126 1  
   129   36  127 1  
   130   37  128 1  
   131   38  129 1  
   132   41  130 1  
   133   41  131 1  
   134   44  132 1  
   135   45  133 1  
   136   46  134 1  
   137   47  135 1  
   138   48  136 1  
   139   51  137 1  
   140   51  138 1  
   141   53  139 1  
   142   55  140 1  
   143   57  141 1  
   144   58  142 1  
   145   59  143 1  
   146   60  144 1  
   147   61  145 1  
   148   62  146 1  
   149   65  147 1  
   150   66  148 1  
   151   67  149 1  
   152   67  150 1  
   153   67  151 1  
   154   68  152 1  
   155   69  153 1  
   156   69  154 1  
   157   72  155 1  
   158   73  156 1  
   159   76  157 1  
   160   77  158 1  
   161   77  159 1  
   162   78  160 1  
   163   78  161 1  
   164   78  162 1  
   165   79  163 1  
   166   79  164 1  
   167   79  165 1  
@<TRIPOS>SUBSTRUCTURE
     1 GLY         1

