1y2a_ligand
  -I-interpret- 

164166  0  0  0  0  0  0  0  0999 V2000
   77.7140   79.7890   53.0160 N   0  3  0  0  0
   79.1600   80.1910   52.9370 C   0  0  0  0  0
   79.4760   81.2530   53.9710 C   0  0  0  0  0
   80.1480   80.9900   54.9630 O   0  0  0  0  0
   78.9890   82.4630   53.7370 N   0  0  0  0  0
   79.2090   83.5670   54.6640 C   0  0  0  0  0
   77.8800   84.2790   54.9010 C   0  0  0  0  0
   77.0080   84.2660   54.0380 O   0  0  0  0  0
   80.2400   84.5440   54.0890 C   0  0  0  0  0
   81.6560   83.9740   53.9970 C   0  0  0  0  0
   82.6100   84.9560   53.3320 C   0  0  0  0  0
   84.0050   84.3530   53.1960 C   0  0  0  0  0
   84.9200   85.1980   52.3720 N   0  3  0  0  0
   77.7120   84.8670   56.0790 N   0  0  0  0  0
   76.4790   85.5860   56.3940 C   0  0  0  0  0
   76.7510   86.7440   57.3430 C   0  0  0  0  0
   77.4740   86.5980   58.3270 O   0  0  0  0  0
   75.4030   84.6690   57.0560 C   0  0  0  0  0
   75.9510   84.0540   58.3410 C   0  0  0  0  0
   74.9550   83.5920   56.0750 C   0  0  0  0  0
   74.8930   83.3640   59.1850 C   0  0  0  0  0
   76.1690   87.8980   57.0400 N   0  0  0  0  0
   76.3450   89.0670   57.8920 C   0  0  0  0  0
   75.0870   89.2880   58.7180 C   0  0  0  0  0
   74.0060   88.8190   58.3550 O   0  0  0  0  0
   76.6310   90.3060   57.0470 C   0  0  0  0  0
   75.6650   90.4410   56.0230 O   0  0  0  0  0
   75.2530   90.0150   59.8200 N   0  0  0  0  0
   74.1810   90.3440   60.7590 C   0  0  0  0  0
   73.8410   91.8510   60.7010 C   0  0  0  0  0
   74.7130   92.6790   60.4070 O   0  0  0  0  0
   74.6420   89.9730   62.1790 C   0  0  0  0  0
   73.6650   90.3430   63.2800 C   0  0  0  0  0
   74.3370   90.3360   64.6470 C   0  0  0  0  0
   73.3110   90.5370   65.7450 C   0  0  0  0  0
   73.8730   90.5810   67.1110 N   0  3  0  0  0
   72.5840   92.2090   60.9750 N   0  0  0  0  0
   72.1920   93.6270   60.9720 C   0  0  0  0  0
   70.8520   94.0250   61.6120 C   0  0  0  0  0
   69.7780   93.7610   61.0650 O   0  0  0  0  0
   72.2410   94.1950   59.5510 C   0  0  0  0  0
   71.8070   93.2300   58.4950 C   0  0  0  0  0
   70.7960   92.3120   58.6950 N   0  0  0  0  0
   72.2250   93.0620   57.2150 C   0  0  0  0  0
   70.6110   91.6200   57.5830 C   0  0  0  0  0
   71.4630   92.0560   56.6690 N   0  0  0  0  0
   70.9390   94.6760   62.7730 N   0  0  0  0  0
   69.7760   95.1670   63.5180 C   0  0  0  0  0
   70.2380   95.9810   64.7230 C   0  0  0  0  0
   71.1670   96.7940   64.5880 O   0  0  0  0  0
   68.8410   94.0090   63.9430 C   0  0  0  0  0
   69.4380   92.8400   64.6960 C   0  0  0  0  0
   69.6920   92.7650   66.0400 C   0  0  0  0  0
   69.7570   91.5420   64.1550 C   0  0  0  0  0
   70.1410   91.4960   66.3720 N   0  0  0  0  0
   70.1890   90.7300   65.2340 C   0  0  0  0  0
   69.7140   90.9860   62.8640 C   0  0  0  0  0
   70.5760   89.3860   65.0600 C   0  0  0  0  0
   70.1030   89.6400   62.6910 C   0  0  0  0  0
   70.5260   88.8640   63.7880 C   0  0  0  0  0
   69.6040   95.7790   65.8820 N   0  0  0  0  0
   69.9580   96.4950   67.1290 C   0  0  0  0  0
   70.2420   97.9920   66.9030 C   0  0  0  0  0
   69.9000   98.5560   65.8520 O   0  0  0  0  0
   71.2120   95.8560   67.8220 C   0  0  0  0  0
   71.1060   94.4290   67.7910 O   0  0  0  0  0
   71.3220   96.2960   69.2890 C   0  0  0  0  0
   70.8570   98.6360   67.8940 N   0  0  0  0  0
   71.1770  100.0480   67.7630 C   0  0  0  0  0
   70.7370  100.8600   68.9620 C   0  0  0  0  0
   69.5300  101.1050   69.1410 O   0  0  0  0  0
   71.6980  101.2680   69.7920 N   0  0  0  0  0
   71.3860  102.0710   70.9730 C   0  0  0  0  0
   72.2620  103.3400   71.0330 C   0  0  0  0  0
   71.9030  104.3330   70.3430 O   0  0  0  0  0
   71.5750  101.2480   72.2760 C   0  0  0  0  0
   70.8510   99.8970   72.1550 C   0  0  0  0  0
   71.0080  102.0320   73.4750 C   0  0  0  0  0
   71.1780   98.9010   73.2900 C   0  0  0  0  0
   73.2980  103.3320   71.7460 O   0  0  0  0  0
   77.5220   79.0749   52.3134 H   0  0  0  0  0
   77.5163   79.4160   53.9445 H   0  0  0  0  0
   77.1258   80.6042   52.8434 H   0  0  0  0  0
   79.3607   80.5940   51.9443 H   0  0  0  0  0
   79.7808   79.3158   53.1287 H   0  0  0  0  0
   78.4473   82.6261   52.8882 H   0  0  0  0  0
   79.5942   83.1838   55.6089 H   0  0  0  0  0
   80.2806   85.4021   54.7599 H   0  0  0  0  0
   79.9235   84.7871   53.0747 H   0  0  0  0  0
   81.6238   83.0641   53.3978 H   0  0  0  0  0
   82.0143   83.7744   55.0069 H   0  0  0  0  0
   82.6746   85.8533   53.9475 H   0  0  0  0  0
   82.2321   85.1928   52.3374 H   0  0  0  0  0
   83.9053   83.3869   52.7013 H   0  0  0  0  0
   84.4334   84.2716   54.1950 H   0  0  0  0  0
   85.8345   84.7500   52.3141 H   0  0  0  0  0
   84.5317   85.3033   51.4347 H   0  0  0  0  0
   85.0166   86.1158   52.8064 H   0  0  0  0  0
   78.4553   84.8163   56.7757 H   0  0  0  0  0
   76.0974   85.9508   55.4404 H   0  0  0  0  0
   74.5327   85.2714   57.3165 H   0  0  0  0  0
   76.3684   84.8643   58.9388 H   0  0  0  0  0
   76.6841   83.2996   58.0553 H   0  0  0  0  0
   74.5277   84.0635   55.1900 H   0  0  0  0  0
   75.8134   82.9854   55.7864 H   0  0  0  0  0
   74.2046   82.9596   56.5495 H   0  0  0  0  0
   74.1288   84.0871   59.4699 H   0  0  0  0  0
   74.4369   82.5599   58.6075 H   0  0  0  0  0
   75.3569   82.9516   60.0810 H   0  0  0  0  0
   75.5923   87.9672   56.2016 H   0  0  0  0  0
   77.1926   88.8947   58.5553 H   0  0  0  0  0
   77.6167   90.2051   56.5928 H   0  0  0  0  0
   76.5940   91.1875   57.6871 H   0  0  0  0  0
   75.8596   91.2237   55.5022 H   0  0  0  0  0
   76.1890   90.3658   60.0232 H   0  0  0  0  0
   73.2855   89.7835   60.4907 H   0  0  0  0  0
   75.5602   90.5286   62.3697 H   0  0  0  0  0
   74.7521   88.8889   62.2037 H   0  0  0  0  0
   72.8588   89.6095   63.2875 H   0  0  0  0  0
   73.2887   91.3472   63.0850 H   0  0  0  0  0
   75.0632   91.1478   64.6884 H   0  0  0  0  0
   74.8293   89.3747   64.7944 H   0  0  0  0  0
   72.6331   89.6843   65.7071 H   0  0  0  0  0
   72.8368   91.5017   65.5647 H   0  0  0  0  0
   73.1185   90.7182   67.7835 H   0  0  0  0  0
   74.3510   89.7020   67.3092 H   0  0  0  0  0
   74.5361   91.3530   67.1799 H   0  0  0  0  0
   71.8895   91.4930   61.1882 H   0  0  0  0  0
   72.9387   94.0622   61.6362 H   0  0  0  0  0
   73.2785   94.4567   59.3431 H   0  0  0  0  0
   71.5549   95.0413   59.5173 H   0  0  0  0  0
   73.0161   93.6197   56.7138 H   0  0  0  0  0
   69.8795   90.8241   57.4429 H   0  0  0  0  0
   71.8664   94.8413   63.1641 H   0  0  0  0  0
   69.1954   95.8155   62.8619 H   0  0  0  0  0
   68.4673   93.5868   63.0101 H   0  0  0  0  0
   68.1262   94.4578   64.6328 H   0  0  0  0  0
   69.5602   93.5846   66.7464 H   0  0  0  0  0
   69.3865   91.5831   62.0129 H   0  0  0  0  0
   70.9039   88.7804   65.9049 H   0  0  0  0  0
   70.0757   89.1956   61.6961 H   0  0  0  0  0
   70.8202   87.8271   63.6255 H   0  0  0  0  0
   68.8422   95.1013   65.9089 H   0  0  0  0  0
   69.0829   96.3998   67.7719 H   0  0  0  0  0
   72.0963   96.1903   67.2794 H   0  0  0  0  0
   71.8753   94.0428   68.2160 H   0  0  0  0  0
   71.4141   97.3811   69.3356 H   0  0  0  0  0
   70.4286   95.9824   69.8290 H   0  0  0  0  0
   72.2011   95.8358   69.7401 H   0  0  0  0  0
   71.1043   98.1363   68.7481 H   0  0  0  0  0
   70.6511  100.4307   66.8883 H   0  0  0  0  0
   72.2597  100.1392   67.6760 H   0  0  0  0  0
   72.6673  101.0154   69.5994 H   0  0  0  0  0
   70.3406  102.3686   70.8917 H   0  0  0  0  0
   71.0890  104.1220   69.8800 H   0  0  0  0  0
   72.6393  101.0705   72.4307 H   0  0  0  0  0
   71.1770   99.4394   71.2210 H   0  0  0  0  0
   69.7810  100.0995   72.2025 H   0  0  0  0  0
   71.5346  102.9818   73.5682 H   0  0  0  0  0
   69.9458  102.2181   73.3163 H   0  0  0  0  0
   71.1439  101.4489   74.3858 H   0  0  0  0  0
   72.2479   98.6928   73.2919 H   0  0  0  0  0
   70.8893   99.3353   74.2472 H   0  0  0  0  0
   70.6266   97.9747   73.1288 H   0  0  0  0  0
  1  2  1  0  0  0
  2  3  1  0  0  0
  3  4  2  0  0  0
  3  5  1  0  0  0
  5  6  1  0  0  0
  6  7  1  0  0  0
  6  9  1  0  0  0
  7  8  2  0  0  0
  7 14  1  0  0  0
  9 10  1  0  0  0
 10 11  1  0  0  0
 11 12  1  0  0  0
 12 13  1  0  0  0
 14 15  1  0  0  0
 15 16  1  0  0  0
 15 18  1  0  0  0
 16 17  2  0  0  0
 16 22  1  0  0  0
 18 19  1  0  0  0
 18 20  1  0  0  0
 19 21  1  0  0  0
 22 23  1  0  0  0
 23 24  1  0  0  0
 23 26  1  0  0  0
 24 25  2  0  0  0
 24 28  1  0  0  0
 26 27  1  0  0  0
 28 29  1  0  0  0
 29 30  1  0  0  0
 29 32  1  0  0  0
 30 31  2  0  0  0
 30 37  1  0  0  0
 32 33  1  0  0  0
 33 34  1  0  0  0
 34 35  1  0  0  0
 35 36  1  0  0  0
 37 38  1  0  0  0
 38 39  1  0  0  0
 38 41  1  0  0  0
 39 40  2  0  0  0
 39 47  1  0  0  0
 41 42  1  0  0  0
 42 43  4  0  0  0
 42 44  4  0  0  0
 43 45  4  0  0  0
 44 46  4  0  0  0
 45 46  4  0  0  0
 47 48  1  0  0  0
 48 49  1  0  0  0
 48 51  1  0  0  0
 49 50  2  0  0  0
 49 61  1  0  0  0
 51 52  1  0  0  0
 52 53  4  0  0  0
 52 54  4  0  0  0
 53 55  4  0  0  0
 54 56  4  0  0  0
 54 57  4  0  0  0
 55 56  4  0  0  0
 56 58  4  0  0  0
 57 59  4  0  0  0
 58 60  4  0  0  0
 59 60  4  0  0  0
 61 62  1  0  0  0
 62 63  1  0  0  0
 62 65  1  0  0  0
 63 64  2  0  0  0
 63 68  1  0  0  0
 65 66  1  0  0  0
 65 67  1  0  0  0
 68 69  1  0  0  0
 69 70  1  0  0  0
 70 71  2  0  0  0
 70 72  1  0  0  0
 72 73  1  0  0  0
 73 74  1  0  0  0
 73 76  1  0  0  0
 74 75  1  0  0  0
 74 80  2  0  0  0
 76 77  1  0  0  0
 76 78  1  0  0  0
 77 79  1  0  0  0
  1 81  1  0  0  0
  1 82  1  0  0  0
  1 83  1  0  0  0
  2 84  1  0  0  0
  2 85  1  0  0  0
  5 86  1  0  0  0
  6 87  1  0  0  0
  9 88  1  0  0  0
  9 89  1  0  0  0
 10 90  1  0  0  0
 10 91  1  0  0  0
 11 92  1  0  0  0
 11 93  1  0  0  0
 12 94  1  0  0  0
 12 95  1  0  0  0
 13 96  1  0  0  0
 13 97  1  0  0  0
 13 98  1  0  0  0
 14 99  1  0  0  0
 15100  1  0  0  0
 18101  1  0  0  0
 19102  1  0  0  0
 19103  1  0  0  0
 20104  1  0  0  0
 20105  1  0  0  0
 20106  1  0  0  0
 21107  1  0  0  0
 21108  1  0  0  0
 21109  1  0  0  0
 22110  1  0  0  0
 23111  1  0  0  0
 26112  1  0  0  0
 26113  1  0  0  0
 27114  1  0  0  0
 28115  1  0  0  0
 29116  1  0  0  0
 32117  1  0  0  0
 32118  1  0  0  0
 33119  1  0  0  0
 33120  1  0  0  0
 34121  1  0  0  0
 34122  1  0  0  0
 35123  1  0  0  0
 35124  1  0  0  0
 36125  1  0  0  0
 36126  1  0  0  0
 36127  1  0  0  0
 37128  1  0  0  0
 38129  1  0  0  0
 41130  1  0  0  0
 41131  1  0  0  0
 44132  1  0  0  0
 45133  1  0  0  0
 47134  1  0  0  0
 48135  1  0  0  0
 51136  1  0  0  0
 51137  1  0  0  0
 53138  1  0  0  0
 57139  1  0  0  0
 58140  1  0  0  0
 59141  1  0  0  0
 60142  1  0  0  0
 61143  1  0  0  0
 62144  1  0  0  0
 65145  1  0  0  0
 66146  1  0  0  0
 67147  1  0  0  0
 67148  1  0  0  0
 67149  1  0  0  0
 68150  1  0  0  0
 69151  1  0  0  0
 69152  1  0  0  0
 72153  1  0  0  0
 73154  1  0  0  0
 75155  1  0  0  0
 76156  1  0  0  0
 77157  1  0  0  0
 77158  1  0  0  0
 78159  1  0  0  0
 78160  1  0  0  0
 78161  1  0  0  0
 79162  1  0  0  0
 79163  1  0  0  0
 79164  1  0  0  0
M  END
$$$$
