4j77_ligand
  -I-interpret- 

 88 87  0  0  0  0  0  0  0  0999 V2000
  -43.5910  -19.4180  -46.2650 N   0  3  0  0  0
  -44.6750  -18.9860  -45.3930 C   0  0  0  0  0
  -45.0160  -17.5110  -45.5900 C   0  0  0  0  0
  -44.1790  -16.6390  -45.3600 O   0  0  0  0  0
  -44.2820  -19.1900  -43.9200 C   0  0  0  0  0
  -45.0040  -20.3260  -43.2110 C   0  0  0  0  0
  -46.4710  -20.0070  -42.8840 C   0  0  0  0  0
  -47.0960  -21.2020  -42.1550 C   0  0  0  0  0
  -48.5750  -21.2300  -42.0970 N   0  3  0  0  0
  -46.2480  -17.2150  -45.9770 N   0  0  0  0  0
  -46.7000  -15.8440  -45.8550 C   0  0  0  0  0
  -46.8540  -15.4680  -44.3860 C   0  0  0  0  0
  -47.1980  -16.3060  -43.5460 O   0  0  0  0  0
  -48.0500  -15.6580  -46.5290 C   0  0  0  0  0
  -47.9690  -15.3210  -47.9990 C   0  0  0  0  0
  -49.3430  -15.2640  -48.6180 C   0  0  0  0  0
  -50.0270  -14.2420  -48.4340 O   0  0  0  0  0
  -49.7500  -16.2590  -49.2420 O   0  0  0  0  0
  -46.6290  -14.1900  -44.0950 N   0  0  0  0  0
  -46.9890  -13.6250  -42.7990 C   0  0  0  0  0
  -46.1830  -14.3330  -41.7290 C   0  0  0  0  0
  -46.6820  -14.6460  -40.6360 O   0  0  0  0  0
  -48.5000  -13.7570  -42.5750 C   0  0  0  0  0
  -49.3120  -12.7230  -43.3680 C   0  0  0  0  0
  -49.2110  -11.3910  -42.6220 C   0  0  0  0  0
  -49.9960  -10.2840  -43.2850 C   0  0  0  0  0
  -49.7660   -9.0450  -42.5400 N   0  3  0  0  0
  -44.9280  -14.5680  -42.0940 N   0  0  0  0  0
  -43.9490  -15.2330  -41.2650 C   0  0  0  0  0
  -43.6130  -14.3820  -40.0320 C   0  0  0  0  0
  -43.4520  -14.9180  -38.9440 O   0  0  0  0  0
  -42.6910  -15.4830  -42.1100 C   0  0  0  0  0
  -41.7780  -16.3650  -41.5010 O   0  0  0  0  0
  -43.4980  -13.0650  -40.1940 N   0  0  0  0  0
  -43.0240  -12.2410  -39.0810 C   0  0  0  0  0
  -44.1130  -11.9760  -38.0460 C   0  0  0  0  0
  -45.3080  -12.2280  -38.2730 O   0  0  0  0  0
  -42.5200  -10.8660  -39.5250 C   0  0  0  0  0
  -41.3050  -10.9250  -40.4480 C   0  0  0  0  0
  -40.5720  -11.9340  -40.4640 O   0  0  0  0  0
  -41.1120   -9.9180  -41.1600 O   0  0  0  0  0
  -43.7910  -11.4160  -36.9760 O   0  0  0  0  0
  -43.8628  -19.2781  -47.2381 H   0  0  0  0  0
  -42.7545  -18.8706  -46.0623 H   0  0  0  0  0
  -43.3994  -20.4067  -46.1030 H   0  0  0  0  0
  -45.5459  -19.5885  -45.6511 H   0  0  0  0  0
  -44.5476  -18.2728  -43.3944 H   0  0  0  0  0
  -43.2206  -19.4379  -43.9098 H   0  0  0  0  0
  -44.4885  -20.5046  -42.2674 H   0  0  0  0  0
  -44.9961  -21.1876  -43.8786 H   0  0  0  0  0
  -47.0181  -19.8145  -43.8069 H   0  0  0  0  0
  -46.5202  -19.1235  -42.2475 H   0  0  0  0  0
  -46.7515  -21.1434  -41.1225 H   0  0  0  0  0
  -46.7959  -22.0897  -42.7118 H   0  0  0  0  0
  -48.8786  -22.0629  -41.5926 H   0  0  0  0  0
  -48.9109  -20.3970  -41.6136 H   0  0  0  0  0
  -48.9509  -21.2493  -43.0450 H   0  0  0  0  0
  -46.8642  -17.9360  -46.3523 H   0  0  0  0  0
  -45.9553  -15.2090  -46.3349 H   0  0  0  0  0
  -48.5429  -14.8210  -46.0346 H   0  0  0  0  0
  -48.5834  -16.6049  -46.4458 H   0  0  0  0  0
  -47.3905  -16.0949  -48.5034 H   0  0  0  0  0
  -47.4960  -14.3451  -48.1081 H   0  0  0  0  0
  -49.5170  -13.6034  -47.9304 H   0  0  0  0  0
  -46.1938  -13.5897  -44.7955 H   0  0  0  0  0
  -46.7551  -12.5612  -42.7582 H   0  0  0  0  0
  -48.6958  -13.5935  -41.5153 H   0  0  0  0  0
  -48.8020  -14.7485  -42.9125 H   0  0  0  0  0
  -50.3527  -13.0365  -43.4503 H   0  0  0  0  0
  -48.9197  -12.6244  -44.3802 H   0  0  0  0  0
  -48.1621  -11.0945  -42.6112 H   0  0  0  0  0
  -49.6214  -11.5374  -41.6229 H   0  0  0  0  0
  -51.0584  -10.5279  -43.2846 H   0  0  0  0  0
  -49.6714  -10.1637  -44.3186 H   0  0  0  0  0
  -50.2899   -8.2857  -42.9753 H   0  0  0  0  0
  -50.0779   -9.1662  -41.5764 H   0  0  0  0  0
  -48.7705   -8.8228  -42.5510 H   0  0  0  0  0
  -44.6358  -14.2586  -43.0210 H   0  0  0  0  0
  -44.3503  -16.1814  -40.9078 H   0  0  0  0  0
  -42.1867  -14.5257  -42.2417 H   0  0  0  0  0
  -43.0093  -15.9349  -43.0494 H   0  0  0  0  0
  -41.0164  -16.4812  -42.0738 H   0  0  0  0  0
  -43.7384  -12.6340  -41.0867 H   0  0  0  0  0
  -42.2100  -12.8263  -38.6534 H   0  0  0  0  0
  -42.2213  -10.3235  -38.6280 H   0  0  0  0  0
  -43.3270  -10.3869  -40.0794 H   0  0  0  0  0
  -41.7954   -9.2672  -40.9839 H   0  0  0  0  0
  -42.8392  -11.2929  -36.9544 H   0  0  0  0  0
  1  2  1  0  0  0
  2  3  1  0  0  0
  2  5  1  0  0  0
  3  4  2  0  0  0
  3 10  1  0  0  0
  5  6  1  0  0  0
  6  7  1  0  0  0
  7  8  1  0  0  0
  8  9  1  0  0  0
 10 11  1  0  0  0
 11 12  1  0  0  0
 11 14  1  0  0  0
 12 13  2  0  0  0
 12 19  1  0  0  0
 14 15  1  0  0  0
 15 16  1  0  0  0
 16 17  1  0  0  0
 16 18  2  0  0  0
 19 20  1  0  0  0
 20 21  1  0  0  0
 20 23  1  0  0  0
 21 22  2  0  0  0
 21 28  1  0  0  0
 23 24  1  0  0  0
 24 25  1  0  0  0
 25 26  1  0  0  0
 26 27  1  0  0  0
 28 29  1  0  0  0
 29 30  1  0  0  0
 29 32  1  0  0  0
 30 31  2  0  0  0
 30 34  1  0  0  0
 32 33  1  0  0  0
 34 35  1  0  0  0
 35 36  1  0  0  0
 35 38  1  0  0  0
 36 37  2  0  0  0
 36 42  1  0  0  0
 38 39  1  0  0  0
 39 40  2  0  0  0
 39 41  1  0  0  0
  1 43  1  0  0  0
  1 44  1  0  0  0
  1 45  1  0  0  0
  2 46  1  0  0  0
  5 47  1  0  0  0
  5 48  1  0  0  0
  6 49  1  0  0  0
  6 50  1  0  0  0
  7 51  1  0  0  0
  7 52  1  0  0  0
  8 53  1  0  0  0
  8 54  1  0  0  0
  9 55  1  0  0  0
  9 56  1  0  0  0
  9 57  1  0  0  0
 10 58  1  0  0  0
 11 59  1  0  0  0
 14 60  1  0  0  0
 14 61  1  0  0  0
 15 62  1  0  0  0
 15 63  1  0  0  0
 17 64  1  0  0  0
 19 65  1  0  0  0
 20 66  1  0  0  0
 23 67  1  0  0  0
 23 68  1  0  0  0
 24 69  1  0  0  0
 24 70  1  0  0  0
 25 71  1  0  0  0
 25 72  1  0  0  0
 26 73  1  0  0  0
 26 74  1  0  0  0
 27 75  1  0  0  0
 27 76  1  0  0  0
 27 77  1  0  0  0
 28 78  1  0  0  0
 29 79  1  0  0  0
 32 80  1  0  0  0
 32 81  1  0  0  0
 33 82  1  0  0  0
 34 83  1  0  0  0
 35 84  1  0  0  0
 38 85  1  0  0  0
 38 86  1  0  0  0
 41 87  1  0  0  0
 42 88  1  0  0  0
M  END
$$$$
