### 
### Created by X-TOOL on Mon Sep 10 21:13:14 2018
### 

@<TRIPOS>MOLECULE
4j77_ligand
   85    84     1     0     0
SMALL
GAST_HUCK


@<TRIPOS>ATOM
      1 N         -43.5910  -19.4180  -46.2650 N.4       1 LYS         0.2379
      2 CA        -44.6750  -18.9860  -45.3930 C.3       1 LYS         0.0650
      3 C         -45.0160  -17.5110  -45.5900 C.2       1 LYS         0.2267
      4 O         -44.1790  -16.6390  -45.3600 O.2       1 LYS        -0.3907
      5 CB        -44.2820  -19.1900  -43.9200 C.3       1 LYS         0.0080
      6 CG        -45.0040  -20.3260  -43.2110 C.3       1 LYS        -0.0410
      7 CD        -46.4710  -20.0070  -42.8840 C.3       1 LYS        -0.0123
      8 CE        -47.0960  -21.2020  -42.1550 C.3       1 LYS        -0.0354
      9 NZ        -48.5750  -21.2300  -42.0970 N.4       1 LYS         0.2185
     10 N         -46.2480  -17.2150  -45.9770 N.am      1 GLU        -0.2609
     11 CA        -46.7000  -15.8440  -45.8550 C.3       1 GLU         0.1326
     12 C         -46.8540  -15.4680  -44.3860 C.2       1 GLU         0.2040
     13 O         -47.1980  -16.3060  -43.5460 O.2       1 GLU        -0.3944
     14 CB        -48.0500  -15.6580  -46.5290 C.3       1 GLU        -0.0008
     15 CG        -47.9690  -15.3210  -47.9990 C.3       1 GLU         0.0044
     16 CD        -49.3430  -15.2640  -48.6180 C.2       1 GLU         0.0350
     17 OE1       -50.0270  -14.2420  -48.4340 O.co2     1 GLU        -0.5690
     18 OE2       -49.7500  -16.2590  -49.2420 O.co2     1 GLU        -0.5690
     19 N         -46.6290  -14.1900  -44.0950 N.am      1 LYS        -0.2637
     20 CA        -46.9890  -13.6250  -42.7990 C.3       1 LYS         0.1310
     21 C         -46.1830  -14.3330  -41.7290 C.2       1 LYS         0.2040
     22 O         -46.6820  -14.6460  -40.6360 O.2       1 LYS        -0.3944
     23 CB        -48.5000  -13.7570  -42.5750 C.3       1 LYS        -0.0122
     24 CG        -49.3120  -12.7230  -43.3680 C.3       1 LYS        -0.0440
     25 CD        -49.2110  -11.3910  -42.6220 C.3       1 LYS        -0.0124
     26 CE        -49.9960  -10.2840  -43.2850 C.3       1 LYS        -0.0354
     27 NZ        -49.7660   -9.0450  -42.5400 N.4       1 LYS         0.2185
     28 N         -44.9280  -14.5680  -42.0940 N.am      1 SER        -0.2616
     29 CA        -43.9490  -15.2330  -41.2650 C.3       1 SER         0.1539
     30 C         -43.6130  -14.3820  -40.0320 C.2       1 SER         0.2057
     31 O         -43.4520  -14.9180  -38.9440 O.2       1 SER        -0.3943
     32 CB        -42.6910  -15.4830  -42.1100 C.3       1 SER         0.0843
     33 OG        -41.7780  -16.3650  -41.5010 O.3       1 SER        -0.3903
     34 N         -43.4980  -13.0650  -40.1940 N.am      1 ASP        -0.2679
     35 CA        -43.0240  -12.2410  -39.0810 C.3       1 ASP         0.1057
     36 C         -44.1130  -11.9760  -38.0460 C.2       1 ASP         0.0618
     37 O         -45.3080  -12.2280  -38.2730 O.co2     1 ASP        -0.5665
     38 CB        -42.5200  -10.8660  -39.5250 C.3       1 ASP         0.0351
     39 CG        -41.3050  -10.9250  -40.4480 C.2       1 ASP         0.0387
     40 OD1       -40.5720  -11.9340  -40.4640 O.co2     1 ASP        -0.5688
     41 OD2       -41.1120   -9.9180  -41.1600 O.co2     1 ASP        -0.5688
     42 OXT       -43.7910  -11.4160  -36.9760 O.co2     1 ASP        -0.5665
     43 H1        -43.3985  -20.3941  -46.1033 H         1 LYS         0.2015
     44 H2        -42.7647  -18.8754  -46.0679 H         1 LYS         0.2015
     45 H3        -43.8598  -19.2834  -47.2271 H         1 LYS         0.2015
     46 H4        -45.5658  -19.5907  -45.6184 H         1 LYS         0.1098
     47 H5        -44.4979  -18.2578  -43.3774 H         1 LYS         0.0346
     48 H6        -43.2021  -19.3955  -43.8807 H         1 LYS         0.0346
     49 H7        -44.4761  -20.5414  -42.2703 H         1 LYS         0.0270
     50 H8        -44.9765  -21.2146  -43.8587 H         1 LYS         0.0270
     51 H9        -47.0225  -19.8153  -43.8162 H         1 LYS         0.0317
     52 H10       -46.5192  -19.1168  -42.2397 H         1 LYS         0.0317
     53 H11       -46.7194  -21.1994  -41.1215 H         1 LYS         0.0813
     54 H12       -46.7625  -22.1181  -42.6645 H         1 LYS         0.0813
     55 H13       -48.8762  -22.0528  -41.5987 H         1 LYS         0.1994
     56 H14       -48.9477  -21.2491  -43.0334 H         1 LYS         0.1994
     57 H15       -48.9082  -20.4072  -41.6194 H         1 LYS         0.1994
     58 H16       -46.8522  -17.9218  -46.3449 H         1 GLU         0.1885
     59 H17       -45.9609  -15.1810  -46.3285 H         1 GLU         0.0801
     60 H18       -48.5812  -14.8420  -46.0172 H         1 GLU         0.0330
     61 H19       -48.6209  -16.5920  -46.4206 H         1 GLU         0.0330
     62 H20       -47.3752  -16.0916  -48.5123 H         1 GLU         0.0433
     63 H21       -47.4806  -14.3425  -48.1172 H         1 GLU         0.0433
     64 H22       -46.2023  -13.6015  -44.7818 H         1 LYS         0.1883
     65 H23       -46.7289  -12.5563  -42.7861 H         1 LYS         0.0800
     66 H24       -48.7096  -13.6216  -41.5037 H         1 LYS         0.0312
     67 H25       -48.8147  -14.7642  -42.8858 H         1 LYS         0.0312
     68 H26       -50.3636  -13.0394  -43.4315 H         1 LYS         0.0269
     69 H27       -48.8988  -12.6181  -44.3820 H         1 LYS         0.0269
     70 H28       -48.1531  -11.0929  -42.5779 H         1 LYS         0.0317
     71 H29       -49.5955  -11.5307  -41.6009 H         1 LYS         0.0317
     72 H30       -51.0679  -10.5306  -43.2741 H         1 LYS         0.0813
     73 H31       -49.6587  -10.1605  -44.3247 H         1 LYS         0.0813
     74 H32       -50.2833   -8.2939  -42.9693 H         1 LYS         0.1994
     75 H33       -48.7825   -8.8244  -42.5503 H         1 LYS         0.1994
     76 H34       -50.0739   -9.1635  -41.5875 H         1 LYS         0.1994
     77 H35       -44.6415  -14.2646  -43.0028 H         1 SER         0.1884
     78 H36       -44.3560  -16.1977  -40.9280 H         1 SER         0.0823
     79 H37       -42.1867  -14.5201  -42.2789 H         1 SER         0.0606
     80 H38       -42.9982  -15.9105  -43.0758 H         1 SER         0.0606
     81 H39       -41.4973  -16.0034  -40.6686 H         1 SER         0.2097
     82 H40       -43.7336  -12.6425  -41.0692 H         1 ASP         0.1876
     83 H41       -42.1971  -12.7818  -38.5975 H         1 ASP         0.0745
     84 H42       -42.2470  -10.2903  -38.6284 H         1 ASP         0.0471
     85 H43       -43.3349  -10.3526  -40.0564 H         1 ASP         0.0471
@<TRIPOS>BOND
     1    1    2 1  
     2    2    3 1  
     3    2    5 1  
     4    3    4 2  
     5    3   10 am 
     6    5    6 1  
     7    6    7 1  
     8    7    8 1  
     9    8    9 1  
    10   10   11 1  
    11   11   12 1  
    12   11   14 1  
    13   12   13 2  
    14   12   19 am 
    15   14   15 1  
    16   15   16 1  
    17   16   17 ar 
    18   16   18 ar 
    19   19   20 1  
    20   20   21 1  
    21   20   23 1  
    22   21   22 2  
    23   21   28 am 
    24   23   24 1  
    25   24   25 1  
    26   25   26 1  
    27   26   27 1  
    28   28   29 1  
    29   29   30 1  
    30   29   32 1  
    31   30   31 2  
    32   30   34 am 
    33   32   33 1  
    34   34   35 1  
    35   35   36 1  
    36   35   38 1  
    37   36   37 ar 
    38   36   42 ar 
    39   38   39 1  
    40   39   40 ar 
    41   39   41 ar 
    42    1   43 1  
    43    1   44 1  
    44    1   45 1  
    45    2   46 1  
    46    5   47 1  
    47    5   48 1  
    48    6   49 1  
    49    6   50 1  
    50    7   51 1  
    51    7   52 1  
    52    8   53 1  
    53    8   54 1  
    54    9   55 1  
    55    9   56 1  
    56    9   57 1  
    57   10   58 1  
    58   11   59 1  
    59   14   60 1  
    60   14   61 1  
    61   15   62 1  
    62   15   63 1  
    63   19   64 1  
    64   20   65 1  
    65   23   66 1  
    66   23   67 1  
    67   24   68 1  
    68   24   69 1  
    69   25   70 1  
    70   25   71 1  
    71   26   72 1  
    72   26   73 1  
    73   27   74 1  
    74   27   75 1  
    75   27   76 1  
    76   28   77 1  
    77   29   78 1  
    78   32   79 1  
    79   32   80 1  
    80   33   81 1  
    81   34   82 1  
    82   35   83 1  
    83   38   84 1  
    84   38   85 1  
@<TRIPOS>SUBSTRUCTURE
     1 LYS         1

