2rip_ligand
  -I-interpret- 

 47 50  0  0  0  0  0  0  0  0999 V2000
   63.3610   52.9320   84.3060 N   0  0  0  0  0
   62.2430   54.5500   86.7820 N   0  3  0  0  0
   64.8080   53.2900   87.7100 C   0  0  0  0  0
   65.2980   53.1670   90.0900 C   0  0  0  0  0
   64.9820   52.1840   91.2450 C   0  0  0  0  0
   63.9680   51.4280   89.1370 C   0  0  0  0  0
   63.9520   51.2120   90.6520 C   0  0  0  0  0
   63.5370   52.7540   82.9750 C   0  0  0  0  0
   60.1050   52.0260   80.3990 C   0  0  0  0  0
   59.1210   54.1340   81.2730 C   0  0  0  0  0
   62.2850   52.4200   82.0030 C   0  0  0  0  0
   64.6870   52.9160   82.4890 O   0  0  0  0  0
   62.1870   51.1990   81.1080 C   0  0  0  0  0
   61.1390   51.0430   80.3510 N   0  0  0  0  0
   60.1900   53.1070   81.2080 C   0  0  0  0  0
   61.3140   53.2990   82.0180 N   0  0  0  0  0
   57.9770   54.0120   80.4890 C   0  0  0  0  0
   58.8950   51.8830   79.5580 C   0  0  0  0  0
   57.8570   52.8330   79.6130 C   0  0  0  0  0
   64.4090   53.4380   85.1660 C   0  0  0  0  0
   64.0050   52.8100   86.4990 C   0  0  0  0  0
   62.5060   53.1240   86.5200 C   0  0  0  0  0
   62.1570   52.6870   85.0930 C   0  0  0  0  0
   65.5450   54.2690   87.5540 O   0  0  0  0  0
   64.6930   52.6590   88.8790 N   0  0  0  0  0
   61.2362   54.7135   86.7872 H   0  0  0  0  0
   62.6349   54.8059   87.6883 H   0  0  0  0  0
   62.6765   55.1143   86.0513 H   0  0  0  0  0
   66.3766   53.2543   89.9595 H   0  0  0  0  0
   64.8978   54.1542   90.3208 H   0  0  0  0  0
   64.5981   52.6986   92.1258 H   0  0  0  0  0
   65.8748   51.6678   91.5978 H   0  0  0  0  0
   62.9509   51.4968   88.7511 H   0  0  0  0  0
   64.4521   50.5888   88.6375 H   0  0  0  0  0
   62.9593   51.3995   91.0613 H   0  0  0  0  0
   64.2020   50.1806   90.9007 H   0  0  0  0  0
   59.2321   54.9897   81.9390 H   0  0  0  0  0
   62.9869   50.4587   81.0987 H   0  0  0  0  0
   57.1920   54.7675   80.5222 H   0  0  0  0  0
   58.8063   51.0294   78.8860 H   0  0  0  0  0
   56.9622   52.6959   79.0059 H   0  0  0  0  0
   64.4793   54.5255   85.1894 H   0  0  0  0  0
   65.4163   53.1797   84.8394 H   0  0  0  0  0
   64.2222   51.7446   86.5762 H   0  0  0  0  0
   61.9226   52.6373   87.3016 H   0  0  0  0  0
   61.8623   51.6382   85.0568 H   0  0  0  0  0
   61.3041   53.2420   84.7022 H   0  0  0  0  0
  1  8  1  0  0  0
 20  1  1  0  0  0
  1 23  1  0  0  0
 22  2  1  0  0  0
 21  3  1  0  0  0
  3 24  2  0  0  0
  3 25  1  0  0  0
  4  5  1  0  0  0
 25  4  1  0  0  0
  7  5  1  0  0  0
  6  7  1  0  0  0
 25  6  1  0  0  0
  8 11  1  0  0  0
  8 12  2  0  0  0
 14  9  4  0  0  0
 15  9  4  0  0  0
  9 18  4  0  0  0
 15 10  4  0  0  0
 10 17  4  0  0  0
 11 13  4  0  0  0
 11 16  4  0  0  0
 13 14  4  0  0  0
 16 15  4  0  0  0
 17 19  4  0  0  0
 18 19  4  0  0  0
 21 20  1  0  0  0
 21 22  1  0  0  0
 22 23  1  0  0  0
  2 26  1  0  0  0
  2 27  1  0  0  0
  2 28  1  0  0  0
  4 29  1  0  0  0
  4 30  1  0  0  0
  5 31  1  0  0  0
  5 32  1  0  0  0
  6 33  1  0  0  0
  6 34  1  0  0  0
  7 35  1  0  0  0
  7 36  1  0  0  0
 10 37  1  0  0  0
 13 38  1  0  0  0
 17 39  1  0  0  0
 18 40  1  0  0  0
 19 41  1  0  0  0
 20 42  1  0  0  0
 20 43  1  0  0  0
 21 44  1  0  0  0
 22 45  1  0  0  0
 23 46  1  0  0  0
 23 47  1  0  0  0
M  END
$$$$
