### 
### Created by X-TOOL on Mon Sep 10 21:13:23 2018
### 

@<TRIPOS>MOLECULE
4y6r_ligand
   32    32     1     0     0
SMALL
GAST_HUCK


@<TRIPOS>ATOM
      1 O6          0.3340   15.3960   23.1770 O.co2     1 RF7        -0.5621
      2 P4         -0.5340   14.6220   22.2160 P.3       1 RF7         0.0602
      3 O5         -1.7420   14.0970   22.9330 O.co2     1 RF7        -0.5621
      4 O7         -0.9940   15.5250   21.0900 O.co2     1 RF7        -0.5621
      5 C1          0.3580   13.2240   21.4690 C.3       1 RF7         0.0340
      6 C2          1.2440   12.4450   22.4410 C.3       1 RF7         0.0243
      7 C3          2.2900   11.6700   21.6390 C.3       1 RF7         0.0528
      8 C8          3.3860   12.5130   21.0220 C.2       1 RF7         0.2033
      9 N9          3.9970   12.0910   19.9120 N.am      1 RF7        -0.1536
     10 O10         5.0030   12.8710   19.3520 O.3       1 RF7        -0.2694
     11 C11         3.6190   10.8420   19.2620 C.3       1 RF7         0.0516
     12 O12         3.7420   13.5670   21.5340 O.2       1 RF7        -0.3966
     13 C13         0.4880   11.4120   23.2240 C.ar      1 RF7        -0.0364
     14 C15        -0.7930   11.0050   22.8670 C.ar      1 RF7        -0.0599
     15 C16        -1.4480   10.0270   23.6110 C.ar      1 RF7        -0.0685
     16 C18        -0.8270    9.4430   24.7080 C.ar      1 RF7        -0.0687
     17 C17         0.4520    9.8380   25.0610 C.ar      1 RF7        -0.0685
     18 C14         1.1040   10.8150   24.3220 C.ar      1 RF7        -0.0599
     19 H1          0.9947   13.6147   20.6616 H         1 RF7         0.0478
     20 H2         -0.3834   12.5291   21.0477 H         1 RF7         0.0478
     21 H3          1.7300   13.1510   23.1304 H         1 RF7         0.0499
     22 H4          1.7713   11.1394   20.8270 H         1 RF7         0.0527
     23 H5          2.7616   10.9390   22.3122 H         1 RF7         0.0527
     24 H6          5.7055   12.9800   19.9822 H         1 RF7         0.2492
     25 H7          4.2454   10.6882   18.3709 H         1 RF7         0.0514
     26 H8          2.5615   10.8896   18.9630 H         1 RF7         0.0514
     27 H9          3.7650   10.0057   19.9615 H         1 RF7         0.0514
     28 H10        -1.2824   11.4498   22.0081 H         1 RF7         0.0557
     29 H11        -2.4493    9.7192   23.3323 H         1 RF7         0.0599
     30 H12        -1.3411    8.6823   25.2843 H         1 RF7         0.0559
     31 H13         0.9438    9.3845   25.9140 H         1 RF7         0.0599
     32 H14         2.1062   11.1179   24.6028 H         1 RF7         0.0557
@<TRIPOS>BOND
     1    1    2 ar 
     2    2    3 ar 
     3    2    4 ar 
     4    2    5 1  
     5    5    6 1  
     6    6    7 1  
     7    6   13 1  
     8    7    8 1  
     9    8    9 am 
    10    8   12 2  
    11    9   10 1  
    12    9   11 1  
    13   13   14 ar 
    14   13   18 ar 
    15   14   15 ar 
    16   15   16 ar 
    17   16   17 ar 
    18   17   18 ar 
    19    5   19 1  
    20    5   20 1  
    21    6   21 1  
    22    7   22 1  
    23    7   23 1  
    24   10   24 1  
    25   11   25 1  
    26   11   26 1  
    27   11   27 1  
    28   14   28 1  
    29   15   29 1  
    30   16   30 1  
    31   17   31 1  
    32   18   32 1  
@<TRIPOS>SUBSTRUCTURE
     1 RF7         1

