4y6r_ligand
  -I-interpret- 

 34 34  0  0  0  0  0  0  0  0999 V2000
    0.3340   15.3960   23.1770 O   0  0  0  0  0
   -0.5340   14.6220   22.2160 P   0  0  0  0  0
   -1.7420   14.0970   22.9330 O   0  0  0  0  0
   -0.9940   15.5250   21.0900 O   0  0  0  0  0
    0.3580   13.2240   21.4690 C   0  0  0  0  0
    1.2440   12.4450   22.4410 C   0  0  0  0  0
    2.2900   11.6700   21.6390 C   0  0  0  0  0
    3.3860   12.5130   21.0220 C   0  0  0  0  0
    3.9970   12.0910   19.9120 N   0  0  0  0  0
    5.0030   12.8710   19.3520 O   0  0  0  0  0
    3.6190   10.8420   19.2620 C   0  0  0  0  0
    3.7420   13.5670   21.5340 O   0  0  0  0  0
    0.4880   11.4120   23.2240 C   0  0  0  0  0
   -0.7930   11.0050   22.8670 C   0  0  0  0  0
   -1.4480   10.0270   23.6110 C   0  0  0  0  0
   -0.8270    9.4430   24.7080 C   0  0  0  0  0
    0.4520    9.8380   25.0610 C   0  0  0  0  0
    1.1040   10.8150   24.3220 C   0  0  0  0  0
    1.1052   15.7294   22.7125 H   0  0  0  0  0
   -0.2284   15.8676   20.6230 H   0  0  0  0  0
    1.0127   13.6369   20.7016 H   0  0  0  0  0
   -0.3939   12.5288   21.0957 H   0  0  0  0  0
    1.6714   13.1788   23.1244 H   0  0  0  0  0
    1.7608   11.1930   20.8140 H   0  0  0  0  0
    2.7759   10.9876   22.3364 H   0  0  0  0  0
    5.3418   12.4377   18.5652 H   0  0  0  0  0
    3.2695   11.0513   18.2510 H   0  0  0  0  0
    4.4839   10.1800   19.2190 H   0  0  0  0  0
    2.8220   10.3641   19.8317 H   0  0  0  0  0
   -1.2851   11.4523   22.0034 H   0  0  0  0  0
   -2.4549    9.7175   23.3308 H   0  0  0  0  0
   -1.3439    8.6781   25.2875 H   0  0  0  0  0
    0.9465    9.3820   25.9187 H   0  0  0  0  0
    2.1118   11.1195   24.6043 H   0  0  0  0  0
  1  2  1  0  0  0
  2  3  2  0  0  0
  2  4  1  0  0  0
  2  5  1  0  0  0
  5  6  1  0  0  0
  6  7  1  0  0  0
  6 13  1  0  0  0
  7  8  1  0  0  0
  8  9  1  0  0  0
  8 12  2  0  0  0
  9 10  1  0  0  0
  9 11  1  0  0  0
 13 14  4  0  0  0
 13 18  4  0  0  0
 14 15  4  0  0  0
 15 16  4  0  0  0
 16 17  4  0  0  0
 17 18  4  0  0  0
  1 19  1  0  0  0
  4 20  1  0  0  0
  5 21  1  0  0  0
  5 22  1  0  0  0
  6 23  1  0  0  0
  7 24  1  0  0  0
  7 25  1  0  0  0
 10 26  1  0  0  0
 11 27  1  0  0  0
 11 28  1  0  0  0
 11 29  1  0  0  0
 14 30  1  0  0  0
 15 31  1  0  0  0
 16 32  1  0  0  0
 17 33  1  0  0  0
 18 34  1  0  0  0
M  END
$$$$
