3meu_ligand
  -I-interpret- 

100 99  0  0  0  0  0  0  0  0999 V2000
    4.3440  -10.6280    3.7870 N   0  3  0  0  0
    4.0100  -11.6560    4.7940 C   0  0  0  0  0
    4.5680  -12.9810    4.2920 C   0  0  0  0  0
    4.7890  -13.2140    3.1020 O   0  0  0  0  0
    2.4860  -11.7480    4.9880 C   0  0  0  0  0
    4.9340  -13.9160    5.3480 N   0  0  0  0  0
    5.2240  -15.3000    5.0420 C   0  0  0  0  0
    6.5460  -15.7220    5.6800 C   0  0  0  0  0
    6.8700  -17.1970    5.3740 C   0  0  0  0  0
    8.2630  -17.5920    5.9090 C   0  0  0  0  0
    8.4290  -19.0630    5.9540 N   0  0  0  0  0
    8.7960  -19.7800    4.8740 C   0  0  0  0  0
    9.0770  -19.1740    3.7020 N   0  0  0  0  0
    9.4970  -19.9460    2.5110 C   0  0  0  0  0
    8.9350  -21.1020    4.9770 N   0  0  0  0  0
    8.6630  -21.8400    6.2230 C   0  0  0  0  0
    4.0410  -16.0990    5.5440 C   0  0  0  0  0
    3.6680  -16.1010    6.7070 O   0  0  0  0  0
    3.2380  -16.8710    4.5740 N   0  0  0  0  0
    2.0560  -17.6840    4.9390 C   0  0  0  0  0
    2.5250  -19.1090    5.2200 C   0  0  0  0  0
    3.6650  -19.4880    4.8930 O   0  0  0  0  0
    1.0240  -17.6670    3.8070 C   0  0  0  0  0
    1.6190  -18.2950    2.6640 O   0  0  0  0  0
    0.6510  -16.2250    3.4450 C   0  0  0  0  0
    1.6410  -19.8790    5.8450 N   0  0  0  0  0
    1.8210  -21.3220    5.9490 C   0  0  0  0  0
    0.7500  -21.9260    6.8730 C   0  0  0  0  0
    0.9480  -23.4070    7.1760 C   0  0  0  0  0
    0.0320  -23.8250    8.3270 C   0  0  0  0  0
   -1.4150  -23.7810    7.8620 C   0  0  0  0  0
   -2.3770  -24.3490    8.8090 N   0  3  0  0  0
    1.8100  -21.9420    4.5780 C   0  0  0  0  0
    0.9780  -21.5900    3.7340 O   0  0  0  0  0
   -2.1820  -25.7930    8.9400 C   0  0  0  0  0
   -3.7160  -24.0710    8.2800 C   0  0  0  0  0
   -2.3130  -23.6950   10.1330 C   0  0  0  0  0
    2.7310  -22.8810    4.3620 N   0  0  0  0  0
    2.8950  -23.5420    3.0710 C   0  0  0  0  0
    2.0110  -24.7810    2.9940 C   0  0  0  0  0
    0.9330  -24.8250    3.5920 O   0  0  0  0  0
    4.3630  -23.9250    2.8490 C   0  0  0  0  0
    2.3855  -25.7718    2.3116 O   0  0  0  0  0
    5.3565  -10.5821    3.6727 H   0  0  0  0  0
    3.9108  -10.8727    2.8965 H   0  0  0  0  0
    3.9944   -9.7220    4.0989 H   0  0  0  0  0
    4.4442  -11.4005    5.7606 H   0  0  0  0  0
    2.0140  -11.9925    4.0364 H   0  0  0  0  0
    2.2602  -12.5258    5.7175 H   0  0  0  0  0
    2.1083  -10.7906    5.3470 H   0  0  0  0  0
    4.9863  -13.5912    6.3135 H   0  0  0  0  0
    5.3538  -15.4694    3.9731 H   0  0  0  0  0
    6.4638  -15.6018    6.7602 H   0  0  0  0  0
    7.3424  -15.1000    5.2715 H   0  0  0  0  0
    6.8631  -17.3352    4.2928 H   0  0  0  0  0
    6.1225  -17.8232    5.8609 H   0  0  0  0  0
    8.3681  -17.2012    6.9211 H   0  0  0  0  0
    9.0194  -17.1791    5.2416 H   0  0  0  0  0
    7.4882  -19.4019    6.1553 H   0  0  0  0  0
    7.7691  -19.5207    4.6165 H   0  0  0  0  0
    9.8900  -18.5964    3.9161 H   0  0  0  0  0
   10.4152  -20.4884    2.7364 H   0  0  0  0  0
    8.7122  -20.6533    2.2428 H   0  0  0  0  0
    9.6717  -19.2628    1.6798 H   0  0  0  0  0
    9.9353  -21.2430    4.8360 H   0  0  0  0  0
    9.3189  -21.4723    7.0121 H   0  0  0  0  0
    7.6232  -21.6894    6.5134 H   0  0  0  0  0
    8.8464  -22.9023    6.0620 H   0  0  0  0  0
    3.5148  -16.8422    3.5927 H   0  0  0  0  0
    1.5774  -17.2705    5.8267 H   0  0  0  0  0
    0.1218  -18.1916    4.1214 H   0  0  0  0  0
    0.9906  -18.2972    1.9382 H   0  0  0  0  0
    0.2279  -15.7301    4.3192 H   0  0  0  0  0
    1.5438  -15.6908    3.1201 H   0  0  0  0  0
   -0.0830  -16.2323    2.6392 H   0  0  0  0  0
    0.8154  -19.4497    6.2627 H   0  0  0  0  0
    2.7909  -21.5390    6.3966 H   0  0  0  0  0
   -0.2077  -21.8278    6.3619 H   0  0  0  0  0
    0.8072  -21.3934    7.8223 H   0  0  0  0  0
    1.9860  -23.5822    7.4586 H   0  0  0  0  0
    0.7044  -23.9927    6.2896 H   0  0  0  0  0
    0.1659  -23.1416    9.1655 H   0  0  0  0  0
    0.2825  -24.8379    8.6422 H   0  0  0  0  0
   -1.4749  -24.3772    6.9515 H   0  0  0  0  0
   -1.6764  -22.7305    7.7344 H   0  0  0  0  0
   -2.3213  -26.2668    7.9683 H   0  0  0  0  0
   -1.1726  -25.9908    9.3007 H   0  0  0  0  0
   -2.9073  -26.1935    9.6483 H   0  0  0  0  0
   -3.8535  -22.9934    8.1907 H   0  0  0  0  0
   -3.8212  -24.5345    7.2991 H   0  0  0  0  0
   -4.4652  -24.4791    8.9584 H   0  0  0  0  0
   -1.3137  -23.8192   10.5503 H   0  0  0  0  0
   -2.5329  -22.6331   10.0233 H   0  0  0  0  0
   -3.0454  -24.1521   10.7984 H   0  0  0  0  0
    3.3463  -23.1486    5.1302 H   0  0  0  0  0
    2.5934  -22.8478    2.2866 H   0  0  0  0  0
    4.9788  -23.0258    2.8688 H   0  0  0  0  0
    4.6836  -24.6039    3.6393 H   0  0  0  0  0
    4.4666  -24.4167    1.8817 H   0  0  0  0  0
    3.2375  -25.5806    1.9128 H   0  0  0  0  0
  1  2  1  0  0  0
  2  3  1  0  0  0
  2  5  1  0  0  0
  3  4  2  0  0  0
  3  6  1  0  0  0
  6  7  1  0  0  0
  7  8  1  0  0  0
  7 17  1  0  0  0
  8  9  1  0  0  0
  9 10  1  0  0  0
 10 11  1  0  0  0
 11 12  1  0  0  0
 12 13  1  0  0  0
 12 15  1  0  0  0
 13 14  1  0  0  0
 15 16  1  0  0  0
 17 18  2  0  0  0
 17 19  1  0  0  0
 19 20  1  0  0  0
 20 21  1  0  0  0
 20 23  1  0  0  0
 21 22  2  0  0  0
 21 26  1  0  0  0
 23 24  1  0  0  0
 23 25  1  0  0  0
 26 27  1  0  0  0
 27 28  1  0  0  0
 27 33  1  0  0  0
 28 29  1  0  0  0
 29 30  1  0  0  0
 30 31  1  0  0  0
 31 32  1  0  0  0
 32 35  1  0  0  0
 32 36  1  0  0  0
 32 37  1  0  0  0
 33 34  2  0  0  0
 33 38  1  0  0  0
 38 39  1  0  0  0
 39 40  1  0  0  0
 39 42  1  0  0  0
 40 41  2  0  0  0
 40 43  1  0  0  0
  1 44  1  0  0  0
  1 45  1  0  0  0
  1 46  1  0  0  0
  2 47  1  0  0  0
  5 48  1  0  0  0
  5 49  1  0  0  0
  5 50  1  0  0  0
  6 51  1  0  0  0
  7 52  1  0  0  0
  8 53  1  0  0  0
  8 54  1  0  0  0
  9 55  1  0  0  0
  9 56  1  0  0  0
 10 57  1  0  0  0
 10 58  1  0  0  0
 11 59  1  0  0  0
 12 60  1  0  0  0
 13 61  1  0  0  0
 14 62  1  0  0  0
 14 63  1  0  0  0
 14 64  1  0  0  0
 15 65  1  0  0  0
 16 66  1  0  0  0
 16 67  1  0  0  0
 16 68  1  0  0  0
 19 69  1  0  0  0
 20 70  1  0  0  0
 23 71  1  0  0  0
 24 72  1  0  0  0
 25 73  1  0  0  0
 25 74  1  0  0  0
 25 75  1  0  0  0
 26 76  1  0  0  0
 27 77  1  0  0  0
 28 78  1  0  0  0
 28 79  1  0  0  0
 29 80  1  0  0  0
 29 81  1  0  0  0
 30 82  1  0  0  0
 30 83  1  0  0  0
 31 84  1  0  0  0
 31 85  1  0  0  0
 35 86  1  0  0  0
 35 87  1  0  0  0
 35 88  1  0  0  0
 36 89  1  0  0  0
 36 90  1  0  0  0
 36 91  1  0  0  0
 37 92  1  0  0  0
 37 93  1  0  0  0
 37 94  1  0  0  0
 38 95  1  0  0  0
 39 96  1  0  0  0
 42 97  1  0  0  0
 42 98  1  0  0  0
 42 99  1  0  0  0
 43100  1  0  0  0
M  END
$$$$
