4jsc_ligand
  -I-interpret- 

 69 71  0  0  0  0  0  0  0  0999 V2000
  -11.5110   20.8680    0.8390 C   0  0  0  0  0
  -12.2880   22.0650    0.4180 C   0  0  0  0  0
  -11.6200   22.9450   -0.3750 N   0  0  0  0  0
  -12.1560   24.2630   -0.7000 C   0  0  0  0  0
  -11.0050   25.2690   -0.6510 C   0  0  0  0  0
  -11.4250   26.5980   -1.2560 C   0  0  0  0  0
  -10.2700   27.3480   -1.6630 O   0  0  0  0  0
  -12.2870   27.3920   -0.2640 C   0  0  0  0  0
  -11.5350   27.7190    0.9060 O   0  0  0  0  0
  -13.4430   22.3030    0.7910 O   0  0  0  0  0
  -10.1840   20.8320    0.1460 N   0  3  0  0  0
  -12.1930   19.5750    0.4470 C   0  0  0  0  0
  -13.2610   19.1570    1.4000 C   0  0  0  0  0
  -13.1450   19.3740    2.7710 C   0  0  0  0  0
  -14.1610   18.9140    3.6300 C   0  0  0  0  0
  -14.3870   18.5340    0.9260 C   0  0  0  0  0
  -14.5680   18.4350   -0.3950 F   0  0  0  0  0
  -15.3710   18.0350    1.7360 C   0  0  0  0  0
  -16.7150   17.1480    1.0210 Cl  0  0  0  0  0
  -15.2750   18.2330    3.1140 C   0  0  0  0  0
  -11.0330   18.6000    0.3470 C   0  0  0  0  0
  -10.4990   18.2800    1.6760 C   0  0  0  0  0
  -10.0660   18.0310    2.7070 N   0  0  0  0  0
  -11.3580   17.3210   -0.3700 C   0  0  0  0  0
  -11.9690   17.3190   -1.6070 C   0  0  0  0  0
  -12.1800   18.5050   -2.2300 F   0  0  0  0  0
  -12.3660   16.1710   -2.2490 C   0  0  0  0  0
  -11.0680   16.0950    0.2300 C   0  0  0  0  0
  -11.4460   14.9080   -0.3980 C   0  0  0  0  0
  -12.1180   14.9590   -1.6270 C   0  0  0  0  0
  -12.6830   13.4820   -2.3790 Cl  0  0  0  0  0
   -9.9990   19.4320   -0.3790 C   0  0  0  0  0
   -8.5930   18.9140   -0.1070 C   0  0  0  0  0
   -7.6640   19.2440   -1.2790 C   0  0  0  0  0
   -8.0400   20.6030   -1.8770 C   0  0  0  0  0
   -7.8180   18.1560   -2.3480 C   0  0  0  0  0
   -6.2090   19.2820   -0.7840 C   0  0  0  0  0
  -11.4176   20.9476    1.9221 H   0  0  0  0  0
  -10.7132   22.6746   -0.7557 H   0  0  0  0  0
  -12.9291   24.5413    0.0162 H   0  0  0  0  0
  -12.6035   24.2521   -1.6938 H   0  0  0  0  0
  -10.1661   24.8718   -1.2224 H   0  0  0  0  0
  -10.7223   25.4298    0.3894 H   0  0  0  0  0
  -12.0299   26.4061   -2.1422 H   0  0  0  0  0
   -9.7527   26.8265   -2.2812 H   0  0  0  0  0
  -13.1437   26.7834    0.0254 H   0  0  0  0  0
  -12.6160   28.3148   -0.7418 H   0  0  0  0  0
  -12.0895   28.2143    1.5133 H   0  0  0  0  0
   -9.4332   21.0776    0.7912 H   0  0  0  0  0
  -10.1562   21.5097   -0.6158 H   0  0  0  0  0
  -12.7515   19.6513   -0.4859 H   0  0  0  0  0
  -12.2765   19.8946    3.1746 H   0  0  0  0  0
  -14.0822   19.0878    4.7032 H   0  0  0  0  0
  -16.0544   17.8639    3.7807 H   0  0  0  0  0
  -12.8614   16.2131   -3.2190 H   0  0  0  0  0
  -10.5473   16.0648    1.1871 H   0  0  0  0  0
  -11.2202   13.9470    0.0641 H   0  0  0  0  0
  -10.1246   19.3900   -1.4609 H   0  0  0  0  0
   -8.6325   17.8321    0.0200 H   0  0  0  0  0
   -8.2084   19.3902    0.7949 H   0  0  0  0  0
   -9.0698   20.5696   -2.2326 H   0  0  0  0  0
   -7.9429   21.3742   -1.1128 H   0  0  0  0  0
   -7.3739   20.8289   -2.7097 H   0  0  0  0  0
   -7.5493   17.1893   -1.9220 H   0  0  0  0  0
   -8.8524   18.1287   -2.6905 H   0  0  0  0  0
   -7.1613   18.3791   -3.1889 H   0  0  0  0  0
   -6.1086   20.0463   -0.0134 H   0  0  0  0  0
   -5.9418   18.3096   -0.3702 H   0  0  0  0  0
   -5.5486   19.5169   -1.6187 H   0  0  0  0  0
  1  2  1  0  0  0
  1 11  1  0  0  0
  1 12  1  0  0  0
  2  3  1  0  0  0
  2 10  2  0  0  0
  3  4  1  0  0  0
  4  5  1  0  0  0
  5  6  1  0  0  0
  6  7  1  0  0  0
  6  8  1  0  0  0
  8  9  1  0  0  0
 11 32  1  0  0  0
 12 13  1  0  0  0
 12 21  1  0  0  0
 13 14  4  0  0  0
 13 16  4  0  0  0
 14 15  4  0  0  0
 15 20  4  0  0  0
 16 17  1  0  0  0
 16 18  4  0  0  0
 18 19  1  0  0  0
 18 20  4  0  0  0
 21 22  1  0  0  0
 21 24  1  0  0  0
 21 32  1  0  0  0
 22 23  3  0  0  0
 24 25  4  0  0  0
 24 28  4  0  0  0
 25 26  1  0  0  0
 25 27  4  0  0  0
 27 30  4  0  0  0
 28 29  4  0  0  0
 29 30  4  0  0  0
 30 31  1  0  0  0
 32 33  1  0  0  0
 33 34  1  0  0  0
 34 35  1  0  0  0
 34 36  1  0  0  0
 34 37  1  0  0  0
  1 38  1  0  0  0
  3 39  1  0  0  0
  4 40  1  0  0  0
  4 41  1  0  0  0
  5 42  1  0  0  0
  5 43  1  0  0  0
  6 44  1  0  0  0
  7 45  1  0  0  0
  8 46  1  0  0  0
  8 47  1  0  0  0
  9 48  1  0  0  0
 11 49  1  0  0  0
 11 50  1  0  0  0
 12 51  1  0  0  0
 14 52  1  0  0  0
 15 53  1  0  0  0
 20 54  1  0  0  0
 27 55  1  0  0  0
 28 56  1  0  0  0
 29 57  1  0  0  0
 32 58  1  0  0  0
 33 59  1  0  0  0
 33 60  1  0  0  0
 35 61  1  0  0  0
 35 62  1  0  0  0
 35 63  1  0  0  0
 36 64  1  0  0  0
 36 65  1  0  0  0
 36 66  1  0  0  0
 37 67  1  0  0  0
 37 68  1  0  0  0
 37 69  1  0  0  0
M  END
$$$$
