4o4k_ligand
  -I-interpret- 

 22 23  0  0  0  0  0  0  0  0999 V2000
   10.0620  462.5100   31.7660 O   0  0  0  0  0
   10.0480  463.4520   30.9940 C   0  0  0  0  0
    9.6260  464.6410   31.4550 N   0  0  0  0  0
    9.6660  465.5930   30.5330 C   0  0  0  0  0
    9.2860  466.8490   30.7440 N   0  0  0  0  0
   10.2440  464.9540   29.1330 S   0  0  0  0  0
   10.4670  463.4280   29.7100 C   0  0  0  0  0
   10.9290  462.4690   28.8790 C   0  0  0  0  0
   11.0840  461.0920   29.1360 C   0  0  0  0  0
   11.5970  460.3380   28.0830 C   0  0  0  0  0
   11.7950  458.9660   28.2000 C   0  0  0  0  0
   11.4780  458.3230   29.3900 C   0  0  0  0  0
   11.6690  456.9860   29.5130 O   0  0  0  0  0
   10.9660  459.0490   30.4540 C   0  0  0  0  0
   10.7780  460.4140   30.3130 C   0  0  0  0  0
    8.9375  467.1292   31.6608 H   0  0  0  0  0
   11.2190  462.8024   27.8826 H   0  0  0  0  0
   11.8490  460.8344   27.1459 H   0  0  0  0  0
   12.1973  458.3977   27.3613 H   0  0  0  0  0
   11.4010  456.7050   30.3910 H   0  0  0  0  0
   10.7143  458.5516   31.3906 H   0  0  0  0  0
   10.3757  460.9782   31.1544 H   0  0  0  0  0
  1  2  2  0  0  0
  2  3  1  0  0  0
  2  7  1  0  0  0
  3  4  4  0  0  0
  4  5  2  0  0  0
  4  6  1  0  0  0
  6  7  1  0  0  0
  7  8  2  0  0  0
  8  9  1  0  0  0
  9 10  4  0  0  0
  9 15  4  0  0  0
 10 11  4  0  0  0
 11 12  4  0  0  0
 12 13  1  0  0  0
 12 14  4  0  0  0
 14 15  4  0  0  0
  5 16  1  0  0  0
  8 17  1  0  0  0
 10 18  1  0  0  0
 11 19  1  0  0  0
 13 20  1  0  0  0
 14 21  1  0  0  0
 15 22  1  0  0  0
M  END
$$$$
