6qrf_ligand
  -I-interpret- 

 24 25  0  0  0  0  0  0  0  0999 V2000
  -23.0480   20.3940  -11.1730 C   0  0  0  0  0
  -23.3020   21.1520   -8.5180 C   0  0  0  0  0
  -23.8590   19.6620  -10.3140 C   0  0  0  0  0
  -20.2730   20.1820  -12.9720 O   0  0  0  0  0
  -20.6830   19.0440  -12.8730 C   0  0  0  0  0
  -19.7220   17.8520  -12.8950 C   0  0  0  0  0
  -20.0910   16.5300  -12.9240 C   0  0  0  0  0
  -18.9710   15.8070  -12.9280 N   0  0  0  0  0
  -17.8790   16.6140  -12.8820 N   0  0  0  0  0
  -18.3300   17.8970  -12.8770 C   0  0  0  0  0
  -22.0700   18.7890  -12.7090 O   0  0  0  0  0
  -22.8970   19.9700  -12.6340 C   0  0  0  0  0
  -22.3630   21.5080  -10.7050 C   0  0  0  0  0
  -22.4990   21.8830   -9.3780 C   0  0  0  0  0
  -23.9930   20.0390   -8.9850 C   0  0  0  0  0
  -23.3925   21.4496   -7.4733 H   0  0  0  0  0
  -24.3926   18.7873  -10.6859 H   0  0  0  0  0
  -21.1100   16.1435  -12.9407 H   0  0  0  0  0
  -17.7144   18.7964  -12.8617 H   0  0  0  0  0
  -22.4311   20.7765  -13.2002 H   0  0  0  0  0
  -23.8796   19.7528  -13.0528 H   0  0  0  0  0
  -21.7240   22.0823  -11.3758 H   0  0  0  0  0
  -21.9695   22.7608   -9.0077 H   0  0  0  0  0
  -24.6340   19.4680   -8.3133 H   0  0  0  0  0
  1  3  4  0  0  0
 12  1  1  0  0  0
  1 13  4  0  0  0
  2 14  4  0  0  0
 15  2  4  0  0  0
  3 15  4  0  0  0
  5  4  2  0  0  0
  5  6  1  0  0  0
 11  5  1  0  0  0
  6  7  4  0  0  0
  6 10  4  0  0  0
  7  8  4  0  0  0
  9  8  4  0  0  0
 10  9  4  0  0  0
 11 12  1  0  0  0
 13 14  4  0  0  0
  2 16  1  0  0  0
  3 17  1  0  0  0
  7 18  1  0  0  0
 10 19  1  0  0  0
 12 20  1  0  0  0
 12 21  1  0  0  0
 13 22  1  0  0  0
 14 23  1  0  0  0
 15 24  1  0  0  0
M  END
$$$$
