6c8x_ligand
  -I-interpret- 

 77 80  0  0  0  0  0  0  0  0999 V2000
  -22.5220   14.6950   -8.2160 B   0  0  0  0  0
  -18.8600   18.5670   -4.3310 C   0  0  0  0  0
  -16.7140   18.2030   -5.3750 C   0  0  0  0  0
  -15.5500   19.0410   -4.8630 C   0  0  0  0  0
  -15.1700   20.2100   -5.8500 C   0  0  0  0  0
  -14.6550   22.3170   -4.7300 C   0  0  0  0  0
  -13.7130   24.3550   -3.7650 C   0  0  0  0  0
  -13.0640   24.6520   -2.4190 C   0  0  0  0  0
  -11.3970   25.1430   -3.9620 C   0  0  0  0  0
  -12.7650   25.1500   -4.6930 C   0  0  0  0  0
  -12.4320   24.5060   -6.0340 C   0  0  0  0  0
  -11.1880   23.6560   -5.7650 C   0  0  0  0  0
  -14.4870   19.7180   -7.1500 C   0  0  0  0  0
  -14.0930   20.8400   -8.0060 C   0  0  0  0  0
  -15.0870   21.5710   -8.6830 C   0  0  0  0  0
  -14.7520   22.6720   -9.4660 C   0  0  0  0  0
  -13.4230   23.0810   -9.6040 C   0  0  0  0  0
  -12.4200   22.3710   -8.9300 C   0  0  0  0  0
  -12.7600   21.2640   -8.1410 C   0  0  0  0  0
  -19.7020   17.9280   -7.3300 C   0  0  0  0  0
  -21.0570   17.9600   -7.0260 C   0  0  0  0  0
  -21.9200   16.9480   -7.3170 C   0  0  0  0  0
  -21.5100   15.7930   -7.9350 C   0  0  0  0  0
  -20.1230   15.6950   -8.2500 C   0  0  0  0  0
  -19.2680   16.7470   -7.9480 C   0  0  0  0  0
  -18.6120   19.2310   -2.9860 C   0  0  0  0  0
  -18.6450   20.7440   -3.1140 C   0  0  0  0  0
  -19.6680   18.7970   -1.9990 C   0  0  0  0  0
  -17.9780   18.8520   -5.4240 N   0  0  0  0  0
  -14.3320   21.0830   -5.1480 N   0  0  0  0  0
  -15.7470   22.8730   -4.8430 O   0  0  0  0  0
  -13.6170   22.9850   -4.0950 O   0  0  0  0  0
  -11.6410   24.6080   -2.6580 O   0  0  0  0  0
  -10.5190   24.2550   -4.6450 O   0  0  0  0  0
  -14.4350   18.1970   -4.6650 O   0  0  0  0  0
  -17.6370   19.3540   -7.8430 O   0  0  0  0  0
  -19.4930   20.3870   -6.6570 O   0  0  0  0  0
  -23.8420   14.7690   -7.8830 O   0  0  0  0  0
  -22.0450   13.5880   -8.7650 O   0  0  0  0  0
  -18.6640   19.2670   -6.8730 S   0  0  0  0  0
  -19.8323   18.9407   -4.6519 H   0  0  0  0  0
  -18.7363   17.5005   -4.1430 H   0  0  0  0  0
  -16.8236   17.3736   -4.6763 H   0  0  0  0  0
  -16.4684   17.9350   -6.4026 H   0  0  0  0  0
  -15.8539   19.5048   -3.9246 H   0  0  0  0  0
  -16.0824   20.7070   -6.1795 H   0  0  0  0  0
  -14.7729   24.6049   -3.8127 H   0  0  0  0  0
  -13.3642   23.9270   -1.6625 H   0  0  0  0  0
  -13.3739   25.6227   -2.0320 H   0  0  0  0  0
  -10.9595   26.1405   -3.9223 H   0  0  0  0  0
  -13.2584   26.1024   -4.8870 H   0  0  0  0  0
  -12.2525   25.2524   -6.8078 H   0  0  0  0  0
  -13.2594   23.9045   -6.4106 H   0  0  0  0  0
  -10.5375   23.6290   -6.6392 H   0  0  0  0  0
  -11.4605   22.6228   -5.5497 H   0  0  0  0  0
  -15.1949   19.0966   -7.6986 H   0  0  0  0  0
  -13.5915   19.1584   -6.8796 H   0  0  0  0  0
  -16.1312   21.2715   -8.5931 H   0  0  0  0  0
  -15.5390   23.2240   -9.9798 H   0  0  0  0  0
  -13.1701   23.9393  -10.2265 H   0  0  0  0  0
  -11.3783   22.6791   -9.0193 H   0  0  0  0  0
  -11.9726   20.7193   -7.6201 H   0  0  0  0  0
  -21.4514   18.8449   -6.5265 H   0  0  0  0  0
  -22.9711   17.0586   -7.0504 H   0  0  0  0  0
  -19.7341   14.7955   -8.7273 H   0  0  0  0  0
  -18.2127   16.6500   -8.2028 H   0  0  0  0  0
  -17.6257   18.9278   -2.6348 H   0  0  0  0  0
  -19.6281   21.0562   -3.4663 H   0  0  0  0  0
  -18.4464   21.1941   -2.1413 H   0  0  0  0  0
  -17.8841   21.0638   -3.8259 H   0  0  0  0  0
  -19.4665   19.2525   -1.0295 H   0  0  0  0  0
  -20.6482   19.1147   -2.3544 H   0  0  0  0  0
  -19.6493   17.7114   -1.9027 H   0  0  0  0  0
  -13.3911   20.7521   -4.9346 H   0  0  0  0  0
  -14.6744   17.4883   -4.0633 H   0  0  0  0  0
  -24.2857   13.9630   -8.1570 H   0  0  0  0  0
  -22.7621   12.9641   -8.8994 H   0  0  0  0  0
 23  1  1  0  0  0
  1 38  1  0  0  0
  1 39  1  0  0  0
  2 26  1  0  0  0
 29  2  1  0  0  0
  3  4  1  0  0  0
 29  3  1  0  0  0
  4  5  1  0  0  0
  4 35  1  0  0  0
  5 13  1  0  0  0
  5 30  1  0  0  0
 30  6  1  0  0  0
  6 31  2  0  0  0
  6 32  1  0  0  0
  7  8  1  0  0  0
  7 10  1  0  0  0
 32  7  1  0  0  0
  8 33  1  0  0  0
 10  9  1  0  0  0
  9 33  1  0  0  0
  9 34  1  0  0  0
 10 11  1  0  0  0
 11 12  1  0  0  0
 12 34  1  0  0  0
 13 14  1  0  0  0
 14 15  4  0  0  0
 14 19  4  0  0  0
 15 16  4  0  0  0
 16 17  4  0  0  0
 18 17  4  0  0  0
 19 18  4  0  0  0
 20 21  4  0  0  0
 20 25  4  0  0  0
 40 20  1  0  0  0
 21 22  4  0  0  0
 22 23  4  0  0  0
 24 23  4  0  0  0
 25 24  4  0  0  0
 26 27  1  0  0  0
 26 28  1  0  0  0
 29 40  1  0  0  0
 40 36  2  0  0  0
 40 37  2  0  0  0
  2 41  1  0  0  0
  2 42  1  0  0  0
  3 43  1  0  0  0
  3 44  1  0  0  0
  4 45  1  0  0  0
  5 46  1  0  0  0
  7 47  1  0  0  0
  8 48  1  0  0  0
  8 49  1  0  0  0
  9 50  1  0  0  0
 10 51  1  0  0  0
 11 52  1  0  0  0
 11 53  1  0  0  0
 12 54  1  0  0  0
 12 55  1  0  0  0
 13 56  1  0  0  0
 13 57  1  0  0  0
 15 58  1  0  0  0
 16 59  1  0  0  0
 17 60  1  0  0  0
 18 61  1  0  0  0
 19 62  1  0  0  0
 21 63  1  0  0  0
 22 64  1  0  0  0
 24 65  1  0  0  0
 25 66  1  0  0  0
 26 67  1  0  0  0
 27 68  1  0  0  0
 27 69  1  0  0  0
 27 70  1  0  0  0
 28 71  1  0  0  0
 28 72  1  0  0  0
 28 73  1  0  0  0
 30 74  1  0  0  0
 35 75  1  0  0  0
 38 76  1  0  0  0
 39 77  1  0  0  0
M  END
$$$$
