### 
### Created by X-TOOL on Wed Jan  1 15:39:35 2020
### 

@<TRIPOS>MOLECULE
6c8x_ligand
   77    80     1     0     0
SMALL
GAST_HUCK


@<TRIPOS>ATOM
      1 B01       -22.5220   14.6950   -8.2160 B         1 BVR         3.0000
      2 C01       -18.8600   18.5670   -4.3310 C.3       1 BVR         0.0315
      3 C02       -16.7140   18.2030   -5.3750 C.3       1 BVR         0.0573
      4 C03       -15.5500   19.0410   -4.8630 C.3       1 BVR         0.0967
      5 C04       -15.1700   20.2100   -5.8500 C.3       1 BVR         0.0807
      6 C05       -14.6550   22.3170   -4.7300 C.2       1 BVR         0.3203
      7 C06       -13.7130   24.3550   -3.7650 C.3       1 BVR         0.1189
      8 C07       -13.0640   24.6520   -2.4190 C.3       1 BVR         0.0815
      9 C08       -11.3970   25.1430   -3.9620 C.3       1 BVR         0.1648
     10 C09       -12.7650   25.1500   -4.6930 C.3       1 BVR         0.0449
     11 C10       -12.4320   24.5060   -6.0340 C.3       1 BVR        -0.0191
     12 C11       -11.1880   23.6560   -5.7650 C.3       1 BVR         0.0512
     13 C12       -14.4870   19.7180   -7.1500 C.3       1 BVR         0.0064
     14 C13       -14.0930   20.8400   -8.0060 C.ar      1 BVR        -0.0408
     15 C14       -15.0870   21.5710   -8.6830 C.ar      1 BVR        -0.0603
     16 C15       -14.7520   22.6720   -9.4660 C.ar      1 BVR        -0.0686
     17 C16       -13.4230   23.0810   -9.6040 C.ar      1 BVR        -0.0687
     18 C17       -12.4200   22.3710   -8.9300 C.ar      1 BVR        -0.0686
     19 C18       -12.7600   21.2640   -8.1410 C.ar      1 BVR        -0.0603
     20 C19       -19.7020   17.9280   -7.3300 C.ar      1 BVR         0.0004
     21 C20       -21.0570   17.9600   -7.0260 C.ar      1 BVR        -0.1449
     22 C21       -21.9200   16.9480   -7.3170 C.ar      1 BVR        -0.1686
     23 C22       -21.5100   15.7930   -7.9350 C.ar      1 BVR        -0.1677
     24 C23       -20.1230   15.6950   -8.2500 C.ar      1 BVR        -0.1686
     25 C24       -19.2680   16.7470   -7.9480 C.ar      1 BVR        -0.1449
     26 C25       -18.6120   19.2310   -2.9860 C.3       1 BVR        -0.0296
     27 C26       -18.6450   20.7440   -3.1140 C.3       1 BVR        -0.0612
     28 C27       -19.6680   18.7970   -1.9990 C.3       1 BVR        -0.0612
     29 N01       -17.9780   18.8520   -5.4240 N.am      1 BVR        -0.2375
     30 N02       -14.3320   21.0830   -5.1480 N.am      1 BVR        -0.2550
     31 O01       -15.7470   22.8730   -4.8430 O.2       1 BVR        -0.3775
     32 O02       -13.6170   22.9850   -4.0950 O.3       1 BVR        -0.2578
     33 O03       -11.6410   24.6080   -2.6580 O.3       1 BVR        -0.3480
     34 O04       -10.5190   24.2550   -4.6450 O.3       1 BVR        -0.3509
     35 O05       -14.4350   18.1970   -4.6650 O.3       1 BVR        -0.3877
     36 O06       -17.6370   19.3540   -7.8430 O.2       1 BVR        -0.1576
     37 O07       -19.4930   20.3870   -6.6570 O.2       1 BVR        -0.1576
     38 O08       -23.8420   14.7690   -7.8830 O.3       1 BVR        -0.8710
     39 O09       -22.0450   13.5880   -8.7650 O.3       1 BVR        -0.8710
     40 S01       -18.6640   19.2670   -6.8730 S.o2      1 BVR         0.0363
     41 H1        -19.8720   18.8563   -4.6507 H         1 BVR         0.0480
     42 H2        -18.8247   17.4803   -4.1644 H         1 BVR         0.0480
     43 H3        -16.8117   17.3263   -4.7178 H         1 BVR         0.0504
     44 H4        -16.4667   17.8715   -6.3943 H         1 BVR         0.0504
     45 H5        -15.8381   19.4848   -3.8986 H         1 BVR         0.0634
     46 H6        -16.0896   20.7432   -6.1329 H         1 BVR         0.0604
     47 H7        -14.7571   24.6976   -3.8151 H         1 BVR         0.0675
     48 H8        -13.3527   23.8928   -1.6773 H         1 BVR         0.0590
     49 H9        -13.3627   25.6478   -2.0597 H         1 BVR         0.0590
     50 H10       -10.9684   26.1546   -3.9074 H         1 BVR         0.0913
     51 H11       -13.1584   26.1657   -4.8464 H         1 BVR         0.0380
     52 H12       -12.2186   25.2755   -6.7905 H         1 BVR         0.0293
     53 H13       -13.2649   23.8750   -6.3777 H         1 BVR         0.0293
     54 H14       -10.5293   23.6571   -6.6460 H         1 BVR         0.0561
     55 H15       -11.4785   22.6224   -5.5256 H         1 BVR         0.0561
     56 H16       -15.1893   19.0763   -7.7022 H         1 BVR         0.0449
     57 H17       -13.5906   19.1379   -6.8856 H         1 BVR         0.0449
     58 H18       -16.1255   21.2732   -8.5936 H         1 BVR         0.0557
     59 H19       -15.5347   23.2210   -9.9769 H         1 BVR         0.0599
     60 H20       -13.1715   23.9346  -10.2230 H         1 BVR         0.0559
     61 H21       -11.3840   22.6774   -9.0188 H         1 BVR         0.0599
     62 H22       -11.9769   20.7223   -7.6229 H         1 BVR         0.0557
     63 H23       -21.4493   18.8400   -6.5292 H         1 BVR         0.0060
     64 H24       -22.9653   17.0580   -7.0519 H         1 BVR         0.0043
     65 H26       -19.7362   14.8005   -8.7246 H         1 BVR         0.0043
     66 H27       -18.2185   16.6505   -8.2014 H         1 BVR         0.0060
     67 H28       -17.6226   18.9246   -2.6156 H         1 BVR         0.0311
     68 H29       -18.4632   21.1993   -2.1293 H         1 BVR         0.0233
     69 H30       -19.6306   21.0590   -3.4873 H         1 BVR         0.0233
     70 H31       -17.8650   21.0695   -3.8180 H         1 BVR         0.0233
     71 H32       -19.6501   17.7015   -1.9010 H         1 BVR         0.0233
     72 H33       -20.6578   19.1170   -2.3566 H         1 BVR         0.0233
     73 H34       -19.4657   19.2561   -1.0201 H         1 BVR         0.0233
     74 H35       -13.4095   20.7586   -4.9388 H         1 BVR         0.1873
     75 H36       -14.1659   17.8290   -5.4984 H         1 BVR         0.2100
     76 H38       -24.0244   15.6204   -7.5032 H         1 BVR        -0.1290
     77 H40       -22.1764   12.8589   -8.1704 H         1 BVR        -0.1290
@<TRIPOS>BOND
     1   23    1 1  
     2    1   38 1  
     3    1   39 1  
     4    2   26 1  
     5   29    2 1  
     6    3    4 1  
     7   29    3 1  
     8    4    5 1  
     9    4   35 1  
    10    5   13 1  
    11    5   30 1  
    12   30    6 am 
    13    6   31 2  
    14    6   32 1  
    15    7    8 1  
    16    7   10 1  
    17   32    7 1  
    18    8   33 1  
    19   10    9 1  
    20    9   33 1  
    21    9   34 1  
    22   10   11 1  
    23   11   12 1  
    24   12   34 1  
    25   13   14 1  
    26   14   15 ar 
    27   14   19 ar 
    28   15   16 ar 
    29   16   17 ar 
    30   18   17 ar 
    31   19   18 ar 
    32   20   21 ar 
    33   20   25 ar 
    34   40   20 1  
    35   21   22 ar 
    36   22   23 ar 
    37   24   23 ar 
    38   25   24 ar 
    39   26   27 1  
    40   26   28 1  
    41   29   40 am 
    42   40   36 2  
    43   40   37 2  
    44    2   41 1  
    45    2   42 1  
    46    3   43 1  
    47    3   44 1  
    48    4   45 1  
    49    5   46 1  
    50    7   47 1  
    51    8   48 1  
    52    8   49 1  
    53    9   50 1  
    54   10   51 1  
    55   11   52 1  
    56   11   53 1  
    57   12   54 1  
    58   12   55 1  
    59   13   56 1  
    60   13   57 1  
    61   15   58 1  
    62   16   59 1  
    63   17   60 1  
    64   18   61 1  
    65   19   62 1  
    66   21   63 1  
    67   22   64 1  
    68   24   65 1  
    69   25   66 1  
    70   26   67 1  
    71   27   68 1  
    72   27   69 1  
    73   27   70 1  
    74   28   71 1  
    75   28   72 1  
    76   28   73 1  
    77   30   74 1  
    78   35   75 1  
    79   38   76 1  
    80   39   77 1  
@<TRIPOS>SUBSTRUCTURE
     1 BVR         1

