3bl9_ligand
  -I-interpret- 

 53 56  0  0  0  0  0  0  0  0999 V2000
    4.2120    6.2910  -11.2340 C   0  0  0  0  0
    3.0050    7.0990  -11.3970 C   0  0  0  0  0
    3.1170    8.4780  -11.3010 C   0  0  0  0  0
    4.3480    9.0930  -11.0900 C   0  0  0  0  0
    5.5230    8.3640  -10.9520 C   0  0  0  0  0
    5.4770    6.9880  -11.0160 C   0  0  0  0  0
    1.6780    6.3940  -11.5910 C   0  0  0  0  0
    0.5370    4.9820  -13.2250 C   0  0  0  0  0
    0.6320    7.1580  -15.2080 C   0  0  0  0  0
    1.3300    7.4010  -13.8580 C   0  0  0  0  0
   -2.0690    4.9610  -16.5950 O   0  0  0  0  0
   -2.5570    4.5350  -17.8110 C   0  0  0  0  0
   -2.1800    5.1270  -19.0130 C   0  0  0  0  0
   -2.7330    4.6890  -20.2310 C   0  0  0  0  0
   -3.6370    3.6550  -20.2910 C   0  0  0  0  0
   -4.0570    3.0100  -19.1560 C   0  0  0  0  0
   -4.0260    2.7350  -16.6340 C   0  0  0  0  0
   -5.3060    1.3740  -18.0760 C   0  0  0  0  0
    4.1770    4.5060  -11.3720 Cl  0  0  0  0  0
    6.9260    5.9900  -10.8370 Cl  0  0  0  0  0
    1.2150    6.2550  -12.9560 N   0  3  0  0  0
   -0.5230    6.1630  -15.1770 C   0  0  0  0  0
    0.0090    4.8450  -14.6510 C   0  0  0  0  0
   -1.0080    5.9080  -16.5960 C   0  0  0  0  0
   -3.5320    3.4390  -17.8370 C   0  0  0  0  0
   -3.6110    3.0390  -15.3840 N   0  0  0  0  0
   -4.8780    1.7190  -16.8220 N   0  0  0  0  0
   -6.1910    0.3720  -18.1810 N   0  0  0  0  0
   -4.9390    2.0060  -19.2100 N   0  0  0  0  0
    2.2221    9.0935  -11.3927 H   0  0  0  0  0
    4.3916   10.1805  -11.0312 H   0  0  0  0  0
    6.4724    8.8758  -10.7946 H   0  0  0  0  0
    0.9337    7.0048  -11.0801 H   0  0  0  0  0
    1.8162    5.3806  -11.2140 H   0  0  0  0  0
   -0.3223    4.9272  -12.5567 H   0  0  0  0  0
    1.2696    4.1889  -13.0751 H   0  0  0  0  0
    1.3846    6.7407  -15.8770 H   0  0  0  0  0
    0.2107    8.1145  -15.5173 H   0  0  0  0  0
    0.8512    8.2556  -13.3800 H   0  0  0  0  0
    2.3888    7.5724  -14.0520 H   0  0  0  0  0
   -1.4503    5.9367  -19.0111 H   0  0  0  0  0
   -2.4354    5.1848  -21.1549 H   0  0  0  0  0
   -4.0274    3.3418  -21.2593 H   0  0  0  0  0
    1.6300    6.1789  -13.8847 H   0  0  0  0  0
   -1.3295    6.5560  -14.5580 H   0  0  0  0  0
   -0.8056    4.1207  -14.6489 H   0  0  0  0  0
    0.8292    4.5236  -15.2929 H   0  0  0  0  0
   -1.3686    6.8445  -17.0215 H   0  0  0  0  0
   -0.1817    5.5146  -17.1881 H   0  0  0  0  0
   -2.9279    3.7827  -15.2402 H   0  0  0  0  0
   -3.9809    2.5247  -14.5846 H   0  0  0  0  0
   -6.5227   -0.1054  -17.3429 H   0  0  0  0  0
   -6.5324    0.0872  -19.0990 H   0  0  0  0  0
  2  1  4  0  0  0
  1  6  4  0  0  0
  1 19  1  0  0  0
  2  3  4  0  0  0
  7  2  1  0  0  0
  3  4  4  0  0  0
  4  5  4  0  0  0
  6  5  4  0  0  0
  6 20  1  0  0  0
 21  7  1  0  0  0
  8 21  1  0  0  0
 23  8  1  0  0  0
  9 10  1  0  0  0
 22  9  1  0  0  0
 10 21  1  0  0  0
 11 12  1  0  0  0
 24 11  1  0  0  0
 12 13  4  0  0  0
 12 25  4  0  0  0
 13 14  4  0  0  0
 14 15  4  0  0  0
 16 15  4  0  0  0
 25 16  4  0  0  0
 16 29  4  0  0  0
 25 17  4  0  0  0
 17 26  1  0  0  0
 17 27  4  0  0  0
 27 18  4  0  0  0
 18 28  1  0  0  0
 29 18  4  0  0  0
 22 23  1  0  0  0
 22 24  1  0  0  0
  3 30  1  0  0  0
  4 31  1  0  0  0
  5 32  1  0  0  0
  7 33  1  0  0  0
  7 34  1  0  0  0
  8 35  1  0  0  0
  8 36  1  0  0  0
  9 37  1  0  0  0
  9 38  1  0  0  0
 10 39  1  0  0  0
 10 40  1  0  0  0
 13 41  1  0  0  0
 14 42  1  0  0  0
 15 43  1  0  0  0
 21 44  1  0  0  0
 22 45  1  0  0  0
 23 46  1  0  0  0
 23 47  1  0  0  0
 24 48  1  0  0  0
 24 49  1  0  0  0
 26 50  1  0  0  0
 26 51  1  0  0  0
 28 52  1  0  0  0
 28 53  1  0  0  0
M  END
$$$$
