6dgq_ligand
  -I-interpret- 

 57 58  0  0  0  0  0  0  0  0999 V2000
   17.0690   60.9940   10.6560 C   0  0  0  0  0
   16.3740   64.5720    9.4600 C   0  0  0  0  0
   17.3580   65.7120    9.1710 C   0  0  0  0  0
   16.4930   67.8990    8.2830 C   0  0  0  0  0
   17.2590   70.5790    8.6930 C   0  0  0  0  0
   16.7860   61.8130   15.2570 C   0  0  0  0  0
   17.0350   61.3540   13.9840 C   0  0  0  0  0
   18.2540   60.7650   13.7330 C   0  0  0  0  0
   19.2450   60.6300   14.6940 C   0  0  0  0  0
   18.9770   61.0870   15.9740 C   0  0  0  0  0
   17.7510   61.6830   16.2370 C   0  0  0  0  0
   17.4030   62.2430   17.6060 C   0  0  0  0  0
   18.5990   62.7990   18.3600 C   0  0  0  0  0
   18.6590   62.8710   19.7560 C   0  0  0  0  0
   20.7010   63.7330   19.3350 C   0  0  0  0  0
   18.2240   61.3660   11.5720 C   0  0  0  0  0
   17.1320   63.2780    9.7440 C   0  0  0  0  0
   16.7450   67.0590    9.5250 C   0  0  0  0  0
   17.5840   68.7410    8.0450 C   0  0  0  0  0
   18.3380   71.4930    7.9440 C   0  0  0  0  0
   19.8140   63.3710   20.2580 N   0  0  0  0  0
   16.3740   62.2220   10.3600 N   0  0  0  0  0
   17.6060   62.4520   20.5600 O   0  0  0  0  0
   21.9430   64.2680   19.6280 O   0  0  0  0  0
   18.4420   60.3160   12.4480 O   0  0  0  0  0
   18.2920   63.1250    9.4780 O   0  0  0  0  0
   20.0590   63.4590   17.7900 S   0  0  0  0  0
   18.9360   70.5160    6.5050 S   0  0  0  0  0
   17.8160   68.9480    6.5350 S   0  0  0  0  0
   16.4054   60.2742   11.1351 H   0  0  0  0  0
   17.4300   60.5187    9.7439 H   0  0  0  0  0
   15.7332   64.4258    8.5905 H   0  0  0  0  0
   15.7741   64.8320   10.3321 H   0  0  0  0  0
   17.6010   65.7052    8.1085 H   0  0  0  0  0
   18.2536   65.5643    9.7745 H   0  0  0  0  0
   15.5994   68.5044    8.4350 H   0  0  0  0  0
   16.3556   67.2395    7.4261 H   0  0  0  0  0
   16.4417   70.3496    8.0092 H   0  0  0  0  0
   17.7327   69.6529    9.0187 H   0  0  0  0  0
   16.8702   71.1141    9.5594 H   0  0  0  0  0
   15.8288   62.2785   15.4919 H   0  0  0  0  0
   16.2882   61.4539   13.1963 H   0  0  0  0  0
   20.2061   60.1778   14.4493 H   0  0  0  0  0
   19.7195   60.9800   16.7648 H   0  0  0  0  0
   16.9954   61.4244   18.1992 H   0  0  0  0  0
   16.7028   63.0644   17.4539 H   0  0  0  0  0
   17.9825   62.2719   12.1280 H   0  0  0  0  0
   19.1219   61.5533   10.9832 H   0  0  0  0  0
   17.4400   67.5961   10.1704 H   0  0  0  0  0
   15.7915   66.8845   10.0236 H   0  0  0  0  0
   18.4754   68.2817    8.4724 H   0  0  0  0  0
   17.3789   69.7102    8.4997 H   0  0  0  0  0
   19.1609   71.7523    8.6100 H   0  0  0  0  0
   17.8956   72.4352    7.6206 H   0  0  0  0  0
   19.9886   63.4621   21.2588 H   0  0  0  0  0
   15.3844   62.3374   10.5786 H   0  0  0  0  0
   17.8382   62.5811   21.4825 H   0  0  0  0  0
  1 16  1  0  0  0
 22  1  1  0  0  0
  3  2  1  0  0  0
  2 17  1  0  0  0
 18  3  1  0  0  0
  4 18  1  0  0  0
 19  4  1  0  0  0
 20  5  1  0  0  0
  7  6  4  0  0  0
  6 11  4  0  0  0
  8  7  4  0  0  0
  8  9  4  0  0  0
 25  8  1  0  0  0
  9 10  4  0  0  0
 10 11  4  0  0  0
 11 12  1  0  0  0
 12 13  1  0  0  0
 13 14  2  0  0  0
 13 27  1  0  0  0
 14 21  1  0  0  0
 14 23  1  0  0  0
 15 21  1  0  0  0
 15 24  2  0  0  0
 27 15  1  0  0  0
 16 25  1  0  0  0
 17 22  1  0  0  0
 17 26  2  0  0  0
 29 19  1  0  0  0
 28 20  1  0  0  0
 28 29  1  0  0  0
  1 30  1  0  0  0
  1 31  1  0  0  0
  2 32  1  0  0  0
  2 33  1  0  0  0
  3 34  1  0  0  0
  3 35  1  0  0  0
  4 36  1  0  0  0
  4 37  1  0  0  0
  5 38  1  0  0  0
  5 39  1  0  0  0
  5 40  1  0  0  0
  6 41  1  0  0  0
  7 42  1  0  0  0
  9 43  1  0  0  0
 10 44  1  0  0  0
 12 45  1  0  0  0
 12 46  1  0  0  0
 16 47  1  0  0  0
 16 48  1  0  0  0
 18 49  1  0  0  0
 18 50  1  0  0  0
 19 51  1  0  0  0
 19 52  1  0  0  0
 20 53  1  0  0  0
 20 54  1  0  0  0
 21 55  1  0  0  0
 22 56  1  0  0  0
 23 57  1  0  0  0
M  END
$$$$
