### 
### Created by X-TOOL on Mon Sep 10 21:13:10 2018
### 

@<TRIPOS>MOLECULE
4dma_ligand
  198   199     1     0     0
SMALL
GAST_HUCK


@<TRIPOS>ATOM
      1 N          11.6010  -24.8590   -4.3070 N.4       1 HIS         0.2390
      2 CA         12.1720  -24.5190   -5.6060 C.3       1 HIS         0.0708
      3 C          11.5100  -23.2830   -6.2140 C.2       1 HIS         0.2282
      4 O          11.0160  -23.3120   -7.3430 O.2       1 HIS        -0.3906
      5 CB         12.0470  -25.7110   -6.5660 C.3       1 HIS         0.0347
      6 CG         10.7450  -26.4410   -6.4570 C.2       1 HIS         0.0005
      7 ND1         9.5260  -25.8240   -6.6390 N.2       1 HIS        -0.3251
      8 CD2        10.4710  -27.7360   -6.1620 C.2       1 HIS         0.0293
      9 CE1         8.5580  -26.7050   -6.4580 C.2       1 HIS         0.0907
     10 NE2         9.1040  -27.8720   -6.1680 N.pl3     1 HIS        -0.2752
     11 N          11.5090  -22.1910   -5.4620 N.am      1 LYS        -0.2609
     12 CA         10.9230  -20.9580   -5.9560 C.3       1 LYS         0.1311
     13 C          11.7960  -20.3750   -7.0620 C.2       1 LYS         0.2039
     14 O          12.9230  -20.8200   -7.2670 O.2       1 LYS        -0.3944
     15 CB         10.7880  -19.9300   -4.8240 C.3       1 LYS        -0.0122
     16 CG          9.5310  -20.0780   -3.9760 C.3       1 LYS        -0.0440
     17 CD          9.7510  -20.9700   -2.7670 C.3       1 LYS        -0.0124
     18 CE         10.5890  -20.2750   -1.7030 C.3       1 LYS        -0.0354
     19 NZ         10.6750  -21.0720   -0.4450 N.4       1 LYS         0.2185
     20 N          11.2650  -19.3900   -7.7770 N.am      1 ILE        -0.2635
     21 CA         12.0080  -18.7290   -8.8340 C.3       1 ILE         0.1335
     22 C          13.2130  -18.0200   -8.2070 C.2       1 ILE         0.2042
     23 O          14.3080  -18.0220   -8.7640 O.2       1 ILE        -0.3944
     24 CB         11.1300  -17.6760   -9.5580 C.3       1 ILE        -0.0037
     25 CG1         9.9820  -18.3540  -10.2950 C.3       1 ILE        -0.0491
     26 CG2        11.9700  -16.8730  -10.5360 C.3       1 ILE        -0.0582
     27 CD1         9.1060  -17.3840  -11.0760 C.3       1 ILE        -0.0648
     28 N          12.9870  -17.4250   -7.0380 N.am      1 LEU        -0.2637
     29 CA         14.0200  -16.7040   -6.3030 C.3       1 LEU         0.1312
     30 C          15.1520  -17.6520   -5.9540 C.2       1 LEU         0.2040
     31 O          16.3330  -17.3160   -6.0820 O.2       1 LEU        -0.3944
     32 CB         13.4240  -16.1070   -5.0220 C.3       1 LEU        -0.0101
     33 CG         14.3370  -15.3790   -4.0280 C.3       1 LEU        -0.0425
     34 CD1        15.0390  -14.2160   -4.6980 C.3       1 LEU        -0.0625
     35 CD2        13.4970  -14.8910   -2.8630 C.3       1 LEU        -0.0625
     36 N          14.7730  -18.8470   -5.5180 N.am      1 HIS        -0.2625
     37 CA         15.7350  -19.8730   -5.1460 C.3       1 HIS         0.1369
     38 C          16.6730  -20.1550   -6.3150 C.2       1 HIS         0.2054
     39 O          17.8980  -20.1660   -6.1680 O.2       1 HIS        -0.3942
     40 CB         14.9900  -21.1500   -4.7440 C.3       1 HIS         0.0145
     41 CG         15.8880  -22.2620   -4.3000 C.2       1 HIS        -0.0027
     42 ND1        16.6870  -22.9680   -5.1730 N.2       1 HIS        -0.3252
     43 CD2        16.1240  -22.7800   -3.0710 C.2       1 HIS         0.0291
     44 CE1        17.3770  -23.8730   -4.5030 C.2       1 HIS         0.0907
     45 NE2        17.0540  -23.7800   -3.2250 N.pl3     1 HIS        -0.2752
     46 N          16.0770  -20.3640   -7.4830 N.am      1 ARG        -0.2636
     47 CA         16.8210  -20.6560   -8.6990 C.3       1 ARG         0.1311
     48 C          17.7390  -19.5090   -9.1130 C.2       1 ARG         0.2039
     49 O          18.9250  -19.7240   -9.3770 O.2       1 ARG        -0.3944
     50 CB         15.8470  -20.9660   -9.8300 C.3       1 ARG        -0.0092
     51 CG         16.4760  -21.5980  -11.0570 C.3       1 ARG        -0.0156
     52 CD         15.4970  -21.5260  -12.2190 C.3       1 ARG         0.0627
     53 NE         15.3960  -20.1610  -12.7250 N.pl3     1 ARG        -0.2723
     54 CZ         14.2780  -19.6040  -13.1740 C.cat     1 ARG         0.2882
     55 NH1        13.1440  -20.2910  -13.1790 N.pl3     1 ARG        -0.2849
     56 NH2        14.2960  -18.3590  -13.6240 N.pl3     1 ARG        -0.2849
     57 N          17.1920  -18.2980   -9.1760 N.am      1 LEU        -0.2637
     58 CA         17.9870  -17.1330   -9.5630 C.3       1 LEU         0.1312
     59 C          19.1240  -16.8800   -8.5780 C.2       1 LEU         0.2039
     60 O          20.1470  -16.2990   -8.9330 O.2       1 LEU        -0.3944
     61 CB         17.0950  -15.8900   -9.6760 C.3       1 LEU        -0.0101
     62 CG         15.9730  -15.9660  -10.7230 C.3       1 LEU        -0.0425
     63 CD1        15.2280  -14.6340  -10.7780 C.3       1 LEU        -0.0625
     64 CD2        16.5610  -16.3020  -12.0950 C.3       1 LEU        -0.0625
     65 N          18.9420  -17.3190   -7.3390 N.am      1 LEU        -0.2637
     66 CA         19.9670  -17.1520   -6.3220 C.3       1 LEU         0.1312
     67 C          21.0810  -18.1770   -6.5210 C.2       1 LEU         0.2039
     68 O          22.2580  -17.8630   -6.3380 O.2       1 LEU        -0.3944
     69 CB         19.3540  -17.3080   -4.9320 C.3       1 LEU        -0.0101
     70 CG         18.7220  -16.0450   -4.3570 C.3       1 LEU        -0.0425
     71 CD1        17.9570  -16.3670   -3.0870 C.3       1 LEU        -0.0625
     72 CD2        19.8220  -15.0360   -4.0890 C.3       1 LEU        -0.0625
     73 N          20.6980  -19.3960   -6.8970 N.am      1 GLN        -0.2636
     74 CA         21.6450  -20.4800   -7.1130 C.3       1 GLN         0.1330
     75 C          22.4960  -20.2790   -8.3470 C.2       1 GLN         0.2040
     76 O          23.7270  -20.3120   -8.2790 O.2       1 GLN        -0.3944
     77 CB         20.9060  -21.8130   -7.2450 C.3       1 GLN         0.0045
     78 CG         21.0310  -22.7360   -6.0400 C.3       1 GLN         0.0412
     79 CD         20.3310  -24.0700   -6.2490 C.2       1 GLN         0.1737
     80 OE1        20.3460  -24.9340   -5.3710 O.2       1 GLN        -0.3973
     81 NE2        19.7110  -24.2420   -7.4080 N.am      1 GLN        -0.3009
     82 N          21.8350  -20.0870   -9.4810 N.am      1 GLU        -0.2636
     83 CA         22.5400  -19.8980  -10.7400 C.3       1 GLU         0.1324
     84 C          23.7390  -18.9510  -10.5940 C.2       1 GLU         0.2032
     85 O          23.6410  -17.9000   -9.9630 O.2       1 GLU        -0.3944
     86 CB         21.5880  -19.3430  -11.8100 C.3       1 GLU        -0.0008
     87 CG         21.4130  -17.8280  -11.8250 C.3       1 GLU         0.0044
     88 CD         20.6690  -17.3630  -13.0710 C.2       1 GLU         0.0350
     89 OE1        19.4400  -17.5890  -13.1390 O.co2     1 GLU        -0.5690
     90 OE2        21.3120  -16.7880  -13.9850 O.co2     1 GLU        -0.5690
     91 N          24.8570  -19.3280  -11.2050 N.am      1 GLY        -0.2722
     92 CA         26.0510  -18.5140  -11.1470 C.3       1 GLY         0.0833
     93 C          25.8690  -17.2050  -11.8770 C.2       1 GLY         0.0570
     94 O          26.2653  -16.1192  -11.3755 O.co2     1 GLY        -0.5669
     95 H          11.6897  -24.0606   -3.6785 H         1 HIS         0.2016
     96 H          10.6154  -25.0953   -4.4215 H         1 HIS         0.2016
     97 H          12.1002  -25.6580   -3.9161 H         1 HIS         0.2016
     98 H          13.2255  -24.2858   -5.4516 H         1 HIS         0.1116
     99 H          12.8376  -26.4171   -6.3119 H         1 HIS         0.0453
    100 H          12.1159  -25.3194   -7.5809 H         1 HIS         0.0453
    101 H          11.1988  -28.5215   -5.9584 H         1 HIS         0.0729
    102 H           7.4897  -26.5028   -6.5350 H         1 HIS         0.1199
    103 H           8.5934  -28.7346   -5.9791 H         1 HIS         0.2361
    104 H          11.9228  -22.2174   -4.5301 H         1 LYS         0.1885
    105 H           9.9319  -21.1842   -6.3492 H         1 LYS         0.0800
    106 H          10.7408  -18.9469   -5.2923 H         1 LYS         0.0312
    107 H          11.6387  -20.0773   -4.1586 H         1 LYS         0.0312
    108 H           8.7579  -20.5332   -4.5951 H         1 LYS         0.0269
    109 H           9.2469  -19.0884   -3.6181 H         1 LYS         0.0269
    110 H          10.2805  -21.8657   -3.0917 H         1 LYS         0.0317
    111 H           8.7794  -21.2122   -2.3363 H         1 LYS         0.0317
    112 H          10.1168  -19.3209   -1.4687 H         1 LYS         0.0813
    113 H          11.5984  -20.1491   -2.0947 H         1 LYS         0.0813
    114 H          11.2438  -20.5693    0.2363 H         1 LYS         0.1994
    115 H           9.7375  -21.2134   -0.0688 H         1 LYS         0.1994
    116 H          11.1023  -21.9763   -0.6454 H         1 LYS         0.1994
    117 H          10.3105  -19.0903   -7.5782 H         1 ILE         0.1883
    118 H          12.3252  -19.4750   -9.5627 H         1 ILE         0.0803
    119 H          10.7155  -17.0011   -8.8092 H         1 ILE         0.0345
    120 H           9.3518  -18.8363   -9.5477 H         1 ILE         0.0267
    121 H          10.4179  -19.0513  -11.0105 H         1 ILE         0.0267
    122 H          12.7664  -16.3621   -9.9948 H         1 ILE         0.0235
    123 H          12.4048  -17.5446  -11.2762 H         1 ILE         0.0235
    124 H          11.3395  -16.1380  -11.0364 H         1 ILE         0.0235
    125 H           8.6709  -16.6567  -10.3905 H         1 ILE         0.0230
    126 H           9.7124  -16.8668  -11.8196 H         1 ILE         0.0230
    127 H           8.3099  -17.9365  -11.5750 H         1 ILE         0.0230
    128 H          12.0499  -17.4755   -6.6385 H         1 LEU         0.1883
    129 H          14.4080  -15.8965   -6.9239 H         1 LEU         0.0800
    130 H          13.0441  -16.9659   -4.4688 H         1 LEU         0.0315
    131 H          12.7314  -15.3413   -5.3714 H         1 LEU         0.0315
    132 H          15.1029  -16.0658   -3.6677 H         1 LEU         0.0298
    133 H          15.6433  -14.5863   -5.5261 H         1 LEU         0.0232
    134 H          14.2960  -13.5130   -5.0747 H         1 LEU         0.0232
    135 H          15.6810  -13.7147   -3.9737 H         1 LEU         0.0232
    136 H          12.7302  -14.2089   -3.2302 H         1 LEU         0.0232
    137 H          13.0237  -15.7435   -2.3758 H         1 LEU         0.0232
    138 H          14.1357  -14.3712   -2.1488 H         1 LEU         0.0232
    139 H          13.7768  -19.0523   -5.4414 H         1 HIS         0.1885
    140 H          16.3277  -19.5244   -4.3002 H         1 HIS         0.0817
    141 H          14.4503  -21.5009   -5.6236 H         1 HIS         0.0420
    142 H          14.3457  -20.8978   -3.9018 H         1 HIS         0.0420
    143 H          15.6629  -22.4632   -2.1355 H         1 HIS         0.0729
    144 H          18.0910  -24.5766   -4.9311 H         1 HIS         0.1199
    145 H          17.4335  -24.3570   -2.4744 H         1 HIS         0.2361
    146 H          15.0591  -20.3181   -7.5296 H         1 ARG         0.1883
    147 H          17.4539  -21.5195   -8.4943 H         1 ARG         0.0800
    148 H          15.4191  -20.0153  -10.1482 H         1 ARG         0.0313
    149 H          15.1264  -21.6842   -9.4387 H         1 ARG         0.0313
    150 H          16.7167  -22.6402  -10.8473 H         1 ARG         0.0301
    151 H          17.3889  -21.0616  -11.3158 H         1 ARG         0.0301
    152 H          14.5146  -21.8467  -11.8723 H         1 ARG         0.0689
    153 H          15.8533  -22.1733  -13.0204 H         1 ARG         0.0689
    154 H          16.2445  -19.5950  -12.7343 H         1 ARG         0.2642
    155 H          13.1283  -21.2518  -12.8368 H         1 ARG         0.2615
    156 H          12.2874  -19.8587  -13.5250 H         1 ARG         0.2615
    157 H          15.1679  -17.8297  -13.6252 H         1 ARG         0.2615
    158 H          13.4379  -17.9291  -13.9695 H         1 ARG         0.2615
    159 H          16.2041  -18.1803   -8.9512 H         1 LEU         0.1883
    160 H          18.4291  -17.3420  -10.5372 H         1 LEU         0.0800
    161 H          17.7458  -15.0704   -9.9808 H         1 LEU         0.0315
    162 H          16.6064  -15.7725   -8.7088 H         1 LEU         0.0315
    163 H          15.2717  -16.7516  -10.4418 H         1 LEU         0.0298
    164 H          14.7964  -14.4199   -9.8003 H         1 LEU         0.0232
    165 H          15.9241  -13.8408  -11.0508 H         1 LEU         0.0232
    166 H          14.4337  -14.6939  -11.5220 H         1 LEU         0.0232
    167 H          17.2709  -15.5271  -12.3843 H         1 LEU         0.0232
    168 H          17.0715  -17.2637  -12.0445 H         1 LEU         0.0232
    169 H          15.7580  -16.3536  -12.8303 H         1 LEU         0.0232
    170 H          18.0664  -17.7823   -7.0958 H         1 LEU         0.1883
    171 H          20.3913  -16.1520   -6.4123 H         1 LEU         0.0800
    172 H          20.1665  -17.5855   -4.2605 H         1 LEU         0.0315
    173 H          18.5557  -18.0447   -5.0224 H         1 LEU         0.0315
    174 H          18.0113  -15.6255   -5.0690 H         1 LEU         0.0298
    175 H          17.1706  -17.0877   -3.3109 H         1 LEU         0.0232
    176 H          18.6400  -16.7898   -2.3502 H         1 LEU         0.0232
    177 H          17.5127  -15.4540   -2.6906 H         1 LEU         0.0232
    178 H          20.5320  -15.4552   -3.3761 H         1 LEU         0.0232
    179 H          20.3358  -14.8042   -5.0219 H         1 LEU         0.0232
    180 H          19.3860  -14.1259   -3.6770 H         1 LEU         0.0232
    181 H          19.7042  -19.5766   -7.0388 H         1 GLN         0.1883
    182 H          22.3031  -20.4873   -6.2442 H         1 GLN         0.0801
    183 H          21.3487  -22.3373   -8.0919 H         1 GLN         0.0337
    184 H          19.8473  -21.5779   -7.3545 H         1 GLN         0.0337
    185 H          20.5627  -22.2415   -5.1890 H         1 GLN         0.0504
    186 H          22.0905  -22.9351   -5.8788 H         1 GLN         0.0504
    187 H          19.2217  -25.1162   -7.5998 H         1 GLN         0.1814
    188 H          19.7233  -23.5002   -8.1080 H         1 GLN         0.1814
    189 H          20.8152  -20.0716   -9.4703 H         1 GLU         0.1883
    190 H          22.9125  -20.8763  -11.0440 H         1 GLU         0.0801
    191 H          20.6056  -19.7633  -11.5945 H         1 GLU         0.0330
    192 H          22.0198  -19.6116  -12.7741 H         1 GLU         0.0330
    193 H          22.4006  -17.3667  -11.8207 H         1 GLU         0.0433
    194 H          20.8325  -17.5392  -10.9488 H         1 GLU         0.0433
    195 H          24.8734  -20.2062  -11.7236 H         1 GLY         0.1873
    196 H          26.8644  -19.0624  -11.6220 H         1 GLY         0.0689
    197 H          26.2688  -18.2971  -10.1012 H         1 GLY         0.0689
    198 O          25.3114  -17.1983  -13.0069 O.co2     1 GLY        -0.5669
@<TRIPOS>BOND
     1    1    2 1  
     2    2    3 1  
     3    2    5 1  
     4    3    4 2  
     5    3   11 am 
     6    5    6 1  
     7    6    7 1  
     8    6    8 2  
     9    7    9 2  
    10    8   10 1  
    11    9   10 1  
    12   11   12 1  
    13   12   13 1  
    14   12   15 1  
    15   13   14 2  
    16   13   20 am 
    17   15   16 1  
    18   16   17 1  
    19   17   18 1  
    20   18   19 1  
    21   20   21 1  
    22   21   22 1  
    23   21   24 1  
    24   22   23 2  
    25   22   28 am 
    26   24   25 1  
    27   24   26 1  
    28   25   27 1  
    29   28   29 1  
    30   29   30 1  
    31   29   32 1  
    32   30   31 2  
    33   30   36 am 
    34   32   33 1  
    35   33   34 1  
    36   33   35 1  
    37   36   37 1  
    38   37   38 1  
    39   37   40 1  
    40   38   39 2  
    41   38   46 am 
    42   40   41 1  
    43   41   42 1  
    44   41   43 2  
    45   42   44 2  
    46   43   45 1  
    47   44   45 1  
    48   46   47 1  
    49   47   48 1  
    50   47   50 1  
    51   48   49 2  
    52   48   57 am 
    53   50   51 1  
    54   51   52 1  
    55   52   53 1  
    56   53   54 ar 
    57   54   55 ar 
    58   54   56 ar 
    59   57   58 1  
    60   58   59 1  
    61   58   61 1  
    62   59   60 2  
    63   59   65 am 
    64   61   62 1  
    65   62   63 1  
    66   62   64 1  
    67   65   66 1  
    68   66   67 1  
    69   66   69 1  
    70   67   68 2  
    71   67   73 am 
    72   69   70 1  
    73   70   71 1  
    74   70   72 1  
    75   73   74 1  
    76   74   75 1  
    77   74   77 1  
    78   75   76 2  
    79   75   82 am 
    80   77   78 1  
    81   78   79 1  
    82   79   80 2  
    83   79   81 am 
    84   82   83 1  
    85   83   84 1  
    86   83   86 1  
    87   84   85 2  
    88   84   91 am 
    89   86   87 1  
    90   87   88 1  
    91   88   89 ar 
    92   88   90 ar 
    93   91   92 1  
    94   92   93 1  
    95   93   94 ar 
    96    1   95 1  
    97    1   96 1  
    98    1   97 1  
    99    2   98 1  
   100    5   99 1  
   101    5  100 1  
   102    8  101 1  
   103    9  102 1  
   104   10  103 1  
   105   11  104 1  
   106   12  105 1  
   107   15  106 1  
   108   15  107 1  
   109   16  108 1  
   110   16  109 1  
   111   17  110 1  
   112   17  111 1  
   113   18  112 1  
   114   18  113 1  
   115   19  114 1  
   116   19  115 1  
   117   19  116 1  
   118   20  117 1  
   119   21  118 1  
   120   24  119 1  
   121   25  120 1  
   122   25  121 1  
   123   26  122 1  
   124   26  123 1  
   125   26  124 1  
   126   27  125 1  
   127   27  126 1  
   128   27  127 1  
   129   28  128 1  
   130   29  129 1  
   131   32  130 1  
   132   32  131 1  
   133   33  132 1  
   134   34  133 1  
   135   34  134 1  
   136   34  135 1  
   137   35  136 1  
   138   35  137 1  
   139   35  138 1  
   140   36  139 1  
   141   37  140 1  
   142   40  141 1  
   143   40  142 1  
   144   43  143 1  
   145   44  144 1  
   146   45  145 1  
   147   46  146 1  
   148   47  147 1  
   149   50  148 1  
   150   50  149 1  
   151   51  150 1  
   152   51  151 1  
   153   52  152 1  
   154   52  153 1  
   155   53  154 1  
   156   55  155 1  
   157   55  156 1  
   158   56  157 1  
   159   56  158 1  
   160   57  159 1  
   161   58  160 1  
   162   61  161 1  
   163   61  162 1  
   164   62  163 1  
   165   63  164 1  
   166   63  165 1  
   167   63  166 1  
   168   64  167 1  
   169   64  168 1  
   170   64  169 1  
   171   65  170 1  
   172   66  171 1  
   173   69  172 1  
   174   69  173 1  
   175   70  174 1  
   176   71  175 1  
   177   71  176 1  
   178   71  177 1  
   179   72  178 1  
   180   72  179 1  
   181   72  180 1  
   182   73  181 1  
   183   74  182 1  
   184   77  183 1  
   185   77  184 1  
   186   78  185 1  
   187   78  186 1  
   188   81  187 1  
   189   81  188 1  
   190   82  189 1  
   191   83  190 1  
   192   86  191 1  
   193   86  192 1  
   194   87  193 1  
   195   87  194 1  
   196   91  195 1  
   197   92  196 1  
   198   92  197 1  
   199   93  198 ar 
@<TRIPOS>SUBSTRUCTURE
     1 HIS         1

