4dma_ligand
  -I-interpret- 

197198  0  0  0  0  0  0  0  0999 V2000
   11.6010  -24.8590   -4.3070 N   0  3  0  0  0
   12.1720  -24.5190   -5.6060 C   0  0  0  0  0
   11.5100  -23.2830   -6.2140 C   0  0  0  0  0
   11.0160  -23.3120   -7.3430 O   0  0  0  0  0
   12.0470  -25.7110   -6.5660 C   0  0  0  0  0
   10.7450  -26.4410   -6.4570 C   0  0  0  0  0
    9.5260  -25.8240   -6.6390 N   0  0  0  0  0
   10.4710  -27.7360   -6.1620 C   0  0  0  0  0
    8.5580  -26.7050   -6.4580 C   0  0  0  0  0
    9.1040  -27.8720   -6.1680 N   0  0  0  0  0
   11.5090  -22.1910   -5.4620 N   0  0  0  0  0
   10.9230  -20.9580   -5.9560 C   0  0  0  0  0
   11.7960  -20.3750   -7.0620 C   0  0  0  0  0
   12.9230  -20.8200   -7.2670 O   0  0  0  0  0
   10.7880  -19.9300   -4.8240 C   0  0  0  0  0
    9.5310  -20.0780   -3.9760 C   0  0  0  0  0
    9.7510  -20.9700   -2.7670 C   0  0  0  0  0
   10.5890  -20.2750   -1.7030 C   0  0  0  0  0
   10.6750  -21.0720   -0.4450 N   0  3  0  0  0
   11.2650  -19.3900   -7.7770 N   0  0  0  0  0
   12.0080  -18.7290   -8.8340 C   0  0  0  0  0
   13.2130  -18.0200   -8.2070 C   0  0  0  0  0
   14.3080  -18.0220   -8.7640 O   0  0  0  0  0
   11.1300  -17.6760   -9.5580 C   0  0  0  0  0
    9.9820  -18.3540  -10.2950 C   0  0  0  0  0
   11.9700  -16.8730  -10.5360 C   0  0  0  0  0
    9.1060  -17.3840  -11.0760 C   0  0  0  0  0
   12.9870  -17.4250   -7.0380 N   0  0  0  0  0
   14.0200  -16.7040   -6.3030 C   0  0  0  0  0
   15.1520  -17.6520   -5.9540 C   0  0  0  0  0
   16.3330  -17.3160   -6.0820 O   0  0  0  0  0
   13.4240  -16.1070   -5.0220 C   0  0  0  0  0
   14.3370  -15.3790   -4.0280 C   0  0  0  0  0
   15.0390  -14.2160   -4.6980 C   0  0  0  0  0
   13.4970  -14.8910   -2.8630 C   0  0  0  0  0
   14.7730  -18.8470   -5.5180 N   0  0  0  0  0
   15.7350  -19.8730   -5.1460 C   0  0  0  0  0
   16.6730  -20.1550   -6.3150 C   0  0  0  0  0
   17.8980  -20.1660   -6.1680 O   0  0  0  0  0
   14.9900  -21.1500   -4.7440 C   0  0  0  0  0
   15.8880  -22.2620   -4.3000 C   0  0  0  0  0
   16.6870  -22.9680   -5.1730 N   0  0  0  0  0
   16.1240  -22.7800   -3.0710 C   0  0  0  0  0
   17.3770  -23.8730   -4.5030 C   0  0  0  0  0
   17.0540  -23.7800   -3.2250 N   0  0  0  0  0
   16.0770  -20.3640   -7.4830 N   0  0  0  0  0
   16.8210  -20.6560   -8.6990 C   0  0  0  0  0
   17.7390  -19.5090   -9.1130 C   0  0  0  0  0
   18.9250  -19.7240   -9.3770 O   0  0  0  0  0
   15.8470  -20.9660   -9.8300 C   0  0  0  0  0
   16.4760  -21.5980  -11.0570 C   0  0  0  0  0
   15.4970  -21.5260  -12.2190 C   0  0  0  0  0
   15.3960  -20.1610  -12.7250 N   0  0  0  0  0
   14.2780  -19.6040  -13.1740 C   0  0  0  0  0
   13.1440  -20.2910  -13.1790 N   0  0  0  0  0
   14.2960  -18.3590  -13.6240 N   0  0  0  0  0
   17.1920  -18.2980   -9.1760 N   0  0  0  0  0
   17.9870  -17.1330   -9.5630 C   0  0  0  0  0
   19.1240  -16.8800   -8.5780 C   0  0  0  0  0
   20.1470  -16.2990   -8.9330 O   0  0  0  0  0
   17.0950  -15.8900   -9.6760 C   0  0  0  0  0
   15.9730  -15.9660  -10.7230 C   0  0  0  0  0
   15.2280  -14.6340  -10.7780 C   0  0  0  0  0
   16.5610  -16.3020  -12.0950 C   0  0  0  0  0
   18.9420  -17.3190   -7.3390 N   0  0  0  0  0
   19.9670  -17.1520   -6.3220 C   0  0  0  0  0
   21.0810  -18.1770   -6.5210 C   0  0  0  0  0
   22.2580  -17.8630   -6.3380 O   0  0  0  0  0
   19.3540  -17.3080   -4.9320 C   0  0  0  0  0
   18.7220  -16.0450   -4.3570 C   0  0  0  0  0
   17.9570  -16.3670   -3.0870 C   0  0  0  0  0
   19.8220  -15.0360   -4.0890 C   0  0  0  0  0
   20.6980  -19.3960   -6.8970 N   0  0  0  0  0
   21.6450  -20.4800   -7.1130 C   0  0  0  0  0
   22.4960  -20.2790   -8.3470 C   0  0  0  0  0
   23.7270  -20.3120   -8.2790 O   0  0  0  0  0
   20.9060  -21.8130   -7.2450 C   0  0  0  0  0
   21.0310  -22.7360   -6.0400 C   0  0  0  0  0
   20.3310  -24.0700   -6.2490 C   0  0  0  0  0
   20.3460  -24.9340   -5.3710 O   0  0  0  0  0
   19.7110  -24.2420   -7.4080 N   0  0  0  0  0
   21.8350  -20.0870   -9.4810 N   0  0  0  0  0
   22.5400  -19.8980  -10.7400 C   0  0  0  0  0
   23.7390  -18.9510  -10.5940 C   0  0  0  0  0
   23.6410  -17.9000   -9.9630 O   0  0  0  0  0
   21.5880  -19.3430  -11.8100 C   0  0  0  0  0
   21.4130  -17.8280  -11.8250 C   0  0  0  0  0
   20.6690  -17.3630  -13.0710 C   0  0  0  0  0
   19.4400  -17.5890  -13.1390 O   0  0  0  0  0
   21.3120  -16.7880  -13.9850 O   0  0  0  0  0
   24.8570  -19.3280  -11.2050 N   0  0  0  0  0
   26.0510  -18.5140  -11.1470 C   0  0  0  0  0
   25.8690  -17.2050  -11.8770 C   0  0  0  0  0
   26.2653  -16.1192  -11.3755 O   0  0  0  0  0
   25.3114  -17.1983  -13.0069 O   0  0  0  0  0
   11.6897  -24.0606   -3.6785 H   0  0  0  0  0
   10.6154  -25.0953   -4.4215 H   0  0  0  0  0
   12.1002  -25.6580   -3.9161 H   0  0  0  0  0
   13.2255  -24.2858   -5.4516 H   0  0  0  0  0
   12.8376  -26.4171   -6.3119 H   0  0  0  0  0
   12.1159  -25.3194   -7.5809 H   0  0  0  0  0
   11.1988  -28.5215   -5.9584 H   0  0  0  0  0
    7.4897  -26.5028   -6.5350 H   0  0  0  0  0
   11.9228  -22.2174   -4.5301 H   0  0  0  0  0
    9.9319  -21.1842   -6.3492 H   0  0  0  0  0
   10.7408  -18.9469   -5.2923 H   0  0  0  0  0
   11.6387  -20.0773   -4.1586 H   0  0  0  0  0
    8.7579  -20.5332   -4.5951 H   0  0  0  0  0
    9.2469  -19.0884   -3.6181 H   0  0  0  0  0
   10.2805  -21.8657   -3.0917 H   0  0  0  0  0
    8.7794  -21.2122   -2.3363 H   0  0  0  0  0
   10.1168  -19.3209   -1.4687 H   0  0  0  0  0
   11.5984  -20.1491   -2.0947 H   0  0  0  0  0
   11.2438  -20.5693    0.2363 H   0  0  0  0  0
    9.7375  -21.2134   -0.0688 H   0  0  0  0  0
   11.1023  -21.9763   -0.6454 H   0  0  0  0  0
   10.3105  -19.0903   -7.5782 H   0  0  0  0  0
   12.3252  -19.4750   -9.5627 H   0  0  0  0  0
   10.7155  -17.0011   -8.8092 H   0  0  0  0  0
    9.3518  -18.8363   -9.5477 H   0  0  0  0  0
   10.4179  -19.0513  -11.0105 H   0  0  0  0  0
   12.7664  -16.3621   -9.9948 H   0  0  0  0  0
   12.4048  -17.5446  -11.2762 H   0  0  0  0  0
   11.3395  -16.1380  -11.0364 H   0  0  0  0  0
    8.6709  -16.6567  -10.3905 H   0  0  0  0  0
    9.7124  -16.8668  -11.8196 H   0  0  0  0  0
    8.3099  -17.9365  -11.5750 H   0  0  0  0  0
   12.0499  -17.4755   -6.6385 H   0  0  0  0  0
   14.4080  -15.8965   -6.9239 H   0  0  0  0  0
   13.0441  -16.9659   -4.4688 H   0  0  0  0  0
   12.7314  -15.3413   -5.3714 H   0  0  0  0  0
   15.1029  -16.0658   -3.6677 H   0  0  0  0  0
   15.6433  -14.5863   -5.5261 H   0  0  0  0  0
   14.2960  -13.5130   -5.0747 H   0  0  0  0  0
   15.6810  -13.7147   -3.9737 H   0  0  0  0  0
   12.7302  -14.2089   -3.2302 H   0  0  0  0  0
   13.0237  -15.7435   -2.3758 H   0  0  0  0  0
   14.1357  -14.3712   -2.1488 H   0  0  0  0  0
   13.7768  -19.0523   -5.4414 H   0  0  0  0  0
   16.3277  -19.5244   -4.3002 H   0  0  0  0  0
   14.4503  -21.5009   -5.6236 H   0  0  0  0  0
   14.3457  -20.8978   -3.9018 H   0  0  0  0  0
   15.6629  -22.4632   -2.1355 H   0  0  0  0  0
   18.0910  -24.5766   -4.9311 H   0  0  0  0  0
   15.0591  -20.3181   -7.5296 H   0  0  0  0  0
   17.4539  -21.5195   -8.4943 H   0  0  0  0  0
   15.4191  -20.0153  -10.1482 H   0  0  0  0  0
   15.1264  -21.6842   -9.4387 H   0  0  0  0  0
   16.7167  -22.6402  -10.8473 H   0  0  0  0  0
   17.3889  -21.0616  -11.3158 H   0  0  0  0  0
   14.5146  -21.8467  -11.8723 H   0  0  0  0  0
   15.8533  -22.1733  -13.0204 H   0  0  0  0  0
   16.2445  -19.5950  -12.7343 H   0  0  0  0  0
   12.2882  -19.8602  -13.5290 H   0  0  0  0  0
   13.1274  -21.2503  -12.8329 H   0  0  0  0  0
   15.1679  -17.8297  -13.6252 H   0  0  0  0  0
   16.2041  -18.1803   -8.9512 H   0  0  0  0  0
   18.4291  -17.3420  -10.5372 H   0  0  0  0  0
   17.7458  -15.0704   -9.9808 H   0  0  0  0  0
   16.6064  -15.7725   -8.7088 H   0  0  0  0  0
   15.2717  -16.7516  -10.4418 H   0  0  0  0  0
   14.7964  -14.4199   -9.8003 H   0  0  0  0  0
   15.9241  -13.8408  -11.0508 H   0  0  0  0  0
   14.4337  -14.6939  -11.5220 H   0  0  0  0  0
   17.2709  -15.5271  -12.3843 H   0  0  0  0  0
   17.0715  -17.2637  -12.0445 H   0  0  0  0  0
   15.7580  -16.3536  -12.8303 H   0  0  0  0  0
   18.0664  -17.7823   -7.0958 H   0  0  0  0  0
   20.3913  -16.1520   -6.4123 H   0  0  0  0  0
   20.1665  -17.5855   -4.2605 H   0  0  0  0  0
   18.5557  -18.0447   -5.0224 H   0  0  0  0  0
   18.0113  -15.6255   -5.0690 H   0  0  0  0  0
   17.1706  -17.0877   -3.3109 H   0  0  0  0  0
   18.6400  -16.7898   -2.3502 H   0  0  0  0  0
   17.5127  -15.4540   -2.6906 H   0  0  0  0  0
   20.5320  -15.4552   -3.3761 H   0  0  0  0  0
   20.3358  -14.8042   -5.0219 H   0  0  0  0  0
   19.3860  -14.1259   -3.6770 H   0  0  0  0  0
   19.7042  -19.5766   -7.0388 H   0  0  0  0  0
   22.3031  -20.4873   -6.2442 H   0  0  0  0  0
   21.3487  -22.3373   -8.0919 H   0  0  0  0  0
   19.8473  -21.5779   -7.3545 H   0  0  0  0  0
   20.5627  -22.2415   -5.1890 H   0  0  0  0  0
   22.0905  -22.9351   -5.8788 H   0  0  0  0  0
   19.2217  -25.1162   -7.5998 H   0  0  0  0  0
   19.7233  -23.5002   -8.1080 H   0  0  0  0  0
   20.8152  -20.0716   -9.4703 H   0  0  0  0  0
   22.9125  -20.8763  -11.0440 H   0  0  0  0  0
   20.6056  -19.7633  -11.5945 H   0  0  0  0  0
   22.0198  -19.6116  -12.7741 H   0  0  0  0  0
   22.4006  -17.3667  -11.8207 H   0  0  0  0  0
   20.8325  -17.5392  -10.9488 H   0  0  0  0  0
   22.2346  -16.7167  -13.7295 H   0  0  0  0  0
   24.8734  -20.2062  -11.7236 H   0  0  0  0  0
   26.8644  -19.0624  -11.6220 H   0  0  0  0  0
   26.2688  -18.2971  -10.1012 H   0  0  0  0  0
   25.0694  -18.0954  -13.2484 H   0  0  0  0  0
  1  2  1  0  0  0
  2  3  1  0  0  0
  2  5  1  0  0  0
  3  4  2  0  0  0
  3 11  1  0  0  0
  5  6  1  0  0  0
  6  7  4  0  0  0
  6  8  4  0  0  0
  7  9  4  0  0  0
  8 10  4  0  0  0
  9 10  4  0  0  0
 11 12  1  0  0  0
 12 13  1  0  0  0
 12 15  1  0  0  0
 13 14  2  0  0  0
 13 20  1  0  0  0
 15 16  1  0  0  0
 16 17  1  0  0  0
 17 18  1  0  0  0
 18 19  1  0  0  0
 20 21  1  0  0  0
 21 22  1  0  0  0
 21 24  1  0  0  0
 22 23  2  0  0  0
 22 28  1  0  0  0
 24 25  1  0  0  0
 24 26  1  0  0  0
 25 27  1  0  0  0
 28 29  1  0  0  0
 29 30  1  0  0  0
 29 32  1  0  0  0
 30 31  2  0  0  0
 30 36  1  0  0  0
 32 33  1  0  0  0
 33 34  1  0  0  0
 33 35  1  0  0  0
 36 37  1  0  0  0
 37 38  1  0  0  0
 37 40  1  0  0  0
 38 39  2  0  0  0
 38 46  1  0  0  0
 40 41  1  0  0  0
 41 42  4  0  0  0
 41 43  4  0  0  0
 42 44  4  0  0  0
 43 45  4  0  0  0
 44 45  4  0  0  0
 46 47  1  0  0  0
 47 48  1  0  0  0
 47 50  1  0  0  0
 48 49  2  0  0  0
 48 57  1  0  0  0
 50 51  1  0  0  0
 51 52  1  0  0  0
 52 53  1  0  0  0
 53 54  1  0  0  0
 54 55  1  0  0  0
 54 56  2  0  0  0
 57 58  1  0  0  0
 58 59  1  0  0  0
 58 61  1  0  0  0
 59 60  2  0  0  0
 59 65  1  0  0  0
 61 62  1  0  0  0
 62 63  1  0  0  0
 62 64  1  0  0  0
 65 66  1  0  0  0
 66 67  1  0  0  0
 66 69  1  0  0  0
 67 68  2  0  0  0
 67 73  1  0  0  0
 69 70  1  0  0  0
 70 71  1  0  0  0
 70 72  1  0  0  0
 73 74  1  0  0  0
 74 75  1  0  0  0
 74 77  1  0  0  0
 75 76  2  0  0  0
 75 82  1  0  0  0
 77 78  1  0  0  0
 78 79  1  0  0  0
 79 80  2  0  0  0
 79 81  1  0  0  0
 82 83  1  0  0  0
 83 84  1  0  0  0
 83 86  1  0  0  0
 84 85  2  0  0  0
 84 91  1  0  0  0
 86 87  1  0  0  0
 87 88  1  0  0  0
 88 89  2  0  0  0
 88 90  1  0  0  0
 91 92  1  0  0  0
 92 93  1  0  0  0
 93 94  2  0  0  0
 93 95  1  0  0  0
  1 96  1  0  0  0
  1 97  1  0  0  0
  1 98  1  0  0  0
  2 99  1  0  0  0
  5100  1  0  0  0
  5101  1  0  0  0
  8102  1  0  0  0
  9103  1  0  0  0
 11104  1  0  0  0
 12105  1  0  0  0
 15106  1  0  0  0
 15107  1  0  0  0
 16108  1  0  0  0
 16109  1  0  0  0
 17110  1  0  0  0
 17111  1  0  0  0
 18112  1  0  0  0
 18113  1  0  0  0
 19114  1  0  0  0
 19115  1  0  0  0
 19116  1  0  0  0
 20117  1  0  0  0
 21118  1  0  0  0
 24119  1  0  0  0
 25120  1  0  0  0
 25121  1  0  0  0
 26122  1  0  0  0
 26123  1  0  0  0
 26124  1  0  0  0
 27125  1  0  0  0
 27126  1  0  0  0
 27127  1  0  0  0
 28128  1  0  0  0
 29129  1  0  0  0
 32130  1  0  0  0
 32131  1  0  0  0
 33132  1  0  0  0
 34133  1  0  0  0
 34134  1  0  0  0
 34135  1  0  0  0
 35136  1  0  0  0
 35137  1  0  0  0
 35138  1  0  0  0
 36139  1  0  0  0
 37140  1  0  0  0
 40141  1  0  0  0
 40142  1  0  0  0
 43143  1  0  0  0
 44144  1  0  0  0
 46145  1  0  0  0
 47146  1  0  0  0
 50147  1  0  0  0
 50148  1  0  0  0
 51149  1  0  0  0
 51150  1  0  0  0
 52151  1  0  0  0
 52152  1  0  0  0
 53153  1  0  0  0
 55154  1  0  0  0
 55155  1  0  0  0
 56156  1  0  0  0
 57157  1  0  0  0
 58158  1  0  0  0
 61159  1  0  0  0
 61160  1  0  0  0
 62161  1  0  0  0
 63162  1  0  0  0
 63163  1  0  0  0
 63164  1  0  0  0
 64165  1  0  0  0
 64166  1  0  0  0
 64167  1  0  0  0
 65168  1  0  0  0
 66169  1  0  0  0
 69170  1  0  0  0
 69171  1  0  0  0
 70172  1  0  0  0
 71173  1  0  0  0
 71174  1  0  0  0
 71175  1  0  0  0
 72176  1  0  0  0
 72177  1  0  0  0
 72178  1  0  0  0
 73179  1  0  0  0
 74180  1  0  0  0
 77181  1  0  0  0
 77182  1  0  0  0
 78183  1  0  0  0
 78184  1  0  0  0
 81185  1  0  0  0
 81186  1  0  0  0
 82187  1  0  0  0
 83188  1  0  0  0
 86189  1  0  0  0
 86190  1  0  0  0
 87191  1  0  0  0
 87192  1  0  0  0
 90193  1  0  0  0
 91194  1  0  0  0
 92195  1  0  0  0
 92196  1  0  0  0
 95197  1  0  0  0
M  END
$$$$
