1ms7_ligand
  -I-interpret- 

 21 21  0  0  0  0  0  0  0  0999 V2000
   11.1980   24.9750    8.4310 O   0  0  0  0  0
   11.4760   26.3750    8.5270 N   0  0  0  0  0
   11.2160   24.6430    7.1180 C   0  0  0  0  0
   11.4710   25.7030    6.3330 C   0  0  0  0  0
   11.6730   26.7960    7.2770 C   0  0  0  0  0
   11.9940   27.9860    7.0250 O   0  0  0  0  0
   11.5530   25.8350    4.8320 C   0  0  0  0  0
   10.2310   26.2520    4.1260 C   0  0  0  0  0
    9.1760   25.1970    4.3250 N   0  3  0  0  0
   10.5620   26.5230    2.6110 C   0  0  0  0  0
    9.8850   25.8630    1.7630 O   0  0  0  0  0
   11.4500   27.3790    2.3200 O   0  0  0  0  0
   11.5155   26.9365    9.3776 H   0  0  0  0  0
   11.0438   23.6343    6.7424 H   0  0  0  0  0
   11.8144   24.8495    4.4466 H   0  0  0  0  0
   12.2772   26.6237    4.6279 H   0  0  0  0  0
    9.8196   27.1647    4.5571 H   0  0  0  0  0
    8.3166   25.4847    3.8569 H   0  0  0  0  0
    9.5007   24.3144    3.9300 H   0  0  0  0  0
    8.9983   25.0795    5.3225 H   0  0  0  0  0
    9.2779   25.2796    2.2242 H   0  0  0  0  0
  1  2  1  0  0  0
  1  3  1  0  0  0
  2  5  1  0  0  0
  3  4  2  0  0  0
  4  5  1  0  0  0
  4  7  1  0  0  0
  5  6  2  0  0  0
  7  8  1  0  0  0
  8  9  1  0  0  0
  8 10  1  0  0  0
 10 11  1  0  0  0
 10 12  2  0  0  0
  2 13  1  0  0  0
  3 14  1  0  0  0
  7 15  1  0  0  0
  7 16  1  0  0  0
  8 17  1  0  0  0
  9 18  1  0  0  0
  9 19  1  0  0  0
  9 20  1  0  0  0
 11 21  1  0  0  0
M  END
$$$$
