5ypy_ligand
  -I-interpret- 

 20 19  0  0  0  0  0  0  0  0999 V2000
  -16.5760   19.1710   29.7210 N   0  3  0  0  0
  -17.2380   19.0300   31.0220 C   0  0  0  0  0
  -17.5130   17.5470   31.3100 C   0  0  0  0  0
  -17.2050   16.7020   30.4380 O   0  0  0  0  0
  -18.5340   19.8490   31.0720 C   0  0  0  0  0
  -18.2370   21.3580   30.8300 C   0  0  0  0  0
  -19.5370   19.3350   30.0500 C   0  0  0  0  0
  -18.0570   17.1800   32.3750 O   0  0  0  0  0
  -15.7192   18.6176   29.7151 H   0  0  0  0  0
  -17.2006   18.8406   28.9854 H   0  0  0  0  0
  -16.3494   20.1525   29.5608 H   0  0  0  0  0
  -16.5747   19.4189   31.7946 H   0  0  0  0  0
  -16.8005   17.1482   29.6904 H   0  0  0  0  0
  -18.9688   19.7364   32.0652 H   0  0  0  0  0
  -17.8246   21.4900   29.8297 H   0  0  0  0  0
  -19.1615   21.9282   30.9214 H   0  0  0  0  0
  -17.5177   21.7087   31.5701 H   0  0  0  0  0
  -20.4656   19.8988   30.1388 H   0  0  0  0  0
  -19.1287   19.4606   29.0472 H   0  0  0  0  0
  -19.7327   18.2787   30.2343 H   0  0  0  0  0
  1  2  1  0  0  0
  2  3  1  0  0  0
  2  5  1  0  0  0
  3  4  1  0  0  0
  3  8  2  0  0  0
  5  6  1  0  0  0
  5  7  1  0  0  0
  1  9  1  0  0  0
  1 10  1  0  0  0
  1 11  1  0  0  0
  2 12  1  0  0  0
  4 13  1  0  0  0
  5 14  1  0  0  0
  6 15  1  0  0  0
  6 16  1  0  0  0
  6 17  1  0  0  0
  7 18  1  0  0  0
  7 19  1  0  0  0
  7 20  1  0  0  0
M  END
$$$$
