5thn_ligand
  -I-interpret- 

 17 17  0  0  0  0  0  0  0  0999 V2000
   -6.1220    0.2980   17.0570 S   0  0  0  0  0
   -5.7520    1.6260   16.0600 C   0  0  0  0  0
   -6.2410    2.9380   16.3880 C   0  0  0  0  0
   -6.1030    4.2170   15.7630 C   0  0  0  0  0
   -5.4260    4.4990   14.6330 C   0  0  0  0  0
   -4.7480    3.6170   13.8750 C   0  0  0  0  0
   -4.5390    2.2470   13.9960 C   0  0  0  0  0
   -4.9690    1.3810   14.9370 C   0  0  0  0  0
   -4.5680    0.1080   14.7300 O   0  0  0  0  0
   -5.5646   -0.8002   16.5549 H   0  0  0  0  0
   -6.8389    2.9627   17.2990 H   0  0  0  0  0
   -6.5993    5.0541   16.2541 H   0  0  0  0  0
   -5.4273    5.5375   14.3018 H   0  0  0  0  0
   -4.2724    4.0606   13.0002 H   0  0  0  0  0
   -3.9325    1.8034   13.2064 H   0  0  0  0  0
   -5.3731    2.3373   15.2692 H   0  0  0  0  0
   -4.9073   -0.4514   15.4325 H   0  0  0  0  0
  1  2  1  0  0  0
  2  3  2  0  0  0
  2  8  1  0  0  0
  3  4  1  0  0  0
  4  5  2  0  0  0
  5  6  1  0  0  0
  6  7  2  0  0  0
  7  8  1  0  0  0
  8  9  1  0  0  0
  1 10  1  0  0  0
  3 11  1  0  0  0
  4 12  1  0  0  0
  5 13  1  0  0  0
  6 14  1  0  0  0
  7 15  1  0  0  0
  8 16  1  0  0  0
  9 17  1  0  0  0
M  END
$$$$
