1q91_ligand
  -I-interpret- 

 47 50  0  0  0  0  0  0  0  0999 V2000
   15.7740   41.6990   23.9790 C   0  0  0  0  0
   14.4380   41.9450   23.7540 C   0  0  0  0  0
   13.7480   41.0560   22.7860 C   0  0  0  0  0
   14.4380   39.9480   22.0790 C   0  0  0  0  0
   15.8150   39.7640   22.3690 C   0  0  0  0  0
   16.5820   40.5820   23.3040 C   0  0  0  0  0
    9.4350   38.6720   27.0970 C   0  0  0  0  0
   10.0390   39.8490   26.6120 N   0  0  0  0  0
   11.2860   40.4190   27.1200 C   0  0  0  0  0
   11.8550   39.6750   28.1690 C   0  0  0  0  0
   11.1870   38.4470   28.6500 C   0  0  0  0  0
   10.0600   38.0070   28.1230 N   0  0  0  0  0
    8.3870   38.1750   26.6860 O   0  0  0  0  0
   11.7220   37.7990   29.5990 O   0  0  0  0  0
   13.2490   40.2440   28.8010 C   0  0  0  0  0
    9.3270   40.5270   25.5250 C   0  0  0  0  0
    9.4360   39.7110   24.3840 O   0  0  0  0  0
   10.0400   41.8640   23.7150 C   0  0  0  0  0
    9.4870   40.6530   23.3520 C   0  0  0  0  0
    9.7220   41.8760   25.1090 C   0  0  0  0  0
   10.2390   40.1820   22.1920 C   0  0  0  0  0
   11.4590   41.8790   23.6720 O   0  0  0  0  0
   12.2490   41.3800   22.5670 C   0  0  0  0  0
   11.7040   40.1400   22.1030 O   0  0  0  0  0
   12.1190   42.6730   21.1550 P   0  0  0  0  0
   12.7140   41.7740   19.9890 O   0  0  0  0  0
   13.0710   43.7590   21.4450 O   0  0  0  0  0
   10.6860   43.0560   20.8290 O   0  0  0  0  0
   16.2950   42.3435   24.6870 H   0  0  0  0  0
   13.9125   42.7535   24.2622 H   0  0  0  0  0
   13.9125   39.3068   21.3714 H   0  0  0  0  0
   16.3367   38.9550   21.8577 H   0  0  0  0  0
   17.6398   40.4136   23.5058 H   0  0  0  0  0
   11.7313   41.3318   26.7241 H   0  0  0  0  0
    9.6423   37.1507   28.4873 H   0  0  0  0  0
   14.0094   40.2862   28.0212 H   0  0  0  0  0
   13.0830   41.2436   29.2028 H   0  0  0  0  0
   13.5819   39.5808   29.5994 H   0  0  0  0  0
    8.3325   40.6731   25.9467 H   0  0  0  0  0
    9.6861   42.6715   23.0740 H   0  0  0  0  0
    8.4350   40.7949   23.1045 H   0  0  0  0  0
   10.5940   42.1943   25.6803 H   0  0  0  0  0
    8.9013   42.5699   25.2910 H   0  0  0  0  0
    9.9796   40.9178   21.4308 H   0  0  0  0  0
    9.9721   39.1259   22.1535 H   0  0  0  0  0
   12.1013   41.0619   19.7911 H   0  0  0  0  0
   10.1738   42.2615   20.6615 H   0  0  0  0  0
  2  1  4  0  0  0
  1  6  4  0  0  0
  3  2  4  0  0  0
  3  4  4  0  0  0
 23  3  1  0  0  0
  4  5  4  0  0  0
  5  6  4  0  0  0
  8  7  1  0  0  0
  7 12  1  0  0  0
  7 13  2  0  0  0
  8  9  1  0  0  0
 16  8  1  0  0  0
  9 10  2  0  0  0
 10 11  1  0  0  0
 10 15  1  0  0  0
 12 11  1  0  0  0
 11 14  2  0  0  0
 16 17  1  0  0  0
 20 16  1  0  0  0
 19 17  1  0  0  0
 18 19  1  0  0  0
 18 20  1  0  0  0
 22 18  1  0  0  0
 19 21  1  0  0  0
 21 24  1  0  0  0
 22 23  1  0  0  0
 23 24  1  0  0  0
 23 25  1  0  0  0
 25 26  1  0  0  0
 25 27  2  0  0  0
 25 28  1  0  0  0
  1 29  1  0  0  0
  2 30  1  0  0  0
  4 31  1  0  0  0
  5 32  1  0  0  0
  6 33  1  0  0  0
  9 34  1  0  0  0
 12 35  1  0  0  0
 15 36  1  0  0  0
 15 37  1  0  0  0
 15 38  1  0  0  0
 16 39  1  0  0  0
 18 40  1  0  0  0
 19 41  1  0  0  0
 20 42  1  0  0  0
 20 43  1  0  0  0
 21 44  1  0  0  0
 21 45  1  0  0  0
 26 46  1  0  0  0
 28 47  1  0  0  0
M  END
$$$$
