5abg_ligand
  -I-interpret- 

 50 51  0  0  0  0  0  0  0  0999 V2000
   27.7720   52.6430  250.4680 C   0  0  0  0  0
   27.8560   54.7080  251.8020 C   0  0  0  0  0
   27.9400   51.9610  249.1700 N   0  3  0  0  0
   29.3850   51.7390  248.9040 C   0  0  0  0  0
   29.6140   50.2310  248.8710 C   0  0  0  0  0
   28.4620   49.7490  249.7160 C   0  0  0  0  0
   27.3310   50.6100  249.1980 C   0  0  0  0  0
   28.2350   48.3580  249.5560 O   0  0  0  0  0
   29.5470   49.6710  247.5530 O   0  0  0  0  0
   26.0580   50.4310  250.0240 C   0  0  0  0  0
   26.3660   50.3260  251.4160 O   0  0  0  0  0
   29.8940   52.4560  247.6500 C   0  0  0  0  0
   28.9470   52.3670  246.4720 C   0  0  0  0  0
   29.5040   52.5190  245.2730 N   0  0  0  0  0
   28.7200   52.4940  244.0550 C   0  0  0  0  0
   27.7510   52.1810  246.6220 O   0  0  0  0  0
   28.3080   54.0680  250.4900 C   0  0  0  0  0
   28.8980   55.4290  252.6410 C   0  0  0  0  0
   28.4270   56.4040  253.5160 C   0  0  0  0  0
   29.3020   57.1140  254.3280 C   0  0  0  0  0
   30.6630   56.8440  254.2740 C   0  0  0  0  0
   31.1420   55.8670  253.4090 C   0  0  0  0  0
   30.2630   55.1570  252.5960 C   0  0  0  0  0
   31.5160   57.5270  255.0570 F   0  0  0  0  0
   28.3340   52.0738  251.2085 H   0  0  0  0  0
   26.7023   52.6958  250.6704 H   0  0  0  0  0
   27.5075   53.8817  252.4216 H   0  0  0  0  0
   27.1347   55.4737  251.5165 H   0  0  0  0  0
   27.4998   52.5497  248.4628 H   0  0  0  0  0
   29.9766   52.1868  249.7025 H   0  0  0  0  0
   30.6061   49.9438  249.2193 H   0  0  0  0  0
   28.6140   49.8462  250.7910 H   0  0  0  0  0
   26.9578   50.3517  248.2070 H   0  0  0  0  0
   28.9857   47.8704  249.9028 H   0  0  0  0  0
   30.2881   49.9902  247.0329 H   0  0  0  0  0
   25.5579   49.5165  249.7049 H   0  0  0  0  0
   25.4151   51.2978  249.8709 H   0  0  0  0  0
   25.5534   50.2144  251.9148 H   0  0  0  0  0
   30.8269   51.9753  247.3555 H   0  0  0  0  0
   30.0051   53.5111  247.9001 H   0  0  0  0  0
   30.5126   52.6572  245.2097 H   0  0  0  0  0
   28.2142   51.5323  243.9697 H   0  0  0  0  0
   27.9800   53.2938  244.0842 H   0  0  0  0  0
   29.3780   52.6372  243.1979 H   0  0  0  0  0
   27.9263   54.6322  249.6391 H   0  0  0  0  0
   29.3958   54.0674  250.4209 H   0  0  0  0  0
   27.3583   56.6128  253.5644 H   0  0  0  0  0
   28.9221   57.8796  255.0045 H   0  0  0  0  0
   32.2105   55.6559  253.3671 H   0  0  0  0  0
   30.6433   54.3878  251.9239 H   0  0  0  0  0
  1  3  1  0  0  0
  1 17  1  0  0  0
 17  2  1  0  0  0
  2 18  1  0  0  0
  3  4  1  0  0  0
  3  7  1  0  0  0
  4  5  1  0  0  0
  4 12  1  0  0  0
  5  6  1  0  0  0
  5  9  1  0  0  0
  6  7  1  0  0  0
  6  8  1  0  0  0
  7 10  1  0  0  0
 10 11  1  0  0  0
 12 13  1  0  0  0
 13 14  1  0  0  0
 13 16  2  0  0  0
 14 15  1  0  0  0
 18 19  4  0  0  0
 18 23  4  0  0  0
 19 20  4  0  0  0
 20 21  4  0  0  0
 21 22  4  0  0  0
 21 24  1  0  0  0
 22 23  4  0  0  0
  1 25  1  0  0  0
  1 26  1  0  0  0
  2 27  1  0  0  0
  2 28  1  0  0  0
  3 29  1  0  0  0
  4 30  1  0  0  0
  5 31  1  0  0  0
  6 32  1  0  0  0
  7 33  1  0  0  0
  8 34  1  0  0  0
  9 35  1  0  0  0
 10 36  1  0  0  0
 10 37  1  0  0  0
 11 38  1  0  0  0
 12 39  1  0  0  0
 12 40  1  0  0  0
 14 41  1  0  0  0
 15 42  1  0  0  0
 15 43  1  0  0  0
 15 44  1  0  0  0
 17 45  1  0  0  0
 17 46  1  0  0  0
 19 47  1  0  0  0
 20 48  1  0  0  0
 22 49  1  0  0  0
 23 50  1  0  0  0
M  END
$$$$
