1eol_ligand
  -I-interpret- 

249252  0  0  0  0  0  0  0  0999 V2000
   15.3190   14.3180   22.4770 N   0  3  0  0  0
   15.3720   15.1970   21.3030 C   0  0  0  0  0
   16.3940   16.2490   21.6590 C   0  0  0  0  0
   16.4620   16.6790   22.8100 O   0  0  0  0  0
   14.0060   15.8120   21.0110 C   0  0  0  0  0
   13.4140   16.5670   22.1780 C   0  0  0  0  0
   12.0640   17.1760   21.7990 C   0  0  0  0  0
   11.4090   17.7400   22.9760 N   0  0  0  0  0
   11.6850   18.9330   23.4920 C   0  0  0  0  0
   12.6290   19.6950   22.9520 N   0  0  0  0  0
   11.0220   19.3560   24.5570 N   0  0  0  0  0
   17.2240   16.6890   20.6970 N   0  0  0  0  0
   17.9700   17.9700   20.8720 C   0  0  0  0  0
   19.4210   17.5680   20.8270 C   0  0  0  0  0
   19.6010   17.1040   19.4550 C   0  0  0  0  0
   18.7060   15.9810   19.0010 C   0  0  0  0  0
   17.2290   16.2020   19.3240 C   0  0  0  0  0
   16.5490   17.1520   18.3490 C   0  0  0  0  0
   15.7640   18.0350   18.7740 O   0  0  0  0  0
   16.8430   17.0170   17.0620 N   0  0  0  0  0
   16.2680   17.8550   16.0470 C   0  0  0  0  0
   15.3670   17.2280   14.9780 C   0  0  0  0  0
   15.2670   16.0010   14.9130 O   0  0  0  0  0
   17.2180   18.9140   15.4500 C   0  0  0  0  0
   18.4510   18.3180   14.8220 C   0  0  0  0  0
   19.3230   19.3980   14.2170 C   0  0  0  0  0
   20.5980   19.0180   13.5200 C   0  0  0  0  0
   14.7210   18.0280   14.1400 N   0  0  0  0  0
   13.8340   17.6200   13.0730 C   0  0  0  0  0
   14.5150   17.6210   11.7020 C   0  0  0  0  0
   13.5230   17.9240   10.5670 C   0  0  0  0  0
   12.9770   16.6740    9.8620 C   0  0  0  0  0
   12.0270   17.0220    8.6840 C   0  0  0  0  0
   11.5500   15.7480    7.9660 C   0  0  0  0  0
   10.3660   15.9710    7.0130 C   0  0  0  0  0
   10.7940   16.4350    5.6190 C   0  0  0  0  0
    9.6800   16.2210    4.5780 C   0  0  0  0  0
   10.0730   16.8130    3.2180 C   0  0  0  0  0
    9.2750   16.2300    2.0430 C   0  0  0  0  0
    8.0030   16.9960    1.7030 C   0  0  0  0  0
    7.8190   17.4160    0.5590 O   0  0  0  0  0
    7.1370   17.1880    2.6960 N   0  0  0  0  0
    5.8600   17.8810    2.5390 C   0  0  0  0  0
    5.9510   19.3110    1.9980 C   0  0  0  0  0
    4.9580   19.8770    1.5590 O   0  0  0  0  0
    5.1670   17.9050    3.9010 C   0  0  0  0  0
    3.6780   17.6660    3.8060 C   0  0  0  0  0
    3.0420   17.5420    4.8710 O   0  0  0  0  0
    3.1410   17.5960    2.6780 O   0  0  0  0  0
    7.1600   19.8580    1.9800 N   0  0  0  0  0
    7.4040   21.2360    1.5590 C   0  0  0  0  0
    7.3330   21.6260    0.0890 C   0  0  0  0  0
    7.9570   20.9970   -0.7690 O   0  0  0  0  0
    8.7220   21.7180    2.1630 C   0  0  0  0  0
    8.6870   21.6540    3.6630 C   0  0  0  0  0
    8.9960   20.4690    4.3320 C   0  0  0  0  0
    8.2400   22.7410    4.4110 C   0  0  0  0  0
    8.8450   20.3620    5.7050 C   0  0  0  0  0
    8.0880   22.6460    5.7830 C   0  0  0  0  0
    8.3860   21.4580    6.4170 C   0  0  0  0  0
    8.1840   21.3770    7.7650 O   0  0  0  0  0
    6.5620   22.6780   -0.1760 N   0  0  0  0  0
    6.3970   23.2280   -1.5140 C   0  0  0  0  0
    7.6920   23.9550   -1.8900 C   0  0  0  0  0
    8.2010   24.7820   -1.1330 O   0  0  0  0  0
    5.2320   24.2150   -1.5280 C   0  0  0  0  0
    5.1100   25.0200   -2.8080 C   0  0  0  0  0
    4.1300   26.1700   -2.6900 C   0  0  0  0  0
    4.3470   27.1990   -3.3650 O   0  0  0  0  0
    3.1490   26.0520   -1.9260 O   0  0  0  0  0
    8.2480   23.6470   -3.0710 N   0  0  0  0  0
    9.4890   24.2820   -3.5230 C   0  0  0  0  0
    9.4530   25.8020   -3.4590 C   0  0  0  0  0
    8.3960   26.4230   -3.5690 O   0  0  0  0  0
    9.6150   23.7920   -4.9540 C   0  0  0  0  0
    9.0070   22.4190   -4.8840 C   0  0  0  0  0
    7.7650   22.6790   -4.0720 C   0  0  0  0  0
   10.6270   26.3880   -3.2840 N   0  0  0  0  0
   10.7520   27.8270   -3.2160 C   0  0  0  0  0
   11.1570   28.3540   -4.5900 C   0  0  0  0  0
   12.1640   27.9190   -5.1530 O   0  0  0  0  0
   11.8150   28.2350   -2.1800 C   0  0  0  0  0
   11.3680   27.7970   -0.7830 C   0  0  0  0  0
   12.0580   29.7390   -2.2370 C   0  0  0  0  0
   12.4110   28.0130    0.2840 C   0  0  0  0  0
   10.3390   29.2460   -5.1790 N   0  0  0  0  0
   10.6320   29.8250   -6.4970 C   0  0  0  0  0
   11.9080   30.6520   -6.3860 C   0  0  0  0  0
   12.3000   31.0250   -5.2810 O   0  0  0  0  0
    9.4250   30.7290   -6.7490 C   0  0  0  0  0
    8.3250   30.0510   -5.9760 C   0  0  0  0  0
    9.0230   29.6950   -4.6930 C   0  0  0  0  0
   12.5360   30.9620   -7.5150 N   0  0  0  0  0
   13.7680   31.7490   -7.5060 C   0  0  0  0  0
   13.5310   33.2140   -7.1470 C   0  0  0  0  0
   13.8420   34.1100   -7.9160 O   0  0  0  0  0
   14.4650   31.6620   -8.8610 C   0  0  0  0  0
   14.7180   30.2480   -9.3530 C   0  0  0  0  0
   14.4510   30.1100  -10.8470 C   0  0  0  0  0
   15.4100   29.8650  -11.6170 O   0  0  0  0  0
   13.2760   30.2570  -11.2510 O   0  0  0  0  0
   12.9200   33.4380   -5.9940 N   0  0  0  0  0
   12.6600   34.7740   -5.4850 C   0  0  0  0  0
   13.3650   34.7550   -4.1360 C   0  0  0  0  0
   12.7320   34.7660   -3.0750 O   0  0  0  0  0
   11.1570   35.0170   -5.3400 C   0  0  0  0  0
   10.6590   36.2080   -6.1650 C   0  0  0  0  0
    9.5290   35.8550   -7.1300 C   0  0  0  0  0
    8.7150   36.7560   -7.4420 O   0  0  0  0  0
    9.4590   34.6880   -7.5860 O   0  0  0  0  0
   14.6890   34.6120   -4.2390 N   0  0  0  0  0
   15.6800   34.5300   -3.1570 C   0  0  0  0  0
   16.5640   33.3520   -3.5600 C   0  0  0  0  0
   17.6180   33.5500   -4.1590 O   0  0  0  0  0
   15.0380   34.2690   -1.8060 C   0  0  0  0  0
   16.0880   32.1340   -3.2880 N   0  0  0  0  0
   16.7870   30.8860   -3.6270 C   0  0  0  0  0
   16.1450   29.6840   -2.9360 C   0  0  0  0  0
   15.3990   29.8980   -1.9570 O   0  0  0  0  0
   18.2670   30.9680   -3.2600 C   0  0  0  0  0
   16.4060   28.5420   -3.3700 O   0  0  0  0  0
   14.6424   13.5727   22.3120 H   0  0  0  0  0
   16.2408   13.9124   22.6384 H   0  0  0  0  0
   15.0370   14.8601   23.2937 H   0  0  0  0  0
   15.6449   14.6586   20.3954 H   0  0  0  0  0
   13.3255   14.9940   20.7747 H   0  0  0  0  0
   14.1381   16.5245   20.1968 H   0  0  0  0  0
   14.0955   17.3693   22.4607 H   0  0  0  0  0
   13.2679   15.8752   23.0075 H   0  0  0  0  0
   11.4286   16.3958   21.3799 H   0  0  0  0  0
   12.2257   17.9695   21.0694 H   0  0  0  0  0
   10.6900   17.1795   23.4336 H   0  0  0  0  0
   12.8432   20.6060   23.3577 H   0  0  0  0  0
   13.1399   19.3693   22.1315 H   0  0  0  0  0
   10.3032   18.7670   24.9775 H   0  0  0  0  0
   17.7124   18.4694   21.8060 H   0  0  0  0  0
   17.7224   18.6969   20.0984 H   0  0  0  0  0
   19.6665   16.8028   21.5634 H   0  0  0  0  0
   20.0910   18.3888   21.0827 H   0  0  0  0  0
   20.6193   16.7195   19.3981 H   0  0  0  0  0
   19.3648   17.9547   18.8158 H   0  0  0  0  0
   19.0227   15.0799   19.5261 H   0  0  0  0  0
   18.7952   15.9117   17.9169 H   0  0  0  0  0
   16.6477   15.2856   19.2223 H   0  0  0  0  0
   17.5024   16.2905   16.7830 H   0  0  0  0  0
   15.5480   18.3702   16.6828 H   0  0  0  0  0
   17.5423   19.5631   16.2634 H   0  0  0  0  0
   16.6728   19.4443   14.6692 H   0  0  0  0  0
   18.1459   17.6302   14.0334 H   0  0  0  0  0
   19.0204   17.7972   15.5918 H   0  0  0  0  0
   19.6423   20.0025   15.0659 H   0  0  0  0  0
   18.7061   19.8467   13.4384 H   0  0  0  0  0
   21.2552   18.5045   14.2219 H   0  0  0  0  0
   20.3703   18.3572   12.6836 H   0  0  0  0  0
   21.0906   19.9174   13.1505 H   0  0  0  0  0
   14.8641   19.0308   14.2601 H   0  0  0  0  0
   13.0080   18.3302   13.0358 H   0  0  0  0  0
   13.5066   16.6016   13.2822 H   0  0  0  0  0
   14.9376   16.6310   11.5304 H   0  0  0  0  0
   15.2806   18.3969   11.7020 H   0  0  0  0  0
   14.0578   18.5089    9.8186 H   0  0  0  0  0
   12.6726   18.4413   11.0112 H   0  0  0  0  0
   12.4094   16.0972   10.5923 H   0  0  0  0  0
   13.8238   16.1191    9.4581 H   0  0  0  0  0
   12.5677   17.6439    7.9706 H   0  0  0  0  0
   11.1575   17.5471    9.0793 H   0  0  0  0  0
   11.2183   15.0498    8.7345 H   0  0  0  0  0
   12.3838   15.3852    7.3650 H   0  0  0  0  0
    9.7382   16.7515    7.4429 H   0  0  0  0  0
    9.8488   15.0182    6.8999 H   0  0  0  0  0
   11.6632   15.8514    5.3155 H   0  0  0  0  0
   11.0184   17.5006    5.6665 H   0  0  0  0  0
    8.7760   16.7199    4.9273 H   0  0  0  0  0
    9.5162   15.1501    4.4578 H   0  0  0  0  0
   11.1238   16.5775    3.0494 H   0  0  0  0  0
    9.8679   17.8829    3.2547 H   0  0  0  0  0
    8.9741   15.2224    2.3299 H   0  0  0  0  0
    9.9196   16.2756    1.1652 H   0  0  0  0  0
    7.3790   16.8306    3.6202 H   0  0  0  0  0
    5.3001   17.3265    1.7859 H   0  0  0  0  0
    5.3190   18.8932    4.3350 H   0  0  0  0  0
    5.5949   17.1063    4.5069 H   0  0  0  0  0
    3.8084   17.7186    1.9989 H   0  0  0  0  0
    7.9553   19.2907    2.2734 H   0  0  0  0  0
    6.5188   21.7424    1.9437 H   0  0  0  0  0
    8.8847   22.7530    1.8625 H   0  0  0  0  0
    9.5250   21.0733    1.8057 H   0  0  0  0  0
    9.3623   19.6133    3.7649 H   0  0  0  0  0
    8.0067   23.6796    3.9083 H   0  0  0  0  0
    9.0837   19.4298    6.2170 H   0  0  0  0  0
    7.7358   23.5026    6.3577 H   0  0  0  0  0
    8.4308   20.5017    8.0724 H   0  0  0  0  0
    6.0626   23.1203    0.5956 H   0  0  0  0  0
    6.1870   22.4306   -2.2268 H   0  0  0  0  0
    5.4034   24.9244   -0.7184 H   0  0  0  0  0
    4.3167   23.6317   -1.4279 H   0  0  0  0  0
    4.7465   24.3515   -3.5885 H   0  0  0  0  0
    6.0906   25.4398   -3.0321 H   0  0  0  0  0
    5.1483   27.0794   -3.8801 H   0  0  0  0  0
   10.3348   24.0213   -2.8868 H   0  0  0  0  0
   10.6440   23.7850   -5.3134 H   0  0  0  0  0
    9.1173   24.4427   -5.6730 H   0  0  0  0  0
    8.8045   21.9820   -5.8618 H   0  0  0  0  0
    9.6673   21.6723   -4.4429 H   0  0  0  0  0
    6.9318   23.0535   -4.6667 H   0  0  0  0  0
    7.3423   21.7767   -3.6301 H   0  0  0  0  0
   11.4633   25.8108   -3.1950 H   0  0  0  0  0
    9.7943   28.2509   -2.9139 H   0  0  0  0  0
   12.7566   27.7370   -2.4113 H   0  0  0  0  0
   11.1642   26.7271   -0.8270 H   0  0  0  0  0
   10.4994   28.3988   -0.5156 H   0  0  0  0  0
   12.4071   30.0119   -3.2329 H   0  0  0  0  0
   11.1280   30.2645   -2.0200 H   0  0  0  0  0
   12.8120   30.0122   -1.4988 H   0  0  0  0  0
   13.3062   27.4428    0.0359 H   0  0  0  0  0
   12.6578   29.0732    0.3397 H   0  0  0  0  0
   12.0204   27.6786    1.2451 H   0  0  0  0  0
   10.7821   29.0946   -7.2921 H   0  0  0  0  0
    9.1920   30.8361   -7.8084 H   0  0  0  0  0
    9.5938   31.7572   -6.4288 H   0  0  0  0  0
    7.4466   30.6799   -5.8309 H   0  0  0  0  0
    7.9010   29.1894   -6.4917 H   0  0  0  0  0
    9.0816   30.5238   -3.9875 H   0  0  0  0  0
    8.4966   28.9403   -4.1086 H   0  0  0  0  0
   12.1513   30.6449   -8.4049 H   0  0  0  0  0
   14.4043   31.3209   -6.7315 H   0  0  0  0  0
   15.4389   32.1384   -8.7486 H   0  0  0  0  0
   13.8073   32.1385   -9.5879 H   0  0  0  0  0
   14.0443   29.5756   -8.8218 H   0  0  0  0  0
   15.7643   30.0040   -9.1688 H   0  0  0  0  0
   16.2188   29.7904  -11.1053 H   0  0  0  0  0
   12.6185   32.6374   -5.4385 H   0  0  0  0  0
   13.0122   35.5732   -6.1371 H   0  0  0  0  0
   10.9560   35.2334   -4.2908 H   0  0  0  0  0
   10.6412   34.1264   -5.6989 H   0  0  0  0  0
   11.4982   36.5654   -6.7618 H   0  0  0  0  0
   10.2719   36.9499   -5.4665 H   0  0  0  0  0
   10.1732   34.1599   -7.2217 H   0  0  0  0  0
   15.0586   34.5522   -5.1878 H   0  0  0  0  0
   16.2265   35.4659   -3.0405 H   0  0  0  0  0
   14.3470   35.0786   -1.5710 H   0  0  0  0  0
   14.4951   33.3244   -1.8396 H   0  0  0  0  0
   15.8127   34.2173   -1.0410 H   0  0  0  0  0
   15.1858   32.0658   -2.8170 H   0  0  0  0  0
   16.7011   30.7506   -4.7051 H   0  0  0  0  0
   15.3408   30.8435   -1.8011 H   0  0  0  0  0
   18.7310   31.7882   -3.8079 H   0  0  0  0  0
   18.3652   31.1435   -2.1887 H   0  0  0  0  0
   18.7576   30.0307   -3.5224 H   0  0  0  0  0
  2  1  1  0  0  0
  2  5  1  0  0  0
  3  2  1  0  0  0
  3  4  2  0  0  0
  5  6  1  0  0  0
  6  7  1  0  0  0
  7  8  1  0  0  0
  8  9  1  0  0  0
  9 11  2  0  0  0
  9 10  1  0  0  0
 21 20  1  0  0  0
 21 24  1  0  0  0
 22 21  1  0  0  0
 22 23  2  0  0  0
 24 25  1  0  0  0
 25 26  1  0  0  0
 26 27  1  0  0  0
 42 43  1  0  0  0
 43 46  1  0  0  0
 43 44  1  0  0  0
 44 45  2  0  0  0
 46 47  1  0  0  0
 47 48  2  0  0  0
 47 49  1  0  0  0
 50 51  1  0  0  0
 51 54  1  0  0  0
 51 52  1  0  0  0
 52 53  2  0  0  0
 54 55  1  0  0  0
 55 56  4  0  0  0
 55 57  4  0  0  0
 57 59  4  0  0  0
 59 60  4  0  0  0
 60 61  1  0  0  0
 58 60  4  0  0  0
 56 58  4  0  0  0
 44 50  1  0  0  0
 62 63  1  0  0  0
 63 66  1  0  0  0
 63 64  1  0  0  0
 64 65  2  0  0  0
 66 67  1  0  0  0
 67 68  1  0  0  0
 68 70  2  0  0  0
 68 69  1  0  0  0
 52 62  1  0  0  0
 72 73  1  0  0  0
 72 75  1  0  0  0
 71 72  1  0  0  0
 71 77  1  0  0  0
 77 76  1  0  0  0
 76 75  1  0  0  0
 73 74  2  0  0  0
 64 71  1  0  0  0
 78 79  1  0  0  0
 79 82  1  0  0  0
 79 80  1  0  0  0
 80 81  2  0  0  0
 82 84  1  0  0  0
 82 83  1  0  0  0
 83 85  1  0  0  0
 73 78  1  0  0  0
 87 88  1  0  0  0
 87 90  1  0  0  0
 86 87  1  0  0  0
 86 92  1  0  0  0
 92 91  1  0  0  0
 91 90  1  0  0  0
 88 89  2  0  0  0
 80 86  1  0  0  0
 93 94  1  0  0  0
 94 97  1  0  0  0
 94 95  1  0  0  0
 95 96  2  0  0  0
 97 98  1  0  0  0
 98 99  1  0  0  0
 99101  2  0  0  0
 99100  1  0  0  0
 88 93  1  0  0  0
102103  1  0  0  0
103106  1  0  0  0
103104  1  0  0  0
104105  2  0  0  0
106107  1  0  0  0
107108  1  0  0  0
108110  1  0  0  0
108109  2  0  0  0
 95102  1  0  0  0
111112  1  0  0  0
112115  1  0  0  0
112113  1  0  0  0
113114  2  0  0  0
104111  1  0  0  0
116117  1  0  0  0
117120  1  0  0  0
117118  1  0  0  0
118119  1  0  0  0
118121  2  0  0  0
113116  1  0  0  0
 12 13  1  0  0  0
 17 12  1  0  0  0
 13 14  1  0  0  0
 15 14  1  0  0  0
 16 15  1  0  0  0
 17 16  1  0  0  0
 18 17  1  0  0  0
 18 19  2  0  0  0
 29 28  1  0  0  0
 30 29  1  0  0  0
 31 30  1  0  0  0
 32 31  1  0  0  0
 33 32  1  0  0  0
 34 33  1  0  0  0
 35 34  1  0  0  0
 36 35  1  0  0  0
 37 36  1  0  0  0
 38 37  1  0  0  0
 39 38  1  0  0  0
 40 39  1  0  0  0
 40 41  2  0  0  0
 12  3  1  0  0  0
 20 18  1  0  0  0
 28 22  1  0  0  0
 40 42  1  0  0  0
  1122  1  0  0  0
  1123  1  0  0  0
  1124  1  0  0  0
  2125  1  0  0  0
  5126  1  0  0  0
  5127  1  0  0  0
  6128  1  0  0  0
  6129  1  0  0  0
  7130  1  0  0  0
  7131  1  0  0  0
  8132  1  0  0  0
 10133  1  0  0  0
 10134  1  0  0  0
 11135  1  0  0  0
 13136  1  0  0  0
 13137  1  0  0  0
 14138  1  0  0  0
 14139  1  0  0  0
 15140  1  0  0  0
 15141  1  0  0  0
 16142  1  0  0  0
 16143  1  0  0  0
 17144  1  0  0  0
 20145  1  0  0  0
 21146  1  0  0  0
 24147  1  0  0  0
 24148  1  0  0  0
 25149  1  0  0  0
 25150  1  0  0  0
 26151  1  0  0  0
 26152  1  0  0  0
 27153  1  0  0  0
 27154  1  0  0  0
 27155  1  0  0  0
 28156  1  0  0  0
 29157  1  0  0  0
 29158  1  0  0  0
 30159  1  0  0  0
 30160  1  0  0  0
 31161  1  0  0  0
 31162  1  0  0  0
 32163  1  0  0  0
 32164  1  0  0  0
 33165  1  0  0  0
 33166  1  0  0  0
 34167  1  0  0  0
 34168  1  0  0  0
 35169  1  0  0  0
 35170  1  0  0  0
 36171  1  0  0  0
 36172  1  0  0  0
 37173  1  0  0  0
 37174  1  0  0  0
 38175  1  0  0  0
 38176  1  0  0  0
 39177  1  0  0  0
 39178  1  0  0  0
 42179  1  0  0  0
 43180  1  0  0  0
 46181  1  0  0  0
 46182  1  0  0  0
 49183  1  0  0  0
 50184  1  0  0  0
 51185  1  0  0  0
 54186  1  0  0  0
 54187  1  0  0  0
 56188  1  0  0  0
 57189  1  0  0  0
 58190  1  0  0  0
 59191  1  0  0  0
 61192  1  0  0  0
 62193  1  0  0  0
 63194  1  0  0  0
 66195  1  0  0  0
 66196  1  0  0  0
 67197  1  0  0  0
 67198  1  0  0  0
 69199  1  0  0  0
 72200  1  0  0  0
 75201  1  0  0  0
 75202  1  0  0  0
 76203  1  0  0  0
 76204  1  0  0  0
 77205  1  0  0  0
 77206  1  0  0  0
 78207  1  0  0  0
 79208  1  0  0  0
 82209  1  0  0  0
 83210  1  0  0  0
 83211  1  0  0  0
 84212  1  0  0  0
 84213  1  0  0  0
 84214  1  0  0  0
 85215  1  0  0  0
 85216  1  0  0  0
 85217  1  0  0  0
 87218  1  0  0  0
 90219  1  0  0  0
 90220  1  0  0  0
 91221  1  0  0  0
 91222  1  0  0  0
 92223  1  0  0  0
 92224  1  0  0  0
 93225  1  0  0  0
 94226  1  0  0  0
 97227  1  0  0  0
 97228  1  0  0  0
 98229  1  0  0  0
 98230  1  0  0  0
100231  1  0  0  0
102232  1  0  0  0
103233  1  0  0  0
106234  1  0  0  0
106235  1  0  0  0
107236  1  0  0  0
107237  1  0  0  0
110238  1  0  0  0
111239  1  0  0  0
112240  1  0  0  0
115241  1  0  0  0
115242  1  0  0  0
115243  1  0  0  0
116244  1  0  0  0
117245  1  0  0  0
119246  1  0  0  0
120247  1  0  0  0
120248  1  0  0  0
120249  1  0  0  0
M  END
$$$$
