### 
### Created by X-TOOL on Mon Sep 10 21:12:47 2018
### 

@<TRIPOS>MOLECULE
1eol_ligand
  245   248     1     0     0
SMALL
GAST_HUCK


@<TRIPOS>ATOM
      1 N          15.3190   14.3180   22.4770 N.4       1 ARG         0.2379
      2 CA         15.3720   15.1970   21.3030 C.3       1 ARG         0.0653
      3 C          16.3940   16.2490   21.6590 C.2       1 ARG         0.2292
      4 O          16.4620   16.6790   22.8100 O.2       1 ARG        -0.3905
      5 CB         14.0060   15.8120   21.0110 C.3       1 ARG         0.0110
      6 CG         13.4140   16.5670   22.1780 C.3       1 ARG        -0.0125
      7 CD         12.0640   17.1760   21.7990 C.3       1 ARG         0.0629
      8 NE         11.4090   17.7400   22.9760 N.pl3     1 ARG        -0.2723
      9 CZ         11.6850   18.9330   23.4920 C.cat     1 ARG         0.2882
     10 NH1        12.6290   19.6950   22.9520 N.pl3     1 ARG        -0.2849
     11 NH2        11.0220   19.3560   24.5570 N.pl3     1 ARG        -0.2849
     12 N1         17.2240   16.6890   20.6970 N.am      1 CPI        -0.2471
     13 C2         17.9700   17.9700   20.8720 C.3       1 CPI         0.0369
     14 C3         19.4210   17.5680   20.8270 C.3       1 CPI        -0.0321
     15 C4         19.6010   17.1040   19.4550 C.3       1 CPI        -0.0470
     16 C5         18.7060   15.9810   19.0010 C.3       1 CPI        -0.0121
     17 C6         17.2290   16.2020   19.3240 C.3       1 CPI         0.1338
     18 C          16.5490   17.1520   18.3490 C.2       1 CPI         0.2041
     19 O1         15.7640   18.0350   18.7740 O.2       1 CPI        -0.3944
     20 N          16.8430   17.0170   17.0620 N.am      1 NLE        -0.2637
     21 CA         16.2680   17.8550   16.0470 C.3       1 NLE         0.1308
     22 C          15.3670   17.2280   14.9780 C.2       1 NLE         0.2016
     23 O          15.2670   16.0010   14.9130 O.2       1 NLE        -0.3945
     24 CB         17.2180   18.9140   15.4500 C.3       1 NLE        -0.0124
     25 CG         18.4510   18.3180   14.8220 C.3       1 NLE        -0.0491
     26 CD         19.3230   19.3980   14.2170 C.3       1 NLE        -0.0557
     27 CE         20.5980   19.0180   13.5200 C.3       1 NLE        -0.0653
     28 N          14.7210   18.0280   14.1400 N.am      1 DOA        -0.2851
     29 CA         13.8340   17.6200   13.0730 C.3       1 DOA         0.0309
     30 C2         14.5150   17.6210   11.7020 C.3       1 DOA        -0.0327
     31 C3         13.5230   17.9240   10.5670 C.3       1 DOA        -0.0512
     32 C4         12.9770   16.6740    9.8620 C.3       1 DOA        -0.0530
     33 C5         12.0270   17.0220    8.6840 C.3       1 DOA        -0.0531
     34 C6         11.5500   15.7480    7.9660 C.3       1 DOA        -0.0531
     35 C7         10.3660   15.9710    7.0130 C.3       1 DOA        -0.0531
     36 C8         10.7940   16.4350    5.6190 C.3       1 DOA        -0.0529
     37 C9          9.6800   16.2210    4.5780 C.3       1 DOA        -0.0510
     38 C10        10.0730   16.8130    3.2180 C.3       1 DOA        -0.0361
     39 CA2         9.2750   16.2300    2.0430 C.3       1 DOA         0.0374
     40 C           8.0030   16.9960    1.7030 C.2       1 DOA         0.1783
     41 O           7.8190   17.4160    0.5590 O.2       1 DOA        -0.3969
     42 N           7.1370   17.1880    2.6960 N.am      1 ASP        -0.2641
     43 CA          5.8600   17.8810    2.5390 C.3       1 ASP         0.1422
     44 C           5.9510   19.3110    1.9980 C.2       1 ASP         0.2057
     45 O           4.9580   19.8770    1.5590 O.2       1 ASP        -0.3943
     46 CB          5.1670   17.9050    3.9010 C.3       1 ASP         0.0406
     47 CG          3.6780   17.6660    3.8060 C.2       1 ASP         0.0393
     48 OD1         3.0420   17.5420    4.8710 O.co2     1 ASP        -0.5688
     49 OD2         3.1410   17.5960    2.6780 O.co2     1 ASP        -0.5688
     50 N           7.1600   19.8580    1.9800 N.am      1 TYR        -0.2620
     51 CA          7.4040   21.2360    1.5590 C.3       1 TYR         0.1390
     52 C           7.3330   21.6260    0.0890 C.2       1 TYR         0.2057
     53 O           7.9570   20.9970   -0.7690 O.2       1 TYR        -0.3942
     54 CB          8.7220   21.7180    2.1630 C.3       1 TYR         0.0163
     55 CG          8.6870   21.6540    3.6630 C.ar      1 TYR        -0.0493
     56 CD1         8.9960   20.4690    4.3320 C.ar      1 TYR        -0.0685
     57 CD2         8.2400   22.7410    4.4110 C.ar      1 TYR        -0.0685
     58 CE1         8.8450   20.3620    5.7050 C.ar      1 TYR        -0.0398
     59 CE2         8.0880   22.6460    5.7830 C.ar      1 TYR        -0.0398
     60 CZ          8.3860   21.4580    6.4170 C.ar      1 TYR         0.0805
     61 OH          8.1840   21.3770    7.7650 O.3       1 TYR        -0.3376
     62 N           6.5620   22.6780   -0.1760 N.am      1 GLU        -0.2635
     63 CA          6.3970   23.2280   -1.5140 C.3       1 GLU         0.1327
     64 C           7.6920   23.9550   -1.8900 C.2       1 GLU         0.2065
     65 O           8.2010   24.7820   -1.1330 O.2       1 GLU        -0.3942
     66 CB          5.2320   24.2150   -1.5280 C.3       1 GLU        -0.0008
     67 CG          5.1100   25.0200   -2.8080 C.3       1 GLU         0.0044
     68 CD          4.1300   26.1700   -2.6900 C.2       1 GLU         0.0350
     69 OE1         4.3470   27.1990   -3.3650 O.co2     1 GLU        -0.5690
     70 OE2         3.1490   26.0520   -1.9260 O.co2     1 GLU        -0.5690
     71 N           8.2480   23.6470   -3.0710 N.am      1 PRO        -0.2498
     72 CA          9.4890   24.2820   -3.5230 C.3       1 PRO         0.1338
     73 C           9.4530   25.8020   -3.4590 C.2       1 PRO         0.2041
     74 O           8.3960   26.4230   -3.5690 O.2       1 PRO        -0.3944
     75 CB          9.6150   23.7920   -4.9540 C.3       1 PRO        -0.0104
     76 CG          9.0070   22.4190   -4.8840 C.3       1 PRO        -0.0281
     77 CD          7.7650   22.6790   -4.0720 C.3       1 PRO         0.0369
     78 N          10.6270   26.3880   -3.2840 N.am      1 ILE        -0.2634
     79 CA         10.7520   27.8270   -3.2160 C.3       1 ILE         0.1337
     80 C          11.1570   28.3540   -4.5900 C.2       1 ILE         0.2067
     81 O          12.1640   27.9190   -5.1530 O.2       1 ILE        -0.3942
     82 CB         11.8150   28.2350   -2.1800 C.3       1 ILE        -0.0037
     83 CG1        11.3680   27.7970   -0.7830 C.3       1 ILE        -0.0491
     84 CG2        12.0580   29.7390   -2.2370 C.3       1 ILE        -0.0582
     85 CD1        12.4110   28.0130    0.2840 C.3       1 ILE        -0.0648
     86 N          10.3390   29.2460   -5.1790 N.am      1 PRO        -0.2498
     87 CA         10.6320   29.8250   -6.4970 C.3       1 PRO         0.1338
     88 C          11.9080   30.6520   -6.3860 C.2       1 PRO         0.2041
     89 O          12.3000   31.0250   -5.2810 O.2       1 PRO        -0.3944
     90 CB          9.4250   30.7290   -6.7490 C.3       1 PRO        -0.0104
     91 CG          8.3250   30.0510   -5.9760 C.3       1 PRO        -0.0281
     92 CD          9.0230   29.6950   -4.6930 C.3       1 PRO         0.0369
     93 N          12.5360   30.9620   -7.5150 N.am      1 GLU        -0.2636
     94 CA         13.7680   31.7490   -7.5060 C.3       1 GLU         0.1325
     95 C          13.5310   33.2140   -7.1470 C.2       1 GLU         0.2040
     96 O          13.8420   34.1100   -7.9160 O.2       1 GLU        -0.3944
     97 CB         14.4650   31.6620   -8.8610 C.3       1 GLU        -0.0008
     98 CG         14.7180   30.2480   -9.3530 C.3       1 GLU         0.0044
     99 CD         14.4510   30.1100  -10.8470 C.2       1 GLU         0.0350
    100 OE1        15.4100   29.8650  -11.6170 O.co2     1 GLU        -0.5690
    101 OE2        13.2760   30.2570  -11.2510 O.co2     1 GLU        -0.5690
    102 N          12.9200   33.4380   -5.9940 N.am      1 GLU        -0.2636
    103 CA         12.6600   34.7740   -5.4850 C.3       1 GLU         0.1325
    104 C          13.3650   34.7550   -4.1360 C.2       1 GLU         0.2040
    105 O          12.7320   34.7660   -3.0750 O.2       1 GLU        -0.3944
    106 CB         11.1570   35.0170   -5.3400 C.3       1 GLU        -0.0008
    107 CG         10.6590   36.2080   -6.1650 C.3       1 GLU         0.0044
    108 CD          9.5290   35.8550   -7.1300 C.2       1 GLU         0.0350
    109 OE1         8.7150   36.7560   -7.4420 O.co2     1 GLU        -0.5690
    110 OE2         9.4590   34.6880   -7.5860 O.co2     1 GLU        -0.5690
    111 N          14.6890   34.6120   -4.2390 N.am      1 ALA        -0.2640
    112 CA         15.6800   34.5300   -3.1570 C.3       1 ALA         0.1282
    113 C          16.5640   33.3520   -3.5600 C.2       1 ALA         0.2031
    114 O          17.6180   33.5500   -4.1590 O.2       1 ALA        -0.3944
    115 CB         15.0380   34.2690   -1.8060 C.3       1 ALA        -0.0244
    116 N          16.0880   32.1340   -3.2880 N.am      1 ALA        -0.2698
    117 CA         16.7870   30.8860   -3.6270 C.3       1 ALA         0.0916
    118 C          16.1450   29.6840   -2.9360 C.2       1 ALA         0.0598
    119 O          15.3990   29.8980   -1.9570 O.co2     1 ALA        -0.5666
    120 CB         18.2670   30.9680   -3.2600 C.3       1 ALA        -0.0300
    121 OXT        16.4060   28.5420   -3.3700 O.co2     1 ALA        -0.5666
    122 H1         14.6506   13.5810   22.3150 H         1 ARG         0.2015
    123 H2         15.0404   14.8527   23.2848 H         1 ARG         0.2015
    124 H3         16.2295   13.9165   22.6375 H         1 ARG         0.2015
    125 H4         15.7030   14.6317   20.4194 H         1 ARG         0.1098
    126 H5         13.3137   15.0032   20.7344 H         1 ARG         0.0347
    127 H6         14.1128   16.5082   20.1661 H         1 ARG         0.0347
    128 H7         14.1028   17.3719   22.4741 H         1 ARG         0.0302
    129 H8         13.2739   15.8754   23.0218 H         1 ARG         0.0302
    130 H9         11.4222   16.3937   21.3676 H         1 ARG         0.0689
    131 H10        12.2216   17.9719   21.0562 H         1 ARG         0.0689
    132 H11        10.6830   17.1740   23.4381 H         1 ARG         0.2642
    133 H12        12.8388   20.6189   23.3561 H         1 ARG         0.2615
    134 H13        13.1514   19.3621   22.1291 H         1 ARG         0.2615
    135 H14        10.2897   18.7651   24.9760 H         1 ARG         0.2615
    136 H15        11.2384   20.2760   24.9665 H         1 ARG         0.2615
    137 H16        17.7246   18.4344   21.8385 H         1 CPI         0.0524
    138 H17        17.7351   18.6715   20.0580 H         1 CPI         0.0524
    139 H18        19.6285   16.7615   21.5456 H         1 CPI         0.0285
    140 H19        20.0742   18.4268   21.0409 H         1 CPI         0.0285
    141 H20        20.6420   16.7640   19.3513 H         1 CPI         0.0268
    142 H21        19.4268   17.9606   18.7872 H         1 CPI         0.0268
    143 H22        19.0342   15.0544   19.4946 H         1 CPI         0.0312
    144 H23        18.8105   15.8728   17.9113 H         1 CPI         0.0312
    145 H24        16.6978   15.2399   19.2781 H         1 CPI         0.0802
    146 H25        17.4894   16.3048   16.7884 H         1 NLE         0.1883
    147 H26        15.5566   18.4574   16.6309 H         1 NLE         0.0800
    148 H27        17.5303   19.5966   16.2540 H         1 NLE         0.0312
    149 H28        16.6721   19.4793   14.6804 H         1 NLE         0.0312
    150 H29        18.1491   17.6141   14.0324 H         1 NLE         0.0267
    151 H30        19.0243   17.7812   15.5922 H         1 NLE         0.0267
    152 H31        19.5970   20.0822   15.0336 H         1 NLE         0.0263
    153 H32        18.7044   19.9336   13.4818 H         1 NLE         0.0263
    154 H33        21.0961   19.9249   13.1466 H         1 NLE         0.0230
    155 H34        20.3696   18.3511   12.6755 H         1 NLE         0.0230
    156 H35        21.2622   18.4997   14.2273 H         1 NLE         0.0230
    157 H36        14.8613   19.0111   14.2577 H         1 DOA         0.1851
    158 H37        12.9801   18.3127   13.0417 H         1 DOA         0.0520
    159 H38        13.4734   16.6027   13.2854 H         1 DOA         0.0520
    160 H39        14.9633   16.6318   11.5273 H         1 DOA         0.0285
    161 H40        15.3042   18.3872   11.6979 H         1 DOA         0.0285
    162 H41        14.0341   18.5473    9.8185 H         1 DOA         0.0266
    163 H42        12.6738   18.4809   10.9897 H         1 DOA         0.0266
    164 H43        12.4228   16.0694   10.5951 H         1 DOA         0.0265
    165 H44        13.8241   16.0911    9.4714 H         1 DOA         0.0265
    166 H45        12.5629   17.6603    7.9661 H         1 DOA         0.0265
    167 H46        11.1528   17.5634    9.0747 H         1 DOA         0.0265
    168 H47        11.2467   15.0150    8.7280 H         1 DOA         0.0265
    169 H48        12.3911   15.3444    7.3833 H         1 DOA         0.0265
    170 H49         9.7057   16.7354    7.4485 H         1 DOA         0.0265
    171 H50         9.8148   15.0244    6.9125 H         1 DOA         0.0265
    172 H51        11.6830   15.8649    5.3113 H         1 DOA         0.0265
    173 H52        11.0414   17.5060    5.6606 H         1 DOA         0.0265
    174 H53         8.7602   16.7105    4.9305 H         1 DOA         0.0267
    175 H54         9.4997   15.1422    4.4615 H         1 DOA         0.0267
    176 H55        11.1410   16.6132    3.0467 H         1 DOA         0.0290
    177 H56         9.9035   17.8994    3.2490 H         1 DOA         0.0290
    178 H57         8.9966   15.1963    2.2957 H         1 DOA         0.0502
    179 H58         9.9232   16.2284    1.1543 H         1 DOA         0.0502
    180 H59         7.3743   16.8376    3.6020 H         1 ASP         0.1884
    181 H60         5.2470   17.2990    1.8351 H         1 ASP         0.0819
    182 H61         5.3360   18.8885    4.3638 H         1 ASP         0.0478
    183 H62         5.6088   17.1212    4.5338 H         1 ASP         0.0478
    184 H63         7.9397   19.3018    2.2677 H         1 TYR         0.1885
    185 H64         6.6030   21.8188    2.0372 H         1 TYR         0.0821
    186 H65         8.9001   22.7580    1.8523 H         1 TYR         0.0453
    187 H66         9.5396   21.0804    1.7956 H         1 TYR         0.0453
    188 H67         9.3603   19.6180    3.7680 H         1 TYR         0.0530
    189 H68         8.0080   23.6744    3.9111 H         1 TYR         0.0530
    190 H69         9.0824   19.4350    6.2142 H         1 TYR         0.0525
    191 H70         7.7378   23.4979    6.3546 H         1 TYR         0.0525
    192 H71         8.4282   20.5108    8.0692 H         1 TYR         0.2458
    193 H72         6.0723   23.1117    0.5804 H         1 GLU         0.1883
    194 H73         6.2010   22.4167   -2.2305 H         1 GLU         0.0801
    195 H74         5.3651   24.9167   -0.6914 H         1 GLU         0.0330
    196 H75         4.2994   23.6490   -1.3871 H         1 GLU         0.0330
    197 H76         4.7708   24.3509   -3.6125 H         1 GLU         0.0433
    198 H77         6.0997   25.4270   -3.0624 H         1 GLU         0.0433
    199 H78        10.3366   23.9284   -2.9176 H         1 PRO         0.0802
    200 H79        10.6686   23.7444   -5.2663 H         1 PRO         0.0313
    201 H80         9.0562   24.4390   -5.6462 H         1 PRO         0.0313
    202 H81         8.7593   22.0382   -5.8858 H         1 PRO         0.0287
    203 H82         9.6767   21.7088   -4.3770 H         1 PRO         0.0287
    204 H83         6.9657   23.1110   -4.6921 H         1 PRO         0.0524
    205 H84         7.4007   21.7580   -3.5935 H         1 PRO         0.0524
    206 H85        11.4469   25.8221   -3.1968 H         1 ILE         0.1883
    207 H86         9.7832   28.2608   -2.9277 H         1 ILE         0.0803
    208 H87        12.7577   27.7221   -2.4214 H         1 ILE         0.0345
    209 H88        11.1233   26.7251   -0.8171 H         1 ILE         0.0267
    210 H89        10.4693   28.3698   -0.5107 H         1 ILE         0.0267
    211 H90        12.3771   30.0207   -3.2513 H         1 ILE         0.0235
    212 H91        12.8436   30.0111   -1.5167 H         1 ILE         0.0235
    213 H92        11.1287   30.2704   -1.9842 H         1 ILE         0.0235
    214 H93        12.0179   27.6759    1.2545 H         1 ILE         0.0230
    215 H94        12.6610   29.0827    0.3412 H         1 ILE         0.0230
    216 H95        13.3150   27.4380    0.0349 H         1 ILE         0.0230
    217 H96        10.7346   29.0552   -7.2760 H         1 PRO         0.0802
    218 H97         9.1835   30.7759   -7.8211 H         1 PRO         0.0313
    219 H98         9.6063   31.7453   -6.3691 H         1 PRO         0.0313
    220 H99         7.4819   30.7344   -5.7967 H         1 PRO         0.0287
    221 H100        7.9641   29.1525   -6.4980 H         1 PRO         0.0287
    222 H101        9.1172   30.5696   -4.0326 H         1 PRO         0.0524
    223 H102        8.4963   28.8889   -4.1611 H         1 PRO         0.0524
    224 H103       12.1588   30.6511   -8.3874 H         1 GLU         0.1883
    225 H104       14.4350   31.3182   -6.7448 H         1 GLU         0.0801
    226 H105       15.4343   32.1760   -8.7817 H         1 GLU         0.0330
    227 H106       13.8369   32.1761   -9.6034 H         1 GLU         0.0330
    228 H107       14.0565   29.5582   -8.8084 H         1 GLU         0.0433
    229 H108       15.7671   29.9843   -9.1534 H         1 GLU         0.0433
    230 H109       12.6244   32.6531   -5.4494 H         1 GLU         0.1883
    231 H110       13.0914   35.5419   -6.1439 H         1 GLU         0.0801
    232 H111       10.9337   35.2076   -4.2799 H         1 GLU         0.0330
    233 H112       10.6228   34.1141   -5.6707 H         1 GLU         0.0330
    234 H113       11.5033   36.6039   -6.7485 H         1 GLU         0.0433
    235 H114       10.2960   36.9825   -5.4733 H         1 GLU         0.0433
    236 H115       15.0514   34.5534   -5.1692 H         1 ALA         0.1883
    237 H116       16.2670   35.4587   -3.1037 H         1 ALA         0.0797
    238 H117       15.8189   34.2166   -1.0330 H         1 ALA         0.0277
    239 H118       14.4897   33.3159   -1.8385 H         1 ALA         0.0277
    240 H119       14.3404   35.0854   -1.5677 H         1 ALA         0.0277
    241 H120       15.2035   32.0671   -2.8263 H         1 ALA         0.1875
    242 H121       16.7097   30.7386   -4.7143 H         1 ALA         0.0723
    243 H122       18.7632   30.0225   -3.5243 H         1 ALA         0.0270
    244 H123       18.3675   31.1450   -2.1790 H         1 ALA         0.0270
    245 H124       18.7365   31.7954   -3.8123 H         1 ALA         0.0270
@<TRIPOS>BOND
     1    2    1 1  
     2    2    5 1  
     3    3    2 1  
     4    3    4 2  
     5    5    6 1  
     6    6    7 1  
     7    7    8 1  
     8    8    9 ar 
     9    9   11 ar 
    10    9   10 ar 
    11   21   20 1  
    12   21   24 1  
    13   22   21 1  
    14   22   23 2  
    15   24   25 1  
    16   25   26 1  
    17   26   27 1  
    18   42   43 1  
    19   43   46 1  
    20   43   44 1  
    21   44   45 2  
    22   46   47 1  
    23   47   48 ar 
    24   47   49 ar 
    25   50   51 1  
    26   51   54 1  
    27   51   52 1  
    28   52   53 2  
    29   54   55 1  
    30   55   56 ar 
    31   55   57 ar 
    32   57   59 ar 
    33   59   60 ar 
    34   60   61 1  
    35   58   60 ar 
    36   56   58 ar 
    37   44   50 am 
    38   62   63 1  
    39   63   66 1  
    40   63   64 1  
    41   64   65 2  
    42   66   67 1  
    43   67   68 1  
    44   68   70 ar 
    45   68   69 ar 
    46   52   62 am 
    47   72   73 1  
    48   72   75 1  
    49   71   72 1  
    50   71   77 1  
    51   77   76 1  
    52   76   75 1  
    53   73   74 2  
    54   64   71 am 
    55   78   79 1  
    56   79   82 1  
    57   79   80 1  
    58   80   81 2  
    59   82   84 1  
    60   82   83 1  
    61   83   85 1  
    62   73   78 am 
    63   87   88 1  
    64   87   90 1  
    65   86   87 1  
    66   86   92 1  
    67   92   91 1  
    68   91   90 1  
    69   88   89 2  
    70   80   86 am 
    71   93   94 1  
    72   94   97 1  
    73   94   95 1  
    74   95   96 2  
    75   97   98 1  
    76   98   99 1  
    77   99  101 ar 
    78   99  100 ar 
    79   88   93 am 
    80  102  103 1  
    81  103  106 1  
    82  103  104 1  
    83  104  105 2  
    84  106  107 1  
    85  107  108 1  
    86  108  110 ar 
    87  108  109 ar 
    88   95  102 am 
    89  111  112 1  
    90  112  115 1  
    91  112  113 1  
    92  113  114 2  
    93  104  111 am 
    94  116  117 1  
    95  117  120 1  
    96  117  118 1  
    97  118  119 ar 
    98  118  121 ar 
    99  113  116 am 
   100   12   13 1  
   101   17   12 1  
   102   13   14 1  
   103   15   14 1  
   104   16   15 1  
   105   17   16 1  
   106   18   17 1  
   107   18   19 2  
   108   29   28 1  
   109   30   29 1  
   110   31   30 1  
   111   32   31 1  
   112   33   32 1  
   113   34   33 1  
   114   35   34 1  
   115   36   35 1  
   116   37   36 1  
   117   38   37 1  
   118   39   38 1  
   119   40   39 1  
   120   40   41 2  
   121   12    3 am 
   122   20   18 am 
   123   28   22 am 
   124   40   42 am 
   125    1  122 1  
   126    1  123 1  
   127    1  124 1  
   128    2  125 1  
   129    5  126 1  
   130    5  127 1  
   131    6  128 1  
   132    6  129 1  
   133    7  130 1  
   134    7  131 1  
   135    8  132 1  
   136   10  133 1  
   137   10  134 1  
   138   11  135 1  
   139   11  136 1  
   140   13  137 1  
   141   13  138 1  
   142   14  139 1  
   143   14  140 1  
   144   15  141 1  
   145   15  142 1  
   146   16  143 1  
   147   16  144 1  
   148   17  145 1  
   149   20  146 1  
   150   21  147 1  
   151   24  148 1  
   152   24  149 1  
   153   25  150 1  
   154   25  151 1  
   155   26  152 1  
   156   26  153 1  
   157   27  154 1  
   158   27  155 1  
   159   27  156 1  
   160   28  157 1  
   161   29  158 1  
   162   29  159 1  
   163   30  160 1  
   164   30  161 1  
   165   31  162 1  
   166   31  163 1  
   167   32  164 1  
   168   32  165 1  
   169   33  166 1  
   170   33  167 1  
   171   34  168 1  
   172   34  169 1  
   173   35  170 1  
   174   35  171 1  
   175   36  172 1  
   176   36  173 1  
   177   37  174 1  
   178   37  175 1  
   179   38  176 1  
   180   38  177 1  
   181   39  178 1  
   182   39  179 1  
   183   42  180 1  
   184   43  181 1  
   185   46  182 1  
   186   46  183 1  
   187   50  184 1  
   188   51  185 1  
   189   54  186 1  
   190   54  187 1  
   191   56  188 1  
   192   57  189 1  
   193   58  190 1  
   194   59  191 1  
   195   61  192 1  
   196   62  193 1  
   197   63  194 1  
   198   66  195 1  
   199   66  196 1  
   200   67  197 1  
   201   67  198 1  
   202   72  199 1  
   203   75  200 1  
   204   75  201 1  
   205   76  202 1  
   206   76  203 1  
   207   77  204 1  
   208   77  205 1  
   209   78  206 1  
   210   79  207 1  
   211   82  208 1  
   212   83  209 1  
   213   83  210 1  
   214   84  211 1  
   215   84  212 1  
   216   84  213 1  
   217   85  214 1  
   218   85  215 1  
   219   85  216 1  
   220   87  217 1  
   221   90  218 1  
   222   90  219 1  
   223   91  220 1  
   224   91  221 1  
   225   92  222 1  
   226   92  223 1  
   227   93  224 1  
   228   94  225 1  
   229   97  226 1  
   230   97  227 1  
   231   98  228 1  
   232   98  229 1  
   233  102  230 1  
   234  103  231 1  
   235  106  232 1  
   236  106  233 1  
   237  107  234 1  
   238  107  235 1  
   239  111  236 1  
   240  112  237 1  
   241  115  238 1  
   242  115  239 1  
   243  115  240 1  
   244  116  241 1  
   245  117  242 1  
   246  120  243 1  
   247  120  244 1  
   248  120  245 1  
@<TRIPOS>SUBSTRUCTURE
     1 ARG         1

