6by8_ligand
  -I-interpret- 

 73 78  0  0  0  0  0  0  0  0999 V2000
   13.3220    7.6640   12.5500 C   0  0  0  0  0
   13.6110    8.9910   12.4060 C   0  0  0  0  0
   12.6110    9.8380   12.0150 C   0  0  0  0  0
   11.3780    9.3910   11.7710 N   0  0  0  0  0
   12.0860    7.1810   12.3220 N   0  0  0  0  0
   11.0710    8.0350   11.9190 C   0  0  0  0  0
    8.1200   17.0900   12.0750 C   0  0  0  0  0
    8.5490   21.8710   14.5320 C   0  0  0  0  0
   11.5170   18.1190   11.1350 C   0  0  0  0  0
   11.5510   19.3390   11.8120 C   0  0  0  0  0
   14.9200    9.2590   12.6870 C   0  0  0  0  0
    8.4910   19.6990   13.3510 C   0  0  0  0  0
   12.0610   12.7510   10.0940 C   0  0  0  0  0
   11.8920   13.3380   12.5100 C   0  0  0  0  0
   11.0910   13.9430    9.8230 C   0  0  0  0  0
   10.8880   14.4560   12.1200 C   0  0  0  0  0
   10.6940   23.6970   10.1360 C   0  0  0  0  0
   11.9840   24.2540   12.6420 C   0  0  0  0  0
   10.3410   16.0620   10.5120 C   0  0  0  0  0
   17.1490    8.1870   13.4000 C   0  0  0  0  0
   11.2730   22.0250   13.4110 C   0  0  0  0  0
   11.3550   24.9190   10.3270 C   0  0  0  0  0
    9.3040   17.8220   11.9560 C   0  0  0  0  0
   15.6480    8.1780   13.0470 C   0  0  0  0  0
    9.0880   20.8420   13.7130 C   0  0  0  0  0
   10.3840   17.3090   11.2080 C   0  0  0  0  0
    9.3840   19.0160   12.5960 C   0  0  0  0  0
   10.4990   19.7640   12.5230 C   0  0  0  0  0
   11.8280   12.1710   11.5150 C   0  0  0  0  0
   10.9810   23.1530   12.4150 C   0  0  0  0  0
   17.9720    7.6350   12.2040 C   0  0  0  0  0
   17.7500    8.3390   11.1100 F   0  0  0  0  0
   19.2150    7.6620   12.4740 F   0  0  0  0  0
   17.6320    6.3930   11.9460 F   0  0  0  0  0
    8.1550   22.7070   15.1630 N   0  0  0  0  0
   11.9600   25.2320   11.5410 N   0  0  0  0  0
   12.8700   11.1640   11.8760 N   0  0  0  0  0
   11.2140   15.0450   10.8100 N   0  3  0  0  0
   10.3110   20.8910   13.2200 N   0  0  0  0  0
   11.3700   25.7630    9.4350 O   0  0  0  0  0
   11.1360   22.6910   11.0580 O   0  0  0  0  0
   14.6850    6.8180   13.0610 S   0  0  0  0  0
   10.0658    7.6613   11.7238 H   0  0  0  0  0
    7.6966   16.9229   11.0846 H   0  0  0  0  0
    8.3332   16.1309   12.5470 H   0  0  0  0  0
    7.4097   17.6471   12.6859 H   0  0  0  0  0
   12.3777   17.7986   10.5480 H   0  0  0  0  0
   12.4483   19.9557   11.7611 H   0  0  0  0  0
   15.3432   10.2617   12.6261 H   0  0  0  0  0
    7.4821   19.3804   13.6132 H   0  0  0  0  0
   13.0885   13.1076   10.0217 H   0  0  0  0  0
   11.8747   11.9690    9.3579 H   0  0  0  0  0
   11.6345   12.9668   13.5020 H   0  0  0  0  0
   12.8998   13.7530   12.4984 H   0  0  0  0  0
   10.0734   13.5578    9.8881 H   0  0  0  0  0
   11.3407   14.3517    8.8438 H   0  0  0  0  0
   10.9386   15.2423   12.8732 H   0  0  0  0  0
    9.8912   14.0188   12.0624 H   0  0  0  0  0
   10.9101   23.3492    9.1258 H   0  0  0  0  0
    9.6283   23.8595   10.2971 H   0  0  0  0  0
   12.9793   23.8126   12.6935 H   0  0  0  0  0
   11.7321   24.7682   13.5695 H   0  0  0  0  0
   10.5913   16.3279    9.4850 H   0  0  0  0  0
    9.3649   15.6521   10.7715 H   0  0  0  0  0
   17.3180    7.5593   14.2749 H   0  0  0  0  0
   17.4635    9.2085   13.6139 H   0  0  0  0  0
   11.1664   22.4120   14.4244 H   0  0  0  0  0
   12.2866   21.6603   13.2447 H   0  0  0  0  0
   10.8599   11.6708   11.5426 H   0  0  0  0  0
    9.9581   23.4985   12.5644 H   0  0  0  0  0
   12.3909   26.1476   11.6693 H   0  0  0  0  0
   13.8253   11.4887   12.0259 H   0  0  0  0  0
   12.1520   15.4457   10.8025 H   0  0  0  0  0
  2  1  4  0  0  0
  1  5  4  0  0  0
  1 42  4  0  0  0
  3  2  4  0  0  0
  2 11  4  0  0  0
  3  4  4  0  0  0
 37  3  1  0  0  0
  4  6  4  0  0  0
  6  5  4  0  0  0
 23  7  1  0  0  0
 25  8  1  0  0  0
  8 35  3  0  0  0
  9 10  4  0  0  0
 26  9  4  0  0  0
 10 28  4  0  0  0
 11 24  4  0  0  0
 12 25  4  0  0  0
 27 12  4  0  0  0
 13 15  1  0  0  0
 29 13  1  0  0  0
 14 16  1  0  0  0
 29 14  1  0  0  0
 15 38  1  0  0  0
 16 38  1  0  0  0
 22 17  1  0  0  0
 17 41  1  0  0  0
 30 18  1  0  0  0
 18 36  1  0  0  0
 19 26  1  0  0  0
 38 19  1  0  0  0
 24 20  1  0  0  0
 20 31  1  0  0  0
 21 30  1  0  0  0
 39 21  1  0  0  0
 36 22  1  0  0  0
 22 40  2  0  0  0
 26 23  4  0  0  0
 23 27  4  0  0  0
 24 42  4  0  0  0
 39 25  4  0  0  0
 27 28  4  0  0  0
 28 39  4  0  0  0
 29 37  1  0  0  0
 30 41  1  0  0  0
 31 32  1  0  0  0
 31 33  1  0  0  0
 31 34  1  0  0  0
  6 43  1  0  0  0
  7 44  1  0  0  0
  7 45  1  0  0  0
  7 46  1  0  0  0
  9 47  1  0  0  0
 10 48  1  0  0  0
 11 49  1  0  0  0
 12 50  1  0  0  0
 13 51  1  0  0  0
 13 52  1  0  0  0
 14 53  1  0  0  0
 14 54  1  0  0  0
 15 55  1  0  0  0
 15 56  1  0  0  0
 16 57  1  0  0  0
 16 58  1  0  0  0
 17 59  1  0  0  0
 17 60  1  0  0  0
 18 61  1  0  0  0
 18 62  1  0  0  0
 19 63  1  0  0  0
 19 64  1  0  0  0
 20 65  1  0  0  0
 20 66  1  0  0  0
 21 67  1  0  0  0
 21 68  1  0  0  0
 29 69  1  0  0  0
 30 70  1  0  0  0
 36 71  1  0  0  0
 37 72  1  0  0  0
 38 73  1  0  0  0
M  END
$$$$
