4lmu_ligand
  -I-interpret- 

 32 34  0  0  0  0  0  0  0  0999 V2000
  169.7150 -122.8210    0.6660 C   0  0  0  0  0
  169.7830 -122.9090   -0.7420 C   0  0  0  0  0
  169.4160 -121.8060   -1.6030 C   0  0  0  0  0
  168.9810 -120.6070   -1.0100 C   0  0  0  0  0
  168.9080 -120.5050    0.4370 C   0  0  0  0  0
  169.2720 -121.5990    1.2900 C   0  0  0  0  0
  169.4770 -121.8330   -3.1020 C   0  0  0  0  0
  169.0920 -120.6940   -3.9860 C   0  0  0  0  0
  168.8240 -119.5050   -3.2930 C   0  0  0  0  0
  168.5060 -118.1540   -4.0060 C   0  0  0  0  0
  168.8180 -117.9450   -5.3630 C   0  0  0  0  0
  168.5160 -116.6890   -5.9740 C   0  0  0  0  0
  167.9120 -115.6340   -5.2560 C   0  0  0  0  0
  167.5840 -115.7940   -3.8800 C   0  0  0  0  0
  167.9030 -117.0610   -3.3090 C   0  0  0  0  0
  168.6270 -119.5450   -1.8880 O   0  0  0  0  0
  169.9130 -122.8830   -3.6500 O   0  0  0  0  0
  167.0260 -114.8300   -3.1980 O   0  0  0  0  0
  167.6520 -114.4560   -5.9200 O   0  0  0  0  0
  169.3000 -120.7290   -5.3400 O   0  0  0  0  0
  169.2040 -121.5070    2.6730 O   0  0  0  0  0
  170.2020 -124.0420   -1.4190 O   0  0  0  0  0
  169.9971 -123.6761    1.2803 H   0  0  0  0  0
  168.5675 -119.5722    0.8866 H   0  0  0  0  0
  169.2879 -118.7379   -5.9450 H   0  0  0  0  0
  168.7593 -116.5410   -7.0261 H   0  0  0  0  0
  168.6727 -116.7987   -2.5832 H   0  0  0  0  0
  166.9174 -117.4586   -3.0669 H   0  0  0  0  0
  167.2439 -113.8323   -5.3150 H   0  0  0  0  0
  169.4659 -121.6340   -5.6138 H   0  0  0  0  0
  168.8924 -120.6331    2.9195 H   0  0  0  0  0
  170.1690 -123.8790   -2.3645 H   0  0  0  0  0
  1  2  4  0  0  0
  1  6  4  0  0  0
  2  3  4  0  0  0
  2 22  1  0  0  0
  3  4  4  0  0  0
  3  7  1  0  0  0
  4  5  4  0  0  0
  4 16  1  0  0  0
  5  6  4  0  0  0
  6 21  1  0  0  0
  7  8  1  0  0  0
  7 17  2  0  0  0
  8  9  2  0  0  0
  8 20  1  0  0  0
  9 10  1  0  0  0
  9 16  1  0  0  0
 10 11  2  0  0  0
 10 15  1  0  0  0
 11 12  1  0  0  0
 12 13  2  0  0  0
 13 14  1  0  0  0
 13 19  1  0  0  0
 14 15  1  0  0  0
 14 18  2  0  0  0
  1 23  1  0  0  0
  5 24  1  0  0  0
 11 25  1  0  0  0
 12 26  1  0  0  0
 15 27  1  0  0  0
 15 28  1  0  0  0
 19 29  1  0  0  0
 20 30  1  0  0  0
 21 31  1  0  0  0
 22 32  1  0  0  0
M  END
$$$$
