1qxy_ligand
  -I-interpret- 

 32 32  0  0  0  0  0  0  0  0999 V2000
    6.2870    3.1910   -1.6160 O   0  0  0  0  0
    5.4300    3.8770   -2.4800 C   0  0  0  0  0
    5.4750    5.2400   -2.0250 O   0  0  0  0  0
    4.0230    3.2670   -2.3810 C   0  0  0  0  0
    2.9090    4.1360   -2.9560 C   0  0  0  0  0
    1.4980    3.5620   -2.7630 C   0  0  0  0  0
    0.2040    4.5530   -3.5070 S   0  0  0  0  0
   -0.7150    5.1960   -2.1620 C   0  0  0  0  0
    3.7660    2.7620   -1.0590 N   0  3  0  0  0
    5.9930    3.7210   -3.8500 C   0  0  0  0  0
    6.1290    2.4990   -4.4350 C   0  0  0  0  0
    6.6540    2.4000   -5.7010 C   0  0  0  0  0
    7.1350    3.5200   -6.2970 C   0  0  0  0  0
    7.0160    4.7260   -5.6480 C   0  0  0  0  0
    6.4530    4.8160   -4.4340 N   0  0  0  0  0
    5.9599    3.2659   -0.7165 H   0  0  0  0  0
    5.1036    5.2936   -1.1414 H   0  0  0  0  0
    4.0138    2.4060   -3.0493 H   0  0  0  0  0
    3.0814    4.2102   -4.0297 H   0  0  0  0  0
    2.9422    5.0902   -2.4302 H   0  0  0  0  0
    1.3052    3.5287   -1.6907 H   0  0  0  0  0
    1.4764    2.5849   -3.2457 H   0  0  0  0  0
   -1.1265    4.3727   -1.5781 H   0  0  0  0  0
   -0.0610    5.7987   -1.5318 H   0  0  0  0  0
   -1.5275    5.8154   -2.5418 H   0  0  0  0  0
    4.5568    2.1948   -0.7533 H   0  0  0  0  0
    3.6383    3.5439   -0.4165 H   0  0  0  0  0
    2.9213    2.1904   -1.0729 H   0  0  0  0  0
    5.8218    1.6005   -3.8998 H   0  0  0  0  0
    6.6835    1.4401   -6.2166 H   0  0  0  0  0
    7.6092    3.4643   -7.2769 H   0  0  0  0  0
    7.3877    5.6297   -6.1310 H   0  0  0  0  0
  1  2  1  0  0  0
  2  3  1  0  0  0
  2  4  1  0  0  0
  2 10  1  0  0  0
  4  5  1  0  0  0
  4  9  1  0  0  0
  5  6  1  0  0  0
  6  7  1  0  0  0
  7  8  1  0  0  0
 10 11  4  0  0  0
 10 15  4  0  0  0
 11 12  4  0  0  0
 12 13  4  0  0  0
 13 14  4  0  0  0
 14 15  4  0  0  0
  1 16  1  0  0  0
  3 17  1  0  0  0
  4 18  1  0  0  0
  5 19  1  0  0  0
  5 20  1  0  0  0
  6 21  1  0  0  0
  6 22  1  0  0  0
  8 23  1  0  0  0
  8 24  1  0  0  0
  8 25  1  0  0  0
  9 26  1  0  0  0
  9 27  1  0  0  0
  9 28  1  0  0  0
 11 29  1  0  0  0
 12 30  1  0  0  0
 13 31  1  0  0  0
 14 32  1  0  0  0
M  END
$$$$
