1nl9_ligand
  -I-interpret- 

 70 72  0  0  0  0  0  0  0  0999 V2000
   36.6580   29.5000   24.0190 O   0  0  0  0  0
   35.6080   28.7400   24.4130 C   0  0  0  0  0
   34.7470   29.1720   25.1210 O   0  0  0  0  0
   35.5430   27.2770   23.8800 C   0  0  0  0  0
   35.8780   26.4060   24.6770 O   0  0  0  0  0
   35.1250   26.9770   22.5520 N   0  0  0  0  0
   35.0770   25.6090   22.0500 C   0  0  0  0  0
   33.8320   25.1790   21.4580 C   0  0  0  0  0
   33.6470   23.8880   20.9270 C   0  0  0  0  0
   34.6920   22.9580   20.9560 C   0  0  0  0  0
   35.9260   23.3190   21.5200 C   0  0  0  0  0
   36.1640   24.6160   22.0720 C   0  0  0  0  0
   37.5320   24.8230   22.6270 C   0  0  0  0  0
   38.1510   25.8280   22.4800 O   0  0  0  0  0
   38.0450   23.7900   23.3310 O   0  0  0  0  0
   34.6920   28.0320   21.7050 C   0  0  0  0  0
   33.3820   28.5810   21.9580 C   0  0  0  0  0
   32.8500   29.6210   21.1820 C   0  0  0  0  0
   33.5800   30.1890   20.0990 C   0  0  0  0  0
   34.9180   29.6720   19.7980 C   0  0  0  0  0
   35.4720   28.5890   20.6090 C   0  0  0  0  0
   36.7870   28.0840   20.3050 C   0  0  0  0  0
   37.5460   28.6280   19.2330 C   0  0  0  0  0
   37.0150   29.6830   18.4400 C   0  0  0  0  0
   35.7220   30.1980   18.7140 C   0  0  0  0  0
   32.9120   31.3080   19.3060 C   0  0  0  0  0
   32.3120   30.7900   17.9580 C   0  0  0  0  0
   31.7070   31.9260   17.2520 N   0  0  0  0  0
   32.2190   32.3740   16.0860 C   0  0  0  0  0
   33.1960   31.9010   15.5140 O   0  0  0  0  0
   31.4680   33.5610   15.5050 C   0  0  0  0  0
   31.2950   29.6300   18.1280 C   0  0  0  0  0
   31.7310   28.4810   18.1910 O   0  0  0  0  0
   29.9660   29.9050   18.2080 N   0  0  0  0  0
   28.8920   28.9250   18.3750 C   0  0  0  0  0
   27.6830   29.5000   19.1330 C   0  0  0  0  0
   27.9330   29.6020   20.6510 C   0  0  0  0  0
   26.7150   30.1700   21.4020 C   0  0  0  0  0
   27.0890   30.8300   22.7320 C   0  0  0  0  0
   37.2369   28.9781   23.4586 H   0  0  0  0  0
   33.0008   25.8831   21.4206 H   0  0  0  0  0
   32.6864   23.6122   20.4919 H   0  0  0  0  0
   34.5489   21.9594   20.5433 H   0  0  0  0  0
   36.7310   22.5843   21.5376 H   0  0  0  0  0
   37.4119   23.0685   23.3457 H   0  0  0  0  0
   32.7879   28.1753   22.7769 H   0  0  0  0  0
   31.8556   30.0031   21.4129 H   0  0  0  0  0
   37.2048   27.2751   20.9043 H   0  0  0  0  0
   38.5396   28.2349   19.0177 H   0  0  0  0  0
   37.6028   30.0963   17.6204 H   0  0  0  0  0
   35.3260   31.0048   18.0972 H   0  0  0  0  0
   33.6656   32.0616   19.0773 H   0  0  0  0  0
   32.0993   31.7150   19.9077 H   0  0  0  0  0
   33.1270   30.3636   17.3732 H   0  0  0  0  0
   30.8866   32.3842   17.6488 H   0  0  0  0  0
   32.1456   34.4102   15.4168 H   0  0  0  0  0
   31.0823   33.2984   14.5199 H   0  0  0  0  0
   30.6394   33.8225   16.1631 H   0  0  0  0  0
   29.6920   30.8855   18.1458 H   0  0  0  0  0
   29.2858   28.0896   18.9539 H   0  0  0  0  0
   28.5548   28.6231   17.3834 H   0  0  0  0  0
   26.8374   28.8305   18.9754 H   0  0  0  0  0
   27.4953   30.5048   18.7545 H   0  0  0  0  0
   28.7756   30.2744   20.8122 H   0  0  0  0  0
   28.1295   28.5995   21.0312 H   0  0  0  0  0
   26.0420   29.3407   21.6198 H   0  0  0  0  0
   26.2594   30.9316   20.7691 H   0  0  0  0  0
   27.5656   30.0943   23.3799 H   0  0  0  0  0
   27.7787   31.6534   22.5463 H   0  0  0  0  0
   26.1881   31.2105   23.2133 H   0  0  0  0  0
  1  2  1  0  0  0
  2  3  2  0  0  0
  2  4  1  0  0  0
  4  5  2  0  0  0
  4  6  1  0  0  0
  6  7  1  0  0  0
  6 16  1  0  0  0
  7  8  4  0  0  0
  7 12  4  0  0  0
  8  9  4  0  0  0
  9 10  4  0  0  0
 10 11  4  0  0  0
 11 12  4  0  0  0
 12 13  1  0  0  0
 13 14  2  0  0  0
 13 15  1  0  0  0
 16 17  4  0  0  0
 16 21  4  0  0  0
 17 18  4  0  0  0
 18 19  4  0  0  0
 19 20  4  0  0  0
 19 26  1  0  0  0
 20 21  4  0  0  0
 20 25  4  0  0  0
 21 22  4  0  0  0
 22 23  4  0  0  0
 23 24  4  0  0  0
 24 25  4  0  0  0
 26 27  1  0  0  0
 27 28  1  0  0  0
 27 32  1  0  0  0
 28 29  1  0  0  0
 29 30  2  0  0  0
 29 31  1  0  0  0
 32 33  2  0  0  0
 32 34  1  0  0  0
 34 35  1  0  0  0
 35 36  1  0  0  0
 36 37  1  0  0  0
 37 38  1  0  0  0
 38 39  1  0  0  0
  1 40  1  0  0  0
  8 41  1  0  0  0
  9 42  1  0  0  0
 10 43  1  0  0  0
 11 44  1  0  0  0
 15 45  1  0  0  0
 17 46  1  0  0  0
 18 47  1  0  0  0
 22 48  1  0  0  0
 23 49  1  0  0  0
 24 50  1  0  0  0
 25 51  1  0  0  0
 26 52  1  0  0  0
 26 53  1  0  0  0
 27 54  1  0  0  0
 28 55  1  0  0  0
 31 56  1  0  0  0
 31 57  1  0  0  0
 31 58  1  0  0  0
 34 59  1  0  0  0
 35 60  1  0  0  0
 35 61  1  0  0  0
 36 62  1  0  0  0
 36 63  1  0  0  0
 37 64  1  0  0  0
 37 65  1  0  0  0
 38 66  1  0  0  0
 38 67  1  0  0  0
 39 68  1  0  0  0
 39 69  1  0  0  0
 39 70  1  0  0  0
M  END
$$$$
