6eab_ligand
  -I-interpret- 

 48 50  0  0  0  0  0  0  0  0999 V2000
  -18.4600    8.2440  -10.7280 C   0  0  0  0  0
  -18.7730    9.1530   -9.5300 C   0  0  0  0  0
  -17.9570    8.9060   -8.3310 O   0  0  0  0  0
  -16.5620    9.0570   -8.6420 C   0  0  0  0  0
  -16.1720    8.0200   -9.7320 C   0  0  0  0  0
  -16.9580    8.2520  -11.0540 C   0  0  0  0  0
  -16.5080    9.5960  -11.6580 C   0  0  0  0  0
  -17.3180   10.4680  -11.9190 O   0  0  0  0  0
  -15.2000    9.6820  -11.9090 N   0  0  0  0  0
  -14.6030   10.9780  -12.3040 C   0  0  0  0  0
  -13.6250   11.3550  -11.1770 C   0  0  0  0  0
  -12.7220   10.6030  -10.8030 O   0  0  0  0  0
  -13.9220   12.5070  -10.5820 N   0  0  0  0  0
  -13.0280   12.8770   -9.5170 O   0  0  0  0  0
  -14.1060   11.0920  -13.6400 C   0  0  0  0  0
  -14.0100   10.0230  -14.5260 C   0  0  0  0  0
  -13.5690   10.2200  -15.8500 C   0  0  0  0  0
  -13.7630   12.3680  -14.0980 C   0  0  0  0  0
  -13.3200   12.5600  -15.4180 C   0  0  0  0  0
  -13.2010   11.4890  -16.2930 C   0  0  0  0  0
  -12.8270   11.7240  -17.6310 C   0  0  0  0  0
  -13.7200   12.5570  -18.3370 C   0  0  0  0  0
  -13.5050   12.8650  -19.6850 C   0  0  0  0  0
  -14.3750   13.6510  -20.4310 F   0  0  0  0  0
  -12.3920   12.3590  -20.3180 C   0  0  0  0  0
  -12.2050   12.7040  -21.7190 F   0  0  0  0  0
  -11.5030   11.5290  -19.6280 C   0  0  0  0  0
  -10.4460   11.0520  -20.2450 F   0  0  0  0  0
  -11.7090   11.1900  -18.2690 C   0  0  0  0  0
  -19.0065    8.6121  -11.5963 H   0  0  0  0  0
  -18.7566    7.2252  -10.4786 H   0  0  0  0  0
  -19.8087    8.9595   -9.2507 H   0  0  0  0  0
  -18.5640   10.1746   -9.8475 H   0  0  0  0  0
  -15.9652    8.8901   -7.7453 H   0  0  0  0  0
  -16.3744   10.0657   -9.0101 H   0  0  0  0  0
  -16.4120    7.0239   -9.3600 H   0  0  0  0  0
  -15.1077    8.1262   -9.9420 H   0  0  0  0  0
  -16.7617    7.4681  -11.7855 H   0  0  0  0  0
  -14.6106    8.8534  -11.8286 H   0  0  0  0  0
  -15.3907   11.7262  -12.3920 H   0  0  0  0  0
  -14.7185   13.0812  -10.8582 H   0  0  0  0  0
  -13.3088   13.7147   -9.1415 H   0  0  0  0  0
  -14.2792    9.0210  -14.1918 H   0  0  0  0  0
  -13.5153    9.3725  -16.5334 H   0  0  0  0  0
  -13.8399   13.2219  -13.4249 H   0  0  0  0  0
  -13.0664   13.5637  -15.7593 H   0  0  0  0  0
  -14.5905   12.9669  -17.8249 H   0  0  0  0  0
  -11.0173   10.5342  -17.7402 H   0  0  0  0  0
  1  2  1  0  0  0
  1  6  1  0  0  0
  2  3  1  0  0  0
  3  4  1  0  0  0
  4  5  1  0  0  0
  5  6  1  0  0  0
  6  7  1  0  0  0
  7  8  2  0  0  0
  7  9  1  0  0  0
  9 10  1  0  0  0
 10 11  1  0  0  0
 10 15  1  0  0  0
 11 12  2  0  0  0
 11 13  1  0  0  0
 13 14  1  0  0  0
 15 16  4  0  0  0
 15 18  4  0  0  0
 16 17  4  0  0  0
 17 20  4  0  0  0
 18 19  4  0  0  0
 19 20  4  0  0  0
 20 21  1  0  0  0
 21 22  4  0  0  0
 21 29  4  0  0  0
 22 23  4  0  0  0
 23 24  1  0  0  0
 23 25  4  0  0  0
 25 26  1  0  0  0
 25 27  4  0  0  0
 27 28  1  0  0  0
 27 29  4  0  0  0
  1 30  1  0  0  0
  1 31  1  0  0  0
  2 32  1  0  0  0
  2 33  1  0  0  0
  4 34  1  0  0  0
  4 35  1  0  0  0
  5 36  1  0  0  0
  5 37  1  0  0  0
  6 38  1  0  0  0
  9 39  1  0  0  0
 10 40  1  0  0  0
 13 41  1  0  0  0
 14 42  1  0  0  0
 16 43  1  0  0  0
 17 44  1  0  0  0
 18 45  1  0  0  0
 19 46  1  0  0  0
 22 47  1  0  0  0
 29 48  1  0  0  0
M  END
$$$$
