1f0q_ligand
  -I-interpret- 

 30 32  0  0  0  0  0  0  0  0999 V2000
   44.4380    8.6260    2.8160 C   0  0  0  0  0
   45.2150    9.7220    2.4500 O   0  0  0  0  0
   44.1340    7.7130    1.7570 C   0  0  0  0  0
   43.3440    6.5560    2.0280 C   0  0  0  0  0
   43.0370    5.6540    1.0140 O   0  0  0  0  0
   42.8410    6.2870    3.3480 C   0  0  0  0  0
   43.1290    7.1810    4.4340 C   0  0  0  0  0
   42.5980    6.8860    5.8540 C   0  0  0  0  0
   41.9180    5.8870    6.0690 O   0  0  0  0  0
   42.9280    7.8720    7.0010 C   0  0  0  0  0
   42.4560    7.6230    8.3570 C   0  0  0  0  0
   42.7810    8.5510    9.4250 C   0  0  0  0  0
   42.3340    8.3970   10.8460 C   0  0  0  0  0
   43.5810    9.7040    9.1550 C   0  0  0  0  0
   44.0450    9.9480    7.8270 C   0  0  0  0  0
   44.8310   11.1160    7.6330 O   0  0  0  0  0
   43.7500    9.0500    6.7400 C   0  0  0  0  0
   44.2690    9.3490    5.3210 C   0  0  0  0  0
   44.9520   10.3400    5.0970 O   0  0  0  0  0
   43.9400    8.3710    4.1730 C   0  0  0  0  0
   45.3675   10.2758    3.2191 H   0  0  0  0  0
   44.5038    7.9003    0.7489 H   0  0  0  0  0
   42.5024    4.9416    1.3720 H   0  0  0  0  0
   42.2364    5.3976    3.5255 H   0  0  0  0  0
   41.8572    6.7374    8.5700 H   0  0  0  0  0
   41.2447    8.3915   10.8843 H   0  0  0  0  0
   42.7177    7.4587   11.2466 H   0  0  0  0  0
   42.7154    9.2291   11.4377 H   0  0  0  0  0
   43.8358   10.3941    9.9594 H   0  0  0  0  0
   45.0860   11.1790    6.7096 H   0  0  0  0  0
  1  2  1  0  0  0
  1  3  4  0  0  0
  1 20  4  0  0  0
  3  4  4  0  0  0
  4  5  1  0  0  0
  4  6  4  0  0  0
  6  7  4  0  0  0
  7  8  1  0  0  0
  7 20  4  0  0  0
  8  9  2  0  0  0
  8 10  1  0  0  0
 10 11  4  0  0  0
 10 17  4  0  0  0
 11 12  4  0  0  0
 12 13  1  0  0  0
 12 14  4  0  0  0
 14 15  4  0  0  0
 15 16  1  0  0  0
 15 17  4  0  0  0
 17 18  1  0  0  0
 18 19  2  0  0  0
 18 20  1  0  0  0
  2 21  1  0  0  0
  3 22  1  0  0  0
  5 23  1  0  0  0
  6 24  1  0  0  0
 11 25  1  0  0  0
 13 26  1  0  0  0
 13 27  1  0  0  0
 13 28  1  0  0  0
 14 29  1  0  0  0
 16 30  1  0  0  0
M  END
$$$$
