2w92_ligand
  -I-interpret- 

 27 28  0  0  0  0  0  0  0  0999 V2000
   -3.5930   -5.1300  -24.9050 C   0  0  0  0  0
   -3.5530   -3.5850  -25.0090 C   0  0  0  0  0
   -4.1310   -3.0880  -26.3500 C   0  0  0  0  0
   -3.5890   -3.9000  -27.5240 C   0  0  0  0  0
   -3.9280   -5.3660  -27.3010 C   0  0  0  0  0
   -3.3600   -6.1950  -28.4820 C   0  0  0  0  0
   -5.4020   -3.9510  -23.5280 C   0  0  0  0  0
   -6.4310   -3.6440  -22.4350 C   0  0  0  0  0
   -4.4340   -3.1120  -23.9240 N   0  0  0  0  0
   -5.3090   -5.4400  -24.3970 S   0  0  0  0  0
   -3.8480   -1.7070  -26.5770 O   0  0  0  0  0
   -4.2010   -3.4550  -28.7290 O   0  0  0  0  0
   -3.3470   -5.8510  -26.0870 O   0  0  0  0  0
   -3.8540   -7.5290  -28.4060 O   0  0  0  0  0
   -2.8002   -5.4646  -24.2359 H   0  0  0  0  0
   -2.5280   -3.2206  -24.9403 H   0  0  0  0  0
   -5.2109   -3.2197  -26.2819 H   0  0  0  0  0
   -2.5090   -3.7723  -27.5975 H   0  0  0  0  0
   -5.0116   -5.4641  -27.2361 H   0  0  0  0  0
   -2.2714   -6.2068  -28.4275 H   0  0  0  0  0
   -3.6713   -5.7452  -29.4248 H   0  0  0  0  0
   -5.9141   -3.4516  -21.4948 H   0  0  0  0  0
   -7.0099   -2.7653  -22.7193 H   0  0  0  0  0
   -7.0985   -4.4975  -22.3161 H   0  0  0  0  0
   -4.1853   -1.1876  -25.8435 H   0  0  0  0  0
   -3.9884   -2.5298  -28.8718 H   0  0  0  0  0
   -3.5020   -8.0416  -29.1374 H   0  0  0  0  0
  2  1  1  0  0  0
  1 10  1  0  0  0
  1 13  1  0  0  0
  2  3  1  0  0  0
  9  2  1  0  0  0
  3  4  1  0  0  0
  3 11  1  0  0  0
  4  5  1  0  0  0
  4 12  1  0  0  0
  5  6  1  0  0  0
 13  5  1  0  0  0
  6 14  1  0  0  0
  7  8  1  0  0  0
  7  9  2  0  0  0
  7 10  1  0  0  0
  1 15  1  0  0  0
  2 16  1  0  0  0
  3 17  1  0  0  0
  4 18  1  0  0  0
  5 19  1  0  0  0
  6 20  1  0  0  0
  6 21  1  0  0  0
  8 22  1  0  0  0
  8 23  1  0  0  0
  8 24  1  0  0  0
 11 25  1  0  0  0
 12 26  1  0  0  0
 14 27  1  0  0  0
M  END
$$$$
