3s71_ligand
  -I-interpret- 

 20 21  0  0  0  0  0  0  0  0999 V2000
   15.6350   -0.3340   16.1840 N   0  0  0  0  0
   17.0920    2.5040   16.0140 O   0  0  0  0  0
   15.0580    0.9750   16.8850 S   0  0  0  0  0
   15.5660    1.0990   18.2330 O   0  0  0  0  0
   15.7330    2.3040   16.0530 C   0  0  0  0  0
   13.6240    1.1200   16.6660 O   0  0  0  0  0
   15.0810    3.3480   15.3130 C   0  0  0  0  0
   16.2030    5.2890   13.9860 C   0  0  0  0  0
   17.4500    5.8330   13.7220 C   0  0  0  0  0
   18.6630    5.2470   14.1510 C   0  0  0  0  0
   18.6130    4.1050   14.9540 C   0  0  0  0  0
   17.3660    3.6270   15.2510 C   0  0  0  0  0
   16.1500    4.1620   14.8160 C   0  0  0  0  0
   16.2724   -0.9463   16.6931 H   0  0  0  0  0
   15.3671   -0.5598   15.2261 H   0  0  0  0  0
   14.0107    3.4896   15.1629 H   0  0  0  0  0
   15.2966    5.7223   13.5632 H   0  0  0  0  0
   17.4981    6.7618   13.1535 H   0  0  0  0  0
   19.6206    5.6788   13.8602 H   0  0  0  0  0
   19.5174    3.6216   15.3235 H   0  0  0  0  0
  3  1  1  0  0  0
  5  2  4  0  0  0
  2 12  4  0  0  0
  3  4  2  0  0  0
  5  3  1  0  0  0
  3  6  2  0  0  0
  7  5  4  0  0  0
 13  7  4  0  0  0
  8  9  4  0  0  0
  8 13  4  0  0  0
  9 10  4  0  0  0
 10 11  4  0  0  0
 11 12  4  0  0  0
 12 13  4  0  0  0
  1 14  1  0  0  0
  1 15  1  0  0  0
  7 16  1  0  0  0
  8 17  1  0  0  0
  9 18  1  0  0  0
 10 19  1  0  0  0
 11 20  1  0  0  0
M  END
$$$$
