6b7e_ligand
  -I-interpret- 

 35 37  0  0  0  0  0  0  0  0999 V2000
   12.1060  164.6260  300.9910 C   0  0  0  0  0
   11.0070  165.4950  300.8660 C   0  0  0  0  0
    9.8300  165.2250  301.5820 C   0  0  0  0  0
    9.0330  160.5320  304.6850 C   0  0  0  0  0
    8.8710  160.9300  302.1840 C   0  0  0  0  0
   10.9640  163.7980  305.3200 C   0  0  0  0  0
   12.0940  162.6710  306.8440 C   0  0  0  0  0
   11.8510  161.9360  305.7430 C   0  0  0  0  0
   12.2580  160.5110  305.5360 C   0  0  0  0  0
   10.7510  162.0790  303.5370 C   0  0  0  0  0
   12.0550  163.5060  301.8350 C   0  0  0  0  0
   10.8810  163.2580  302.5630 C   0  0  0  0  0
    9.7820  164.1070  302.4280 C   0  0  0  0  0
    8.5560  163.7980  303.2490 C   0  0  0  0  0
    9.2790  161.5640  303.5550 C   0  0  0  0  0
   13.2390  160.4300  304.5710 F   0  0  0  0  0
   12.5710  159.9920  306.7510 F   0  0  0  0  0
   11.1730  162.6000  304.8460 N   0  0  0  0  0
   11.4650  163.9070  306.4640 N   0  0  0  0  0
    7.7260  164.6700  303.3930 O   0  0  0  0  0
    8.3520  162.6270  303.8650 O   0  0  0  0  0
   13.0138  164.8262  300.4219 H   0  0  0  0  0
   11.0687  166.3701  300.2191 H   0  0  0  0  0
    8.9625  165.8773  301.4816 H   0  0  0  0  0
    9.6904  159.6745  304.5416 H   0  0  0  0  0
    9.2422  160.9945  305.6496 H   0  0  0  0  0
    7.9940  160.2038  304.6557 H   0  0  0  0  0
    8.9637  161.6785  301.3971 H   0  0  0  0  0
    9.5272  160.0876  301.9651 H   0  0  0  0  0
    7.8389  160.5837  302.2381 H   0  0  0  0  0
   10.4300  164.5907  304.7959 H   0  0  0  0  0
   12.6181  162.4051  307.7620 H   0  0  0  0  0
   11.4520  159.8961  305.1354 H   0  0  0  0  0
   11.3667  161.2266  303.2497 H   0  0  0  0  0
   12.9130  162.8397  301.9237 H   0  0  0  0  0
  1  2  4  0  0  0
 11  1  4  0  0  0
  2  3  4  0  0  0
  3 13  4  0  0  0
 15  4  1  0  0  0
 15  5  1  0  0  0
 18  6  4  0  0  0
  6 19  4  0  0  0
  8  7  4  0  0  0
  7 19  4  0  0  0
  8  9  1  0  0  0
 18  8  4  0  0  0
  9 16  1  0  0  0
  9 17  1  0  0  0
 12 10  1  0  0  0
 10 15  1  0  0  0
 10 18  1  0  0  0
 11 12  4  0  0  0
 12 13  4  0  0  0
 13 14  1  0  0  0
 14 20  2  0  0  0
 14 21  1  0  0  0
 15 21  1  0  0  0
  1 22  1  0  0  0
  2 23  1  0  0  0
  3 24  1  0  0  0
  4 25  1  0  0  0
  4 26  1  0  0  0
  4 27  1  0  0  0
  5 28  1  0  0  0
  5 29  1  0  0  0
  5 30  1  0  0  0
  6 31  1  0  0  0
  7 32  1  0  0  0
  9 33  1  0  0  0
 10 34  1  0  0  0
 11 35  1  0  0  0
M  END
$$$$
