6dn5_ligand
  -I-interpret- 

106109  0  0  0  0  0  0  0  0999 V2000
    5.0640   95.3500  146.6170 N   0  0  0  0  0
    3.6590   95.4140  146.1880 C   0  0  0  0  0
    3.4380   96.1140  144.8430 C   0  0  0  0  0
    2.3680   96.7000  144.6280 O   0  0  0  0  0
    2.7570   96.0300  147.2650 C   0  0  0  0  0
    3.1560   97.4090  147.6820 C   0  0  0  0  0
    2.6880   98.5950  147.1860 C   0  0  0  0  0
    4.0940   97.7410  148.7100 C   0  0  0  0  0
    3.2690   99.6450  147.8540 N   0  0  0  0  0
    4.1640   99.1490  148.7720 C   0  0  0  0  0
    4.9040   96.9760  149.5750 C   0  0  0  0  0
    5.0010   99.8140  149.6740 C   0  0  0  0  0
    5.7130   97.6350  150.4890 C   0  0  0  0  0
    5.7630   99.0350  150.5270 C   0  0  0  0  0
    4.4060   95.9930  143.9070 N   0  0  0  0  0
    4.2650   96.5820  142.5900 C   0  0  0  0  0
    3.2190   95.7850  141.7370 C   0  0  0  0  0
    2.6310   94.7930  142.2010 O   0  0  0  0  0
    5.6570   96.7930  141.9110 C   0  0  0  0  0
    6.3210   95.6310  141.1600 C   0  0  0  0  0
    5.8880   94.4740  141.3350 O   0  0  0  0  0
    7.2710   95.8870  140.4070 O   0  0  0  0  0
    2.9390   96.2670  140.5320 N   0  0  0  0  0
    1.9480   95.6560  139.6340 C   0  0  0  0  0
    2.1680   94.1000  139.4380 C   0  0  0  0  0
    1.1960   93.3570  139.2930 O   0  0  0  0  0
    1.9350   96.4630  138.2970 C   0  0  0  0  0
    0.7450   96.0790  137.4080 C   0  0  0  0  0
    3.2890   96.3670  137.5320 C   0  0  0  0  0
    0.4970   97.0100  136.2340 C   0  0  0  0  0
    3.4380   93.6270  139.4920 N   0  0  0  0  0
    3.8040   92.2230  139.2830 C   0  0  0  0  0
    4.1010   91.4550  140.5580 C   0  0  0  0  0
    4.7770   90.4110  140.5070 O   0  0  0  0  0
    4.9630   92.1210  138.2800 C   0  0  0  0  0
    4.4860   92.3430  136.8580 C   0  0  0  0  0
    3.4310   91.8280  136.4550 O   0  0  0  0  0
    5.2670   93.0700  136.0470 N   0  0  0  0  0
    3.5540   91.9370  141.7080 N   0  0  0  0  0
    3.7120   91.2830  143.0110 C   0  0  0  0  0
    5.2020   91.1700  143.4230 C   0  0  0  0  0
    5.6620   90.1290  143.9090 O   0  0  0  0  0
    3.0010   89.9290  143.0030 C   0  0  0  0  0
    2.7890   89.3120  144.3590 C   0  0  0  0  0
    2.3310   89.9470  145.3140 O   0  0  0  0  0
    3.0720   88.0230  144.4560 N   0  0  0  0  0
    5.9550   92.2570  143.2090 N   0  0  0  0  0
    7.3750   92.2850  143.5480 C   0  0  0  0  0
    7.6470   93.5390  144.3500 C   0  0  0  0  0
    7.1120   94.5880  143.9850 O   0  0  0  0  0
    8.2150   92.3090  142.2740 C   0  0  0  0  0
    8.0750   91.0960  141.4070 C   0  0  0  0  0
    8.3170   89.9620  141.8410 O   0  0  0  0  0
    7.8370   91.3280  140.1240 N   0  0  0  0  0
    8.2620   93.6370  145.5770 N   0  0  0  0  0
    8.1830   94.7810  146.5480 C   0  0  0  0  0
    7.1510   94.5750  147.6560 C   0  0  0  0  0
    5.7670   94.2900  147.1200 C   0  0  0  0  0
    5.3070   93.1440  147.1210 O   0  0  0  0  0
    5.0600   95.1960  146.6670 O   0  0  0  0  0
    2.8283   95.3937  148.1471 H   0  0  0  0  0
    1.7539   96.0986  146.8441 H   0  0  0  0  0
    1.9612   98.6923  146.3796 H   0  0  0  0  0
    4.8944   95.8871  149.5261 H   0  0  0  0  0
    5.0511  100.9024  149.7039 H   0  0  0  0  0
    6.3179   97.0562  151.1870 H   0  0  0  0  0
    6.4194   99.5232  151.2474 H   0  0  0  0  0
    5.2553   95.4752  144.1328 H   0  0  0  0  0
    3.8521   97.5867  142.6803 H   0  0  0  0  0
    6.3352   97.0102  142.7362 H   0  0  0  0  0
    5.4779   97.5482  141.1457 H   0  0  0  0  0
    5.1537   94.4984  141.9529 H   0  0  0  0  0
    3.4345   97.1001  140.2144 H   0  0  0  0  0
    0.9589   95.7178  140.0878 H   0  0  0  0  0
    1.8064   97.5109  138.5680 H   0  0  0  0  0
   -0.1446   96.1200  138.0366 H   0  0  0  0  0
    0.9671   95.0970  136.9904 H   0  0  0  0  0
    4.0876   96.7647  138.1582 H   0  0  0  0  0
    3.4973   95.3239  137.2942 H   0  0  0  0  0
    3.2259   96.9455  136.6103 H   0  0  0  0  0
    0.2999   98.0158  136.6049 H   0  0  0  0  0
    1.3771   97.0244  135.5911 H   0  0  0  0  0
   -0.3634   96.6556  135.6663 H   0  0  0  0  0
    4.1865   94.2908  139.6908 H   0  0  0  0  0
    2.9211   91.7373  138.8675 H   0  0  0  0  0
    5.3929   91.1217  138.3486 H   0  0  0  0  0
    5.6984   92.8883  138.5219 H   0  0  0  0  0
    4.9993   93.2111  135.0729 H   0  0  0  0  0
    6.1290   93.4822  136.4039 H   0  0  0  0  0
    3.0067   92.7964  141.6608 H   0  0  0  0  0
    3.2407   91.9043  143.7726 H   0  0  0  0  0
    3.6367   89.2438  142.4421 H   0  0  0  0  0
    2.0122   90.0961  142.5759 H   0  0  0  0  0
    2.9126   87.5306  145.3349 H   0  0  0  0  0
    3.4495   87.5218  143.6518 H   0  0  0  0  0
    5.5255   93.0863  142.7988 H   0  0  0  0  0
    7.6355   91.3978  144.1252 H   0  0  0  0  0
    9.2589   92.3579  142.5839 H   0  0  0  0  0
    7.8730   93.1602  141.6852 H   0  0  0  0  0
    7.8494   90.5576  139.4556 H   0  0  0  0  0
    7.6415   92.2769  139.8050 H   0  0  0  0  0
    8.8367   92.8430  145.8594 H   0  0  0  0  0
    7.8857   95.6662  145.9857 H   0  0  0  0  0
    9.1591   94.8726  147.0243 H   0  0  0  0  0
    7.1004   95.4936  148.2406 H   0  0  0  0  0
    7.4637   93.7150  148.2483 H   0  0  0  0  0
  1  2  1  0  0  0
  1 58  1  0  0  0
  1 60  1  0  0  0
  2  3  1  0  0  0
  2  5  1  0  0  0
  2 60  1  0  0  0
  3  4  2  0  0  0
  3 15  1  0  0  0
  5  6  1  0  0  0
  6  7  4  0  0  0
  6  8  4  0  0  0
  7  9  4  0  0  0
  8 10  4  0  0  0
  8 11  4  0  0  0
  9 10  4  0  0  0
 10 12  4  0  0  0
 11 13  4  0  0  0
 12 14  4  0  0  0
 13 14  4  0  0  0
 15 16  1  0  0  0
 16 17  1  0  0  0
 16 19  1  0  0  0
 17 18  2  0  0  0
 17 23  1  0  0  0
 19 20  1  0  0  0
 20 21  1  0  0  0
 20 22  2  0  0  0
 23 24  1  0  0  0
 24 25  1  0  0  0
 24 27  1  0  0  0
 25 26  2  0  0  0
 25 31  1  0  0  0
 27 28  1  0  0  0
 27 29  1  0  0  0
 28 30  1  0  0  0
 31 32  1  0  0  0
 32 33  1  0  0  0
 32 35  1  0  0  0
 33 34  2  0  0  0
 33 39  1  0  0  0
 35 36  1  0  0  0
 36 37  2  0  0  0
 36 38  1  0  0  0
 39 40  1  0  0  0
 40 41  1  0  0  0
 40 43  1  0  0  0
 41 42  2  0  0  0
 41 47  1  0  0  0
 43 44  1  0  0  0
 44 45  2  0  0  0
 44 46  1  0  0  0
 47 48  1  0  0  0
 48 49  1  0  0  0
 48 51  1  0  0  0
 49 50  2  0  0  0
 49 55  1  0  0  0
 51 52  1  0  0  0
 52 53  2  0  0  0
 52 54  1  0  0  0
 55 56  1  0  0  0
 56 57  1  0  0  0
 57 58  1  0  0  0
 58 59  2  0  0  0
  5 61  1  0  0  0
  5 62  1  0  0  0
  7 63  1  0  0  0
 11 64  1  0  0  0
 12 65  1  0  0  0
 13 66  1  0  0  0
 14 67  1  0  0  0
 15 68  1  0  0  0
 16 69  1  0  0  0
 19 70  1  0  0  0
 19 71  1  0  0  0
 21 72  1  0  0  0
 23 73  1  0  0  0
 24 74  1  0  0  0
 27 75  1  0  0  0
 28 76  1  0  0  0
 28 77  1  0  0  0
 29 78  1  0  0  0
 29 79  1  0  0  0
 29 80  1  0  0  0
 30 81  1  0  0  0
 30 82  1  0  0  0
 30 83  1  0  0  0
 31 84  1  0  0  0
 32 85  1  0  0  0
 35 86  1  0  0  0
 35 87  1  0  0  0
 38 88  1  0  0  0
 38 89  1  0  0  0
 39 90  1  0  0  0
 40 91  1  0  0  0
 43 92  1  0  0  0
 43 93  1  0  0  0
 46 94  1  0  0  0
 46 95  1  0  0  0
 47 96  1  0  0  0
 48 97  1  0  0  0
 51 98  1  0  0  0
 51 99  1  0  0  0
 54100  1  0  0  0
 54101  1  0  0  0
 55102  1  0  0  0
 56103  1  0  0  0
 56104  1  0  0  0
 57105  1  0  0  0
 57106  1  0  0  0
M  END
$$$$
