2cm8_ligand
  -I-interpret- 

 22 23  0  0  0  0  0  0  0  0999 V2000
   46.4620   15.4340    3.9400 C   0  0  0  0  0
   47.6680   16.1830    3.7160 C   0  0  0  0  0
   47.8320   17.0770    4.8510 C   0  0  0  0  0
   46.8430   17.0340    5.8710 N   0  0  0  0  0
   45.6240   15.8500    5.4680 S   0  0  0  0  0
   44.0340   16.5070    5.1850 O   0  0  0  0  0
   45.6450   14.4680    6.4180 O   0  0  0  0  0
   48.7880   17.8380    4.9280 O   0  0  0  0  0
   45.9650   14.4120    3.0230 C   0  0  0  0  0
   44.7520   14.6610    2.2320 C   0  0  0  0  0
   44.2480   13.6250    1.3130 C   0  0  0  0  0
   44.9570   12.3400    1.1850 C   0  0  0  0  0
   46.1700   12.0930    1.9760 C   0  0  0  0  0
   46.6780   13.1250    2.8950 C   0  0  0  0  0
   46.8200   10.9240    1.8610 O   0  0  0  0  0
   48.3340   16.0971    2.8574 H   0  0  0  0  0
   46.8449   17.6093    6.7133 H   0  0  0  0  0
   44.2255   15.6109    2.3248 H   0  0  0  0  0
   43.3482   13.8100    0.7264 H   0  0  0  0  0
   44.5826   11.5746    0.5052 H   0  0  0  0  0
   47.5788   12.9395    3.4799 H   0  0  0  0  0
   47.5846   10.9258    2.4415 H   0  0  0  0  0
  1  2  2  0  0  0
  1  5  1  0  0  0
  1  9  1  0  0  0
  2  3  1  0  0  0
  3  4  1  0  0  0
  3  8  2  0  0  0
  4  5  1  0  0  0
  5  6  2  0  0  0
  5  7  2  0  0  0
  9 10  4  0  0  0
  9 14  4  0  0  0
 10 11  4  0  0  0
 11 12  4  0  0  0
 12 13  4  0  0  0
 13 14  4  0  0  0
 13 15  1  0  0  0
  2 16  1  0  0  0
  4 17  1  0  0  0
 10 18  1  0  0  0
 11 19  1  0  0  0
 12 20  1  0  0  0
 14 21  1  0  0  0
 15 22  1  0  0  0
M  END
$$$$
