3oqf_ligand
  -I-interpret- 

 56 60  0  0  0  0  0  0  0  0999 V2000
  -14.0100  -20.9970   -3.4290 C   0  0  0  0  0
  -14.3230  -22.2560   -2.9180 C   0  0  0  0  0
  -13.3080  -23.0620   -2.3930 C   0  0  0  0  0
  -11.9460  -22.6930   -2.3780 C   0  0  0  0  0
  -11.6870  -21.4160   -2.9250 C   0  0  0  0  0
  -12.6820  -20.5730   -3.4280 C   0  0  0  0  0
  -10.9880  -23.5190   -1.8630 N   0  0  0  0  0
  -10.5860  -24.6160   -2.5460 C   0  0  0  0  0
   -9.3880  -25.0210   -1.9440 C   0  0  0  0  0
   -9.1460  -24.1290   -0.8980 C   0  0  0  0  0
  -10.0560  -23.0620   -0.9880 C   0  0  0  0  0
  -11.1540  -25.4340   -3.5380 C   0  0  0  0  0
  -10.4960  -26.6000   -3.9520 C   0  0  0  0  0
   -9.2870  -26.9790   -3.3580 C   0  0  0  0  0
   -8.7250  -26.1910   -2.3460 C   0  0  0  0  0
  -10.1430  -22.2540    1.3540 C   0  0  0  0  0
   -9.1280  -21.7680    2.1720 C   0  0  0  0  0
   -9.0790  -22.2000    3.4990 C   0  0  0  0  0
  -10.0300  -23.1090    3.9790 C   0  0  0  0  0
  -11.0410  -23.6050    3.1480 C   0  0  0  0  0
  -11.0950  -23.1710    1.8260 C   0  0  0  0  0
   -7.8200  -24.1770   -0.1650 C   0  0  0  0  0
   -7.4560  -25.1750    0.6780 N   0  0  0  0  0
   -7.0630  -23.2280   -0.3400 O   0  0  0  0  0
   -8.2680  -26.3600    0.9650 C   0  0  0  0  0
   -8.4540  -26.4300    2.4800 C   0  0  0  0  0
   -7.1950  -26.3650    3.1960 N   0  3  0  0  0
   -6.3000  -25.2770    2.8500 C   0  0  0  0  0
   -6.1310  -25.1660    1.3330 C   0  0  0  0  0
  -10.1630  -21.8320   -0.0830 C   0  0  0  0  0
  -14.7945  -20.3519   -3.8246 H   0  0  0  0  0
  -15.3538  -22.6102   -2.9277 H   0  0  0  0  0
  -13.5841  -24.0288   -1.9721 H   0  0  0  0  0
  -10.6541  -21.0692   -2.9564 H   0  0  0  0  0
  -12.4209  -19.5890   -3.8175 H   0  0  0  0  0
  -12.1091  -25.1606   -3.9866 H   0  0  0  0  0
  -10.9284  -27.2152   -4.7411 H   0  0  0  0  0
   -8.7822  -27.8886   -3.6834 H   0  0  0  0  0
   -7.7853  -26.4823   -1.8768 H   0  0  0  0  0
   -8.3884  -21.0665    1.7861 H   0  0  0  0  0
   -8.2984  -21.8287    4.1630 H   0  0  0  0  0
   -9.9820  -23.4359    5.0177 H   0  0  0  0  0
  -11.7726  -24.3178    3.5286 H   0  0  0  0  0
  -11.8739  -23.5422    1.1600 H   0  0  0  0  0
   -7.7738  -27.2598    0.5987 H   0  0  0  0  0
   -9.2337  -26.2920    0.4641 H   0  0  0  0  0
   -8.9279  -27.3824    2.7176 H   0  0  0  0  0
   -9.0594  -25.5764    2.7849 H   0  0  0  0  0
   -6.6956  -27.2231    2.9621 H   0  0  0  0  0
   -7.4379  -26.2262    4.1769 H   0  0  0  0  0
   -5.3250  -25.4711    3.2969 H   0  0  0  0  0
   -6.7229  -24.3444    3.2236 H   0  0  0  0  0
   -5.6185  -24.2338    1.0953 H   0  0  0  0  0
   -5.5460  -26.0125    0.9733 H   0  0  0  0  0
  -11.0977  -21.3116   -0.2922 H   0  0  0  0  0
   -9.3191  -21.1694   -0.2752 H   0  0  0  0  0
  2  1  4  0  0  0
  6  1  4  0  0  0
  3  2  4  0  0  0
  4  3  4  0  0  0
  4  5  4  0  0  0
  7  4  1  0  0  0
  5  6  4  0  0  0
  7  8  4  0  0  0
 11  7  4  0  0  0
  9  8  4  0  0  0
  8 12  4  0  0  0
 10  9  4  0  0  0
  9 15  4  0  0  0
 11 10  4  0  0  0
 10 22  1  0  0  0
 30 11  1  0  0  0
 12 13  4  0  0  0
 14 13  4  0  0  0
 15 14  4  0  0  0
 16 17  4  0  0  0
 16 21  4  0  0  0
 16 30  1  0  0  0
 17 18  4  0  0  0
 18 19  4  0  0  0
 19 20  4  0  0  0
 20 21  4  0  0  0
 22 23  1  0  0  0
 22 24  2  0  0  0
 23 25  1  0  0  0
 23 29  1  0  0  0
 25 26  1  0  0  0
 26 27  1  0  0  0
 27 28  1  0  0  0
 28 29  1  0  0  0
  1 31  1  0  0  0
  2 32  1  0  0  0
  3 33  1  0  0  0
  5 34  1  0  0  0
  6 35  1  0  0  0
 12 36  1  0  0  0
 13 37  1  0  0  0
 14 38  1  0  0  0
 15 39  1  0  0  0
 17 40  1  0  0  0
 18 41  1  0  0  0
 19 42  1  0  0  0
 20 43  1  0  0  0
 21 44  1  0  0  0
 25 45  1  0  0  0
 25 46  1  0  0  0
 26 47  1  0  0  0
 26 48  1  0  0  0
 27 49  1  0  0  0
 27 50  1  0  0  0
 28 51  1  0  0  0
 28 52  1  0  0  0
 29 53  1  0  0  0
 29 54  1  0  0  0
 30 55  1  0  0  0
 30 56  1  0  0  0
M  END
$$$$
