4uro_ligand
  -I-interpret- 

 80 83  0  0  0  0  0  0  0  0999 V2000
   -0.7950   -7.0430  -12.1600 C   0  0  0  0  0
   -1.1130   -5.6570  -12.1620 O   0  0  0  0  0
   -0.6770   -5.7060   -7.4090 N   0  0  0  0  0
   -0.8760   -4.7700   -8.3230 C   0  0  0  0  0
   -1.4090   -3.7020   -8.1220 O   0  0  0  0  0
   -0.4000   -5.1630   -9.5240 O   0  0  0  0  0
   -0.0020   -4.8060  -11.9010 C   0  0  0  0  0
   -0.1170   -4.1500  -10.5220 C   0  0  0  0  0
    1.1330   -3.3100  -10.2560 C   0  0  0  0  0
    2.3320   -4.0730  -10.2660 O   0  0  0  0  0
    1.2360   -2.2190  -11.3160 C   0  0  0  0  0
    1.1710   -2.7180  -12.6630 O   0  0  0  0  0
    0.2110   -3.7340  -13.0640 C   0  0  0  0  0
   -1.0710   -3.0370  -13.4970 C   0  0  0  0  0
    0.8760   -4.3960  -14.2580 C   0  0  0  0  0
    0.1510   -1.3580  -11.0680 O   0  0  0  0  0
    0.0650   -0.1490  -11.7070 C   0  0  0  0  0
   -1.0560    0.5930  -11.3310 C   0  0  0  0  0
   -2.0090    0.0810  -10.2770 C   0  0  0  0  0
   -1.2140    1.8410  -11.9250 C   0  0  0  0  0
   -0.2800    2.3740  -12.8250 C   0  0  0  0  0
    0.8160    1.5890  -13.1860 C   0  0  0  0  0
    0.9910    0.3310  -12.6400 C   0  0  0  0  0
   -2.3490    2.5330  -11.5530 O   0  0  0  0  0
   -2.6330    3.7990  -12.0010 C   0  0  0  0  0
   -3.6850    4.2350  -11.6170 O   0  0  0  0  0
   -1.6040    4.4410  -12.9560 C   0  0  0  0  0
   -0.4980    3.7300  -13.3270 C   0  0  0  0  0
    0.4280    4.2120  -14.1790 O   0  0  0  0  0
   -2.0020    5.7150  -13.4380 N   0  0  0  0  0
   -3.2510    6.0520  -13.9140 C   0  0  0  0  0
   -3.9100    6.9730  -13.4350 O   0  0  0  0  0
   -3.7890    5.1980  -15.0190 C   0  0  0  0  0
   -2.9340    4.4000  -15.7770 C   0  0  0  0  0
   -3.4220    3.4780  -16.7030 C   0  0  0  0  0
   -4.8100    3.3690  -16.8610 C   0  0  0  0  0
   -5.3290    2.3700  -17.6210 O   0  0  0  0  0
   -5.6700    4.2060  -16.1470 C   0  0  0  0  0
   -5.1620    5.1090  -15.2310 C   0  0  0  0  0
   -2.4110    2.6580  -17.4830 C   0  0  0  0  0
   -2.6740    1.1910  -17.2930 C   0  0  0  0  0
   -1.8850    0.2820  -16.7440 C   0  0  0  0  0
   -0.4860    0.5530  -16.2760 C   0  0  0  0  0
   -2.3670   -1.1120  -16.4900 C   0  0  0  0  0
   -0.0482   -7.2442  -12.9281 H   0  0  0  0  0
   -0.3984   -7.3221  -11.1838 H   0  0  0  0  0
   -1.6955   -7.6214  -12.3666 H   0  0  0  0  0
   -0.9825   -5.5534   -6.4479 H   0  0  0  0  0
   -0.2181   -6.5801   -7.6656 H   0  0  0  0  0
    0.8927   -5.4284  -11.8867 H   0  0  0  0  0
   -0.9556   -3.4552  -10.4760 H   0  0  0  0  0
    1.0260   -2.8875   -9.2569 H   0  0  0  0  0
    3.0791   -3.4952  -10.0942 H   0  0  0  0  0
    2.2049   -1.7249  -11.2444 H   0  0  0  0  0
   -1.4668   -2.4565  -12.6636 H   0  0  0  0  0
   -0.8570   -2.3732  -14.3346 H   0  0  0  0  0
   -1.8040   -3.7839  -13.8018 H   0  0  0  0  0
    1.0444   -3.6524  -15.0370 H   0  0  0  0  0
    1.8300   -4.8238  -13.9499 H   0  0  0  0  0
    0.2292   -5.1853  -14.6411 H   0  0  0  0  0
   -2.4306   -0.8703  -10.6015 H   0  0  0  0  0
   -1.4707   -0.0595   -9.3397 H   0  0  0  0  0
   -2.8111    0.8047  -10.1318 H   0  0  0  0  0
    1.5406    1.9712  -13.9050 H   0  0  0  0  0
    1.8432   -0.2819  -12.9338 H   0  0  0  0  0
    1.1181    3.5565  -14.3041 H   0  0  0  0  0
   -1.2965    6.4517  -13.4316 H   0  0  0  0  0
   -1.8568    4.4989  -15.6428 H   0  0  0  0  0
   -6.2866    2.4375  -17.6256 H   0  0  0  0  0
   -6.7458    4.1474  -16.3123 H   0  0  0  0  0
   -5.8400    5.7542  -14.6723 H   0  0  0  0  0
   -1.4091    2.8902  -17.1219 H   0  0  0  0  0
   -2.4959    2.9011  -18.5421 H   0  0  0  0  0
   -3.6372    0.8298  -17.6533 H   0  0  0  0  0
    0.1180    0.8921  -17.1176 H   0  0  0  0  0
   -0.5048    1.3246  -15.5064 H   0  0  0  0  0
   -0.0581   -0.3615  -15.8651 H   0  0  0  0  0
   -3.2234   -1.0819  -15.8164 H   0  0  0  0  0
   -2.6614   -1.5709  -17.4338 H   0  0  0  0  0
   -1.5659   -1.6949  -16.0354 H   0  0  0  0  0
  2  1  1  0  0  0
  7  2  1  0  0  0
  4  3  1  0  0  0
  4  5  2  0  0  0
  6  4  1  0  0  0
  8  6  1  0  0  0
  7  8  1  0  0  0
  7 13  1  0  0  0
  8  9  1  0  0  0
  9 10  1  0  0  0
  9 11  1  0  0  0
 11 12  1  0  0  0
 11 16  1  0  0  0
 12 13  1  0  0  0
 13 14  1  0  0  0
 13 15  1  0  0  0
 16 17  1  0  0  0
 17 18  4  0  0  0
 17 23  4  0  0  0
 18 19  1  0  0  0
 18 20  4  0  0  0
 20 21  4  0  0  0
 20 24  1  0  0  0
 21 22  4  0  0  0
 21 28  1  0  0  0
 22 23  4  0  0  0
 24 25  1  0  0  0
 25 26  2  0  0  0
 25 27  1  0  0  0
 27 28  2  0  0  0
 27 30  1  0  0  0
 28 29  1  0  0  0
 30 31  1  0  0  0
 31 32  2  0  0  0
 31 33  1  0  0  0
 33 34  4  0  0  0
 33 39  4  0  0  0
 34 35  4  0  0  0
 35 36  4  0  0  0
 35 40  1  0  0  0
 36 37  1  0  0  0
 36 38  4  0  0  0
 38 39  4  0  0  0
 40 41  1  0  0  0
 41 42  2  0  0  0
 42 43  1  0  0  0
 42 44  1  0  0  0
  1 45  1  0  0  0
  1 46  1  0  0  0
  1 47  1  0  0  0
  3 48  1  0  0  0
  3 49  1  0  0  0
  7 50  1  0  0  0
  8 51  1  0  0  0
  9 52  1  0  0  0
 10 53  1  0  0  0
 11 54  1  0  0  0
 14 55  1  0  0  0
 14 56  1  0  0  0
 14 57  1  0  0  0
 15 58  1  0  0  0
 15 59  1  0  0  0
 15 60  1  0  0  0
 19 61  1  0  0  0
 19 62  1  0  0  0
 19 63  1  0  0  0
 22 64  1  0  0  0
 23 65  1  0  0  0
 29 66  1  0  0  0
 30 67  1  0  0  0
 34 68  1  0  0  0
 37 69  1  0  0  0
 38 70  1  0  0  0
 39 71  1  0  0  0
 40 72  1  0  0  0
 40 73  1  0  0  0
 41 74  1  0  0  0
 43 75  1  0  0  0
 43 76  1  0  0  0
 43 77  1  0  0  0
 44 78  1  0  0  0
 44 79  1  0  0  0
 44 80  1  0  0  0
M  END
$$$$
