5ta2_ligand
  -I-interpret- 

 96 99  0  0  0  0  0  0  0  0999 V2000
   14.9270   -5.4720   13.6050 N   0  0  0  0  0
   15.6280   -5.6400   14.8260 N   0  3  0  0  0
   17.5580   -4.5110   13.7670 C   0  0  0  0  0
   16.6970   -4.3090   12.5150 C   0  0  0  0  0
   15.2240   -4.2250   12.9030 C   0  0  0  0  0
   17.0850   -5.6980   14.6150 C   0  0  0  0  0
   10.4820  -10.6550   16.1900 C   0  0  0  0  0
   10.3010  -11.4490   17.4860 C   0  0  0  0  0
    8.8400  -11.9070   17.5820 C   0  0  0  0  0
   10.7130  -10.6510   18.7530 C   0  0  0  0  0
   12.0860   -9.9630   18.6080 C   0  0  0  0  0
   13.2740  -10.8220   19.0590 C   0  0  0  0  0
   17.7100   -5.6000   15.9940 C   0  0  0  0  0
   19.3250   -6.6120   17.4430 C   0  0  0  0  0
   18.3970   -7.1780   18.5110 C   0  0  0  0  0
   17.3060   -7.9950   18.1520 C   0  0  0  0  0
   16.4370   -8.5350   19.1090 C   0  0  0  0  0
   16.6740   -8.2460   20.4540 C   0  0  0  0  0
   17.7480   -7.4410   20.8380 C   0  0  0  0  0
   18.6100   -6.9130   19.8730 C   0  0  0  0  0
   15.3020   -9.3830   18.6960 C   0  0  0  0  0
   14.4120   -9.9530   19.5280 C   0  0  0  0  0
    9.9210   -8.9130   20.2110 C   0  0  0  0  0
   20.6270   -7.3890   17.2370 C   0  0  0  0  0
   10.9110  -11.1710   15.1620 O   0  0  0  0  0
   17.4280   -4.7640   16.8310 O   0  0  0  0  0
    9.7310   -9.6390   19.0020 O   0  0  0  0  0
   18.6340   -6.5860   16.1640 O   0  0  0  0  0
   12.5800   -8.1850   14.1450 N   0  0  0  0  0
   13.9630   -7.7010   14.1200 C   0  0  0  0  0
   14.9120   -8.7800   13.5640 C   0  0  0  0  0
   15.1970   -9.9540   14.4750 C   0  0  0  0  0
   14.1590  -10.8270   14.8430 C   0  0  0  0  0
   14.4060  -11.9130   15.6860 C   0  0  0  0  0
   16.4900  -10.1990   14.9640 C   0  0  0  0  0
   16.7200  -11.2950   15.7980 C   0  0  0  0  0
   15.6910  -12.1540   16.1620 C   0  0  0  0  0
   17.9840  -11.5170   16.2570 O   0  0  0  0  0
   14.0660   -6.4780   13.2100 C   0  0  0  0  0
   13.4320   -6.3930   12.1550 O   0  0  0  0  0
   10.1570   -9.3170   16.1570 N   0  0  0  0  0
   10.2960   -8.4150   15.0100 C   0  0  0  0  0
   11.6830   -7.7770   15.1070 C   0  0  0  0  0
   11.9450   -6.9880   16.0180 O   0  0  0  0  0
    9.1670   -7.3680   14.8900 C   0  0  0  0  0
    9.3730   -6.5590   13.6070 C   0  0  0  0  0
    7.7640   -7.9910   14.8550 C   0  0  0  0  0
   15.3296   -6.5187   15.2494 H   0  0  0  0  0
   15.4220   -4.8420   15.4270 H   0  0  0  0  0
   17.4845   -3.6102   14.3763 H   0  0  0  0  0
   18.5799   -4.7118   13.4453 H   0  0  0  0  0
   16.8425   -5.1522   11.8397 H   0  0  0  0  0
   16.9917   -3.3822   12.0227 H   0  0  0  0  0
   15.0284   -3.3579   13.5338 H   0  0  0  0  0
   14.5887   -4.1021   12.0259 H   0  0  0  0  0
   17.3651   -6.6137   14.0944 H   0  0  0  0  0
   10.9683  -12.3101   17.4488 H   0  0  0  0  0
    8.1867  -11.0345   17.5872 H   0  0  0  0  0
    8.6008  -12.5365   16.7249 H   0  0  0  0  0
    8.6981  -12.4743   18.5019 H   0  0  0  0  0
   10.7811  -11.3642   19.5745 H   0  0  0  0  0
   12.0701   -9.0785   19.2448 H   0  0  0  0  0
   12.2279   -9.7509   17.5483 H   0  0  0  0  0
   13.6142  -11.4233   18.2159 H   0  0  0  0  0
   12.9548  -11.4598   19.8833 H   0  0  0  0  0
   19.5939   -5.6194   17.8042 H   0  0  0  0  0
   17.1332   -8.2132   17.0981 H   0  0  0  0  0
   16.0105   -8.6551   21.2159 H   0  0  0  0  0
   17.9146   -7.2238   21.8931 H   0  0  0  0  0
   19.4520   -6.2923   20.1794 H   0  0  0  0  0
   15.1744   -9.5622   17.6284 H   0  0  0  0  0
   14.5198   -9.7769   20.5983 H   0  0  0  0  0
    9.8874   -9.6011   21.0556 H   0  0  0  0  0
   10.8899   -8.4143   20.1854 H   0  0  0  0  0
    9.1308   -8.1694   20.3148 H   0  0  0  0  0
   21.1932   -7.4002   18.1683 H   0  0  0  0  0
   20.3951   -8.4115   16.9390 H   0  0  0  0  0
   21.2169   -6.9069   16.4575 H   0  0  0  0  0
   12.2728   -8.8433   13.4290 H   0  0  0  0  0
   14.2464   -7.4506   15.1423 H   0  0  0  0  0
   15.8690   -8.2860   13.3962 H   0  0  0  0  0
   14.4210   -9.1916   12.6822 H   0  0  0  0  0
   13.1506  -10.6548   14.4666 H   0  0  0  0  0
   13.5884  -12.5746   15.9722 H   0  0  0  0  0
   17.3117   -9.5358   14.6935 H   0  0  0  0  0
   15.8877  -13.0063   16.8124 H   0  0  0  0  0
   17.9883  -12.2989   16.8139 H   0  0  0  0  0
    9.7825   -8.9138   17.0158 H   0  0  0  0  0
   10.1991   -8.9900   14.0891 H   0  0  0  0  0
    9.2216   -6.7385   15.7782 H   0  0  0  0  0
   10.3392   -6.0560   13.6473 H   0  0  0  0  0
    9.3465   -7.2295   12.7480 H   0  0  0  0  0
    8.5794   -5.8174   13.5152 H   0  0  0  0  0
    7.6859   -8.6594   13.9975 H   0  0  0  0  0
    7.5949   -8.5541   15.7728 H   0  0  0  0  0
    7.0187   -7.2002   14.7699 H   0  0  0  0  0
  1  2  1  0  0  0
  1  5  1  0  0  0
 39  1  1  0  0  0
  2  6  1  0  0  0
  4  3  1  0  0  0
  6  3  1  0  0  0
  5  4  1  0  0  0
  6 13  1  0  0  0
  8  7  1  0  0  0
  7 25  2  0  0  0
  7 41  1  0  0  0
  8  9  1  0  0  0
 10  8  1  0  0  0
 11 10  1  0  0  0
 10 27  1  0  0  0
 12 11  1  0  0  0
 22 12  1  0  0  0
 13 26  2  0  0  0
 13 28  1  0  0  0
 14 15  1  0  0  0
 14 24  1  0  0  0
 28 14  1  0  0  0
 15 16  4  0  0  0
 15 20  4  0  0  0
 16 17  4  0  0  0
 17 18  4  0  0  0
 17 21  1  0  0  0
 19 18  4  0  0  0
 20 19  4  0  0  0
 21 22  2  0  0  0
 27 23  1  0  0  0
 30 29  1  0  0  0
 29 43  1  0  0  0
 30 31  1  0  0  0
 30 39  1  0  0  0
 31 32  1  0  0  0
 32 33  4  0  0  0
 32 35  4  0  0  0
 33 34  4  0  0  0
 34 37  4  0  0  0
 35 36  4  0  0  0
 36 37  4  0  0  0
 36 38  1  0  0  0
 39 40  2  0  0  0
 41 42  1  0  0  0
 42 43  1  0  0  0
 42 45  1  0  0  0
 43 44  2  0  0  0
 45 46  1  0  0  0
 45 47  1  0  0  0
  2 48  1  0  0  0
  2 49  1  0  0  0
  3 50  1  0  0  0
  3 51  1  0  0  0
  4 52  1  0  0  0
  4 53  1  0  0  0
  5 54  1  0  0  0
  5 55  1  0  0  0
  6 56  1  0  0  0
  8 57  1  0  0  0
  9 58  1  0  0  0
  9 59  1  0  0  0
  9 60  1  0  0  0
 10 61  1  0  0  0
 11 62  1  0  0  0
 11 63  1  0  0  0
 12 64  1  0  0  0
 12 65  1  0  0  0
 14 66  1  0  0  0
 16 67  1  0  0  0
 18 68  1  0  0  0
 19 69  1  0  0  0
 20 70  1  0  0  0
 21 71  1  0  0  0
 22 72  1  0  0  0
 23 73  1  0  0  0
 23 74  1  0  0  0
 23 75  1  0  0  0
 24 76  1  0  0  0
 24 77  1  0  0  0
 24 78  1  0  0  0
 29 79  1  0  0  0
 30 80  1  0  0  0
 31 81  1  0  0  0
 31 82  1  0  0  0
 33 83  1  0  0  0
 34 84  1  0  0  0
 35 85  1  0  0  0
 37 86  1  0  0  0
 38 87  1  0  0  0
 41 88  1  0  0  0
 42 89  1  0  0  0
 45 90  1  0  0  0
 46 91  1  0  0  0
 46 92  1  0  0  0
 46 93  1  0  0  0
 47 94  1  0  0  0
 47 95  1  0  0  0
 47 96  1  0  0  0
M  END
$$$$
