1qon_ligand
  -I-interpret- 

 42 45  0  0  0  0  0  0  0  0999 V2000
   31.8800   63.6290    9.8680 C   0  0  0  0  0
   30.8340   63.6860    8.7470 C   0  0  0  0  0
   30.2550   64.9410    8.5700 C   0  0  0  0  0
   31.2030   66.2100    8.4080 C   0  0  0  0  0
   33.6250   67.0380    9.2530 C   0  0  0  0  0
   35.9450   67.7160   10.1380 C   0  0  0  0  0
   37.1020   67.4270   10.8440 C   0  0  0  0  0
   37.2140   66.1450   11.4450 C   0  0  0  0  0
   36.2670   65.2160   11.3640 C   0  0  0  0  0
   34.0400   64.5160   10.5460 N   0  0  0  0  0
   32.9550   64.7550    9.9000 C   0  0  0  0  0
   32.5750   65.9610    9.1820 C   0  0  0  0  0
   34.8840   66.8410    9.9730 C   0  0  0  0  0
   35.0370   65.4680   10.6350 C   0  0  0  0  0
   33.1870   68.1090    8.6030 N   0  0  0  0  0
   28.9990   71.0380   10.6010 I   0  0  0  0  0
   33.7980   69.4540    8.4450 C   0  0  0  0  0
   33.0450   70.2770    9.5330 C   0  0  0  0  0
   31.6720   70.2820    9.5570 C   0  0  0  0  0
   31.0360   70.9770   10.5100 C   0  0  0  0  0
   31.6910   71.7060   11.4950 C   0  0  0  0  0
   33.0330   71.7230   11.5060 C   0  0  0  0  0
   33.7830   71.0070   10.5230 C   0  0  0  0  0
   32.4297   62.7008    9.7116 H   0  0  0  0  0
   31.3209   63.7285   10.7984 H   0  0  0  0  0
   30.0336   62.9977    9.0185 H   0  0  0  0  0
   31.3442   63.4330    7.8176 H   0  0  0  0  0
   29.6938   65.1239    9.4863 H   0  0  0  0  0
   29.7144   64.8711    7.6261 H   0  0  0  0  0
   30.7072   67.0862    8.8258 H   0  0  0  0  0
   31.4101   66.3727    7.3503 H   0  0  0  0  0
   35.8642   68.7018    9.6801 H   0  0  0  0  0
   37.9021   68.1616   10.9353 H   0  0  0  0  0
   38.1222   65.9113   12.0006 H   0  0  0  0  0
   36.4157   64.2524   11.8512 H   0  0  0  0  0
   32.2872   67.9897    8.1376 H   0  0  0  0  0
   33.6905   69.8634    7.4405 H   0  0  0  0  0
   34.8805   69.4557    8.5725 H   0  0  0  0  0
   31.1058   69.7268    8.8092 H   0  0  0  0  0
   31.1241   72.2552   12.2467 H   0  0  0  0  0
   33.5575   72.2904   12.2748 H   0  0  0  0  0
   34.8730   71.0152   10.5253 H   0  0  0  0  0
  1  2  1  0  0  0
 11  1  1  0  0  0
  3  2  1  0  0  0
  4  3  1  0  0  0
 12  4  1  0  0  0
  5 12  4  0  0  0
  5 13  4  0  0  0
 15  5  1  0  0  0
  6  7  4  0  0  0
 13  6  4  0  0  0
  7  8  4  0  0  0
  9  8  4  0  0  0
 14  9  4  0  0  0
 11 10  4  0  0  0
 14 10  4  0  0  0
 12 11  4  0  0  0
 13 14  4  0  0  0
 17 15  1  0  0  0
 20 16  1  0  0  0
 18 17  1  0  0  0
 19 18  4  0  0  0
 18 23  4  0  0  0
 19 20  4  0  0  0
 20 21  4  0  0  0
 21 22  4  0  0  0
 22 23  4  0  0  0
  1 24  1  0  0  0
  1 25  1  0  0  0
  2 26  1  0  0  0
  2 27  1  0  0  0
  3 28  1  0  0  0
  3 29  1  0  0  0
  4 30  1  0  0  0
  4 31  1  0  0  0
  6 32  1  0  0  0
  7 33  1  0  0  0
  8 34  1  0  0  0
  9 35  1  0  0  0
 15 36  1  0  0  0
 17 37  1  0  0  0
 17 38  1  0  0  0
 19 39  1  0  0  0
 21 40  1  0  0  0
 22 41  1  0  0  0
 23 42  1  0  0  0
M  END
$$$$
