5w19_ligand
  -I-interpret- 

 51 53  0  0  0  0  0  0  0  0999 V2000
   73.6790  202.8300   52.9610 C   0  0  0  0  0
   72.8260  201.8280   53.6720 C   0  0  0  0  0
   73.3560  200.5900   54.0130 C   0  0  0  0  0
   74.6230  200.2880   53.7080 C   0  0  0  0  0
   76.5150  198.8030   54.0000 C   0  0  0  0  0
   77.4530  199.6130   53.1790 C   0  0  0  0  0
   78.3630  200.4890   54.0460 C   0  0  0  0  0
   79.2010  199.6810   54.9800 C   0  0  0  0  0
   78.8980  200.0290   56.2970 C   0  0  0  0  0
   77.5430  201.3600   55.0190 C   0  0  0  0  0
   79.5380  199.4140   57.3570 C   0  0  0  0  0
   80.4990  198.4340   57.0850 C   0  0  0  0  0
   80.8020  198.0870   55.7590 C   0  0  0  0  0
   80.1530  198.7150   54.6930 C   0  0  0  0  0
   76.8540  197.3430   54.3560 C   0  0  0  0  0
   72.5600  199.6580   54.6710 C   0  0  0  0  0
   71.2480  199.9880   54.9790 C   0  0  0  0  0
   70.3870  198.9910   55.6900 C   0  0  0  0  0
   71.5070  202.1160   54.0020 C   0  0  0  0  0
   75.1560  199.2350   54.2510 N   0  0  0  0  0
   77.9070  201.0350   56.4100 N   0  0  0  0  0
   70.7620  201.1960   54.6390 N   0  0  0  0  0
   76.0590  202.2500   51.1610 O   0  0  0  0  0
   74.6030  202.7200   49.2820 O   0  0  0  0  0
   73.5760  202.6130   51.5790 O   0  0  0  0  0
   76.7210  202.1820   54.6930 O   0  0  0  0  0
   77.9520  196.8450   54.0350 O   0  0  0  0  0
   76.0150  196.6470   54.9720 O   0  0  0  0  0
   73.0540  198.4440   55.0120 O   0  0  0  0  0
   75.1350  204.4610   50.8790 O   0  0  0  0  0
   74.8730  203.0150   50.7080 P   0  0  0  0  0
   74.7169  202.7205   53.2754 H   0  0  0  0  0
   73.3428  203.8384   53.2023 H   0  0  0  0  0
   75.1948  200.9108   53.0200 H   0  0  0  0  0
   76.9896  199.3694   54.8013 H   0  0  0  0  0
   76.8653  200.2656   52.5334 H   0  0  0  0  0
   78.0810  198.9310   52.6058 H   0  0  0  0  0
   78.9504  201.0598   53.3268 H   0  0  0  0  0
   79.2986  199.6872   58.3847 H   0  0  0  0  0
   81.0149  197.9375   57.9069 H   0  0  0  0  0
   81.5507  197.3204   55.5592 H   0  0  0  0  0
   80.3892  198.4521   53.6619 H   0  0  0  0  0
   70.3036  198.0881   55.0851 H   0  0  0  0  0
   70.8366  198.7451   56.6520 H   0  0  0  0  0
   69.3961  199.4164   55.8488 H   0  0  0  0  0
   71.0780  203.0846   53.7452 H   0  0  0  0  0
   77.5290  201.4439   57.2646 H   0  0  0  0  0
   75.8934  201.3107   51.0518 H   0  0  0  0  0
   74.4338  201.7809   49.1771 H   0  0  0  0  0
   75.2297  197.1718   55.1435 H   0  0  0  0  0
   72.3713  197.9349   55.4550 H   0  0  0  0  0
  1  2  1  0  0  0
 25  1  1  0  0  0
  2  3  4  0  0  0
  2 19  4  0  0  0
  3  4  1  0  0  0
  3 16  4  0  0  0
  4 20  2  0  0  0
  5  6  1  0  0  0
  5 15  1  0  0  0
 20  5  1  0  0  0
  6  7  1  0  0  0
  7  8  1  0  0  0
  7 10  1  0  0  0
  8  9  4  0  0  0
  8 14  4  0  0  0
  9 11  4  0  0  0
 21  9  1  0  0  0
 10 21  1  0  0  0
 10 26  2  0  0  0
 11 12  4  0  0  0
 13 12  4  0  0  0
 14 13  4  0  0  0
 15 27  2  0  0  0
 15 28  1  0  0  0
 16 17  4  0  0  0
 16 29  1  0  0  0
 17 18  1  0  0  0
 22 17  4  0  0  0
 19 22  4  0  0  0
 31 23  1  0  0  0
 31 24  1  0  0  0
 25 31  1  0  0  0
 31 30  2  0  0  0
  1 32  1  0  0  0
  1 33  1  0  0  0
  4 34  1  0  0  0
  5 35  1  0  0  0
  6 36  1  0  0  0
  6 37  1  0  0  0
  7 38  1  0  0  0
 11 39  1  0  0  0
 12 40  1  0  0  0
 13 41  1  0  0  0
 14 42  1  0  0  0
 18 43  1  0  0  0
 18 44  1  0  0  0
 18 45  1  0  0  0
 19 46  1  0  0  0
 21 47  1  0  0  0
 23 48  1  0  0  0
 24 49  1  0  0  0
 28 50  1  0  0  0
 29 51  1  0  0  0
M  END
$$$$
