### 
### Created by X-TOOL on Wed Jan  1 15:39:38 2020
### 

@<TRIPOS>MOLECULE
5w19_ligand
   48    50     1     0     0
SMALL
GAST_HUCK


@<TRIPOS>ATOM
      1 C05        73.6790  202.8300   52.9610 C.3       1 9TD         0.1176
      2 C06        72.8260  201.8280   53.6720 C.ar      1 9TD         0.0196
      3 C07        73.3560  200.5900   54.0130 C.ar      1 9TD         0.0603
      4 C08        74.6230  200.2880   53.7080 C.2       1 9TD         0.0190
      5 C10        76.5150  198.8030   54.0000 C.3       1 9TD         0.0730
      6 C11        77.4530  199.6130   53.1790 C.3       1 9TD         0.0003
      7 C12        78.3630  200.4890   54.0460 C.3       1 9TD         0.0859
      8 C13        79.2010  199.6810   54.9800 C.ar      1 9TD         0.0018
      9 C14        78.8980  200.0290   56.2970 C.ar      1 9TD         0.0725
     10 C16        77.5430  201.3600   55.0190 C.2       1 9TD         0.2120
     11 C18        79.5380  199.4140   57.3570 C.ar      1 9TD        -0.0466
     12 C19        80.4990  198.4340   57.0850 C.ar      1 9TD        -0.0818
     13 C20        80.8020  198.0870   55.7590 C.ar      1 9TD        -0.0831
     14 C21        80.1530  198.7150   54.6930 C.ar      1 9TD        -0.0705
     15 C22        76.8540  197.3430   54.3560 C.2       1 9TD         0.0496
     16 C25        72.5600  199.6580   54.6710 C.ar      1 9TD         0.1344
     17 C27        71.2480  199.9880   54.9790 C.ar      1 9TD         0.0567
     18 C28        70.3870  198.9910   55.6900 C.3       1 9TD        -0.0186
     19 C30        71.5070  202.1160   54.0020 C.ar      1 9TD         0.0031
     20 N09        75.1560  199.2350   54.2510 N.2       1 9TD        -0.3232
     21 N15        77.9070  201.0350   56.4100 N.am      1 9TD        -0.2350
     22 N29        70.7620  201.1960   54.6390 N.ar      1 9TD        -0.3082
     23 O01        76.0590  202.2500   51.1610 O.co2     1 9TD        -0.5536
     24 O03        74.6030  202.7200   49.2820 O.co2     1 9TD        -0.5536
     25 O04        73.5760  202.6130   51.5790 O.3       1 9TD        -0.2621
     26 O17        76.7210  202.1820   54.6930 O.2       1 9TD        -0.3886
     27 O23        77.9520  196.8450   54.0350 O.co2     1 9TD        -0.5678
     28 O24        76.0150  196.6470   54.9720 O.co2     1 9TD        -0.5678
     29 O26        73.0540  198.4440   55.0120 O.3       1 9TD        -0.3217
     30 O31        75.1350  204.4610   50.8790 O.co2     1 9TD        -0.5536
     31 P02        74.8730  203.0150   50.7080 P.3       1 9TD         0.2042
     32 H1         74.7264  202.7137   53.2762 H         1 9TD         0.0800
     33 H2         73.3342  203.8463   53.2022 H         1 9TD         0.0800
     34 H3         75.1942  200.9102   53.0207 H         1 9TD         0.1084
     35 H4         76.8984  199.2077   54.9483 H         1 9TD         0.0599
     36 H5         76.8697  200.2612   52.5085 H         1 9TD         0.0342
     37 H6         78.0784  198.9343   52.5804 H         1 9TD         0.0342
     38 H7         78.9923  201.1111   53.3926 H         1 9TD         0.0683
     39 H8         79.2999  199.6857   58.3790 H         1 9TD         0.0485
     40 H9         81.0121  197.9403   57.9023 H         1 9TD         0.0524
     41 H10        81.5465  197.3246   55.5603 H         1 9TD         0.0473
     42 H11        80.3879  198.4535   53.6676 H         1 9TD         0.0520
     43 H12        69.3866  199.4192   55.8508 H         1 9TD         0.0386
     44 H13        70.8397  198.7420   56.6611 H         1 9TD         0.0386
     45 H14        70.3019  198.0793   55.0805 H         1 9TD         0.0386
     46 H15        71.0804  203.0792   53.7466 H         1 9TD         0.0658
     47 H16        77.5364  201.4359   57.2478 H         1 9TD         0.2254
     48 H17        73.9591  198.3812   54.7304 H         1 9TD         0.2533
@<TRIPOS>BOND
     1    1    2 1  
     2   25    1 1  
     3    2    3 ar 
     4    2   19 ar 
     5    3    4 1  
     6    3   16 ar 
     7    4   20 2  
     8    5    6 1  
     9    5   15 1  
    10   20    5 1  
    11    6    7 1  
    12    7    8 1  
    13    7   10 1  
    14    8    9 ar 
    15    8   14 ar 
    16    9   11 ar 
    17   21    9 1  
    18   10   21 am 
    19   10   26 2  
    20   11   12 ar 
    21   13   12 ar 
    22   14   13 ar 
    23   15   27 ar 
    24   15   28 ar 
    25   16   17 ar 
    26   16   29 1  
    27   17   18 1  
    28   22   17 ar 
    29   19   22 ar 
    30   31   23 ar 
    31   31   24 ar 
    32   25   31 1  
    33   31   30 ar 
    34    1   32 1  
    35    1   33 1  
    36    4   34 1  
    37    5   35 1  
    38    6   36 1  
    39    6   37 1  
    40    7   38 1  
    41   11   39 1  
    42   12   40 1  
    43   13   41 1  
    44   14   42 1  
    45   18   43 1  
    46   18   44 1  
    47   18   45 1  
    48   19   46 1  
    49   21   47 1  
    50   29   48 1  
@<TRIPOS>SUBSTRUCTURE
     1 9TD         1

