1np0_ligand
  -I-interpret- 

 27 28  0  0  0  0  0  0  0  0999 V2000
    5.1240   22.0470   34.8260 C   0  0  0  0  0
    5.1610   23.3160   35.7290 C   0  0  0  0  0
    6.6420   23.6460   36.2170 C   0  0  0  0  0
    7.4490   22.4060   36.5250 C   0  0  0  0  0
    7.4060   21.4480   35.3480 C   0  0  0  0  0
    8.2390   20.1900   35.5460 C   0  0  0  0  0
    4.7750   24.2600   33.7040 C   0  0  0  0  0
    4.3410   25.2330   32.6480 C   0  0  0  0  0
    4.6610   24.4170   34.9510 N   0  0  0  0  0
    5.4270   22.7120   33.1540 S   0  0  0  0  0
    6.5930   24.4980   37.3510 O   0  0  0  0  0
    8.7840   22.7800   36.8010 O   0  0  0  0  0
    6.0500   21.0350   35.0950 O   0  0  0  0  0
    8.0000   19.2560   34.5010 O   0  0  0  0  0
    4.1730   21.5393   34.9870 H   0  0  0  0  0
    4.5530   23.1435   36.6170 H   0  0  0  0  0
    7.1493   24.1504   35.3946 H   0  0  0  0  0
    7.0254   21.9025   37.3940 H   0  0  0  0  0
    7.8267   22.0026   34.5093 H   0  0  0  0  0
    7.9636   19.7322   36.4961 H   0  0  0  0  0
    9.2943   20.4627   35.5389 H   0  0  0  0  0
    3.2680   25.4049   32.7330 H   0  0  0  0  0
    4.8729   26.1748   32.7828 H   0  0  0  0  0
    4.5678   24.8239   31.6635 H   0  0  0  0  0
    6.0778   25.2801   37.1402 H   0  0  0  0  0
    8.7981   23.3851   37.5462 H   0  0  0  0  0
    8.5346   18.4719   34.6457 H   0  0  0  0  0
  2  1  1  0  0  0
  1 10  1  0  0  0
  1 13  1  0  0  0
  2  3  1  0  0  0
  9  2  1  0  0  0
  3  4  1  0  0  0
  3 11  1  0  0  0
  4  5  1  0  0  0
  4 12  1  0  0  0
  5  6  1  0  0  0
 13  5  1  0  0  0
  6 14  1  0  0  0
  7  8  1  0  0  0
  7  9  2  0  0  0
  7 10  1  0  0  0
  1 15  1  0  0  0
  2 16  1  0  0  0
  3 17  1  0  0  0
  4 18  1  0  0  0
  5 19  1  0  0  0
  6 20  1  0  0  0
  6 21  1  0  0  0
  8 22  1  0  0  0
  8 23  1  0  0  0
  8 24  1  0  0  0
 11 25  1  0  0  0
 12 26  1  0  0  0
 14 27  1  0  0  0
M  END
$$$$
