5tdb_ligand
  -I-interpret- 

 52 51  0  0  0  0  0  0  0  0999 V2000
    8.0990    5.7880    8.0290 C   0  0  0  0  0
    8.4810    6.7250    5.7890 C   0  0  0  0  0
   13.3940    1.4070   10.2700 N   0  3  0  0  0
   13.8670    1.4830    8.8890 C   0  0  0  0  0
   13.9980    2.9400    8.4190 C   0  0  0  0  0
   12.7420    3.7800    8.6360 C   0  0  0  0  0
   11.6470    3.3140    7.6900 C   0  0  0  0  0
   10.4840    4.2030    7.7450 N   0  0  0  0  0
   10.1080    5.0510    6.6690 C   0  0  0  0  0
   10.8240    5.0910    5.6390 N   0  0  0  0  0
    8.9040    5.8210    6.8360 N   0  0  0  0  0
   15.2770    0.9060    8.8130 C   0  0  0  0  0
   15.9940    0.8790    9.8380 O   0  0  0  0  0
   15.6850    0.4630    7.6260 N   0  0  0  0  0
   17.1040    0.2100    7.3800 C   0  0  0  0  0
   17.7360    1.3410    6.5820 C   0  0  0  0  0
   17.0360    2.2010    6.0480 O   0  0  0  0  0
   17.3500   -1.1370    6.6950 C   0  0  0  0  0
   16.4800   -1.2840    5.4450 C   0  0  0  0  0
   17.1090   -2.2630    7.6690 C   0  0  0  0  0
   16.8190   -2.5200    4.6140 C   0  0  0  0  0
   18.9580    1.4150    6.4570 O   0  0  0  0  0
    7.7458    4.7710    8.1994 H   0  0  0  0  0
    8.6984    6.1131    8.8794 H   0  0  0  0  0
    7.2454    6.4550    7.9084 H   0  0  0  0  0
    9.2558    7.4732    5.6218 H   0  0  0  0  0
    8.3133    6.1623    4.8707 H   0  0  0  0  0
    7.5563    7.2184    6.0884 H   0  0  0  0  0
   12.4510    1.7917   10.3268 H   0  0  0  0  0
   13.3837    0.4326   10.5715 H   0  0  0  0  0
   14.0183    1.9438   10.8720 H   0  0  0  0  0
   13.1494    0.9412    8.2729 H   0  0  0  0  0
   14.1892    2.9169    7.3462 H   0  0  0  0  0
   14.7966    3.3969    9.0035 H   0  0  0  0  0
   12.9687    4.8279    8.4394 H   0  0  0  0  0
   12.4036    3.6660    9.6658 H   0  0  0  0  0
   11.3337    2.3132    7.9873 H   0  0  0  0  0
   12.0405    3.3192    6.6735 H   0  0  0  0  0
    9.9188    4.2136    8.5940 H   0  0  0  0  0
   11.6661    4.5183    5.5807 H   0  0  0  0  0
   15.0043    0.2992    6.8842 H   0  0  0  0  0
   17.5839    0.1656    8.3577 H   0  0  0  0  0
   16.1113    2.0168    6.2286 H   0  0  0  0  0
   18.3901   -1.1804    6.3718 H   0  0  0  0  0
   16.6529   -0.4088    4.8188 H   0  0  0  0  0
   15.4454   -1.3820    5.7737 H   0  0  0  0  0
   17.7882   -2.1612    8.5154 H   0  0  0  0  0
   16.0784   -2.2224    8.0216 H   0  0  0  0  0
   17.2868   -3.2164    7.1715 H   0  0  0  0  0
   17.8572   -2.4628    4.2870 H   0  0  0  0  0
   16.6766   -3.4143    5.2206 H   0  0  0  0  0
   16.1643   -2.5618    3.7435 H   0  0  0  0  0
 11  1  1  0  0  0
 11  2  1  0  0  0
  4  3  1  0  0  0
  5  4  1  0  0  0
  4 12  1  0  0  0
  6  5  1  0  0  0
  7  6  1  0  0  0
  8  7  1  0  0  0
  9  8  1  0  0  0
  9 10  2  0  0  0
  9 11  1  0  0  0
 12 13  2  0  0  0
 12 14  1  0  0  0
 14 15  1  0  0  0
 15 16  1  0  0  0
 15 18  1  0  0  0
 16 17  1  0  0  0
 16 22  2  0  0  0
 18 19  1  0  0  0
 18 20  1  0  0  0
 19 21  1  0  0  0
  1 23  1  0  0  0
  1 24  1  0  0  0
  1 25  1  0  0  0
  2 26  1  0  0  0
  2 27  1  0  0  0
  2 28  1  0  0  0
  3 29  1  0  0  0
  3 30  1  0  0  0
  3 31  1  0  0  0
  4 32  1  0  0  0
  5 33  1  0  0  0
  5 34  1  0  0  0
  6 35  1  0  0  0
  6 36  1  0  0  0
  7 37  1  0  0  0
  7 38  1  0  0  0
  8 39  1  0  0  0
 10 40  1  0  0  0
 14 41  1  0  0  0
 15 42  1  0  0  0
 17 43  1  0  0  0
 18 44  1  0  0  0
 19 45  1  0  0  0
 19 46  1  0  0  0
 20 47  1  0  0  0
 20 48  1  0  0  0
 20 49  1  0  0  0
 21 50  1  0  0  0
 21 51  1  0  0  0
 21 52  1  0  0  0
M  END
$$$$
