### 
### Created by X-TOOL on Mon Aug  2 16:12:07 2021
### 

@<TRIPOS>MOLECULE
6qxs_ligand
   31    32     1     0     0
SMALL
GAST_HUCK


@<TRIPOS>ATOM
      1 N1         43.0980    5.2710   28.0850 N.am      1 UFP        -0.1661
      2 C2         42.8800    5.0440   26.6900 C.2       1 UFP         0.3294
      3 N3         42.8940    3.7960   26.1890 N.am      1 UFP        -0.1842
      4 C4         43.1230    2.7280   26.9650 C.2       1 UFP         0.2212
      5 C5         43.3760    2.9360   28.4290 C.2       1 UFP         0.1931
      6 C6         43.3450    4.2420   28.9120 C.2       1 UFP         0.0879
      7 O2         42.6620    5.9990   25.8940 O.2       1 UFP        -0.3830
      8 O4         43.1340    1.5940   26.4330 O.2       1 UFP        -0.4071
      9 F5         43.6140    1.9150   29.2890 F         1 UFP        -0.2165
     10 C1'        43.0930    6.6470   28.6270 C.3       1 UFP         0.1777
     11 C2'        41.7970    7.4250   28.4760 C.3       1 UFP         0.0312
     12 C3'        41.8980    8.4280   29.6000 C.3       1 UFP         0.0889
     13 C4'        42.6950    7.7300   30.6840 C.3       1 UFP         0.1156
     14 O3'        42.6140    9.5700   29.1080 O.3       1 UFP        -0.3890
     15 O4'        43.4150    6.6960   30.0200 O.3       1 UFP        -0.3391
     16 C5'        41.8100    7.0310   31.7000 C.3       1 UFP         0.1071
     17 O5'        41.5280    7.8590   32.8180 O.3       1 UFP        -0.2734
     18 P          40.0940    7.6570   33.4890 P.3       1 UFP         0.2008
     19 O1P        39.2630    7.9500   32.2710 O.co2     1 UFP        -0.5537
     20 O2P        40.0000    6.2240   33.9340 O.co2     1 UFP        -0.5537
     21 O3P        40.0600    8.6680   34.5970 O.co2     1 UFP        -0.5537
     22 H1         42.7292    3.6616   25.2119 H         1 UFP         0.2260
     23 H2         43.5226    4.4305   29.9698 H         1 UFP         0.1107
     24 H3         43.8720    7.1943   28.0760 H         1 UFP         0.0964
     25 H4         40.9216    6.7710   28.6019 H         1 UFP         0.0344
     26 H5         41.7432    7.9254   27.4979 H         1 UFP         0.0344
     27 H6         40.9049    8.7247   29.9684 H         1 UFP         0.0622
     28 H7         43.3677    8.4411   31.1858 H         1 UFP         0.0649
     29 H8         42.7656   10.1788   29.8214 H         1 UFP         0.2099
     30 H9         42.3212    6.1224   32.0509 H         1 UFP         0.0639
     31 H10        40.8623    6.7544   31.2149 H         1 UFP         0.0639
@<TRIPOS>BOND
     1    1    2 am 
     2    1    6 1  
     3    1   10 1  
     4    2    3 am 
     5    2    7 2  
     6    3    4 am 
     7    4    5 1  
     8    4    8 2  
     9    5    6 2  
    10    5    9 1  
    11   10   11 1  
    12   10   15 1  
    13   11   12 1  
    14   12   13 1  
    15   12   14 1  
    16   13   15 1  
    17   13   16 1  
    18   16   17 1  
    19   17   18 1  
    20   18   19 ar 
    21   18   20 ar 
    22   18   21 ar 
    23    3   22 1  
    24    6   23 1  
    25   10   24 1  
    26   11   25 1  
    27   11   26 1  
    28   12   27 1  
    29   13   28 1  
    30   14   29 1  
    31   16   30 1  
    32   16   31 1  
@<TRIPOS>SUBSTRUCTURE
     1 UFP         1

