6qxs_ligand
  -I-interpret- 

 33 34  0  0  0  0  0  0  0  0999 V2000
   43.0980    5.2710   28.0850 N   0  0  0  0  0
   42.8800    5.0440   26.6900 C   0  0  0  0  0
   42.8940    3.7960   26.1890 N   0  0  0  0  0
   43.1230    2.7280   26.9650 C   0  0  0  0  0
   43.3760    2.9360   28.4290 C   0  0  0  0  0
   43.3450    4.2420   28.9120 C   0  0  0  0  0
   42.6620    5.9990   25.8940 O   0  0  0  0  0
   43.1340    1.5940   26.4330 O   0  0  0  0  0
   43.6140    1.9150   29.2890 F   0  0  0  0  0
   43.0930    6.6470   28.6270 C   0  0  0  0  0
   41.7970    7.4250   28.4760 C   0  0  0  0  0
   41.8980    8.4280   29.6000 C   0  0  0  0  0
   42.6950    7.7300   30.6840 C   0  0  0  0  0
   42.6140    9.5700   29.1080 O   0  0  0  0  0
   43.4150    6.6960   30.0200 O   0  0  0  0  0
   41.8100    7.0310   31.7000 C   0  0  0  0  0
   41.5280    7.8590   32.8180 O   0  0  0  0  0
   40.0940    7.6570   33.4890 P   0  0  0  0  0
   39.2630    7.9500   32.2710 O   0  0  0  0  0
   40.0000    6.2240   33.9340 O   0  0  0  0  0
   40.0600    8.6680   34.5970 O   0  0  0  0  0
   42.7259    3.6589   25.1923 H   0  0  0  0  0
   43.5228    4.4307   29.9707 H   0  0  0  0  0
   43.8564    7.1163   28.0064 H   0  0  0  0  0
   40.9079    6.7974   28.5370 H   0  0  0  0  0
   41.6833    7.8868   27.4952 H   0  0  0  0  0
   40.9303    8.7603   29.9760 H   0  0  0  0  0
   43.3074    8.4669   31.2037 H   0  0  0  0  0
   42.6911   10.2235   29.8070 H   0  0  0  0  0
   42.3344    6.1442   32.0561 H   0  0  0  0  0
   40.8667    6.7800   31.2150 H   0  0  0  0  0
   39.3652    7.2371   31.6362 H   0  0  0  0  0
   40.0291    5.6490   33.1658 H   0  0  0  0  0
  1  2  1  0  0  0
  1  6  1  0  0  0
  1 10  1  0  0  0
  2  3  1  0  0  0
  2  7  2  0  0  0
  3  4  1  0  0  0
  4  5  1  0  0  0
  4  8  2  0  0  0
  5  6  2  0  0  0
  5  9  1  0  0  0
 10 11  1  0  0  0
 10 15  1  0  0  0
 11 12  1  0  0  0
 12 13  1  0  0  0
 12 14  1  0  0  0
 13 15  1  0  0  0
 13 16  1  0  0  0
 16 17  1  0  0  0
 17 18  1  0  0  0
 18 19  1  0  0  0
 18 20  1  0  0  0
 18 21  2  0  0  0
  3 22  1  0  0  0
  6 23  1  0  0  0
 10 24  1  0  0  0
 11 25  1  0  0  0
 11 26  1  0  0  0
 12 27  1  0  0  0
 13 28  1  0  0  0
 14 29  1  0  0  0
 16 30  1  0  0  0
 16 31  1  0  0  0
 19 32  1  0  0  0
 20 33  1  0  0  0
M  END
$$$$
