5am7_ligand
  -I-interpret- 

 50 54  0  0  0  0  0  0  0  0999 V2000
  221.1200    2.4580   31.8530 C   0  0  0  0  0
  221.4130    2.7580   29.4910 C   0  0  0  0  0
  220.9230    2.3010   28.1230 C   0  0  0  0  0
  218.5620    2.4750   29.0970 C   0  0  0  0  0
  219.2260    2.8590   30.4150 C   0  0  0  0  0
  219.0890    3.2680   26.8140 C   0  0  0  0  0
  216.9120    3.7860   22.9210 C   0  0  0  0  0
  217.7250    4.8110   23.2450 N   0  0  0  0  0
  219.1810    5.1310   25.2660 C   0  0  0  0  0
  219.5800    4.5190   26.4510 C   0  0  0  0  0
  216.0740    3.6230   21.7030 C   0  0  0  0  0
  216.1910    4.6360   20.6230 C   0  0  0  0  0
  215.3960    5.3590   18.2370 C   0  0  0  0  0
  214.5770    5.0890   17.1330 C   0  0  0  0  0
  213.7210    3.9830   17.1360 C   0  0  0  0  0
  214.9600    1.6500   22.4110 O   0  0  0  0  0
  220.5350    2.2030   30.5290 N   0  3  0  0  0
  219.5220    2.6940   28.0150 N   0  0  0  0  0
  218.1820    2.5830   26.0060 C   0  0  0  0  0
  217.7530    3.1500   24.8010 C   0  0  0  0  0
  216.9250    2.7660   23.8110 N   0  0  0  0  0
  218.2840    4.4830   24.4260 C   0  0  0  0  0
  217.0490    5.6690   20.7560 N   0  0  0  0  0
  215.3580    4.4430   19.4020 C   0  0  0  0  0
  216.2120    6.4340   18.2600 F   0  0  0  0  0
  213.6500    3.0910   18.2120 C   0  0  0  0  0
  214.4370    3.2820   19.3520 C   0  0  0  0  0
  214.3930    2.4140   20.3750 N   0  0  0  0  0
  215.1030    2.5200   21.5180 C   0  0  0  0  0
  221.2461    3.5317   31.9924 H   0  0  0  0  0
  220.4565    2.0657   32.6237 H   0  0  0  0  0
  222.0898    1.9651   31.9214 H   0  0  0  0  0
  221.3952    3.8467   29.5408 H   0  0  0  0  0
  222.4331    2.4083   29.6496 H   0  0  0  0  0
  221.0286    1.2212   28.0177 H   0  0  0  0  0
  221.5133    2.7601   27.3300 H   0  0  0  0  0
  217.6730    3.0847   28.9358 H   0  0  0  0  0
  218.2612    1.4276   29.1223 H   0  0  0  0  0
  218.5919    2.5394   31.2420 H   0  0  0  0  0
  219.3631    3.9399   30.4455 H   0  0  0  0  0
  219.5703    6.1134   24.9986 H   0  0  0  0  0
  220.2883    5.0275   27.1051 H   0  0  0  0  0
  214.6072    5.7466   16.2642 H   0  0  0  0  0
  213.0853    3.8093   16.2677 H   0  0  0  0  0
  220.4294    1.1953   30.4116 H   0  0  0  0  0
  217.8075    1.6065   26.3130 H   0  0  0  0  0
  217.6176    5.7545   21.5985 H   0  0  0  0  0
  217.1289    6.3643   20.0140 H   0  0  0  0  0
  212.9736    2.2378   18.1609 H   0  0  0  0  0
  213.7731    1.6095   20.2810 H   0  0  0  0  0
 17  1  1  0  0  0
  3  2  1  0  0  0
  2 17  1  0  0  0
 18  3  1  0  0  0
  4  5  1  0  0  0
 18  4  1  0  0  0
  5 17  1  0  0  0
 10  6  4  0  0  0
  6 18  1  0  0  0
  6 19  4  0  0  0
  7  8  4  0  0  0
 11  7  1  0  0  0
  7 21  4  0  0  0
  8 22  4  0  0  0
  9 10  4  0  0  0
 22  9  4  0  0  0
 12 11  2  0  0  0
 11 29  1  0  0  0
 12 23  1  0  0  0
 24 12  1  0  0  0
 13 14  4  0  0  0
 13 24  4  0  0  0
 13 25  1  0  0  0
 14 15  4  0  0  0
 15 26  4  0  0  0
 29 16  2  0  0  0
 19 20  4  0  0  0
 20 21  4  0  0  0
 20 22  4  0  0  0
 24 27  4  0  0  0
 26 27  4  0  0  0
 27 28  1  0  0  0
 28 29  1  0  0  0
  1 30  1  0  0  0
  1 31  1  0  0  0
  1 32  1  0  0  0
  2 33  1  0  0  0
  2 34  1  0  0  0
  3 35  1  0  0  0
  3 36  1  0  0  0
  4 37  1  0  0  0
  4 38  1  0  0  0
  5 39  1  0  0  0
  5 40  1  0  0  0
  9 41  1  0  0  0
 10 42  1  0  0  0
 14 43  1  0  0  0
 15 44  1  0  0  0
 17 45  1  0  0  0
 19 46  1  0  0  0
 23 47  1  0  0  0
 23 48  1  0  0  0
 26 49  1  0  0  0
 28 50  1  0  0  0
M  END
$$$$
