4cjq_ligand
  -I-interpret- 

 59 62  0  0  0  0  0  0  0  0999 V2000
  -12.0120   48.9490    6.7090 C   0  0  0  0  0
  -12.7980   50.0690    6.5640 C   0  0  0  0  0
  -11.2010   48.4990    5.6910 C   0  0  0  0  0
  -11.1620   44.0870   -2.3970 C   0  0  0  0  0
  -12.8090   50.7960    5.3940 C   0  0  0  0  0
  -12.0680   44.1060   -3.4350 C   0  0  0  0  0
  -10.8970   50.0660    2.4510 C   0  0  0  0  0
  -11.1970   49.2120    4.5070 C   0  0  0  0  0
  -12.7770   44.9850   -0.8650 C   0  0  0  0  0
  -11.4930   44.5240   -1.1240 C   0  0  0  0  0
  -10.5020   49.0400    3.2820 C   0  0  0  0  0
  -11.9930   50.3340    4.3880 C   0  0  0  0  0
  -13.3260   44.5700   -3.1650 C   0  0  0  0  0
  -13.6610   44.9970   -1.9190 C   0  0  0  0  0
  -13.2530   45.4770    0.4530 C   0  0  0  0  0
   -9.0420   47.9190    1.6010 C   0  0  0  0  0
  -15.4250   44.9190   -3.1310 C   0  0  0  0  0
   -7.4240   42.5100   -0.3550 C   0  0  0  0  0
   -6.7510   43.1590    1.9520 C   0  0  0  0  0
   -9.5510   47.9460    3.0110 C   0  0  0  0  0
  -10.4310   44.4300   -0.0710 C   0  0  0  0  0
   -8.0480   44.7650    0.6100 C   0  0  0  0  0
   -9.2890   46.6010   -0.4640 C   0  0  0  0  0
   -7.8250   43.2820    0.8870 C   0  0  0  0  0
   -9.1140   45.0930   -0.4250 C   0  0  0  0  0
  -11.7960   50.8380    3.1320 N   0  0  0  0  0
   -9.8210   47.1380    0.7710 N   0  0  0  0  0
  -14.3780   45.0770    0.8640 O   0  0  0  0  0
  -12.5090   46.3020    1.0500 O   0  0  0  0  0
   -8.0300   48.5200    1.2750 O   0  0  0  0  0
  -14.3640   44.6530   -4.0540 O   0  0  0  0  0
  -14.9600   45.4050   -1.8640 O   0  0  0  0  0
  -12.0317   48.4044    7.6530 H   0  0  0  0  0
  -13.4270   50.3886    7.3948 H   0  0  0  0  0
  -10.5827   47.6099    5.8149 H   0  0  0  0  0
  -10.1538   43.7168   -2.5828 H   0  0  0  0  0
  -13.4279   51.6850    5.2727 H   0  0  0  0  0
  -11.7928   43.7644   -4.4328 H   0  0  0  0  0
  -10.5530   50.2325    1.4302 H   0  0  0  0  0
  -15.9520   43.9816   -2.9530 H   0  0  0  0  0
  -16.0594   45.6897   -3.5688 H   0  0  0  0  0
   -6.4881   42.9110   -0.7441 H   0  0  0  0  0
   -7.2924   41.4583   -0.1008 H   0  0  0  0  0
   -8.2043   42.6078   -1.1098 H   0  0  0  0  0
   -6.6176   42.1089    2.2121 H   0  0  0  0  0
   -5.8134   43.5616    1.5688 H   0  0  0  0  0
   -7.0533   43.7184    2.8373 H   0  0  0  0  0
  -10.0784   47.0078    3.1833 H   0  0  0  0  0
   -8.6907   48.0952    3.6635 H   0  0  0  0  0
  -10.2209   43.3697    0.0692 H   0  0  0  0  0
  -10.8153   44.9454    0.8092 H   0  0  0  0  0
   -7.1074   45.1490    0.2151 H   0  0  0  0  0
   -8.3843   45.2060    1.5483 H   0  0  0  0  0
   -9.9959   46.8339   -1.2604 H   0  0  0  0  0
   -8.3073   47.0463   -0.6253 H   0  0  0  0  0
   -8.7648   42.8470    1.2271 H   0  0  0  0  0
   -8.8029   44.7193   -1.4005 H   0  0  0  0  0
  -10.7862   46.9361    1.0317 H   0  0  0  0  0
  -14.7446   44.4532    0.2331 H   0  0  0  0  0
  1  2  4  0  0  0
  3  1  4  0  0  0
  5  2  4  0  0  0
  8  3  4  0  0  0
  4  6  4  0  0  0
 10  4  4  0  0  0
 12  5  4  0  0  0
  6 13  4  0  0  0
 11  7  4  0  0  0
  7 26  4  0  0  0
 11  8  4  0  0  0
  8 12  4  0  0  0
 10  9  4  0  0  0
  9 14  4  0  0  0
  9 15  1  0  0  0
 21 10  1  0  0  0
 20 11  1  0  0  0
 12 26  4  0  0  0
 14 13  4  0  0  0
 13 31  1  0  0  0
 14 32  1  0  0  0
 15 28  1  0  0  0
 15 29  2  0  0  0
 16 20  1  0  0  0
 27 16  1  0  0  0
 16 30  2  0  0  0
 17 31  1  0  0  0
 32 17  1  0  0  0
 24 18  1  0  0  0
 24 19  1  0  0  0
 25 21  1  0  0  0
 22 24  1  0  0  0
 25 22  1  0  0  0
 23 25  1  0  0  0
 23 27  1  0  0  0
  1 33  1  0  0  0
  2 34  1  0  0  0
  3 35  1  0  0  0
  4 36  1  0  0  0
  5 37  1  0  0  0
  6 38  1  0  0  0
  7 39  1  0  0  0
 17 40  1  0  0  0
 17 41  1  0  0  0
 18 42  1  0  0  0
 18 43  1  0  0  0
 18 44  1  0  0  0
 19 45  1  0  0  0
 19 46  1  0  0  0
 19 47  1  0  0  0
 20 48  1  0  0  0
 20 49  1  0  0  0
 21 50  1  0  0  0
 21 51  1  0  0  0
 22 52  1  0  0  0
 22 53  1  0  0  0
 23 54  1  0  0  0
 23 55  1  0  0  0
 24 56  1  0  0  0
 25 57  1  0  0  0
 27 58  1  0  0  0
 28 59  1  0  0  0
M  END
$$$$
