1f4g_ligand
  -I-interpret- 

 59 60  0  0  0  0  0  0  0  0999 V2000
   15.8620   13.7790   30.1580 C   0  0  0  0  0
   16.9920   13.9700   31.1850 C   0  0  0  0  0
   16.8370   15.3840   31.5640 N   0  0  0  0  0
   15.8290   16.0880   30.7340 C   0  0  0  0  0
   15.7590   15.1630   29.4930 C   0  0  0  0  0
   16.1610   17.5860   30.4220 C   0  0  0  0  0
   17.3600   17.8920   30.3700 O   0  0  0  0  0
   15.2010   18.4940   30.1840 N   0  0  0  0  0
   17.0960   15.8630   33.1930 S   0  0  0  0  0
   16.0530   15.0270   34.3300 C   0  0  0  0  0
   18.6050   15.6420   33.5640 O   0  0  0  0  0
   16.6690   17.3750   33.2680 O   0  0  0  0  0
   14.6990   15.1390   34.0750 C   0  0  0  0  0
   13.8230   14.5480   34.9700 C   0  0  0  0  0
   14.3380   13.8840   36.1040 C   0  0  0  0  0
   15.7170   13.7990   36.3290 C   0  0  0  0  0
   16.6050   14.3860   35.4310 C   0  0  0  0  0
   13.3490   13.2270   37.0480 C   0  0  0  0  0
   13.8210   12.7210   38.2010 N   0  0  0  0  0
   12.8470   12.0330   39.1310 C   0  0  0  0  0
   13.1060   10.5130   39.2510 C   0  0  0  0  0
   14.0190    9.8950   38.1720 C   0  0  0  0  0
   14.6720    8.6310   38.7460 C   0  0  0  0  0
   12.1810   13.0390   36.6770 O   0  0  0  0  0
   13.0430   12.7980   40.4880 C   0  0  0  0  0
   12.1320   12.7460   41.3150 O   0  0  0  0  0
   14.1400   13.3790   40.6250 O   0  0  0  0  0
   15.1840    8.6400   39.8870 O   0  0  0  0  0
   14.6830    7.5930   38.0580 O   0  0  0  0  0
   15.2700   19.9480   30.0370 C   0  0  0  0  0
   15.0900   20.6270   31.4120 C   0  0  0  0  0
   15.4300   22.1250   31.2540 C   0  0  0  0  0
   14.5320   22.9560   31.5020 O   0  0  0  0  0
   16.5810   22.4080   30.8770 O   0  0  0  0  0
   16.0710   12.9824   29.4440 H   0  0  0  0  0
   14.9255   13.4601   30.6156 H   0  0  0  0  0
   17.9790   13.7396   30.7840 H   0  0  0  0  0
   16.9202   13.2887   32.0328 H   0  0  0  0  0
   14.8691   16.2183   31.2338 H   0  0  0  0  0
   14.8612   15.2986   28.8899 H   0  0  0  0  0
   16.5346   15.3569   28.7521 H   0  0  0  0  0
   14.2635   18.1034   30.0895 H   0  0  0  0  0
   14.3332   15.6745   33.1989 H   0  0  0  0  0
   12.7473   14.5951   34.8005 H   0  0  0  0  0
   16.0954   13.2740   37.2061 H   0  0  0  0  0
   17.6832   14.3442   35.5853 H   0  0  0  0  0
   14.8091   12.7991   38.4418 H   0  0  0  0  0
   11.8188   12.0776   38.7720 H   0  0  0  0  0
   12.1356   10.0280   39.1452 H   0  0  0  0  0
   13.6138   10.3634   40.2038 H   0  0  0  0  0
   14.7885   10.6110   37.8833 H   0  0  0  0  0
   13.4307    9.6404   37.2904 H   0  0  0  0  0
   14.6641   13.2625   39.8292 H   0  0  0  0  0
   15.0876    9.5137   40.2729 H   0  0  0  0  0
   14.4763   20.2787   29.3671 H   0  0  0  0  0
   16.2422   20.2212   29.6267 H   0  0  0  0  0
   15.7497   20.1671   32.1478 H   0  0  0  0  0
   14.0633   20.5088   31.7584 H   0  0  0  0  0
   13.7360   22.4936   31.7744 H   0  0  0  0  0
  5  1  1  0  0  0
  1  2  1  0  0  0
  2  3  1  0  0  0
  3  9  1  0  0  0
  3  4  1  0  0  0
  4  6  1  0  0  0
  4  5  1  0  0  0
  6  8  1  0  0  0
  6  7  2  0  0  0
  8 30  1  0  0  0
 30 31  1  0  0  0
 31 32  1  0  0  0
 32 34  2  0  0  0
 32 33  1  0  0  0
  9 12  2  0  0  0
  9 11  2  0  0  0
  9 10  1  0  0  0
 10 17  4  0  0  0
 10 13  4  0  0  0
 13 14  4  0  0  0
 14 15  4  0  0  0
 15 18  1  0  0  0
 15 16  4  0  0  0
 16 17  4  0  0  0
 18 24  2  0  0  0
 18 19  1  0  0  0
 19 20  1  0  0  0
 20 25  1  0  0  0
 20 21  1  0  0  0
 21 22  1  0  0  0
 22 23  1  0  0  0
 23 29  2  0  0  0
 23 28  1  0  0  0
 25 27  1  0  0  0
 25 26  2  0  0  0
  1 35  1  0  0  0
  1 36  1  0  0  0
  2 37  1  0  0  0
  2 38  1  0  0  0
  4 39  1  0  0  0
  5 40  1  0  0  0
  5 41  1  0  0  0
  8 42  1  0  0  0
 13 43  1  0  0  0
 14 44  1  0  0  0
 16 45  1  0  0  0
 17 46  1  0  0  0
 19 47  1  0  0  0
 20 48  1  0  0  0
 21 49  1  0  0  0
 21 50  1  0  0  0
 22 51  1  0  0  0
 22 52  1  0  0  0
 27 53  1  0  0  0
 28 54  1  0  0  0
 30 55  1  0  0  0
 30 56  1  0  0  0
 31 57  1  0  0  0
 31 58  1  0  0  0
 33 59  1  0  0  0
M  END
$$$$
