5d29_ligand
  -I-interpret- 

 35 35  0  0  0  0  0  0  0  0999 V2000
   22.9210   46.3720   41.1920 C   0  0  0  0  0
   23.6900   45.8380   40.1380 C   0  0  0  0  0
   24.4330   44.6890   40.3990 C   0  0  0  0  0
   25.3230   44.0380   39.2920 C   0  0  0  0  0
   25.3450   44.5750   38.1670 O   0  0  0  0  0
   25.9830   43.0190   39.6410 O   0  0  0  0  0
   24.3910   44.0440   41.6220 C   0  0  0  0  0
   23.5850   44.5480   42.6690 C   0  0  0  0  0
   22.8860   45.7210   42.4220 C   0  0  0  0  0
   22.0580   46.3040   43.5720 C   0  0  0  0  0
   20.6410   45.6570   43.6710 C   0  0  0  0  0
   20.0350   46.2110   44.9980 C   0  0  0  0  0
   20.0290   45.4090   45.9870 O   0  0  0  0  0
   19.6390   47.4150   44.9540 O   0  0  0  0  0
   19.8300   46.1190   42.4590 C   0  0  0  0  0
   18.3320   45.7030   42.4570 C   0  0  0  0  0
   18.0450   44.2030   42.7360 C   0  0  0  0  0
   18.5440   43.1950   42.1290 O   0  0  0  0  0
   17.1240   44.0470   43.6780 N   0  0  0  0  0
   16.7870   42.7540   44.0780 O   0  0  0  0  0
   22.3554   47.2920   41.0443 H   0  0  0  0  0
   23.7027   46.3073   39.1543 H   0  0  0  0  0
   25.7864   42.8101   40.5571 H   0  0  0  0  0
   24.9825   43.1421   41.7796 H   0  0  0  0  0
   23.5158   44.0368   43.6292 H   0  0  0  0  0
   21.9300   47.3709   43.3889 H   0  0  0  0  0
   22.5865   46.1037   44.5040 H   0  0  0  0  0
   20.6519   44.5671   43.6764 H   0  0  0  0  0
   20.3925   44.5634   45.7141 H   0  0  0  0  0
   20.2832   45.6501   41.5856 H   0  0  0  0  0
   19.8492   47.2088   42.4702 H   0  0  0  0  0
   17.9583   45.9057   41.4533 H   0  0  0  0  0
   17.8570   46.2618   43.2634 H   0  0  0  0  0
   16.6711   44.8569   44.1015 H   0  0  0  0  0
   16.1130   42.7968   44.7603 H   0  0  0  0  0
  1  2  4  0  0  0
  1  9  4  0  0  0
  2  3  4  0  0  0
  3  4  1  0  0  0
  3  7  4  0  0  0
  4  5  2  0  0  0
  4  6  1  0  0  0
  7  8  4  0  0  0
  8  9  4  0  0  0
  9 10  1  0  0  0
 10 11  1  0  0  0
 11 12  1  0  0  0
 11 15  1  0  0  0
 12 13  1  0  0  0
 12 14  2  0  0  0
 15 16  1  0  0  0
 16 17  1  0  0  0
 17 18  2  0  0  0
 17 19  1  0  0  0
 19 20  1  0  0  0
  1 21  1  0  0  0
  2 22  1  0  0  0
  6 23  1  0  0  0
  7 24  1  0  0  0
  8 25  1  0  0  0
 10 26  1  0  0  0
 10 27  1  0  0  0
 11 28  1  0  0  0
 13 29  1  0  0  0
 15 30  1  0  0  0
 15 31  1  0  0  0
 16 32  1  0  0  0
 16 33  1  0  0  0
 19 34  1  0  0  0
 20 35  1  0  0  0
M  END
$$$$
