4fnz_ligand
  -I-interpret- 

 70 73  0  0  0  0  0  0  0  0999 V2000
   18.8820    8.4190   59.4410 C   0  0  0  0  0
   19.8870    8.5940   58.4000 O   0  0  0  0  0
   21.1900    8.6590   58.8600 C   0  0  0  0  0
   21.5500    9.6760   59.7590 C   0  0  0  0  0
   22.1670    7.7300   58.4400 C   0  0  0  0  0
   21.8740    6.7130   57.5720 O   0  0  0  0  0
   22.4030    6.9290   56.2460 C   0  0  0  0  0
   23.4650    7.8330   58.9320 C   0  0  0  0  0
   24.4410    6.9690   58.5580 O   0  0  0  0  0
   25.4000    6.8120   59.6110 C   0  0  0  0  0
   23.7940    8.8550   59.8100 C   0  0  0  0  0
   22.8600    9.7860   60.2290 C   0  0  0  0  0
   23.3120   10.7060   61.0950 N   0  0  0  0  0
   22.7410   11.8850   61.3970 C   0  0  0  0  0
   21.5780   12.2890   60.8620 N   0  0  0  0  0
   23.3810   12.6740   62.2870 N   0  0  0  0  0
   22.8910   13.8460   62.6610 C   0  0  0  0  0
   21.6870   14.2910   62.1250 C   0  0  0  0  0
   21.0370   13.4670   61.2070 C   0  0  0  0  0
   19.8180   13.8450   60.6310 N   0  0  0  0  0
   19.1340   15.0940   61.0190 C   0  0  0  0  0
   19.1270   12.9150   59.6990 C   0  0  0  0  0
   17.8070   12.5300   60.3570 C   0  0  0  0  0
   17.0220   13.7900   60.7290 C   0  0  0  0  0
   17.8240   14.7030   61.6850 C   0  0  0  0  0
   17.0120   15.9500   62.0920 C   0  0  0  0  0
   16.5540   16.7620   61.2830 O   0  0  0  0  0
   16.8590   16.0920   63.3910 N   0  0  0  0  0
   16.1190   17.2340   63.9340 C   0  0  0  0  0
   16.4320   17.3950   65.4140 C   0  0  0  0  0
   15.4130   17.4780   66.3600 C   0  0  0  0  0
   17.7580   17.4650   65.8000 C   0  0  0  0  0
   18.0740   17.6130   67.1420 C   0  0  0  0  0
   17.0780   17.6980   68.1000 C   0  0  0  0  0
   15.7510   17.6180   67.7060 C   0  0  0  0  0
   14.7880   17.7290   68.6510 O   0  0  0  0  0
   14.3600   16.5470   69.2690 C   0  0  0  0  0
   15.3540   16.0370   69.9990 F   0  0  0  0  0
   13.3760   16.9560   70.0720 F   0  0  0  0  0
   13.9040   15.6540   68.3540 F   0  0  0  0  0
   19.0743    7.4898   59.9774 H   0  0  0  0  0
   18.9303    9.2577   60.1356 H   0  0  0  0  0
   17.8924    8.3791   58.9858 H   0  0  0  0  0
   20.7967   10.3889   60.0943 H   0  0  0  0  0
   21.9833    7.8466   55.8338 H   0  0  0  0  0
   23.4882    7.0161   56.2989 H   0  0  0  0  0
   22.1354    6.0868   55.6078 H   0  0  0  0  0
   25.8491    7.7787   59.8388 H   0  0  0  0  0
   24.9021    6.4230   60.4992 H   0  0  0  0  0
   26.1758    6.1153   59.2933 H   0  0  0  0  0
   24.8167    8.9268   60.1802 H   0  0  0  0  0
   24.1840   10.4869   61.5767 H   0  0  0  0  0
   23.4282   14.4587   63.3849 H   0  0  0  0  0
   21.2649   15.2536   62.4136 H   0  0  0  0  0
   18.9482   15.7169   60.1441 H   0  0  0  0  0
   19.7537   15.6737   61.7031 H   0  0  0  0  0
   19.7374   12.0319   59.5101 H   0  0  0  0  0
   18.9540   13.3917   58.7341 H   0  0  0  0  0
   18.0104   11.9540   61.2598 H   0  0  0  0  0
   17.2188   11.9333   59.6598 H   0  0  0  0  0
   16.1047   13.4864   61.2335 H   0  0  0  0  0
   16.8148   14.3474   59.8155 H   0  0  0  0  0
   18.0365   14.1534   62.6020 H   0  0  0  0  0
   17.2591   15.4010   64.0257 H   0  0  0  0  0
   15.0498   17.0630   63.8085 H   0  0  0  0  0
   16.4134   18.1393   63.4030 H   0  0  0  0  0
   14.3680   17.4342   66.0533 H   0  0  0  0  0
   18.5501   17.4042   65.0537 H   0  0  0  0  0
   19.1194   17.6630   67.4465 H   0  0  0  0  0
   17.3341   17.8263   69.1517 H   0  0  0  0  0
  1  2  1  0  0  0
  2  3  1  0  0  0
  3  4  4  0  0  0
  3  5  4  0  0  0
  4 12  4  0  0  0
  5  6  1  0  0  0
  5  8  4  0  0  0
  6  7  1  0  0  0
  8  9  1  0  0  0
  8 11  4  0  0  0
  9 10  1  0  0  0
 11 12  4  0  0  0
 12 13  1  0  0  0
 13 14  1  0  0  0
 14 15  4  0  0  0
 14 16  4  0  0  0
 15 19  4  0  0  0
 16 17  4  0  0  0
 17 18  4  0  0  0
 18 19  4  0  0  0
 19 20  1  0  0  0
 20 21  1  0  0  0
 20 22  1  0  0  0
 21 25  1  0  0  0
 22 23  1  0  0  0
 23 24  1  0  0  0
 24 25  1  0  0  0
 25 26  1  0  0  0
 26 27  2  0  0  0
 26 28  1  0  0  0
 28 29  1  0  0  0
 29 30  1  0  0  0
 30 31  4  0  0  0
 30 32  4  0  0  0
 31 35  4  0  0  0
 32 33  4  0  0  0
 33 34  4  0  0  0
 34 35  4  0  0  0
 35 36  1  0  0  0
 36 37  1  0  0  0
 37 38  1  0  0  0
 37 39  1  0  0  0
 37 40  1  0  0  0
  1 41  1  0  0  0
  1 42  1  0  0  0
  1 43  1  0  0  0
  4 44  1  0  0  0
  7 45  1  0  0  0
  7 46  1  0  0  0
  7 47  1  0  0  0
 10 48  1  0  0  0
 10 49  1  0  0  0
 10 50  1  0  0  0
 11 51  1  0  0  0
 13 52  1  0  0  0
 17 53  1  0  0  0
 18 54  1  0  0  0
 21 55  1  0  0  0
 21 56  1  0  0  0
 22 57  1  0  0  0
 22 58  1  0  0  0
 23 59  1  0  0  0
 23 60  1  0  0  0
 24 61  1  0  0  0
 24 62  1  0  0  0
 25 63  1  0  0  0
 28 64  1  0  0  0
 29 65  1  0  0  0
 29 66  1  0  0  0
 31 67  1  0  0  0
 32 68  1  0  0  0
 33 69  1  0  0  0
 34 70  1  0  0  0
M  END
$$$$
