3qi3_ligand
  -I-interpret- 

 39 41  0  0  0  0  0  0  0  0999 V2000
   77.7530   49.8720   40.4330 C   0  0  0  0  0
   78.3200   49.7770   39.1670 C   0  0  0  0  0
   79.5860   50.2980   38.9240 C   0  0  0  0  0
   80.2840   50.9180   39.9550 C   0  0  0  0  0
   71.9380   55.1500   41.7410 F   0  0  0  0  0
   79.7160   51.0130   41.2200 C   0  0  0  0  0
   72.7550   54.3990   39.8150 F   0  0  0  0  0
   78.4500   50.4900   41.4690 C   0  0  0  0  0
   73.4750   56.3280   40.6490 F   0  0  0  0  0
   77.9510   50.5690   42.7180 N   0  0  0  0  0
   78.5600   50.1790   43.7440 N   0  0  0  0  0
   77.8850   50.4810   44.8730 C   0  0  0  0  0
   76.7880   51.1600   43.0810 C   0  0  0  0  0
   76.7260   51.1280   44.4660 C   0  0  0  0  0
   75.7800   51.7450   42.3810 N   0  0  0  0  0
   74.7170   52.3010   43.0270 C   0  0  0  0  0
   74.6420   52.2830   44.3870 N   0  0  0  0  0
   75.6460   51.6990   45.1290 C   0  0  0  0  0
   75.6080   51.7390   46.3590 O   0  0  0  0  0
   73.6240   52.9930   42.2320 C   0  0  0  0  0
   74.1510   54.3360   41.7200 C   0  0  0  0  0
   75.3300   54.0870   40.7780 C   0  0  0  0  0
   73.0470   55.0730   40.9590 C   0  0  0  0  0
   76.1860   49.2170   40.6950 C   0  0  0  0  0
   77.7694   49.2917   38.3611 H   0  0  0  0  0
   80.0290   50.2210   37.9311 H   0  0  0  0  0
   81.2765   51.3294   39.7709 H   0  0  0  0  0
   80.2666   51.5012   42.0241 H   0  0  0  0  0
   78.1883   50.2615   45.8967 H   0  0  0  0  0
   73.8404   52.7030   44.8576 H   0  0  0  0  0
   72.7557   53.1588   42.8697 H   0  0  0  0  0
   73.3324   52.3677   41.3882 H   0  0  0  0  0
   74.4716   54.9430   42.5666 H   0  0  0  0  0
   76.1202   53.5646   41.3172 H   0  0  0  0  0
   74.9989   53.4783   39.9366 H   0  0  0  0  0
   75.7082   55.0412   40.4112 H   0  0  0  0  0
   75.4720   49.7121   40.0369 H   0  0  0  0  0
   76.1997   48.1485   40.4802 H   0  0  0  0  0
   75.8960   49.3764   41.7335 H   0  0  0  0  0
  1  2  4  0  0  0
  8  1  4  0  0  0
  1 24  1  0  0  0
  2  3  4  0  0  0
  4  3  4  0  0  0
  6  4  4  0  0  0
 23  5  1  0  0  0
  8  6  4  0  0  0
 23  7  1  0  0  0
 10  8  1  0  0  0
 23  9  1  0  0  0
 10 11  4  0  0  0
 13 10  4  0  0  0
 12 11  4  0  0  0
 14 12  4  0  0  0
 13 14  4  0  0  0
 15 13  1  0  0  0
 18 14  1  0  0  0
 16 15  2  0  0  0
 16 17  1  0  0  0
 20 16  1  0  0  0
 17 18  1  0  0  0
 18 19  2  0  0  0
 21 20  1  0  0  0
 21 22  1  0  0  0
 21 23  1  0  0  0
  2 25  1  0  0  0
  3 26  1  0  0  0
  4 27  1  0  0  0
  6 28  1  0  0  0
 12 29  1  0  0  0
 17 30  1  0  0  0
 20 31  1  0  0  0
 20 32  1  0  0  0
 21 33  1  0  0  0
 22 34  1  0  0  0
 22 35  1  0  0  0
 22 36  1  0  0  0
 24 37  1  0  0  0
 24 38  1  0  0  0
 24 39  1  0  0  0
M  END
$$$$
