4xv1_ligand
  -I-interpret- 

 57 61  0  0  0  0  0  0  0  0999 V2000
   -4.7630   -3.7700  -20.4290 S   0  0  0  0  0
    2.2400   -1.6970  -19.5810 C   0  0  0  0  0
    1.4600   -2.0910  -20.7420 C   0  0  0  0  0
    0.0050   -1.8840  -20.7420 C   0  0  0  0  0
    3.6610   -1.7540  -19.4210 C   0  0  0  0  0
   -3.0720   -3.9530  -20.5990 N   0  0  0  0  0
    1.7360   -1.1910  -18.3990 C   0  0  0  0  0
   -2.2370   -2.7900  -20.6710 C   0  0  0  0  0
   -0.8580   -2.9710  -20.6740 C   0  0  0  0  0
    3.9510   -1.2780  -18.1520 C   0  0  0  0  0
    2.7770   -0.9430  -17.5490 N   0  0  0  0  0
    9.4840   -3.1880  -21.8710 C   0  0  0  0  0
    4.7570   -2.1570  -20.2080 C   0  0  0  0  0
    5.1550   -1.1530  -17.5810 N   0  0  0  0  0
    9.5310   -2.0580  -21.1360 N   0  0  0  0  0
    8.3910   -3.9790  -21.9450 N   0  0  0  0  0
   10.7120   -3.5780  -22.6460 C   0  0  0  0  0
    6.0550   -2.0590  -19.6840 C   0  0  0  0  0
   -4.9130   -3.0280  -18.8960 N   0  0  0  0  0
   12.0250   -3.7670  -21.9280 C   0  0  0  0  0
   11.8300   -2.5800  -22.8190 C   0  0  0  0  0
    7.2420   -2.4580  -20.4490 C   0  0  0  0  0
   -0.5210   -0.5990  -20.8090 C   0  0  0  0  0
   -5.3250   -5.1020  -20.3430 O   0  0  0  0  0
   -5.2720   -2.8650  -21.4330 O   0  0  0  0  0
    1.9600   -2.6030  -21.7330 O   0  0  0  0  0
    7.3070   -3.5950  -21.2350 C   0  0  0  0  0
    8.4160   -1.7280  -20.4490 C   0  0  0  0  0
    6.1630   -1.5560  -18.3860 C   0  0  0  0  0
   -2.7540   -1.4960  -20.7400 C   0  0  0  0  0
   -1.8940   -0.3990  -20.8090 C   0  0  0  0  0
   -0.3590   -4.2080  -20.6090 F   0  0  0  0  0
    0.2870    0.4630  -20.8760 F   0  0  0  0  0
   -4.3660   -3.6710  -17.6740 C   0  0  0  0  0
   -5.9880   -2.0470  -18.6380 C   0  0  0  0  0
   -4.1540   -2.6850  -16.5440 C   0  0  0  0  0
   -2.6594   -4.8845  -20.6489 H   0  0  0  0  0
    0.6823   -1.0180  -18.1802 H   0  0  0  0  0
    4.5985   -2.5417  -21.2154 H   0  0  0  0  0
   10.1045   -4.1862  -23.3162 H   0  0  0  0  0
   12.7612   -4.5549  -21.7688 H   0  0  0  0  0
   12.3796   -3.9800  -20.9195 H   0  0  0  0  0
   11.9721   -1.5000  -22.7813 H   0  0  0  0  0
   12.3537   -2.0747  -23.6305 H   0  0  0  0  0
    6.4200   -4.2265  -21.2851 H   0  0  0  0  0
    8.4439   -0.8180  -19.8497 H   0  0  0  0  0
    7.1706   -1.4800  -17.9772 H   0  0  0  0  0
   -3.8330   -1.3413  -20.7400 H   0  0  0  0  0
   -2.2995    0.6113  -20.8627 H   0  0  0  0  0
   -3.3987   -4.1051  -17.9270 H   0  0  0  0  0
   -5.0844   -4.4184  -17.3374 H   0  0  0  0  0
   -6.8198   -2.5442  -18.1390 H   0  0  0  0  0
   -5.6051   -1.2494  -18.0014 H   0  0  0  0  0
   -6.3291   -1.6265  -19.5840 H   0  0  0  0  0
   -3.4507   -1.9155  -16.8621 H   0  0  0  0  0
   -5.1062   -2.2232  -16.2830 H   0  0  0  0  0
   -3.7531   -3.2092  -15.6765 H   0  0  0  0  0
  6  1  1  0  0  0
  1 19  1  0  0  0
  1 24  2  0  0  0
  1 25  2  0  0  0
  2  3  1  0  0  0
  5  2  4  0  0  0
  2  7  4  0  0  0
  3  4  1  0  0  0
  3 26  2  0  0  0
  4  9  4  0  0  0
  4 23  4  0  0  0
  5 10  4  0  0  0
 13  5  4  0  0  0
  8  6  1  0  0  0
 11  7  4  0  0  0
  9  8  4  0  0  0
  8 30  4  0  0  0
  9 32  1  0  0  0
 10 11  4  0  0  0
 14 10  4  0  0  0
 12 15  4  0  0  0
 16 12  4  0  0  0
 12 17  1  0  0  0
 18 13  4  0  0  0
 29 14  4  0  0  0
 15 28  4  0  0  0
 27 16  4  0  0  0
 17 20  1  0  0  0
 17 21  1  0  0  0
 22 18  1  0  0  0
 18 29  4  0  0  0
 19 34  1  0  0  0
 19 35  1  0  0  0
 21 20  1  0  0  0
 22 27  4  0  0  0
 22 28  4  0  0  0
 23 31  4  0  0  0
 23 33  1  0  0  0
 30 31  4  0  0  0
 34 36  1  0  0  0
  6 37  1  0  0  0
  7 38  1  0  0  0
 13 39  1  0  0  0
 17 40  1  0  0  0
 20 41  1  0  0  0
 20 42  1  0  0  0
 21 43  1  0  0  0
 21 44  1  0  0  0
 27 45  1  0  0  0
 28 46  1  0  0  0
 29 47  1  0  0  0
 30 48  1  0  0  0
 31 49  1  0  0  0
 34 50  1  0  0  0
 34 51  1  0  0  0
 35 52  1  0  0  0
 35 53  1  0  0  0
 35 54  1  0  0  0
 36 55  1  0  0  0
 36 56  1  0  0  0
 36 57  1  0  0  0
M  END
$$$$
