4ylj_ligand
  -I-interpret- 

 29 32  0  0  0  0  0  0  0  0999 V2000
    9.8000    9.9100   24.2540 C   0  0  0  0  0
   10.7670    9.5840   23.3300 C   0  0  0  0  0
    9.6740    9.2210   25.4520 C   0  0  0  0  0
    7.9440   11.2600   24.8820 N   0  0  0  0  0
    8.7350    9.5780   26.3830 C   0  0  0  0  0
    8.9360    8.6710   27.5060 C   0  0  0  0  0
    8.2730    8.5550   28.7110 C   0  0  0  0  0
    8.6840    7.5410   29.6060 C   0  0  0  0  0
    9.7470    6.6770   29.2840 C   0  0  0  0  0
   10.3850    6.8140   28.0620 C   0  0  0  0  0
    9.9870    7.8070   27.1790 C   0  0  0  0  0
    7.8550   10.6200   26.0770 C   0  0  0  0  0
    6.8090   11.1610   26.9320 C   0  0  0  0  0
   11.9610    5.5680   27.5840 I   0  0  0  0  0
   10.4180    8.1630   25.9200 N   0  0  0  0  0
    5.8590   11.8720   26.3050 O   0  0  0  0  0
    6.8820   11.0540   28.1450 O   0  0  0  0  0
    8.8980   10.9250   23.9800 C   0  0  0  0  0
   10.8370   10.2760   22.1380 C   0  0  0  0  0
    9.9520   11.3070   21.8780 C   0  0  0  0  0
    8.9770   11.6240   22.7990 C   0  0  0  0  0
   11.4750    8.7820   23.5391 H   0  0  0  0  0
    7.4540    9.2276   28.9658 H   0  0  0  0  0
    8.1696    7.4266   30.5602 H   0  0  0  0  0
   10.0649    5.9083   29.9884 H   0  0  0  0  0
    5.9941   11.8176   25.3561 H   0  0  0  0  0
   11.5923   10.0093   21.3988 H   0  0  0  0  0
   10.0257   11.8677   20.9462 H   0  0  0  0  0
    8.2700   12.4272   22.5914 H   0  0  0  0  0
  1  2  4  0  0  0
  1  3  4  0  0  0
 18  1  4  0  0  0
  2 19  4  0  0  0
  3  5  4  0  0  0
  3 15  4  0  0  0
  4 12  4  0  0  0
  4 18  4  0  0  0
  5  6  4  0  0  0
  5 12  4  0  0  0
  6  7  4  0  0  0
  6 11  4  0  0  0
  7  8  4  0  0  0
  8  9  4  0  0  0
  9 10  4  0  0  0
 10 11  4  0  0  0
 10 14  1  0  0  0
 11 15  4  0  0  0
 12 13  1  0  0  0
 13 16  1  0  0  0
 13 17  2  0  0  0
 18 21  4  0  0  0
 19 20  4  0  0  0
 20 21  4  0  0  0
  2 22  1  0  0  0
  7 23  1  0  0  0
  8 24  1  0  0  0
  9 25  1  0  0  0
 16 26  1  0  0  0
 19 27  1  0  0  0
 20 28  1  0  0  0
 21 29  1  0  0  0
M  END
$$$$
