2yln_ligand
  -I-interpret- 

 15 14  0  0  0  0  0  0  0  0999 V2000
    8.9780    2.6370   -2.0130 N   0  3  0  0  0
    7.5870    2.8690   -1.5720 C   0  0  0  0  0
    7.3350    4.3570   -1.3250 C   0  0  0  0  0
    8.3200    5.0330   -0.9570 O   0  0  0  0  0
    7.2870    2.1000   -0.2820 C   0  0  0  0  0
    7.4230    0.3220   -0.4480 S   0  0  0  0  0
    6.1700    4.7800   -1.4640 O   0  0  0  0  0
    9.1526    3.1587   -2.8719 H   0  0  0  0  0
    9.6208    2.9515   -1.2861 H   0  0  0  0  0
    9.1175    1.6412   -2.1843 H   0  0  0  0  0
    6.9318    2.5149   -2.3678 H   0  0  0  0  0
    9.0993    4.4730   -0.9311 H   0  0  0  0  0
    6.2564    2.3216   -0.0050 H   0  0  0  0  0
    8.0214    2.4132    0.4601 H   0  0  0  0  0
    7.1454   -0.2531    0.7187 H   0  0  0  0  0
  1  2  1  0  0  0
  2  3  1  0  0  0
  2  5  1  0  0  0
  3  4  1  0  0  0
  3  7  2  0  0  0
  5  6  1  0  0  0
  1  8  1  0  0  0
  1  9  1  0  0  0
  1 10  1  0  0  0
  2 11  1  0  0  0
  4 12  1  0  0  0
  5 13  1  0  0  0
  5 14  1  0  0  0
  6 15  1  0  0  0
M  END
$$$$
