2j4z_ligand
  -I-interpret- 

 58 62  0  0  0  0  0  0  0  0999 V2000
   43.2880   49.6920   17.8900 C   0  0  0  0  0
   44.2440   49.3480   17.1880 O   0  0  0  0  0
   42.1820   50.2990   17.3360 N   0  0  0  0  0
   39.8830   51.6260   14.8130 N   0  0  0  0  0
   38.8920   51.8500   16.7730 C   0  0  0  0  0
   38.7740   52.0380   15.5080 N   0  0  0  0  0
   37.8270   52.2310   17.6960 N   0  0  0  0  0
   37.7260   52.1610   19.0560 C   0  0  0  0  0
   36.4630   52.6220   19.7430 C   0  0  0  0  0
   38.6560   51.7240   19.7280 O   0  0  0  0  0
   35.3170   53.1510   19.0750 C   0  0  0  0  0
   34.1780   53.5430   19.8020 C   0  0  0  0  0
   35.2910   52.8940   21.8880 C   0  0  0  0  0
   36.4250   52.5060   21.1670 C   0  0  0  0  0
   40.6850   51.1640   15.8400 C   0  0  0  0  0
   40.0510   51.2910   17.1030 C   0  0  0  0  0
   40.9870   50.7450   18.1220 C   0  0  0  0  0
   42.0550   50.5590   15.8640 C   0  0  0  0  0
   32.9210   53.8240   22.0180 N   0  0  0  0  0
   32.6940   53.2840   23.4290 C   0  0  0  0  0
   31.2160   53.1950   23.9100 C   0  0  0  0  0
   30.2230   53.3100   22.7910 N   0  3  0  0  0
   30.4030   54.5050   21.8920 C   0  0  0  0  0
   31.8760   54.7840   21.4550 C   0  0  0  0  0
   28.8320   53.2220   23.3170 C   0  0  0  0  0
   34.1360   53.4210   21.2300 C   0  0  0  0  0
   41.4530   45.8970   19.5050 C   0  0  0  0  0
   40.8760   46.6880   20.4680 C   0  0  0  0  0
   42.7160   46.7230   18.6860 S   0  0  0  0  0
   41.4440   47.9610   20.5580 C   0  0  0  0  0
   42.4540   48.1200   19.6560 C   0  0  0  0  0
   43.3250   49.3760   19.4090 C   0  0  0  0  0
   37.0036   52.6232   17.2392 H   0  0  0  0  0
   35.3248   53.2522   17.9897 H   0  0  0  0  0
   33.3148   53.9454   19.2718 H   0  0  0  0  0
   35.2876   52.7926   22.9733 H   0  0  0  0  0
   37.2908   52.1101   21.6979 H   0  0  0  0  0
   41.2485   51.4882   18.8752 H   0  0  0  0  0
   40.5420   49.9262   18.6873 H   0  0  0  0  0
   42.1758   49.6783   15.2332 H   0  0  0  0  0
   42.8389   51.1883   15.4427 H   0  0  0  0  0
   33.1889   53.9834   24.1028 H   0  0  0  0  0
   33.0720   52.2616   23.4251 H   0  0  0  0  0
   31.0405   54.0251   24.5943 H   0  0  0  0  0
   31.0780   52.2190   24.3754 H   0  0  0  0  0
   30.4078   52.5126   22.1824 H   0  0  0  0  0
   30.0710   55.3767   22.4560 H   0  0  0  0  0
   29.8371   54.3034   20.9825 H   0  0  0  0  0
   31.9046   54.6733   20.3710 H   0  0  0  0  0
   32.1294   55.7748   21.8320 H   0  0  0  0  0
   28.6939   52.2632   23.8168 H   0  0  0  0  0
   28.6616   54.0312   24.0271 H   0  0  0  0  0
   28.1264   53.3074   22.4906 H   0  0  0  0  0
   41.1476   44.8734   19.2879 H   0  0  0  0  0
   40.0539   46.3545   21.1012 H   0  0  0  0  0
   41.1208   48.7296   21.2601 H   0  0  0  0  0
   42.9391   50.2208   19.9795 H   0  0  0  0  0
   44.3501   49.1935   19.7314 H   0  0  0  0  0
  1  2  2  0  0  0
  1  3  1  0  0  0
 32  1  1  0  0  0
  3 17  1  0  0  0
  3 18  1  0  0  0
  4  6  4  0  0  0
 15  4  4  0  0  0
  5  6  4  0  0  0
  5  7  1  0  0  0
 16  5  4  0  0  0
  7  8  1  0  0  0
  8  9  1  0  0  0
  8 10  2  0  0  0
  9 11  4  0  0  0
  9 14  4  0  0  0
 11 12  4  0  0  0
 12 26  4  0  0  0
 14 13  4  0  0  0
 13 26  4  0  0  0
 15 16  4  0  0  0
 18 15  1  0  0  0
 17 16  1  0  0  0
 19 20  1  0  0  0
 19 24  1  0  0  0
 26 19  1  0  0  0
 20 21  1  0  0  0
 21 22  1  0  0  0
 23 22  1  0  0  0
 22 25  1  0  0  0
 24 23  1  0  0  0
 28 27  4  0  0  0
 29 27  4  0  0  0
 30 28  4  0  0  0
 31 29  4  0  0  0
 31 30  4  0  0  0
 31 32  1  0  0  0
  7 33  1  0  0  0
 11 34  1  0  0  0
 12 35  1  0  0  0
 13 36  1  0  0  0
 14 37  1  0  0  0
 17 38  1  0  0  0
 17 39  1  0  0  0
 18 40  1  0  0  0
 18 41  1  0  0  0
 20 42  1  0  0  0
 20 43  1  0  0  0
 21 44  1  0  0  0
 21 45  1  0  0  0
 22 46  1  0  0  0
 23 47  1  0  0  0
 23 48  1  0  0  0
 24 49  1  0  0  0
 24 50  1  0  0  0
 25 51  1  0  0  0
 25 52  1  0  0  0
 25 53  1  0  0  0
 27 54  1  0  0  0
 28 55  1  0  0  0
 30 56  1  0  0  0
 32 57  1  0  0  0
 32 58  1  0  0  0
M  END
$$$$
