2bmv_ligand
  -I-interpret- 

 17 17  0  0  0  0  0  0  0  0999 V2000
   19.8070   36.4260   39.1770 C   0  0  0  0  0
   19.6100   37.2280   38.0720 C   0  0  0  0  0
   18.3360   37.3430   37.5360 C   0  0  0  0  0
   17.2580   36.6600   38.0930 C   0  0  0  0  0
   17.4730   35.8650   39.2050 C   0  0  0  0  0
   18.7420   35.7460   39.7510 C   0  0  0  0  0
   21.1680   36.2800   39.7800 C   0  0  0  0  0
   21.8730   37.2780   40.0710 N   0  0  0  0  0
   21.6360   35.0660   39.9750 N   0  0  0  0  0
   20.4464   37.7654   37.6251 H   0  0  0  0  0
   18.1761   37.9782   36.6648 H   0  0  0  0  0
   16.2616   36.7500   37.6604 H   0  0  0  0  0
   16.6381   35.3280   39.6553 H   0  0  0  0  0
   18.9027   35.1200   40.6287 H   0  0  0  0  0
   22.8075   37.1468   40.4581 H   0  0  0  0  0
   22.5706   34.9358   40.3622 H   0  0  0  0  0
   21.0642   34.2550   39.7390 H   0  0  0  0  0
  1  2  4  0  0  0
  1  6  4  0  0  0
  1  7  1  0  0  0
  2  3  4  0  0  0
  3  4  4  0  0  0
  4  5  4  0  0  0
  5  6  4  0  0  0
  7  8  2  0  0  0
  7  9  1  0  0  0
  2 10  1  0  0  0
  3 11  1  0  0  0
  4 12  1  0  0  0
  5 13  1  0  0  0
  6 14  1  0  0  0
  8 15  1  0  0  0
  9 16  1  0  0  0
  9 17  1  0  0  0
M  END
$$$$
