1k08_ligand
  -I-interpret- 

 41 42  0  0  0  0  0  0  0  0999 V2000
   33.0340   21.4550   28.3080 O   0  0  0  0  0
   33.2180   22.8720   28.0120 C   0  0  0  0  0
   33.6690   23.0910   26.5230 C   0  0  0  0  0
   33.8610   24.4910   26.2670 O   0  0  0  0  0
   32.5700   22.4860   25.5930 C   0  0  0  0  0
   32.9420   22.6730   24.2170 O   0  0  0  0  0
   32.4250   20.9850   25.9410 C   0  0  0  0  0
   31.4160   20.4120   25.0930 O   0  0  0  0  0
   32.0500   20.8360   27.4520 C   0  0  0  0  0
   31.9300   19.3510   27.8850 C   0  0  0  0  0
   33.1280   18.6500   27.5000 O   0  0  0  0  0
   34.1870   23.4130   28.9550 N   0  0  0  0  0
   33.7740   24.0780   30.0800 C   0  0  0  0  0
   32.5540   24.2070   30.2650 O   0  0  0  0  0
   34.6780   24.5900   30.9740 N   0  0  0  0  0
   34.3860   25.2680   32.1370 C   0  0  0  0  0
   33.2320   25.5070   32.5170 O   0  0  0  0  0
   35.5100   25.7640   33.0240 C   0  0  0  0  0
   36.7370   26.2540   32.4820 C   0  0  0  0  0
   37.7770   26.7080   33.3360 C   0  0  0  0  0
   37.6040   26.6690   34.7490 C   0  0  0  0  0
   36.3900   26.1830   35.3040 C   0  0  0  0  0
   35.3490   25.7290   34.4460 C   0  0  0  0  0
   32.2707   23.3995   28.1236 H   0  0  0  0  0
   34.6197   22.5940   26.3301 H   0  0  0  0  0
   34.5407   24.8320   26.8529 H   0  0  0  0  0
   31.6125   22.9846   25.7437 H   0  0  0  0  0
   33.0236   23.6118   24.0335 H   0  0  0  0  0
   33.3643   20.4580   25.7735 H   0  0  0  0  0
   31.6735   20.5185   24.1743 H   0  0  0  0  0
   31.0850   21.3312   27.5596 H   0  0  0  0  0
   31.0666   18.8959   27.3996 H   0  0  0  0  0
   31.8025   19.2932   28.9660 H   0  0  0  0  0
   33.0586   17.7302   27.7659 H   0  0  0  0  0
   35.1843   23.2957   28.7762 H   0  0  0  0  0
   35.6654   24.4556   30.7564 H   0  0  0  0  0
   36.8768   26.2798   31.4013 H   0  0  0  0  0
   38.7066   27.0859   32.9104 H   0  0  0  0  0
   38.4038   27.0123   35.4052 H   0  0  0  0  0
   36.2559   26.1578   36.3854 H   0  0  0  0  0
   34.4211   25.3514   34.8755 H   0  0  0  0  0
  1  2  1  0  0  0
  1  9  1  0  0  0
  2  3  1  0  0  0
  2 12  1  0  0  0
  3  4  1  0  0  0
  3  5  1  0  0  0
  5  6  1  0  0  0
  5  7  1  0  0  0
  7  8  1  0  0  0
  7  9  1  0  0  0
  9 10  1  0  0  0
 10 11  1  0  0  0
 12 13  1  0  0  0
 13 14  2  0  0  0
 13 15  1  0  0  0
 15 16  1  0  0  0
 16 17  2  0  0  0
 16 18  1  0  0  0
 18 19  4  0  0  0
 18 23  4  0  0  0
 19 20  4  0  0  0
 20 21  4  0  0  0
 21 22  4  0  0  0
 22 23  4  0  0  0
  2 24  1  0  0  0
  3 25  1  0  0  0
  4 26  1  0  0  0
  5 27  1  0  0  0
  6 28  1  0  0  0
  7 29  1  0  0  0
  8 30  1  0  0  0
  9 31  1  0  0  0
 10 32  1  0  0  0
 10 33  1  0  0  0
 11 34  1  0  0  0
 12 35  1  0  0  0
 15 36  1  0  0  0
 19 37  1  0  0  0
 20 38  1  0  0  0
 21 39  1  0  0  0
 22 40  1  0  0  0
 23 41  1  0  0  0
M  END
$$$$
