3oxz_ligand
  -I-interpret- 

 68 72  0  0  0  0  0  0  0  0999 V2000
   16.2310   -9.9090    7.9150 N   0  0  0  0  0
   12.9000   -5.1270   23.2000 N   0  3  0  0  0
   17.3260   -9.9860   12.5720 C   0  0  0  0  0
   17.2980  -10.2030   14.0150 C   0  0  0  0  0
   17.8810  -11.3660   14.6810 C   0  0  0  0  0
   17.7750  -11.4770   16.1130 C   0  0  0  0  0
   17.1060  -10.4650   16.8650 C   0  0  0  0  0
   16.6420   -9.2130   14.7850 C   0  0  0  0  0
   14.7600   -7.7420   19.1280 C   0  0  0  0  0
   14.1970   -7.0990   21.4420 C   0  0  0  0  0
   12.6950   -6.3770   19.5660 C   0  0  0  0  0
   12.1430   -5.7110   22.0850 C   0  0  0  0  0
   13.8140   -4.0230   22.7780 C   0  0  0  0  0
   14.6900   -3.5660   23.9660 C   0  0  0  0  0
   12.0190   -4.6430   24.2810 C   0  0  0  0  0
   17.8810   -8.3560    6.7910 C   0  0  0  0  0
   18.9680   -7.5460    7.0730 C   0  0  0  0  0
   19.4380   -7.4590    8.4160 C   0  0  0  0  0
   18.9160   -8.1000    9.4720 N   0  0  0  0  0
   17.8350   -8.8910    9.1390 N   0  0  0  0  0
   17.2570   -9.0790    7.8570 C   0  0  0  0  0
   16.1200  -10.2720    9.2430 C   0  0  0  0  0
   17.0820   -9.6650    9.9810 C   0  0  0  0  0
   17.2530   -9.8180   11.3670 C   0  0  0  0  0
   16.5350   -9.3160   16.1960 C   0  0  0  0  0
   18.6010  -12.4810   13.9240 C   0  0  0  0  0
   15.8260   -8.2210   16.9350 C   0  0  0  0  0
   15.4400   -7.2170   16.3280 O   0  0  0  0  0
   15.6540   -8.4150   18.2560 N   0  0  0  0  0
   15.0600   -7.7600   20.5120 C   0  0  0  0  0
   13.0080   -6.3980   21.0010 C   0  0  0  0  0
   13.5810   -7.0510   18.6710 C   0  0  0  0  0
   11.4650   -5.6670   18.9560 C   0  0  0  0  0
   11.6320   -4.3580   19.0130 F   0  0  0  0  0
   11.2790   -5.9720   17.6740 F   0  0  0  0  0
   10.3470   -6.0030   19.6050 F   0  0  0  0  0
   12.8390   -4.0700   25.4790 C   0  0  0  0  0
   14.6190   -2.5080   26.1490 C   0  0  0  0  0
   13.8310   -3.0380   25.0450 N   0  3  0  0  0
   13.4729   -5.8931   23.5540 H   0  0  0  0  0
   18.2073  -12.3371   16.6244 H   0  0  0  0  0
   17.0249  -10.5581   17.9480 H   0  0  0  0  0
   16.2079   -8.3494   14.2811 H   0  0  0  0  0
   14.4389   -7.1232   22.5045 H   0  0  0  0  0
   11.6167   -4.8909   21.5965 H   0  0  0  0  0
   11.4983   -6.4806   22.5095 H   0  0  0  0  0
   13.2163   -3.1796   22.4322 H   0  0  0  0  0
   14.4605   -4.3834   21.9779 H   0  0  0  0  0
   15.3717   -2.7838   23.6319 H   0  0  0  0  0
   15.2603   -4.4155   24.3417 H   0  0  0  0  0
   11.4241   -5.4822   24.6415 H   0  0  0  0  0
   11.3907   -3.8466   23.8821 H   0  0  0  0  0
   17.5057   -8.4418    5.7713 H   0  0  0  0  0
   19.4577   -6.9825    6.2788 H   0  0  0  0  0
   20.2975   -6.8146    8.6009 H   0  0  0  0  0
   15.3657  -10.9505    9.6414 H   0  0  0  0  0
   17.9135  -12.9378   13.2121 H   0  0  0  0  0
   19.4546  -12.0634   13.3900 H   0  0  0  0  0
   18.9468  -13.2344   14.6318 H   0  0  0  0  0
   16.2382   -9.1342   18.6823 H   0  0  0  0  0
   15.9499   -8.2783   20.8692 H   0  0  0  0  0
   13.3573   -7.0423   17.6042 H   0  0  0  0  0
   13.3860   -4.8929   25.9391 H   0  0  0  0  0
   12.1418   -3.5989   26.1719 H   0  0  0  0  0
   15.2423   -3.3009   26.5624 H   0  0  0  0  0
   15.2521   -1.6984   25.7860 H   0  0  0  0  0
   13.9503   -2.1294   26.9221 H   0  0  0  0  0
   13.3000   -2.2482   24.6780 H   0  0  0  0  0
  1 21  4  0  0  0
 22  1  4  0  0  0
 12  2  1  0  0  0
  2 13  1  0  0  0
  2 15  1  0  0  0
  4  3  1  0  0  0
  3 24  3  0  0  0
  4  5  4  0  0  0
  8  4  4  0  0  0
  6  5  4  0  0  0
  5 26  1  0  0  0
  7  6  4  0  0  0
 25  7  4  0  0  0
 25  8  4  0  0  0
 29  9  1  0  0  0
  9 30  4  0  0  0
  9 32  4  0  0  0
 30 10  4  0  0  0
 10 31  4  0  0  0
 11 31  4  0  0  0
 32 11  4  0  0  0
 11 33  1  0  0  0
 31 12  1  0  0  0
 13 14  1  0  0  0
 14 39  1  0  0  0
 15 37  1  0  0  0
 16 17  4  0  0  0
 21 16  4  0  0  0
 18 17  4  0  0  0
 19 18  4  0  0  0
 20 19  4  0  0  0
 20 21  4  0  0  0
 23 20  4  0  0  0
 23 22  4  0  0  0
 24 23  1  0  0  0
 27 25  1  0  0  0
 27 28  2  0  0  0
 27 29  1  0  0  0
 33 34  1  0  0  0
 33 35  1  0  0  0
 33 36  1  0  0  0
 37 39  1  0  0  0
 39 38  1  0  0  0
  2 40  1  0  0  0
  6 41  1  0  0  0
  7 42  1  0  0  0
  8 43  1  0  0  0
 10 44  1  0  0  0
 12 45  1  0  0  0
 12 46  1  0  0  0
 13 47  1  0  0  0
 13 48  1  0  0  0
 14 49  1  0  0  0
 14 50  1  0  0  0
 15 51  1  0  0  0
 15 52  1  0  0  0
 16 53  1  0  0  0
 17 54  1  0  0  0
 18 55  1  0  0  0
 22 56  1  0  0  0
 26 57  1  0  0  0
 26 58  1  0  0  0
 26 59  1  0  0  0
 29 60  1  0  0  0
 30 61  1  0  0  0
 32 62  1  0  0  0
 37 63  1  0  0  0
 37 64  1  0  0  0
 38 65  1  0  0  0
 38 66  1  0  0  0
 38 67  1  0  0  0
 39 68  1  0  0  0
M  END
$$$$
