### 
### Created by X-TOOL on Mon Sep 10 21:13:04 2018
### 

@<TRIPOS>MOLECULE
3oxz_ligand
   66    70     1     0     0
SMALL
GAST_HUCK


@<TRIPOS>ATOM
      1 N1         16.2310   -9.9090    7.9150 N.2       1 0LI        -0.3247
      2 N3         12.9000   -5.1270   23.2000 N.4       1 0LI         0.4074
      3 C4         17.3260   -9.9860   12.5720 C.1       1 0LI        -0.0766
      4 C5         17.2980  -10.2030   14.0150 C.ar      1 0LI         0.0257
      5 C6         17.8810  -11.3660   14.6810 C.ar      1 0LI        -0.0273
      6 C7         17.7750  -11.4770   16.1130 C.ar      1 0LI        -0.0547
      7 C8         17.1060  -10.4650   16.8650 C.ar      1 0LI        -0.0494
      8 C10        16.6420   -9.2130   14.7850 C.ar      1 0LI        -0.0347
      9 C13        14.7600   -7.7420   19.1280 C.ar      1 0LI         0.0879
     10 C15        14.1970   -7.0990   21.4420 C.ar      1 0LI        -0.0387
     11 C17        12.6950   -6.3770   19.5660 C.ar      1 0LI         0.0316
     12 C20        12.1430   -5.7110   22.0850 C.3       1 0LI        -0.0642
     13 C21        13.8140   -4.0230   22.7780 C.3       1 0LI        -0.1285
     14 C22        14.6900   -3.5660   23.9660 C.3       1 0LI        -0.1323
     15 C24        12.0190   -4.6430   24.2810 C.3       1 0LI        -0.1285
     16 C81        17.8810   -8.3560    6.7910 C.2       1 0LI         0.0052
     17 C82        18.9680   -7.5460    7.0730 C.2       1 0LI        -0.0245
     18 C83        19.4380   -7.4590    8.4160 C.2       1 0LI         0.0552
     19 N81        18.9160   -8.1000    9.4720 N.2       1 0LI        -0.1413
     20 N82        17.8350   -8.8910    9.1390 N.pl3     1 0LI        -0.1187
     21 C84        17.2570   -9.0790    7.8570 C.2       1 0LI         0.1691
     22 C1         16.1200  -10.2720    9.2430 C.2       1 0LI        -0.0017
     23 C2         17.0820   -9.6650    9.9810 C.2       1 0LI         0.1589
     24 C3         17.2530   -9.8180   11.3670 C.1       1 0LI        -0.0467
     25 C9         16.5350   -9.3160   16.1960 C.ar      1 0LI         0.0483
     26 C11        18.6010  -12.4810   13.9240 C.3       1 0LI        -0.0278
     27 C12        15.8260   -8.2210   16.9350 C.2       1 0LI         0.2262
     28 O1         15.4400   -7.2170   16.3280 O.2       1 0LI        -0.3767
     29 N2         15.6540   -8.4150   18.2560 N.am      1 0LI        -0.2315
     30 C14        15.0600   -7.7600   20.5120 C.ar      1 0LI        -0.0151
     31 C16        13.0080   -6.3980   21.0010 C.ar      1 0LI        -0.0400
     32 C18        13.5810   -7.0510   18.6710 C.ar      1 0LI        -0.0204
     33 C19        11.4650   -5.6670   18.9560 C.3       1 0LI         0.3642
     34 F1         11.6320   -4.3580   19.0130 F         1 0LI        -0.2292
     35 F2         11.2790   -5.9720   17.6740 F         1 0LI        -0.2292
     36 F3         10.3470   -6.0030   19.6050 F         1 0LI        -0.2292
     37 C23        12.8390   -4.0700   25.4790 C.3       1 0LI        -0.1323
     38 C25        14.6190   -2.5080   26.1490 C.3       1 0LI        -0.1258
     39 N4         13.8310   -3.0380   25.0450 N.4       1 0LI         0.3981
     40 H          18.2073  -12.3371   16.6244 H         1 0LI         0.0565
     41 H          17.0249  -10.5581   17.9480 H         1 0LI         0.0639
     42 H          16.2079   -8.3494   14.2811 H         1 0LI         0.0649
     43 H          14.4389   -7.1232   22.5045 H         1 0LI         0.0613
     44 H          11.6167   -4.8909   21.5965 H         1 0LI         0.0244
     45 H          11.4983   -6.4806   22.5095 H         1 0LI         0.0244
     46 H          13.2163   -3.1796   22.4322 H         1 0LI         0.0001
     47 H          14.4605   -4.3834   21.9779 H         1 0LI         0.0001
     48 H          15.3717   -2.7838   23.6319 H         1 0LI        -0.0003
     49 H          15.2603   -4.4155   24.3417 H         1 0LI        -0.0003
     50 H          11.4241   -5.4822   24.6415 H         1 0LI         0.0001
     51 H          11.3907   -3.8466   23.8821 H         1 0LI         0.0001
     52 H          17.5057   -8.4418    5.7713 H         1 0LI         0.0752
     53 H          19.4577   -6.9825    6.2788 H         1 0LI         0.0701
     54 H          20.2975   -6.8146    8.6009 H         1 0LI         0.0937
     55 H          15.3657  -10.9505    9.6414 H         1 0LI         0.0575
     56 H          17.9135  -12.9378   13.2121 H         1 0LI         0.0404
     57 H          19.4546  -12.0634   13.3900 H         1 0LI         0.0404
     58 H          18.9468  -13.2344   14.6318 H         1 0LI         0.0404
     59 H          16.2382   -9.1342   18.6823 H         1 0LI         0.2238
     60 H          15.9499   -8.2783   20.8692 H         1 0LI         0.0763
     61 H          13.3573   -7.0423   17.6042 H         1 0LI         0.0655
     62 H          13.3860   -4.8929   25.9391 H         1 0LI        -0.0003
     63 H          12.1418   -3.5989   26.1719 H         1 0LI        -0.0003
     64 H          15.2423   -3.3009   26.5624 H         1 0LI        -0.0019
     65 H          15.2521   -1.6984   25.7860 H         1 0LI        -0.0019
     66 H          13.9503   -2.1294   26.9221 H         1 0LI        -0.0019
@<TRIPOS>BOND
     1    1   21 2  
     2   22    1 1  
     3   12    2 1  
     4    2   13 1  
     5    2   15 1  
     6    4    3 1  
     7    3   24 3  
     8    4    5 ar 
     9    8    4 ar 
    10    6    5 ar 
    11    5   26 1  
    12    7    6 ar 
    13   25    7 ar 
    14   25    8 ar 
    15   29    9 1  
    16    9   30 ar 
    17    9   32 ar 
    18   30   10 ar 
    19   10   31 ar 
    20   11   31 ar 
    21   32   11 ar 
    22   11   33 1  
    23   31   12 1  
    24   13   14 1  
    25   14   39 1  
    26   15   37 1  
    27   16   17 2  
    28   21   16 1  
    29   18   17 1  
    30   19   18 2  
    31   20   19 1  
    32   20   21 1  
    33   23   20 1  
    34   23   22 2  
    35   24   23 1  
    36   27   25 1  
    37   27   28 2  
    38   27   29 am 
    39   33   34 1  
    40   33   35 1  
    41   33   36 1  
    42   37   39 1  
    43   39   38 1  
    44    6   40 1  
    45    7   41 1  
    46    8   42 1  
    47   10   43 1  
    48   12   44 1  
    49   12   45 1  
    50   13   46 1  
    51   13   47 1  
    52   14   48 1  
    53   14   49 1  
    54   15   50 1  
    55   15   51 1  
    56   16   52 1  
    57   17   53 1  
    58   18   54 1  
    59   22   55 1  
    60   26   56 1  
    61   26   57 1  
    62   26   58 1  
    63   29   59 1  
    64   30   60 1  
    65   32   61 1  
    66   37   62 1  
    67   37   63 1  
    68   38   64 1  
    69   38   65 1  
    70   38   66 1  
@<TRIPOS>SUBSTRUCTURE
     1 0LI         1

