3bc5_ligand
  -I-interpret- 

 63 67  0  0  0  0  0  0  0  0999 V2000
   56.4570   24.0590    5.4510 C   0  0  0  0  0
   54.6030   29.4830    5.9670 C   0  0  0  0  0
   54.9270   28.1340    5.8480 C   0  0  0  0  0
   56.2230   27.6890    6.1180 C   0  0  0  0  0
   55.5810   30.3980    6.3670 C   0  0  0  0  0
   56.8940   30.0130    6.6450 C   0  0  0  0  0
   57.1540   28.6490    6.5090 C   0  0  0  0  0
   58.0150   30.9630    7.0740 C   0  0  0  0  0
   59.1470   30.9070    6.0820 C   0  0  0  0  0
   59.3350   31.5310    4.8460 C   0  0  0  0  0
   57.2960   23.4690   -1.0830 C   0  0  0  0  0
   57.3250   23.6660    0.3020 C   0  0  0  0  0
   58.5230   32.5040    4.0220 C   0  0  0  0  0
   62.4000   28.4650    5.9840 C   0  0  0  0  0
   59.8980   24.3010    5.7600 C   0  0  0  0  0
   58.9900   24.1130    4.5590 C   0  0  0  0  0
   57.5990   24.0270    4.4460 C   0  0  0  0  0
   57.3810   23.8720    3.1140 N   0  0  0  0  0
   58.5590   23.8800    2.4520 C   0  0  0  0  0
   59.4840   24.0190    3.3570 O   0  0  0  0  0
   58.5600   23.7010    0.9690 C   0  0  0  0  0
   59.7740   23.5270    0.2760 C   0  0  0  0  0
   59.7420   23.3280   -1.1080 C   0  0  0  0  0
   58.5150   23.3070   -1.7800 C   0  0  0  0  0
   55.8010   25.4240    5.5060 C   0  0  0  0  0
   56.6730   26.4410    6.0430 O   0  0  0  0  0
   60.5070   31.0880    4.3750 N   0  0  0  0  0
   61.0840   30.2480    5.2290 N   0  0  0  0  0
   60.2440   30.1440    6.2410 N   0  0  0  0  0
   62.2280   29.5410    5.1190 C   0  0  0  0  0
   63.1510   29.8350    4.1090 C   0  0  0  0  0
   64.2950   29.0470    4.0070 C   0  0  0  0  0
   64.4960   27.9790    4.8800 C   0  0  0  0  0
   63.5510   27.6900    5.8680 C   0  0  0  0  0
   58.4980   33.8690    4.6700 C   0  0  0  0  0
   57.6330   34.6820    4.3830 O   0  0  0  0  0
   59.4140   34.2460    5.5710 O   0  0  0  0  0
   56.8598   23.8303    6.4377 H   0  0  0  0  0
   55.7079   23.3288    5.1447 H   0  0  0  0  0
   53.5909   29.8240    5.7491 H   0  0  0  0  0
   54.1630   27.4195    5.5416 H   0  0  0  0  0
   55.3091   31.4490    6.4654 H   0  0  0  0  0
   58.1660   28.3072    6.7259 H   0  0  0  0  0
   58.3832   30.6627    8.0550 H   0  0  0  0  0
   57.6258   31.9803    7.1164 H   0  0  0  0  0
   56.3463   23.4408   -1.6172 H   0  0  0  0  0
   56.3963   23.7913    0.8586 H   0  0  0  0  0
   57.5010   32.1326    3.9472 H   0  0  0  0  0
   58.9775   32.5925    3.0353 H   0  0  0  0  0
   61.6480   28.2331    6.7382 H   0  0  0  0  0
   59.6575   25.2436    6.2517 H   0  0  0  0  0
   59.7499   23.4773    6.4583 H   0  0  0  0  0
   60.9366   24.3167    5.4297 H   0  0  0  0  0
   60.7239   23.5471    0.8103 H   0  0  0  0  0
   60.6706   23.1896   -1.6617 H   0  0  0  0  0
   58.4988   23.1631   -2.8603 H   0  0  0  0  0
   54.9312   25.3508    6.1588 H   0  0  0  0  0
   55.5405   25.7109    4.4872 H   0  0  0  0  0
   62.9788   30.6608    3.4187 H   0  0  0  0  0
   65.0376   29.2668    3.2399 H   0  0  0  0  0
   65.3937   27.3670    4.7916 H   0  0  0  0  0
   63.7153   26.8556    6.5498 H   0  0  0  0  0
   60.0357   33.5285    5.7130 H   0  0  0  0  0
  1 17  1  0  0  0
 25  1  1  0  0  0
  2  3  4  0  0  0
  5  2  4  0  0  0
  4  3  4  0  0  0
  7  4  4  0  0  0
  4 26  1  0  0  0
  6  5  4  0  0  0
  6  7  4  0  0  0
  8  6  1  0  0  0
  9  8  1  0  0  0
  9 10  4  0  0  0
 29  9  4  0  0  0
 10 13  1  0  0  0
 27 10  4  0  0  0
 12 11  4  0  0  0
 11 24  4  0  0  0
 21 12  4  0  0  0
 13 35  1  0  0  0
 30 14  4  0  0  0
 14 34  4  0  0  0
 16 15  1  0  0  0
 17 16  4  0  0  0
 16 20  4  0  0  0
 17 18  4  0  0  0
 18 19  4  0  0  0
 19 20  4  0  0  0
 19 21  1  0  0  0
 21 22  4  0  0  0
 22 23  4  0  0  0
 23 24  4  0  0  0
 26 25  1  0  0  0
 28 27  4  0  0  0
 28 29  4  0  0  0
 28 30  1  0  0  0
 30 31  4  0  0  0
 31 32  4  0  0  0
 32 33  4  0  0  0
 33 34  4  0  0  0
 35 36  2  0  0  0
 35 37  1  0  0  0
  1 38  1  0  0  0
  1 39  1  0  0  0
  2 40  1  0  0  0
  3 41  1  0  0  0
  5 42  1  0  0  0
  7 43  1  0  0  0
  8 44  1  0  0  0
  8 45  1  0  0  0
 11 46  1  0  0  0
 12 47  1  0  0  0
 13 48  1  0  0  0
 13 49  1  0  0  0
 14 50  1  0  0  0
 15 51  1  0  0  0
 15 52  1  0  0  0
 15 53  1  0  0  0
 22 54  1  0  0  0
 23 55  1  0  0  0
 24 56  1  0  0  0
 25 57  1  0  0  0
 25 58  1  0  0  0
 31 59  1  0  0  0
 32 60  1  0  0  0
 33 61  1  0  0  0
 34 62  1  0  0  0
 37 63  1  0  0  0
M  END
$$$$
