1jg0_ligand
  -I-interpret- 

 78 82  0  0  0  0  0  0  0  0999 V2000
   13.9830   41.8330   29.3520 C   0  0  0  0  0
   15.2560   41.3150   29.6180 C   0  0  0  0  0
   15.7020   41.0970   30.9530 C   0  0  0  0  0
   14.8590   41.3660   32.0220 C   0  0  0  0  0
   13.5370   41.8970   31.8090 C   0  0  0  0  0
   12.6520   42.2210   32.9210 C   0  0  0  0  0
   11.4210   42.8180   32.6860 C   0  0  0  0  0
   10.9990   43.1270   31.3620 C   0  0  0  0  0
   11.8240   42.8190   30.2930 C   0  0  0  0  0
   13.1040   42.1850   30.4630 C   0  0  0  0  0
   12.3400   41.3470   27.5670 C   0  0  0  0  0
   14.5990   42.0310   26.8960 C   0  0  0  0  0
   13.5710   42.0360   27.9850 N   0  0  0  0  0
   12.4110   39.0360   34.4540 C   0  0  0  0  0
   11.8110   38.8200   35.8260 C   0  0  0  0  0
   12.9860   37.6870   33.9070 C   0  0  0  0  0
   13.4480   37.8350   32.4740 C   0  0  0  0  0
   12.4970   38.2230   31.4990 C   0  0  0  0  0
   12.8660   38.3630   30.1530 C   0  0  0  0  0
   14.2070   38.1020   29.7920 C   0  0  0  0  0
   15.1770   37.7430   30.7560 C   0  0  0  0  0
   14.7910   37.6050   32.1040 C   0  0  0  0  0
   13.0250   41.8010   34.6140 S   0  0  0  0  0
   11.7650   42.0190   35.3520 O   0  0  0  0  0
   14.2220   42.5620   35.0670 O   0  0  0  0  0
   13.4440   40.1390   34.5380 N   0  0  0  0  0
   12.5550   38.2550   36.6640 O   0  0  0  0  0
   10.6790   39.3120   36.0330 O   0  0  0  0  0
   14.6470   38.3550   28.4840 O   0  0  0  0  0
   14.2990   37.4700   27.1650 S   0  0  0  0  0
   14.2870   38.2930   25.9810 O   0  0  0  0  0
   13.0950   36.6140   27.3590 O   0  0  0  0  0
   19.4390   36.7070   26.5210 C   0  0  0  0  0
   19.5460   38.0970   26.3910 C   0  0  0  0  0
   18.4210   38.9440   26.4750 C   0  0  0  0  0
   17.1830   38.3920   26.7250 C   0  0  0  0  0
   17.0280   36.9720   26.8920 C   0  0  0  0  0
   15.7260   36.4010   27.1220 C   0  0  0  0  0
   15.5680   35.0360   27.1630 C   0  0  0  0  0
   16.6820   34.1710   26.9670 C   0  0  0  0  0
   17.9410   34.6830   26.7490 C   0  0  0  0  0
   18.1540   36.1010   26.7380 C   0  0  0  0  0
   21.7970   36.4240   25.6360 C   0  0  0  0  0
   20.9820   34.7810   27.3410 C   0  0  0  0  0
   20.6620   35.9490   26.4710 N   0  0  0  0  0
   15.9190   41.0737   28.7871 H   0  0  0  0  0
   16.7076   40.7181   31.1354 H   0  0  0  0  0
   15.2024   41.1726   33.0382 H   0  0  0  0  0
   10.7685   43.0534   33.5268 H   0  0  0  0  0
   10.0333   43.6027   31.1907 H   0  0  0  0  0
   11.4909   43.0663   29.2850 H   0  0  0  0  0
   11.9221   41.8496   26.6947 H   0  0  0  0  0
   12.5720   40.3122   27.3152 H   0  0  0  0  0
   11.6171   41.3706   28.3825 H   0  0  0  0  0
   14.8491   41.0017   26.6389 H   0  0  0  0  0
   14.1993   42.5392   26.0184 H   0  0  0  0  0
   15.4942   42.5485   27.2408 H   0  0  0  0  0
   11.6512   39.3569   33.7413 H   0  0  0  0  0
   12.2010   36.9317   33.9448 H   0  0  0  0  0
   13.8386   37.3962   34.5207 H   0  0  0  0  0
   11.4665   38.4150   31.7979 H   0  0  0  0  0
   12.1354   38.6660   29.4030 H   0  0  0  0  0
   16.2123   37.5748   30.4595 H   0  0  0  0  0
   15.5258   37.3220   32.8577 H   0  0  0  0  0
   14.4314   39.8834   34.5499 H   0  0  0  0  0
   13.3650   37.9733   36.2325 H   0  0  0  0  0
   20.5280   38.5379   26.2198 H   0  0  0  0  0
   18.5293   40.0207   26.3439 H   0  0  0  0  0
   16.3098   39.0404   26.7971 H   0  0  0  0  0
   14.5809   34.6120   27.3472 H   0  0  0  0  0
   16.5361   33.0910   26.9899 H   0  0  0  0  0
   18.7802   34.0072   26.5839 H   0  0  0  0  0
   21.4803   36.4838   24.5947 H   0  0  0  0  0
   22.1109   37.4099   25.9788 H   0  0  0  0  0
   22.6289   35.7253   25.7245 H   0  0  0  0  0
   20.9674   35.0927   28.3854 H   0  0  0  0  0
   20.2399   33.9983   27.1837 H   0  0  0  0  0
   21.9718   34.4013   27.0877 H   0  0  0  0  0
  1  2  4  0  0  0
 10  1  4  0  0  0
  1 13  1  0  0  0
  3  2  4  0  0  0
  4  3  4  0  0  0
  5  4  4  0  0  0
  6  5  4  0  0  0
  5 10  4  0  0  0
  6  7  4  0  0  0
 23  6  1  0  0  0
  7  8  4  0  0  0
  8  9  4  0  0  0
 10  9  4  0  0  0
 13 11  1  0  0  0
 13 12  1  0  0  0
 14 15  1  0  0  0
 16 14  1  0  0  0
 14 26  1  0  0  0
 15 27  1  0  0  0
 15 28  2  0  0  0
 17 16  1  0  0  0
 18 17  4  0  0  0
 22 17  4  0  0  0
 19 18  4  0  0  0
 20 19  4  0  0  0
 20 21  4  0  0  0
 29 20  1  0  0  0
 21 22  4  0  0  0
 23 24  2  0  0  0
 23 25  2  0  0  0
 26 23  1  0  0  0
 30 29  1  0  0  0
 30 31  2  0  0  0
 30 32  2  0  0  0
 38 30  1  0  0  0
 34 33  4  0  0  0
 33 42  4  0  0  0
 33 45  1  0  0  0
 35 34  4  0  0  0
 36 35  4  0  0  0
 37 36  4  0  0  0
 37 38  4  0  0  0
 37 42  4  0  0  0
 38 39  4  0  0  0
 39 40  4  0  0  0
 40 41  4  0  0  0
 41 42  4  0  0  0
 45 43  1  0  0  0
 45 44  1  0  0  0
  2 46  1  0  0  0
  3 47  1  0  0  0
  4 48  1  0  0  0
  7 49  1  0  0  0
  8 50  1  0  0  0
  9 51  1  0  0  0
 11 52  1  0  0  0
 11 53  1  0  0  0
 11 54  1  0  0  0
 12 55  1  0  0  0
 12 56  1  0  0  0
 12 57  1  0  0  0
 14 58  1  0  0  0
 16 59  1  0  0  0
 16 60  1  0  0  0
 18 61  1  0  0  0
 19 62  1  0  0  0
 21 63  1  0  0  0
 22 64  1  0  0  0
 26 65  1  0  0  0
 27 66  1  0  0  0
 34 67  1  0  0  0
 35 68  1  0  0  0
 36 69  1  0  0  0
 39 70  1  0  0  0
 40 71  1  0  0  0
 41 72  1  0  0  0
 43 73  1  0  0  0
 43 74  1  0  0  0
 43 75  1  0  0  0
 44 76  1  0  0  0
 44 77  1  0  0  0
 44 78  1  0  0  0
M  END
$$$$
