6rot_ligand
  -I-interpret- 

 58 60  0  0  0  0  0  0  0  0999 V2000
   13.1730   -9.0040   22.4760 C   0  0  0  0  0
   11.4820  -10.0430   23.8240 C   0  0  0  0  0
   11.5550  -11.1690   23.0280 C   0  0  0  0  0
   20.8910  -15.3680   25.2860 C   0  0  0  0  0
   17.7390  -11.3690   20.8310 C   0  0  0  0  0
   18.5940  -11.2770   19.5620 C   0  0  0  0  0
   19.8650  -12.0360   19.9240 C   0  0  0  0  0
   12.4390  -12.4610   21.0680 C   0  0  0  0  0
   13.2430  -10.1300   21.6600 C   0  0  0  0  0
   12.4220  -11.2330   21.9400 C   0  0  0  0  0
   19.7400  -14.8680   25.8800 C   0  0  0  0  0
   18.5910  -15.7800   26.2180 C   0  0  0  0  0
   17.5210  -13.1900   22.4590 C   0  0  0  0  0
   19.3880  -13.1750   20.7920 C   0  0  0  0  0
   18.1760  -12.6330   21.4300 N   0  0  0  0  0
   21.8990  -14.5130   24.8680 C   0  0  0  0  0
   21.7720  -13.1510   25.0450 C   0  0  0  0  0
   20.6450  -12.6440   25.6590 C   0  0  0  0  0
   19.6370  -13.4970   26.0790 C   0  0  0  0  0
   18.5970  -17.0700   23.9440 O   0  0  0  0  0
   17.6870  -16.3550   24.7870 S   0  0  0  0  0
   16.4940  -17.0060   25.2350 O   0  0  0  0  0
   17.2020  -15.0350   23.9480 N   0  0  0  0  0
   18.1280  -14.4480   22.9920 C   0  0  0  0  0
   16.4880  -12.7140   22.9240 O   0  0  0  0  0
   16.2490  -11.4090   20.5020 C   0  0  0  0  0
   15.7450  -12.4020   19.9730 O   0  0  0  0  0
   15.5590  -10.3020   20.7910 N   0  0  0  0  0
   14.1500  -10.1470   20.4520 C   0  0  0  0  0
   13.2730  -13.4600   21.5930 O   0  0  0  0  0
   12.2980   -8.9760   23.5390 C   0  0  0  0  0
   12.2430   -7.5630   24.5490 Cl  0  0  0  0  0
   13.8113   -8.1440   22.2733 H   0  0  0  0  0
   10.7886  -10.0019   24.6640 H   0  0  0  0  0
   10.9208  -12.0257   23.2560 H   0  0  0  0  0
   21.0032  -16.4433   25.1470 H   0  0  0  0  0
   17.8637  -10.5093   21.4893 H   0  0  0  0  0
   18.7950  -10.2460   19.2710 H   0  0  0  0  0
   18.0919  -11.6997   18.6918 H   0  0  0  0  0
   20.5871  -11.4029   20.4397 H   0  0  0  0  0
   20.3965  -12.3894   19.0404 H   0  0  0  0  0
   12.8179  -12.1790   20.0857 H   0  0  0  0  0
   11.4245  -12.8557   21.0115 H   0  0  0  0  0
   17.8957  -15.2133   26.8373 H   0  0  0  0  0
   19.0056  -16.6565   26.7160 H   0  0  0  0  0
   20.1376  -13.4911   21.5175 H   0  0  0  0  0
   19.1908  -14.0825   20.2213 H   0  0  0  0  0
   22.7949  -14.9184   24.3979 H   0  0  0  0  0
   22.5580  -12.4784   24.7016 H   0  0  0  0  0
   20.5474  -11.5695   25.8141 H   0  0  0  0  0
   18.7542  -13.0881   26.5705 H   0  0  0  0  0
   16.2749  -14.6349   24.0920 H   0  0  0  0  0
   19.0773  -14.2267   23.4797 H   0  0  0  0  0
   18.3151  -15.1466   22.1765 H   0  0  0  0  0
   16.0363   -9.5364   21.2669 H   0  0  0  0  0
   14.0372   -9.1903   19.9420 H   0  0  0  0  0
   13.8634  -11.0000   19.8369 H   0  0  0  0  0
   13.2588  -14.2247   21.0128 H   0  0  0  0  0
  9  1  4  0  0  0
  1 31  4  0  0  0
  3  2  4  0  0  0
 31  2  4  0  0  0
 10  3  4  0  0  0
 11  4  4  0  0  0
  4 16  4  0  0  0
  5  6  1  0  0  0
  5 15  1  0  0  0
 26  5  1  0  0  0
  6  7  1  0  0  0
 14  7  1  0  0  0
 10  8  1  0  0  0
  8 30  1  0  0  0
  9 10  4  0  0  0
 29  9  1  0  0  0
 12 11  1  0  0  0
 11 19  4  0  0  0
 21 12  1  0  0  0
 15 13  1  0  0  0
 13 24  1  0  0  0
 13 25  2  0  0  0
 15 14  1  0  0  0
 16 17  4  0  0  0
 18 17  4  0  0  0
 19 18  4  0  0  0
 21 20  2  0  0  0
 21 22  2  0  0  0
 23 21  1  0  0  0
 24 23  1  0  0  0
 26 27  2  0  0  0
 28 26  1  0  0  0
 28 29  1  0  0  0
 31 32  1  0  0  0
  1 33  1  0  0  0
  2 34  1  0  0  0
  3 35  1  0  0  0
  4 36  1  0  0  0
  5 37  1  0  0  0
  6 38  1  0  0  0
  6 39  1  0  0  0
  7 40  1  0  0  0
  7 41  1  0  0  0
  8 42  1  0  0  0
  8 43  1  0  0  0
 12 44  1  0  0  0
 12 45  1  0  0  0
 14 46  1  0  0  0
 14 47  1  0  0  0
 16 48  1  0  0  0
 17 49  1  0  0  0
 18 50  1  0  0  0
 19 51  1  0  0  0
 23 52  1  0  0  0
 24 53  1  0  0  0
 24 54  1  0  0  0
 28 55  1  0  0  0
 29 56  1  0  0  0
 29 57  1  0  0  0
 30 58  1  0  0  0
M  END
$$$$
