5t5g_ligand
  -I-interpret- 

 72 75  0  0  0  0  0  0  0  0999 V2000
   42.7680   54.3140    1.8190 C   0  0  0  0  0
   41.4740   54.8970    1.7780 C   0  0  0  0  0
   40.3850   53.9920    1.5040 C   0  0  0  0  0
   40.6140   52.7000    1.2660 N   0  0  0  0  0
   42.9830   52.9780    1.5870 N   0  0  0  0  0
   46.8180   59.2590    1.6050 N   0  3  0  0  0
   46.9910   58.1980    2.6300 C   0  0  0  0  0
   46.0830   57.0420    2.3520 C   0  0  0  0  0
   44.7150   57.3990    2.4730 O   0  0  0  0  0
   43.7260   56.4890    2.2360 C   0  0  0  0  0
   42.4450   57.0740    2.1860 C   0  0  0  0  0
   42.4300   58.4260    2.4030 O   0  0  0  0  0
   41.1610   59.0900    2.4560 C   0  0  0  0  0
   41.3470   56.3010    1.9610 C   0  0  0  0  0
   43.8850   55.1420    2.0620 C   0  0  0  0  0
   41.8840   52.2450    1.3110 C   0  0  0  0  0
   42.0660   50.9270    1.0660 N   0  0  0  0  0
   40.9690   50.0470    0.6680 C   0  0  0  0  0
   41.5380   48.6800    0.8780 C   0  0  0  0  0
   42.9960   48.8370    0.5740 C   0  0  0  0  0
   43.3530   50.2230    1.0510 C   0  0  0  0  0
   39.0430   54.4640    1.4830 N   0  0  0  0  0
   37.9030   53.6060    1.2100 C   0  0  0  0  0
   37.7200   53.4170   -0.2830 C   0  0  0  0  0
   37.0060   54.5880   -0.9420 C   0  0  0  0  0
   37.8470   55.4150   -1.9040 C   0  0  0  0  0
   37.2640   56.8050   -2.0760 C   0  0  0  0  0
   36.5160   56.9880   -3.3680 N   0  3  0  0  0
   36.5910   58.3820   -3.9390 C   0  0  0  0  0
   35.0400   56.7020   -3.3250 C   0  0  0  0  0
   34.5390   57.3040   -4.6110 C   0  0  0  0  0
   35.3820   58.5350   -4.8350 C   0  0  0  0  0
   47.4449   60.0363    1.8128 H   0  0  0  0  0
   47.0384   58.8797    0.6842 H   0  0  0  0  0
   45.8523   59.5871    1.6166 H   0  0  0  0  0
   46.7471   58.6104    3.6090 H   0  0  0  0  0
   48.0234   57.8492    2.6057 H   0  0  0  0  0
   46.2963   56.2587    3.0793 H   0  0  0  0  0
   46.2590   56.7088    1.3292 H   0  0  0  0  0
   40.6398   58.9509    1.5089 H   0  0  0  0  0
   40.5652   58.6682    3.2654 H   0  0  0  0  0
   41.3163   60.1541    2.6339 H   0  0  0  0  0
   40.3607   56.7633    1.9208 H   0  0  0  0  0
   44.8820   54.7043    2.1113 H   0  0  0  0  0
   40.6448   50.2155   -0.3590 H   0  0  0  0  0
   40.0604   50.2186    1.2451 H   0  0  0  0  0
   41.0631   47.9348    0.2398 H   0  0  0  0  0
   41.3664   48.3146    1.8905 H   0  0  0  0  0
   43.2005   48.7128   -0.4894 H   0  0  0  0  0
   43.5947   48.0741    1.0715 H   0  0  0  0  0
   43.8345   50.2154    2.0288 H   0  0  0  0  0
   44.0856   50.7090    0.4067 H   0  0  0  0  0
   38.8731   55.4525    1.6686 H   0  0  0  0  0
   37.0060   54.0711    1.6189 H   0  0  0  0  0
   38.0762   52.6330    1.6697 H   0  0  0  0  0
   37.1106   52.5261   -0.4346 H   0  0  0  0  0
   38.7093   53.3332   -0.7328 H   0  0  0  0  0
   36.7060   55.2596   -0.1376 H   0  0  0  0  0
   36.1922   54.1630   -1.5295 H   0  0  0  0  0
   37.8601   54.9181   -2.8740 H   0  0  0  0  0
   38.8550   55.5055   -1.4993 H   0  0  0  0  0
   38.0950   57.5104   -2.0765 H   0  0  0  0  0
   36.5562   56.9657   -1.2628 H   0  0  0  0  0
   37.0044   56.2993   -3.9404 H   0  0  0  0  0
   37.5156   58.5294   -4.4971 H   0  0  0  0  0
   36.5918   59.1318   -3.1478 H   0  0  0  0  0
   34.5542   57.1231   -2.4448 H   0  0  0  0  0
   34.8188   55.6378   -3.2431 H   0  0  0  0  0
   33.4792   57.5513   -4.5500 H   0  0  0  0  0
   34.6271   56.6031   -5.4411 H   0  0  0  0  0
   35.6752   58.6275   -5.8808 H   0  0  0  0  0
   34.8267   59.4422   -4.5968 H   0  0  0  0  0
  1  2  4  0  0  0
  1  5  4  0  0  0
 15  1  4  0  0  0
  2  3  4  0  0  0
  2 14  4  0  0  0
  3  4  4  0  0  0
  3 22  1  0  0  0
 16  4  4  0  0  0
  5 16  4  0  0  0
  7  6  1  0  0  0
  8  7  1  0  0  0
  9  8  1  0  0  0
 10  9  1  0  0  0
 10 11  4  0  0  0
 10 15  4  0  0  0
 11 12  1  0  0  0
 11 14  4  0  0  0
 12 13  1  0  0  0
 16 17  1  0  0  0
 17 18  1  0  0  0
 17 21  1  0  0  0
 18 19  1  0  0  0
 19 20  1  0  0  0
 20 21  1  0  0  0
 22 23  1  0  0  0
 23 24  1  0  0  0
 24 25  1  0  0  0
 25 26  1  0  0  0
 26 27  1  0  0  0
 27 28  1  0  0  0
 28 29  1  0  0  0
 28 30  1  0  0  0
 29 32  1  0  0  0
 30 31  1  0  0  0
 31 32  1  0  0  0
  6 33  1  0  0  0
  6 34  1  0  0  0
  6 35  1  0  0  0
  7 36  1  0  0  0
  7 37  1  0  0  0
  8 38  1  0  0  0
  8 39  1  0  0  0
 13 40  1  0  0  0
 13 41  1  0  0  0
 13 42  1  0  0  0
 14 43  1  0  0  0
 15 44  1  0  0  0
 18 45  1  0  0  0
 18 46  1  0  0  0
 19 47  1  0  0  0
 19 48  1  0  0  0
 20 49  1  0  0  0
 20 50  1  0  0  0
 21 51  1  0  0  0
 21 52  1  0  0  0
 22 53  1  0  0  0
 23 54  1  0  0  0
 23 55  1  0  0  0
 24 56  1  0  0  0
 24 57  1  0  0  0
 25 58  1  0  0  0
 25 59  1  0  0  0
 26 60  1  0  0  0
 26 61  1  0  0  0
 27 62  1  0  0  0
 27 63  1  0  0  0
 28 64  1  0  0  0
 29 65  1  0  0  0
 29 66  1  0  0  0
 30 67  1  0  0  0
 30 68  1  0  0  0
 31 69  1  0  0  0
 31 70  1  0  0  0
 32 71  1  0  0  0
 32 72  1  0  0  0
M  END
$$$$
