3zt4_ligand
  -I-interpret- 

 35 38  0  0  0  0  0  0  0  0999 V2000
  -30.9510   28.6030    0.5720 C   0  0  0  0  0
  -31.2390   27.4250   -0.1160 C   0  0  0  0  0
  -31.7660   29.7180    0.4890 C   0  0  0  0  0
  -33.1480   32.1580    1.9860 C   0  0  0  0  0
  -32.3740   27.3410   -0.9090 C   0  0  0  0  0
  -32.4090   32.7920    2.9750 C   0  0  0  0  0
  -32.8820   29.6070   -0.3030 C   0  0  0  0  0
  -33.2760   32.6720    0.6930 C   0  0  0  0  0
  -32.6590   33.8890    0.3730 C   0  0  0  0  0
  -33.1830   28.4480   -0.9870 C   0  0  0  0  0
  -31.8190   33.9790    2.6350 C   0  0  0  0  0
  -31.9300   34.5220    1.3810 C   0  0  0  0  0
  -33.9200   30.5820   -0.5990 C   0  0  0  0  0
  -34.8980   29.9230   -1.4930 C   0  0  0  0  0
  -34.1080   31.8690   -0.2350 C   0  0  0  0  0
  -32.7330   34.5380   -0.9590 C   0  0  0  0  0
  -34.4520   28.5300   -1.8060 C   0  0  0  0  0
  -30.5480   35.7630    2.5580 C   0  0  0  0  0
  -31.7150   35.1340   -1.3570 O   0  0  0  0  0
  -35.9360   30.4300   -1.8880 O   0  0  0  0  0
  -33.8010   34.4940   -1.6110 O   0  0  0  0  0
  -31.0610   34.7410    3.4520 O   0  0  0  0  0
  -31.2260   35.7450    1.2880 O   0  0  0  0  0
  -30.0569   28.6468    1.1939 H   0  0  0  0  0
  -30.5708   26.5681   -0.0305 H   0  0  0  0  0
  -31.5338   30.6381    1.0253 H   0  0  0  0  0
  -33.6491   31.2207    2.2278 H   0  0  0  0  0
  -32.6156   26.4272   -1.4519 H   0  0  0  0  0
  -32.3038   32.3658    3.9727 H   0  0  0  0  0
  -34.9687   32.3744   -0.6730 H   0  0  0  0  0
  -35.1876   27.7639   -1.5609 H   0  0  0  0  0
  -34.3059   28.3401   -2.8693 H   0  0  0  0  0
  -29.4891   35.5701    2.3859 H   0  0  0  0  0
  -30.7084   36.7370    3.0203 H   0  0  0  0  0
  -34.4523   33.9855   -1.1223 H   0  0  0  0  0
  1  2  4  0  0  0
  3  1  4  0  0  0
  5  2  4  0  0  0
  7  3  4  0  0  0
  4  6  4  0  0  0
  8  4  4  0  0  0
 10  5  4  0  0  0
  6 11  4  0  0  0
  7 10  4  0  0  0
 13  7  1  0  0  0
  8  9  4  0  0  0
 15  8  1  0  0  0
  9 12  4  0  0  0
  9 16  1  0  0  0
 10 17  1  0  0  0
 12 11  4  0  0  0
 11 22  1  0  0  0
 12 23  1  0  0  0
 13 14  1  0  0  0
 13 15  2  0  0  0
 14 17  1  0  0  0
 14 20  2  0  0  0
 16 19  2  0  0  0
 16 21  1  0  0  0
 22 18  1  0  0  0
 18 23  1  0  0  0
  1 24  1  0  0  0
  2 25  1  0  0  0
  3 26  1  0  0  0
  4 27  1  0  0  0
  5 28  1  0  0  0
  6 29  1  0  0  0
 15 30  1  0  0  0
 17 31  1  0  0  0
 17 32  1  0  0  0
 18 33  1  0  0  0
 18 34  1  0  0  0
 21 35  1  0  0  0
M  END
$$$$
