5epr_ligand
  -I-interpret- 

 22 23  0  0  0  0  0  0  0  0999 V2000
   14.6070    0.6400   -8.7550 O   0  0  0  0  0
   14.3640    1.1240   -7.6500 C   0  0  0  0  0
   13.1270    0.8360   -7.0610 N   0  0  0  0  0
   12.7970    1.3300   -5.7970 C   0  0  0  0  0
   11.5160    1.1640   -5.2840 C   0  0  0  0  0
   11.2030    1.6460   -4.0170 C   0  0  0  0  0
   12.1770    2.2870   -3.2600 C   0  0  0  0  0
   13.4610    2.4420   -3.7710 C   0  0  0  0  0
   13.7710    1.9600   -5.0410 C   0  0  0  0  0
   15.0580    2.1140   -5.5690 N   0  0  0  0  0
   15.2700    2.0020   -7.0360 C   0  0  0  0  0
   16.7100    1.6000   -7.3600 C   0  0  0  0  0
   12.4554    0.2556   -7.5635 H   0  0  0  0  0
   10.7550    0.6551   -5.8756 H   0  0  0  0  0
   10.1961    1.5213   -3.6187 H   0  0  0  0  0
   11.9347    2.6674   -2.2677 H   0  0  0  0  0
   14.2263    2.9415   -3.1769 H   0  0  0  0  0
   15.8467    2.3022   -4.9501 H   0  0  0  0  0
   15.0834    2.9939   -7.4477 H   0  0  0  0  0
   17.3933    2.3527   -6.9666 H   0  0  0  0  0
   16.9281    0.6349   -6.9027 H   0  0  0  0  0
   16.8311    1.5270   -8.4408 H   0  0  0  0  0
  1  2  2  0  0  0
  2  3  1  0  0  0
  2 11  1  0  0  0
  3  4  1  0  0  0
  4  5  4  0  0  0
  4  9  4  0  0  0
  5  6  4  0  0  0
  6  7  4  0  0  0
  7  8  4  0  0  0
  8  9  4  0  0  0
  9 10  1  0  0  0
 10 11  1  0  0  0
 11 12  1  0  0  0
  3 13  1  0  0  0
  5 14  1  0  0  0
  6 15  1  0  0  0
  7 16  1  0  0  0
  8 17  1  0  0  0
 10 18  1  0  0  0
 11 19  1  0  0  0
 12 20  1  0  0  0
 12 21  1  0  0  0
 12 22  1  0  0  0
M  END
$$$$
