4j2c_ligand
  -I-interpret- 

193195  0  0  0  0  0  0  0  0999 V2000
   -8.2780   21.1540   13.0390 N   0  3  0  0  0
   -8.5110   19.8160   13.5670 C   0  0  0  0  0
   -7.5510   19.4890   14.7100 C   0  0  0  0  0
   -7.9580   18.9640   15.7520 O   0  0  0  0  0
   -8.3930   18.7930   12.4560 C   0  0  0  0  0
   -6.2730   19.8040   14.5120 N   0  0  0  0  0
   -5.2510   19.5000   15.5040 C   0  0  0  0  0
   -5.6180   20.0950   16.8680 C   0  0  0  0  0
   -5.6160   19.3970   17.8860 O   0  0  0  0  0
   -3.8900   20.0190   15.0380 C   0  0  0  0  0
   -2.7460   19.5340   15.8730 C   0  0  0  0  0
   -2.0090   20.3670   16.6870 N   0  0  0  0  0
   -2.2210   18.2950   16.0300 C   0  0  0  0  0
   -1.0760   19.6650   17.3030 C   0  0  0  0  0
   -1.1810   18.4050   16.9200 N   0  0  0  0  0
   -5.9570   21.3810   16.8690 N   0  0  0  0  0
   -6.2990   22.1020   18.0840 C   0  0  0  0  0
   -7.5190   21.5710   18.8080 C   0  0  0  0  0
   -7.5460   21.5480   20.0360 O   0  0  0  0  0
   -8.5370   21.1650   18.0540 N   0  0  0  0  0
   -9.7000   20.5030   18.6340 C   0  0  0  0  0
   -9.3010   19.2030   19.3180 C   0  0  0  0  0
   -9.6950   18.9330   20.4510 O   0  0  0  0  0
  -10.7540   20.2050   17.5630 C   0  0  0  0  0
  -11.6360   21.3840   17.2100 C   0  0  0  0  0
  -13.0020   20.9240   16.1250 S   0  0  0  0  0
  -12.1110   20.4690   14.6380 C   0  0  0  0  0
   -8.5190   18.3940   18.6180 N   0  0  0  0  0
   -8.0950   17.1090   19.1460 C   0  0  0  0  0
   -7.1820   17.2900   20.3530 C   0  0  0  0  0
   -7.2760   16.5510   21.3280 O   0  0  0  0  0
   -7.4040   16.2930   18.0510 C   0  0  0  0  0
   -8.3220   15.8790   16.8970 C   0  0  0  0  0
   -7.5780   15.0270   15.8810 C   0  0  0  0  0
   -9.5210   15.1240   17.4370 C   0  0  0  0  0
   -6.3060   18.2860   20.2810 N   0  0  0  0  0
   -5.3640   18.5670   21.3570 C   0  0  0  0  0
   -6.0950   18.9380   22.6340 C   0  0  0  0  0
   -5.7600   18.4550   23.7160 O   0  0  0  0  0
   -4.4310   19.7140   20.9650 C   0  0  0  0  0
   -3.4290   20.0500   22.0480 C   0  0  0  0  0
   -2.5120   21.1850   21.6370 C   0  0  0  0  0
   -1.4120   21.3710   22.6660 C   0  0  0  0  0
   -0.6440   20.1040   22.8450 N   0  3  0  0  0
   -7.0900   19.8080   22.4850 N   0  0  0  0  0
   -7.8780   20.3230   23.5990 C   0  0  0  0  0
   -8.6090   19.2100   24.3520 C   0  0  0  0  0
   -8.6560   19.2100   25.5820 O   0  0  0  0  0
   -8.8800   21.3600   23.0800 C   0  0  0  0  0
   -9.5450   22.3140   24.0670 C   0  0  0  0  0
   -8.5320   22.9220   25.0220 C   0  0  0  0  0
  -10.2850   23.4030   23.3120 C   0  0  0  0  0
   -9.1760   18.2590   23.6130 N   0  0  0  0  0
   -9.9670   17.2010   24.2290 C   0  0  0  0  0
   -9.1290   16.0030   24.6370 C   0  0  0  0  0
   -9.4300   15.3540   25.6320 O   0  0  0  0  0
  -11.0890   16.7310   23.2980 C   0  0  0  0  0
  -12.0260   15.7350   23.9430 C   0  0  0  0  0
  -11.7700   14.3690   23.8890 C   0  0  0  0  0
  -13.1590   16.1590   24.6220 C   0  0  0  0  0
  -12.6220   13.4590   24.4850 C   0  0  0  0  0
  -14.0140   15.2520   25.2210 C   0  0  0  0  0
  -13.7420   13.9080   25.1470 C   0  0  0  0  0
  -14.5930   13.0040   25.7420 O   0  0  0  0  0
   -8.0910   15.7030   23.8620 N   0  0  0  0  0
   -7.3100   14.4860   24.0650 C   0  0  0  0  0
   -5.9520   14.7440   24.7210 C   0  0  0  0  0
   -5.3360   13.8300   25.2640 O   0  0  0  0  0
   -7.1190   13.7260   22.7420 C   0  0  0  0  0
   -8.3950   13.1200   22.1990 C   0  0  0  0  0
   -8.9640   12.0090   22.8050 C   0  0  0  0  0
   -9.0380   13.6640   21.0850 C   0  0  0  0  0
  -10.1300   11.4510   22.3250 C   0  0  0  0  0
  -10.2070   13.1150   20.6010 C   0  0  0  0  0
  -10.7470   12.0060   21.2200 C   0  0  0  0  0
  -11.9120   11.4360   20.7460 O   0  0  0  0  0
   -5.4870   15.9830   24.6590 N   0  0  0  0  0
   -4.1950   16.3330   25.2200 C   0  0  0  0  0
   -3.0480   15.7270   24.4380 C   0  0  0  0  0
   -2.1470   15.1110   25.0150 O   0  0  0  0  0
   -3.0780   15.9000   23.1180 N   0  0  0  0  0
   -1.9760   15.4620   22.2630 C   0  0  0  0  0
   -0.6480   15.9520   22.8370 C   0  0  0  0  0
   -0.5570   17.0690   23.3570 O   0  0  0  0  0
   -2.1510   15.9900   20.8370 C   0  0  0  0  0
   -3.2060   15.3260   19.9580 C   0  0  0  0  0
   -4.5040   15.1960   20.7030 C   0  0  0  0  0
   -3.4040   16.1070   18.6810 C   0  0  0  0  0
    0.3760   15.1100   22.7450 N   0  0  0  0  0
    1.6900   15.4520   23.2740 C   0  0  0  0  0
    2.5800   16.0530   22.1910 C   0  0  0  0  0
    3.0238   17.2269   22.3035 O   0  0  0  0  0
    2.3570   14.2190   23.8960 C   0  0  0  0  0
    3.7560   14.4160   24.0580 O   0  0  0  0  0
    2.8742   15.3693   21.1744 O   0  0  0  0  0
   -8.3595   21.8351   13.7939 H   0  0  0  0  0
   -7.3419   21.2012   12.6366 H   0  0  0  0  0
   -8.9700   21.3591   12.3182 H   0  0  0  0  0
   -9.5220   19.7822   13.9730 H   0  0  0  0  0
   -7.3735   18.7933   12.0704 H   0  0  0  0  0
   -8.6347   17.8046   12.8468 H   0  0  0  0  0
   -9.0862   19.0476   11.6543 H   0  0  0  0  0
   -6.0032   20.2692   13.6453 H   0  0  0  0  0
   -5.1917   18.4173   15.6149 H   0  0  0  0  0
   -3.9116   21.1062   15.1129 H   0  0  0  0  0
   -3.7313   19.6548   14.0230 H   0  0  0  0  0
   -2.5605   17.3818   15.5413 H   0  0  0  0  0
   -0.3434   20.0582   18.0079 H   0  0  0  0  0
   -5.9779   21.8820   15.9807 H   0  0  0  0  0
   -6.5225   23.1285   17.7933 H   0  0  0  0  0
   -5.4541   21.9983   18.7648 H   0  0  0  0  0
   -8.5034   21.3203   17.0465 H   0  0  0  0  0
  -10.1243   21.1822   19.3735 H   0  0  0  0  0
  -11.4044   19.4264   17.9616 H   0  0  0  0  0
  -10.2186   19.9228   16.6565 H   0  0  0  0  0
  -11.0231   22.1178   16.6866 H   0  0  0  0  0
  -12.0585   21.7768   18.1348 H   0  0  0  0  0
  -11.5394   21.3261   14.2819 H   0  0  0  0  0
  -11.4327   19.6452   14.8601 H   0  0  0  0  0
  -12.8209   20.1600   13.8708 H   0  0  0  0  0
   -8.2084   18.6795   17.6893 H   0  0  0  0  0
   -8.9769   16.5623   19.4798 H   0  0  0  0  0
   -7.0408   15.3764   18.5158 H   0  0  0  0  0
   -6.6218   16.9231   17.6276 H   0  0  0  0  0
   -8.6635   16.7821   16.3912 H   0  0  0  0  0
   -6.7421   15.5960   15.4742 H   0  0  0  0  0
   -7.2035   14.1268   16.3683 H   0  0  0  0  0
   -8.2570   14.7495   15.0747 H   0  0  0  0  0
   -9.1803   14.2327   17.9639 H   0  0  0  0  0
  -10.0731   15.7651   18.1243 H   0  0  0  0  0
  -10.1685   14.8334   16.6097 H   0  0  0  0  0
   -6.2922   18.8725   19.4466 H   0  0  0  0  0
   -4.7797   17.6631   21.5296 H   0  0  0  0  0
   -5.0438   20.5984   20.7907 H   0  0  0  0  0
   -3.8751   19.4049   20.0798 H   0  0  0  0  0
   -2.8177   19.1669   22.2340 H   0  0  0  0  0
   -3.9779   20.3590   22.9376 H   0  0  0  0  0
   -3.0929   22.1046   21.5664 H   0  0  0  0  0
   -2.0617   20.9479   20.6731 H   0  0  0  0  0
   -1.8619   21.6500   23.6188 H   0  0  0  0  0
   -0.7330   22.1510   22.3215 H   0  0  0  0  0
    0.0897   20.2477   23.5389 H   0  0  0  0  0
   -1.2744   19.3677   23.1625 H   0  0  0  0  0
   -0.2242   19.8337   21.9555 H   0  0  0  0  0
   -7.3133   20.1315   21.5438 H   0  0  0  0  0
   -7.1929   20.7910   24.3059 H   0  0  0  0  0
   -9.6993   20.7725   22.6656 H   0  0  0  0  0
   -8.2982   22.0033   22.4199 H   0  0  0  0  0
  -10.2570   21.7443   24.6641 H   0  0  0  0  0
   -8.0432   22.1272   25.5854 H   0  0  0  0  0
   -7.7863   23.4775   24.4533 H   0  0  0  0  0
   -9.0423   23.5960   25.7101 H   0  0  0  0  0
   -9.5797   23.9580   22.6934 H   0  0  0  0  0
  -11.0477   22.9501   22.6785 H   0  0  0  0  0
  -10.7572   24.0802   24.0237 H   0  0  0  0  0
   -9.0551   18.2709   22.6003 H   0  0  0  0  0
  -10.3958   17.6391   25.1303 H   0  0  0  0  0
  -10.6232   16.2390   22.4441 H   0  0  0  0  0
  -11.6776   17.6066   23.0244 H   0  0  0  0  0
  -10.8824   14.0103   23.3678 H   0  0  0  0  0
  -13.3790   17.2247   24.6844 H   0  0  0  0  0
  -12.4083   12.3915   24.4312 H   0  0  0  0  0
  -14.9003   15.6025   25.7498 H   0  0  0  0  0
  -15.3188   13.4752   26.1577 H   0  0  0  0  0
   -7.8339   16.3388   23.1069 H   0  0  0  0  0
   -7.8873   13.8714   24.7557 H   0  0  0  0  0
   -6.4252   12.9075   22.9335 H   0  0  0  0  0
   -6.7584   14.4423   22.0037 H   0  0  0  0  0
   -8.4801   11.5690   23.6770 H   0  0  0  0  0
   -8.6095   14.5357   20.5905 H   0  0  0  0  0
  -10.5622   10.5779   22.8139 H   0  0  0  0  0
  -10.7015   13.5544   19.7347 H   0  0  0  0  0
  -12.2193   11.9278   19.9810 H   0  0  0  0  0
   -6.0483   16.7055   24.2079 H   0  0  0  0  0
   -4.1520   15.9473   26.2386 H   0  0  0  0  0
   -4.0931   17.4177   25.1855 H   0  0  0  0  0
   -3.8894   16.3489   22.6932 H   0  0  0  0  0
   -1.9775   14.3725   22.2303 H   0  0  0  0  0
   -1.1991   15.8052   20.3392 H   0  0  0  0  0
   -2.4737   17.0253   20.9474 H   0  0  0  0  0
   -2.8560   14.3273   19.6968 H   0  0  0  0  0
   -4.3505   14.5878   21.5944 H   0  0  0  0  0
   -4.8556   16.1861   20.9933 H   0  0  0  0  0
   -5.2444   14.7202   20.0600 H   0  0  0  0  0
   -3.7309   17.1185   18.9222 H   0  0  0  0  0
   -2.4629   16.1490   18.1327 H   0  0  0  0  0
   -4.1606   15.6154   18.0695 H   0  0  0  0  0
    0.2393   14.2051   22.2945 H   0  0  0  0  0
    1.5540   16.2032   24.0520 H   0  0  0  0  0
    2.7109   17.6086   23.1269 H   0  0  0  0  0
    2.2005   13.3680   23.2332 H   0  0  0  0  0
    1.9152   14.0427   24.8767 H   0  0  0  0  0
    4.1456   13.6302   24.4483 H   0  0  0  0  0
  1  2  1  0  0  0
  2  3  1  0  0  0
  2  5  1  0  0  0
  3  4  2  0  0  0
  3  6  1  0  0  0
  6  7  1  0  0  0
  7  8  1  0  0  0
  7 10  1  0  0  0
  8  9  2  0  0  0
  8 16  1  0  0  0
 10 11  1  0  0  0
 11 12  4  0  0  0
 11 13  4  0  0  0
 12 14  4  0  0  0
 13 15  4  0  0  0
 14 15  4  0  0  0
 16 17  1  0  0  0
 17 18  1  0  0  0
 18 19  2  0  0  0
 18 20  1  0  0  0
 20 21  1  0  0  0
 21 22  1  0  0  0
 21 24  1  0  0  0
 22 23  2  0  0  0
 22 28  1  0  0  0
 24 25  1  0  0  0
 25 26  1  0  0  0
 26 27  1  0  0  0
 28 29  1  0  0  0
 29 30  1  0  0  0
 29 32  1  0  0  0
 30 31  2  0  0  0
 30 36  1  0  0  0
 32 33  1  0  0  0
 33 34  1  0  0  0
 33 35  1  0  0  0
 36 37  1  0  0  0
 37 38  1  0  0  0
 37 40  1  0  0  0
 38 39  2  0  0  0
 38 45  1  0  0  0
 40 41  1  0  0  0
 41 42  1  0  0  0
 42 43  1  0  0  0
 43 44  1  0  0  0
 45 46  1  0  0  0
 46 47  1  0  0  0
 46 49  1  0  0  0
 47 48  2  0  0  0
 47 53  1  0  0  0
 49 50  1  0  0  0
 50 51  1  0  0  0
 50 52  1  0  0  0
 53 54  1  0  0  0
 54 55  1  0  0  0
 54 57  1  0  0  0
 55 56  2  0  0  0
 55 65  1  0  0  0
 57 58  1  0  0  0
 58 59  4  0  0  0
 58 60  4  0  0  0
 59 61  4  0  0  0
 60 62  4  0  0  0
 61 63  4  0  0  0
 62 63  4  0  0  0
 63 64  1  0  0  0
 65 66  1  0  0  0
 66 67  1  0  0  0
 66 69  1  0  0  0
 67 68  2  0  0  0
 67 77  1  0  0  0
 69 70  1  0  0  0
 70 71  4  0  0  0
 70 72  4  0  0  0
 71 73  4  0  0  0
 72 74  4  0  0  0
 73 75  4  0  0  0
 74 75  4  0  0  0
 75 76  1  0  0  0
 77 78  1  0  0  0
 78 79  1  0  0  0
 79 80  2  0  0  0
 79 81  1  0  0  0
 81 82  1  0  0  0
 82 83  1  0  0  0
 82 85  1  0  0  0
 83 84  2  0  0  0
 83 89  1  0  0  0
 85 86  1  0  0  0
 86 87  1  0  0  0
 86 88  1  0  0  0
 89 90  1  0  0  0
 90 91  1  0  0  0
 90 93  1  0  0  0
 91 92  1  0  0  0
 93 94  1  0  0  0
 91 95  2  0  0  0
  1 96  1  0  0  0
  1 97  1  0  0  0
  1 98  1  0  0  0
  2 99  1  0  0  0
  5100  1  0  0  0
  5101  1  0  0  0
  5102  1  0  0  0
  6103  1  0  0  0
  7104  1  0  0  0
 10105  1  0  0  0
 10106  1  0  0  0
 13107  1  0  0  0
 14108  1  0  0  0
 16109  1  0  0  0
 17110  1  0  0  0
 17111  1  0  0  0
 20112  1  0  0  0
 21113  1  0  0  0
 24114  1  0  0  0
 24115  1  0  0  0
 25116  1  0  0  0
 25117  1  0  0  0
 27118  1  0  0  0
 27119  1  0  0  0
 27120  1  0  0  0
 28121  1  0  0  0
 29122  1  0  0  0
 32123  1  0  0  0
 32124  1  0  0  0
 33125  1  0  0  0
 34126  1  0  0  0
 34127  1  0  0  0
 34128  1  0  0  0
 35129  1  0  0  0
 35130  1  0  0  0
 35131  1  0  0  0
 36132  1  0  0  0
 37133  1  0  0  0
 40134  1  0  0  0
 40135  1  0  0  0
 41136  1  0  0  0
 41137  1  0  0  0
 42138  1  0  0  0
 42139  1  0  0  0
 43140  1  0  0  0
 43141  1  0  0  0
 44142  1  0  0  0
 44143  1  0  0  0
 44144  1  0  0  0
 45145  1  0  0  0
 46146  1  0  0  0
 49147  1  0  0  0
 49148  1  0  0  0
 50149  1  0  0  0
 51150  1  0  0  0
 51151  1  0  0  0
 51152  1  0  0  0
 52153  1  0  0  0
 52154  1  0  0  0
 52155  1  0  0  0
 53156  1  0  0  0
 54157  1  0  0  0
 57158  1  0  0  0
 57159  1  0  0  0
 59160  1  0  0  0
 60161  1  0  0  0
 61162  1  0  0  0
 62163  1  0  0  0
 64164  1  0  0  0
 65165  1  0  0  0
 66166  1  0  0  0
 69167  1  0  0  0
 69168  1  0  0  0
 71169  1  0  0  0
 72170  1  0  0  0
 73171  1  0  0  0
 74172  1  0  0  0
 76173  1  0  0  0
 77174  1  0  0  0
 78175  1  0  0  0
 78176  1  0  0  0
 81177  1  0  0  0
 82178  1  0  0  0
 85179  1  0  0  0
 85180  1  0  0  0
 86181  1  0  0  0
 87182  1  0  0  0
 87183  1  0  0  0
 87184  1  0  0  0
 88185  1  0  0  0
 88186  1  0  0  0
 88187  1  0  0  0
 89188  1  0  0  0
 90189  1  0  0  0
 92190  1  0  0  0
 93191  1  0  0  0
 93192  1  0  0  0
 94193  1  0  0  0
M  END
$$$$
