### 
### Created by X-TOOL on Mon Sep 10 21:13:12 2018
### 

@<TRIPOS>MOLECULE
4j2c_ligand
  193   195     1     0     0
SMALL
GAST_HUCK


@<TRIPOS>ATOM
      1 N          -8.2780   21.1540   13.0390 N.4       1 ALA         0.2377
      2 CA         -8.5110   19.8160   13.5670 C.3       1 ALA         0.0621
      3 C          -7.5510   19.4890   14.7100 C.2       1 ALA         0.2265
      4 O          -7.9580   18.9640   15.7520 O.2       1 ALA        -0.3907
      5 CB         -8.3930   18.7930   12.4560 C.3       1 ALA        -0.0040
      6 N          -6.2730   19.8040   14.5120 N.am      1 HIS        -0.2598
      7 CA         -5.2510   19.5000   15.5040 C.3       1 HIS         0.1370
      8 C          -5.6180   20.0950   16.8680 C.2       1 HIS         0.2052
      9 O          -5.6160   19.3970   17.8860 O.2       1 HIS        -0.3942
     10 CB         -3.8900   20.0190   15.0380 C.3       1 HIS         0.0145
     11 CG         -2.7460   19.5340   15.8730 C.2       1 HIS        -0.0027
     12 ND1        -2.0090   20.3670   16.6870 N.2       1 HIS        -0.3252
     13 CD2        -2.2210   18.2950   16.0300 C.2       1 HIS         0.0291
     14 CE1        -1.0760   19.6650   17.3030 C.2       1 HIS         0.0907
     15 NE2        -1.1810   18.4050   16.9200 N.pl3     1 HIS        -0.2752
     16 N          -5.9570   21.3810   16.8690 N.am      1 GLY        -0.2663
     17 CA         -6.2990   22.1020   18.0840 C.3       1 GLY         0.1201
     18 C          -7.5190   21.5710   18.8080 C.2       1 GLY         0.2007
     19 O          -7.5460   21.5480   20.0360 O.2       1 GLY        -0.3947
     20 N          -8.5370   21.1650   18.0540 N.am      1 MET        -0.2639
     21 CA         -9.7000   20.5030   18.6340 C.3       1 MET         0.1317
     22 C          -9.3010   19.2030   19.3180 C.2       1 MET         0.2039
     23 O          -9.6950   18.9330   20.4510 O.2       1 MET        -0.3944
     24 CB        -10.7540   20.2050   17.5630 C.3       1 MET        -0.0034
     25 CG        -11.6360   21.3840   17.2100 C.3       1 MET        -0.0024
     26 SD        -13.0020   20.9240   16.1250 S.3       1 MET        -0.1639
     27 CE        -12.1110   20.4690   14.6380 C.3       1 MET        -0.0181
     28 N          -8.5190   18.3940   18.6180 N.am      1 LEU        -0.2637
     29 CA         -8.0950   17.1090   19.1460 C.3       1 LEU         0.1312
     30 C          -7.1820   17.2900   20.3530 C.2       1 LEU         0.2039
     31 O          -7.2760   16.5510   21.3280 O.2       1 LEU        -0.3944
     32 CB         -7.4040   16.2930   18.0510 C.3       1 LEU        -0.0101
     33 CG         -8.3220   15.8790   16.8970 C.3       1 LEU        -0.0425
     34 CD1        -7.5780   15.0270   15.8810 C.3       1 LEU        -0.0625
     35 CD2        -9.5210   15.1240   17.4370 C.3       1 LEU        -0.0625
     36 N          -6.3060   18.2860   20.2810 N.am      1 LYS        -0.2637
     37 CA         -5.3640   18.5670   21.3570 C.3       1 LYS         0.1310
     38 C          -6.0950   18.9380   22.6340 C.2       1 LYS         0.2039
     39 O          -5.7600   18.4550   23.7160 O.2       1 LYS        -0.3944
     40 CB         -4.4310   19.7140   20.9650 C.3       1 LYS        -0.0122
     41 CG         -3.4290   20.0500   22.0480 C.3       1 LYS        -0.0440
     42 CD         -2.5120   21.1850   21.6370 C.3       1 LYS        -0.0124
     43 CE         -1.4120   21.3710   22.6660 C.3       1 LYS        -0.0354
     44 NZ         -0.6440   20.1040   22.8450 N.4       1 LYS         0.2185
     45 N          -7.0900   19.8080   22.4850 N.am      1 LEU        -0.2637
     46 CA         -7.8780   20.3230   23.5990 C.3       1 LEU         0.1312
     47 C          -8.6090   19.2100   24.3520 C.2       1 LEU         0.2040
     48 O          -8.6560   19.2100   25.5820 O.2       1 LEU        -0.3944
     49 CB         -8.8800   21.3600   23.0800 C.3       1 LEU        -0.0101
     50 CG         -9.5450   22.3140   24.0670 C.3       1 LEU        -0.0425
     51 CD1        -8.5320   22.9220   25.0220 C.3       1 LEU        -0.0625
     52 CD2       -10.2850   23.4030   23.3120 C.3       1 LEU        -0.0625
     53 N          -9.1760   18.2590   23.6130 N.am      1 TYR        -0.2621
     54 CA         -9.9670   17.2010   24.2290 C.3       1 TYR         0.1390
     55 C          -9.1290   16.0030   24.6370 C.2       1 TYR         0.2058
     56 O          -9.4300   15.3540   25.6320 O.2       1 TYR        -0.3942
     57 CB        -11.0890   16.7310   23.2980 C.3       1 TYR         0.0163
     58 CG        -12.0260   15.7350   23.9430 C.ar      1 TYR        -0.0493
     59 CD1       -11.7700   14.3690   23.8890 C.ar      1 TYR        -0.0685
     60 CD2       -13.1590   16.1590   24.6220 C.ar      1 TYR        -0.0685
     61 CE1       -12.6220   13.4590   24.4850 C.ar      1 TYR        -0.0398
     62 CE2       -14.0140   15.2520   25.2210 C.ar      1 TYR        -0.0398
     63 CZ        -13.7420   13.9080   25.1470 C.ar      1 TYR         0.0805
     64 OH        -14.5930   13.0040   25.7420 O.3       1 TYR        -0.3376
     65 N          -8.0910   15.7030   23.8620 N.am      1 TYR        -0.2620
     66 CA         -7.3100   14.4860   24.0650 C.3       1 TYR         0.1390
     67 C          -5.9520   14.7440   24.7210 C.2       1 TYR         0.2055
     68 O          -5.3360   13.8300   25.2640 O.2       1 TYR        -0.3942
     69 CB         -7.1190   13.7260   22.7420 C.3       1 TYR         0.0163
     70 CG         -8.3950   13.1200   22.1990 C.ar      1 TYR        -0.0493
     71 CD1        -8.9640   12.0090   22.8050 C.ar      1 TYR        -0.0685
     72 CD2        -9.0380   13.6640   21.0850 C.ar      1 TYR        -0.0685
     73 CE1       -10.1300   11.4510   22.3250 C.ar      1 TYR        -0.0398
     74 CE2       -10.2070   13.1150   20.6010 C.ar      1 TYR        -0.0398
     75 CZ        -10.7470   12.0060   21.2200 C.ar      1 TYR         0.0805
     76 OH        -11.9120   11.4360   20.7460 O.3       1 TYR        -0.3376
     77 N          -5.4870   15.9830   24.6590 N.am      1 GLY        -0.2663
     78 CA         -4.1950   16.3330   25.2200 C.3       1 GLY         0.1201
     79 C          -3.0480   15.7270   24.4380 C.2       1 GLY         0.2007
     80 O          -2.1470   15.1110   25.0150 O.2       1 GLY        -0.3947
     81 N          -3.0780   15.9000   23.1180 N.am      1 LEU        -0.2640
     82 CA         -1.9760   15.4620   22.2630 C.3       1 LEU         0.1312
     83 C          -0.6480   15.9520   22.8370 C.2       1 LEU         0.2034
     84 O          -0.5570   17.0690   23.3570 O.2       1 LEU        -0.3944
     85 CB         -2.1510   15.9900   20.8370 C.3       1 LEU        -0.0101
     86 CG         -3.2060   15.3260   19.9580 C.3       1 LEU        -0.0425
     87 CD1        -4.5040   15.1960   20.7030 C.3       1 LEU        -0.0625
     88 CD2        -3.4040   16.1070   18.6810 C.3       1 LEU        -0.0625
     89 N           0.3760   15.1100   22.7450 N.am      1 SER        -0.2672
     90 CA          1.6900   15.4520   23.2740 C.3       1 SER         0.1173
     91 C           2.5800   16.0530   22.1910 C.2       1 SER         0.0623
     92 O           3.0238   17.2269   22.3035 O.co2     1 SER        -0.5665
     93 CB          2.3570   14.2190   23.8960 C.3       1 SER         0.0789
     94 OG          3.7560   14.4160   24.0580 O.3       1 SER        -0.3910
     95 O           2.8742   15.3693   21.1744 O.co2     1 SER        -0.5665
     96 H1         -8.9261   21.3368   12.2889 H         1 ALA         0.2015
     97 H2         -7.3343   21.2182   12.6907 H         1 ALA         0.2015
     98 H3         -8.4125   21.8327   13.7721 H         1 ALA         0.2015
     99 H4         -9.5364   19.7781   13.9635 H         1 ALA         0.1095
    100 H5         -8.5703   17.7869   12.8637 H         1 ALA         0.0310
    101 H6         -7.3840   18.8395   12.0204 H         1 ALA         0.0310
    102 H7         -9.1390   19.0097   11.6772 H         1 ALA         0.0310
    103 H8         -6.0084   20.2600   13.6623 H         1 HIS         0.1886
    104 H9         -5.1872   18.4071   15.6110 H         1 HIS         0.0817
    105 H10        -3.9058   21.1183   15.0747 H         1 HIS         0.0420
    106 H11        -3.7283   19.6889   14.0012 H         1 HIS         0.0420
    107 H12        -2.5602   17.3826   15.5418 H         1 HIS         0.0729
    108 H13        -0.3441   20.0578   18.0072 H         1 HIS         0.1199
    109 H14        -0.5803   17.6308   17.2374 H         1 HIS         0.2361
    110 H15        -5.9775   21.8721   15.9982 H         1 GLY         0.1881
    111 H16        -6.4876   23.1526   17.8184 H         1 GLY         0.0763
    112 H17        -5.4410   22.0455   18.7700 H         1 GLY         0.0763
    113 H18        -8.5041   21.3173   17.0662 H         1 MET         0.1883
    114 H19       -10.1415   21.1750   19.3847 H         1 MET         0.0800
    115 H20       -11.3972   19.3916   17.9299 H         1 MET         0.0320
    116 H21       -10.2344   19.8783   16.6501 H         1 MET         0.0320
    117 H22       -11.0232   22.1438   16.7029 H         1 MET         0.0378
    118 H23       -12.0493   21.8058   18.1380 H         1 MET         0.0378
    119 H24       -12.8264   20.1569   13.8629 H         1 MET         0.0340
    120 H25       -11.4261   19.6376   14.8608 H         1 MET         0.0340
    121 H26       -11.5337   21.3332   14.2775 H         1 MET         0.0340
    122 H27        -8.2145   18.6739   17.7075 H         1 LEU         0.1883
    123 H28        -8.9892   16.5585   19.4736 H         1 LEU         0.0800
    124 H29        -6.9937   15.3807   18.5086 H         1 LEU         0.0315
    125 H30        -6.5829   16.8972   17.6378 H         1 LEU         0.0315
    126 H31        -8.6781   16.7890   16.3920 H         1 LEU         0.0298
    127 H32        -8.2622   14.7463   15.0667 H         1 LEU         0.0232
    128 H33        -7.1995   14.1181   16.3716 H         1 LEU         0.0232
    129 H34        -6.7341   15.6002   15.4696 H         1 LEU         0.0232
    130 H35       -10.0495   15.7512   18.1700 H         1 LEU         0.0232
    131 H36        -9.1822   14.1976   17.9238 H         1 LEU         0.0232
    132 H37       -10.2012   14.8756   16.6090 H         1 LEU         0.0232
    133 H38        -6.2925   18.8610   19.4629 H         1 LYS         0.1883
    134 H39        -4.7627   17.6645   21.5409 H         1 LYS         0.0800
    135 H40        -5.0391   20.6072   20.7593 H         1 LYS         0.0312
    136 H41        -3.8827   19.4262   20.0558 H         1 LYS         0.0312
    137 H42        -2.8196   19.1586   22.2577 H         1 LYS         0.0269
    138 H43        -3.9734   20.3442   22.9574 H         1 LYS         0.0269
    139 H44        -3.0964   22.1136   21.5584 H         1 LYS         0.0317
    140 H45        -2.0607   20.9520   20.6613 H         1 LYS         0.0317
    141 H46        -1.8609   21.6610   23.6274 H         1 LYS         0.0813
    142 H47        -0.7288   22.1634   22.3264 H         1 LYS         0.0813
    143 H48         0.0814   20.2448   23.5306 H         1 LYS         0.1994
    144 H49        -0.2286   19.8359   21.9666 H         1 LYS         0.1994
    145 H50        -1.2660   19.3755   23.1588 H         1 LYS         0.1994
    146 H51        -7.3089   20.1251   21.5622 H         1 LEU         0.1883
    147 H52        -7.1940   20.8187   24.3035 H         1 LEU         0.0800
    148 H53        -9.6859   20.8045   22.5780 H         1 LEU         0.0315
    149 H54        -8.3479   21.9799   22.3434 H         1 LEU         0.0315
    150 H55       -10.2750   21.7434   24.6598 H         1 LEU         0.0298
    151 H56        -9.0458   23.6024   25.7170 H         1 LEU         0.0232
    152 H57        -7.7789   23.4830   24.4493 H         1 LEU         0.0232
    153 H58        -8.0379   22.1209   25.5913 H         1 LEU         0.0232
    154 H59       -11.0129   22.9442   22.6266 H         1 LEU         0.0232
    155 H60        -9.5657   24.0028   22.7351 H         1 LEU         0.0232
    156 H61       -10.8128   24.0512   24.0271 H         1 LEU         0.0232
    157 H62        -9.0575   18.2706   22.6201 H         1 TYR         0.1885
    158 H63       -10.4261   17.6181   25.1374 H         1 TYR         0.0821
    159 H64       -10.6344   16.2602   22.4139 H         1 TYR         0.0453
    160 H65       -11.6740   17.6087   22.9860 H         1 TYR         0.0453
    161 H66       -10.8873   14.0123   23.3707 H         1 TYR         0.0530
    162 H67       -13.3778   17.2189   24.6841 H         1 TYR         0.0530
    163 H68       -12.4095   12.3974   24.4315 H         1 TYR         0.0525
    164 H69       -14.8955   15.6006   25.7469 H         1 TYR         0.0525
    165 H70       -14.2664   12.1231   25.6010 H         1 TYR         0.2458
    166 H71        -7.8390   16.3263   23.1217 H         1 TYR         0.1885
    167 H72        -7.8856   13.8399   24.7441 H         1 TYR         0.0821
    168 H73        -6.3933   12.9162   22.9083 H         1 TYR         0.0453
    169 H74        -6.7213   14.4268   21.9932 H         1 TYR         0.0453
    170 H75        -8.4828   11.5714   23.6722 H         1 TYR         0.0530
    171 H76        -8.6118   14.5309   20.5932 H         1 TYR         0.0530
    172 H77       -10.5598   10.5827   22.8112 H         1 TYR         0.0525
    173 H78       -10.6988   13.5520   19.7395 H         1 TYR         0.0525
    174 H79       -12.6128   12.0765   20.7790 H         1 TYR         0.2458
    175 H80        -6.0373   16.6913   24.2168 H         1 GLY         0.1881
    176 H81        -4.1485   15.9683   26.2567 H         1 GLY         0.0763
    177 H82        -4.0900   17.4279   25.2114 H         1 GLY         0.0763
    178 H83        -3.8735   16.3401   22.7015 H         1 LEU         0.1883
    179 H84        -1.9677   14.3624   22.2337 H         1 LEU         0.0800
    180 H85        -1.1829   15.8822   20.3260 H         1 LEU         0.0315
    181 H86        -2.4097   17.0565   20.9113 H         1 LEU         0.0315
    182 H87        -2.8539   14.3174   19.6959 H         1 LEU         0.0298
    183 H88        -5.2521   14.7159   20.0551 H         1 LEU         0.0232
    184 H89        -4.8600   16.1946   20.9965 H         1 LEU         0.0232
    185 H90        -4.3504   14.5823   21.6029 H         1 LEU         0.0232
    186 H91        -2.4442   16.1915   18.1503 H         1 LEU         0.0232
    187 H92        -3.7801   17.1125   18.9207 H         1 LEU         0.0232
    188 H93        -4.1318   15.5860   18.0416 H         1 LEU         0.0232
    189 H94         0.2420   14.2229   22.3034 H         1 SER         0.1876
    190 H95         1.5554   16.2059   24.0636 H         1 SER         0.0749
    191 H96         2.1907   13.3520   23.2397 H         1 SER         0.0599
    192 H97         1.9059   14.0256   24.8804 H         1 SER         0.0599
    193 H98         4.1416   13.6383   24.4442 H         1 SER         0.2096
@<TRIPOS>BOND
     1    1    2 1  
     2    2    3 1  
     3    2    5 1  
     4    3    4 2  
     5    3    6 am 
     6    6    7 1  
     7    7    8 1  
     8    7   10 1  
     9    8    9 2  
    10    8   16 am 
    11   10   11 1  
    12   11   12 1  
    13   11   13 2  
    14   12   14 2  
    15   13   15 1  
    16   14   15 1  
    17   16   17 1  
    18   17   18 1  
    19   18   19 2  
    20   18   20 am 
    21   20   21 1  
    22   21   22 1  
    23   21   24 1  
    24   22   23 2  
    25   22   28 am 
    26   24   25 1  
    27   25   26 1  
    28   26   27 1  
    29   28   29 1  
    30   29   30 1  
    31   29   32 1  
    32   30   31 2  
    33   30   36 am 
    34   32   33 1  
    35   33   34 1  
    36   33   35 1  
    37   36   37 1  
    38   37   38 1  
    39   37   40 1  
    40   38   39 2  
    41   38   45 am 
    42   40   41 1  
    43   41   42 1  
    44   42   43 1  
    45   43   44 1  
    46   45   46 1  
    47   46   47 1  
    48   46   49 1  
    49   47   48 2  
    50   47   53 am 
    51   49   50 1  
    52   50   51 1  
    53   50   52 1  
    54   53   54 1  
    55   54   55 1  
    56   54   57 1  
    57   55   56 2  
    58   55   65 am 
    59   57   58 1  
    60   58   59 ar 
    61   58   60 ar 
    62   59   61 ar 
    63   60   62 ar 
    64   61   63 ar 
    65   62   63 ar 
    66   63   64 1  
    67   65   66 1  
    68   66   67 1  
    69   66   69 1  
    70   67   68 2  
    71   67   77 am 
    72   69   70 1  
    73   70   71 ar 
    74   70   72 ar 
    75   71   73 ar 
    76   72   74 ar 
    77   73   75 ar 
    78   74   75 ar 
    79   75   76 1  
    80   77   78 1  
    81   78   79 1  
    82   79   80 2  
    83   79   81 am 
    84   81   82 1  
    85   82   83 1  
    86   82   85 1  
    87   83   84 2  
    88   83   89 am 
    89   85   86 1  
    90   86   87 1  
    91   86   88 1  
    92   89   90 1  
    93   90   91 1  
    94   90   93 1  
    95   91   92 ar 
    96   93   94 1  
    97   91   95 ar 
    98    1   96 1  
    99    1   97 1  
   100    1   98 1  
   101    2   99 1  
   102    5  100 1  
   103    5  101 1  
   104    5  102 1  
   105    6  103 1  
   106    7  104 1  
   107   10  105 1  
   108   10  106 1  
   109   13  107 1  
   110   14  108 1  
   111   15  109 1  
   112   16  110 1  
   113   17  111 1  
   114   17  112 1  
   115   20  113 1  
   116   21  114 1  
   117   24  115 1  
   118   24  116 1  
   119   25  117 1  
   120   25  118 1  
   121   27  119 1  
   122   27  120 1  
   123   27  121 1  
   124   28  122 1  
   125   29  123 1  
   126   32  124 1  
   127   32  125 1  
   128   33  126 1  
   129   34  127 1  
   130   34  128 1  
   131   34  129 1  
   132   35  130 1  
   133   35  131 1  
   134   35  132 1  
   135   36  133 1  
   136   37  134 1  
   137   40  135 1  
   138   40  136 1  
   139   41  137 1  
   140   41  138 1  
   141   42  139 1  
   142   42  140 1  
   143   43  141 1  
   144   43  142 1  
   145   44  143 1  
   146   44  144 1  
   147   44  145 1  
   148   45  146 1  
   149   46  147 1  
   150   49  148 1  
   151   49  149 1  
   152   50  150 1  
   153   51  151 1  
   154   51  152 1  
   155   51  153 1  
   156   52  154 1  
   157   52  155 1  
   158   52  156 1  
   159   53  157 1  
   160   54  158 1  
   161   57  159 1  
   162   57  160 1  
   163   59  161 1  
   164   60  162 1  
   165   61  163 1  
   166   62  164 1  
   167   64  165 1  
   168   65  166 1  
   169   66  167 1  
   170   69  168 1  
   171   69  169 1  
   172   71  170 1  
   173   72  171 1  
   174   73  172 1  
   175   74  173 1  
   176   76  174 1  
   177   77  175 1  
   178   78  176 1  
   179   78  177 1  
   180   81  178 1  
   181   82  179 1  
   182   85  180 1  
   183   85  181 1  
   184   86  182 1  
   185   87  183 1  
   186   87  184 1  
   187   87  185 1  
   188   88  186 1  
   189   88  187 1  
   190   88  188 1  
   191   89  189 1  
   192   90  190 1  
   193   93  191 1  
   194   93  192 1  
   195   94  193 1  
@<TRIPOS>SUBSTRUCTURE
     1 ALA         1

