### 
### Created by X-TOOL on Mon Sep 10 21:12:55 2018
### 

@<TRIPOS>MOLECULE
2qcf_ligand
   32    33     1     0     0
SMALL
GAST_HUCK


@<TRIPOS>ATOM
      1 F5         16.3060    8.7520   33.7230 F         1 5FU        -0.2165
      2 C5         15.9800    9.2210   34.9890 C.2       1 5FU         0.1931
      3 C4         16.9390    9.4440   35.9280 C.2       1 5FU         0.2212
      4 O4         18.1720    9.1820   35.7460 O.2       1 5FU        -0.4071
      5 N3         16.5800    9.8720   37.1420 N.am      1 5FU        -0.1842
      6 C2         15.2840   10.1580   37.4230 C.2       1 5FU         0.3295
      7 O2         14.9760   10.5570   38.5550 O.2       1 5FU        -0.3830
      8 C6         14.6790    9.5550   35.2410 C.2       1 5FU         0.0880
      9 N1         14.3380    9.9890   36.4470 N.am      1 5FU        -0.1635
     10 C1'        12.9200   10.2800   36.6940 C.3       1 5FU         0.2035
     11 O4'        12.7930   11.6730   37.0280 O.3       1 5FU        -0.3367
     12 C2'        12.2680    9.5120   37.8100 C.3       1 5FU         0.1382
     13 O2'        11.6420    8.3250   37.3530 O.3       1 5FU        -0.3837
     14 C3'        11.2490   10.4610   38.3510 C.3       1 5FU         0.1148
     15 O3'        10.0380   10.3420   37.6040 O.3       1 5FU        -0.3864
     16 C4'        11.8760   11.8080   38.1280 C.3       1 5FU         0.1181
     17 C5'        12.6580   12.2880   39.3330 C.3       1 5FU         0.1071
     18 O5'        11.6870   12.5960   40.3270 O.3       1 5FU        -0.2734
     19 P          12.0870   13.2910   41.7190 P.3       1 5FU         0.2008
     20 O1P        10.8150   13.1480   42.4880 O.co2     1 5FU        -0.5537
     21 O2P        13.2260   12.5200   42.3150 O.co2     1 5FU        -0.5537
     22 O3P        12.3990   14.7290   41.4060 O.co2     1 5FU        -0.5537
     23 H1         17.2753    9.9828   37.8521 H         1 5FU         0.2260
     24 H2         13.9280    9.4655   34.4575 H         1 5FU         0.1107
     25 H3         12.3681   10.0693   35.7661 H         1 5FU         0.0991
     26 H4         13.0090    9.2542   38.5810 H         1 5FU         0.0676
     27 H5         12.2910    7.7618   36.9478 H         1 5FU         0.2101
     28 H6         11.0548   10.2808   39.4186 H         1 5FU         0.0648
     29 H7          9.3926   10.9467   37.9508 H         1 5FU         0.2100
     30 H8         11.0930   12.5418   37.8863 H         1 5FU         0.0650
     31 H9         13.2429   13.1841   39.0781 H         1 5FU         0.0639
     32 H10        13.3347   11.4978   39.6903 H         1 5FU         0.0639
@<TRIPOS>BOND
     1    1    2 1  
     2    2    3 1  
     3    2    8 2  
     4    3    4 2  
     5    3    5 am 
     6    5    6 am 
     7    6    7 2  
     8    6    9 am 
     9    8    9 1  
    10    9   10 1  
    11   10   11 1  
    12   10   12 1  
    13   11   16 1  
    14   12   13 1  
    15   12   14 1  
    16   14   15 1  
    17   14   16 1  
    18   16   17 1  
    19   17   18 1  
    20   18   19 1  
    21   19   20 ar 
    22   19   21 ar 
    23   19   22 ar 
    24    5   23 1  
    25    8   24 1  
    26   10   25 1  
    27   12   26 1  
    28   13   27 1  
    29   14   28 1  
    30   15   29 1  
    31   16   30 1  
    32   17   31 1  
    33   17   32 1  
@<TRIPOS>SUBSTRUCTURE
     1 5FU         1

