2qcf_ligand
  -I-interpret- 

 34 35  0  0  0  0  0  0  0  0999 V2000
   16.3060    8.7520   33.7230 F   0  0  0  0  0
   15.9800    9.2210   34.9890 C   0  0  0  0  0
   16.9390    9.4440   35.9280 C   0  0  0  0  0
   18.1720    9.1820   35.7460 O   0  0  0  0  0
   16.5800    9.8720   37.1420 N   0  0  0  0  0
   15.2840   10.1580   37.4230 C   0  0  0  0  0
   14.9760   10.5570   38.5550 O   0  0  0  0  0
   14.6790    9.5550   35.2410 C   0  0  0  0  0
   14.3380    9.9890   36.4470 N   0  0  0  0  0
   12.9200   10.2800   36.6940 C   0  0  0  0  0
   12.7930   11.6730   37.0280 O   0  0  0  0  0
   12.2680    9.5120   37.8100 C   0  0  0  0  0
   11.6420    8.3250   37.3530 O   0  0  0  0  0
   11.2490   10.4610   38.3510 C   0  0  0  0  0
   10.0380   10.3420   37.6040 O   0  0  0  0  0
   11.8760   11.8080   38.1280 C   0  0  0  0  0
   12.6580   12.2880   39.3330 C   0  0  0  0  0
   11.6870   12.5960   40.3270 O   0  0  0  0  0
   12.0870   13.2910   41.7190 P   0  0  0  0  0
   10.8150   13.1480   42.4880 O   0  0  0  0  0
   13.2260   12.5200   42.3150 O   0  0  0  0  0
   12.3990   14.7290   41.4060 O   0  0  0  0  0
   17.2892    9.9850   37.8663 H   0  0  0  0  0
   13.9273    9.4654   34.4568 H   0  0  0  0  0
   12.4143    9.9840   35.7749 H   0  0  0  0  0
   12.9968    9.1859   38.5520 H   0  0  0  0  0
   11.2409    7.8694   38.0967 H   0  0  0  0  0
   10.9950   10.2812   39.3956 H   0  0  0  0  0
    9.3858   10.9531   37.9544 H   0  0  0  0  0
   11.0843   12.5320   37.9352 H   0  0  0  0  0
   13.2668   13.1588   39.0897 H   0  0  0  0  0
   13.3556   11.5268   39.6822 H   0  0  0  0  0
   14.0129   12.6495   41.7806 H   0  0  0  0  0
   13.2213   14.7768   40.9128 H   0  0  0  0  0
  1  2  1  0  0  0
  2  3  1  0  0  0
  2  8  2  0  0  0
  3  4  2  0  0  0
  3  5  1  0  0  0
  5  6  1  0  0  0
  6  7  2  0  0  0
  6  9  1  0  0  0
  8  9  1  0  0  0
  9 10  1  0  0  0
 10 11  1  0  0  0
 10 12  1  0  0  0
 11 16  1  0  0  0
 12 13  1  0  0  0
 12 14  1  0  0  0
 14 15  1  0  0  0
 14 16  1  0  0  0
 16 17  1  0  0  0
 17 18  1  0  0  0
 18 19  1  0  0  0
 19 20  2  0  0  0
 19 21  1  0  0  0
 19 22  1  0  0  0
  5 23  1  0  0  0
  8 24  1  0  0  0
 10 25  1  0  0  0
 12 26  1  0  0  0
 13 27  1  0  0  0
 14 28  1  0  0  0
 15 29  1  0  0  0
 16 30  1  0  0  0
 17 31  1  0  0  0
 17 32  1  0  0  0
 21 33  1  0  0  0
 22 34  1  0  0  0
M  END
$$$$
