2cle_ligand
  -I-interpret- 

 32 32  0  0  0  0  0  0  0  0999 V2000
   51.7200   23.8780   14.4210 C   0  0  0  0  0
   50.4650   23.6580   15.0880 C   0  0  0  0  0
   49.4940   24.7100   15.1640 C   0  0  0  0  0
   49.7460   26.0110   14.5690 C   0  0  0  0  0
   51.0070   26.2460   13.8880 C   0  0  0  0  0
   51.9940   25.1730   13.8140 C   0  0  0  0  0
   52.7120   22.9250   14.3270 O   0  0  0  0  0
   52.5400   21.9660   13.2950 C   0  0  0  0  0
   51.4150   21.2770   13.4470 F   0  0  0  0  0
   53.5420   21.1010   13.3040 F   0  0  0  0  0
   52.5060   22.5380   12.1010 F   0  0  0  0  0
   48.6630   27.0920   14.7260 C   0  0  0  0  0
   48.4310   27.5240   13.4460 N   0  0  0  0  0
   47.6640   26.7460   15.3430 O   0  0  0  0  0
   47.2740   28.4610   13.3530 C   0  0  0  0  0
   46.9120   28.9840   11.9940 C   0  0  0  0  0
   47.6020   28.4260   10.9790 O   0  0  0  0  0
   47.9130   29.5930    9.8780 P   0  0  0  0  0
   48.2130   28.9380    8.5470 O   0  0  0  0  0
   49.1300   30.2750   10.4310 O   0  0  0  0  0
   46.6000   30.3370    9.7450 O   0  0  0  0  0
   50.2514   22.6881   15.5373 H   0  0  0  0  0
   48.5495   24.5304   15.6776 H   0  0  0  0  0
   51.2148   27.2158   13.4358 H   0  0  0  0  0
   52.9411   25.3420   13.3017 H   0  0  0  0  0
   48.9898   27.2356   12.6429 H   0  0  0  0  0
   47.5580   29.3361   13.9375 H   0  0  0  0  0
   46.4075   27.8907   13.6877 H   0  0  0  0  0
   47.1433   30.0492   11.9898 H   0  0  0  0  0
   45.8599   28.7499   11.8316 H   0  0  0  0  0
   47.4198   28.5101    8.2162 H   0  0  0  0  0
   45.9365   29.7495    9.3759 H   0  0  0  0  0
  1  2  4  0  0  0
  1  6  4  0  0  0
  1  7  1  0  0  0
  2  3  4  0  0  0
  3  4  4  0  0  0
  4  5  4  0  0  0
  4 12  1  0  0  0
  5  6  4  0  0  0
  7  8  1  0  0  0
  8  9  1  0  0  0
  8 10  1  0  0  0
  8 11  1  0  0  0
 12 13  1  0  0  0
 12 14  2  0  0  0
 13 15  1  0  0  0
 15 16  1  0  0  0
 16 17  1  0  0  0
 17 18  1  0  0  0
 18 19  1  0  0  0
 18 20  2  0  0  0
 18 21  1  0  0  0
  2 22  1  0  0  0
  3 23  1  0  0  0
  5 24  1  0  0  0
  6 25  1  0  0  0
 13 26  1  0  0  0
 15 27  1  0  0  0
 15 28  1  0  0  0
 16 29  1  0  0  0
 16 30  1  0  0  0
 19 31  1  0  0  0
 21 32  1  0  0  0
M  END
$$$$
