4h2m_ligand
  -I-interpret- 

 56 58  0  0  0  0  0  0  0  0999 V2000
   43.6140   21.8290   65.9910 N   0  3  0  0  0
   42.7460   22.4760   64.9890 C   0  0  0  0  0
   43.3460   23.7360   64.3830 C   0  0  0  0  0
   43.0530   23.8210   63.0270 C   0  0  0  0  0
   43.3060   25.0060   62.3870 C   0  0  0  0  0
   42.5430   22.7310   62.3240 C   0  0  0  0  0
   42.2700   22.8430   60.9920 C   0  0  0  0  0
   41.5870   21.3850   59.9690 Br  0  0  0  0  0
   42.5280   24.0660   60.3990 C   0  0  0  0  0
   43.0390   25.1610   61.0510 C   0  0  0  0  0
   43.2710   26.4020   60.3900 C   0  0  0  0  0
   43.4700   27.5110   59.7440 C   0  0  0  0  0
   43.6700   28.6730   59.0200 C   0  0  0  0  0
   43.9830   29.8800   59.6150 C   0  0  0  0  0
   43.5410   28.6470   57.6580 C   0  0  0  0  0
   43.7420   29.7630   56.8700 C   0  0  0  0  0
   44.0500   30.9700   57.4720 C   0  0  0  0  0
   44.1750   31.0320   58.8490 C   0  0  0  0  0
   44.4830   32.2910   59.4930 C   0  0  0  0  0
   44.6950   33.0700   59.9200 C   0  0  0  0  0
   45.0570   34.3570   60.6650 C   0  0  0  0  0
   45.7410   34.3020   61.8760 C   0  0  0  0  0
   44.7130   35.6020   60.1490 C   0  0  0  0  0
   45.0230   36.7830   60.8210 C   0  0  0  0  0
   44.5660   38.4480   60.1200 Br  0  0  0  0  0
   45.6880   36.7150   62.0150 C   0  0  0  0  0
   46.0430   35.4820   62.5510 C   0  0  0  0  0
   46.7050   35.4470   63.7650 C   0  0  0  0  0
   45.7260   35.7320   64.9050 C   0  0  0  0  0
   45.4040   34.6050   65.7910 N   0  3  0  0  0
   43.1507   20.9955   66.3529 H   0  0  0  0  0
   44.4976   21.5659   65.5545 H   0  0  0  0  0
   43.7918   22.4798   66.7560 H   0  0  0  0  0
   41.8239   22.7642   65.4938 H   0  0  0  0  0
   42.5968   21.7632   64.1779 H   0  0  0  0  0
   44.4285   23.7038   64.5068 H   0  0  0  0  0
   42.9232   24.6042   64.8885 H   0  0  0  0  0
   43.7266   25.8395   62.9495 H   0  0  0  0  0
   42.3620   21.7876   62.8392 H   0  0  0  0  0
   42.3095   24.1678   59.3360 H   0  0  0  0  0
   43.5401   26.8782   61.3328 H   0  0  0  0  0
   43.7780   28.0104   60.6626 H   0  0  0  0  0
   44.0816   29.9340   60.6992 H   0  0  0  0  0
   43.2688   27.7081   57.1759 H   0  0  0  0  0
   43.6589   29.6937   55.7854 H   0  0  0  0  0
   44.1931   31.8651   56.8666 H   0  0  0  0  0
   46.0387   33.3403   62.2938 H   0  0  0  0  0
   44.1879   35.6554   59.1953 H   0  0  0  0  0
   45.9406   37.6314   62.5483 H   0  0  0  0  0
   47.4881   36.2051   63.7677 H   0  0  0  0  0
   47.1412   34.4582   63.9065 H   0  0  0  0  0
   44.7877   36.0209   64.4315 H   0  0  0  0  0
   46.2055   36.4823   65.5337 H   0  0  0  0  0
   44.7467   34.9141   66.5071 H   0  0  0  0  0
   44.9842   33.8533   65.2441 H   0  0  0  0  0
   46.2584   34.2680   66.2347 H   0  0  0  0  0
  1  2  1  0  0  0
  2  3  1  0  0  0
  3  4  1  0  0  0
  4  5  4  0  0  0
  4  6  4  0  0  0
  5 10  4  0  0  0
  6  7  4  0  0  0
  7  8  1  0  0  0
  7  9  4  0  0  0
  9 10  4  0  0  0
 10 11  1  0  0  0
 11 12  2  0  0  0
 12 13  1  0  0  0
 13 14  4  0  0  0
 13 15  4  0  0  0
 14 18  4  0  0  0
 15 16  4  0  0  0
 16 17  4  0  0  0
 17 18  4  0  0  0
 18 19  1  0  0  0
 19 20  3  0  0  0
 20 21  1  0  0  0
 21 22  4  0  0  0
 21 23  4  0  0  0
 22 27  4  0  0  0
 23 24  4  0  0  0
 24 25  1  0  0  0
 24 26  4  0  0  0
 26 27  4  0  0  0
 27 28  1  0  0  0
 28 29  1  0  0  0
 29 30  1  0  0  0
  1 31  1  0  0  0
  1 32  1  0  0  0
  1 33  1  0  0  0
  2 34  1  0  0  0
  2 35  1  0  0  0
  3 36  1  0  0  0
  3 37  1  0  0  0
  5 38  1  0  0  0
  6 39  1  0  0  0
  9 40  1  0  0  0
 11 41  1  0  0  0
 12 42  1  0  0  0
 14 43  1  0  0  0
 15 44  1  0  0  0
 16 45  1  0  0  0
 17 46  1  0  0  0
 22 47  1  0  0  0
 23 48  1  0  0  0
 26 49  1  0  0  0
 28 50  1  0  0  0
 28 51  1  0  0  0
 29 52  1  0  0  0
 29 53  1  0  0  0
 30 54  1  0  0  0
 30 55  1  0  0  0
 30 56  1  0  0  0
M  END
$$$$
