3gss_ligand
  -I-interpret- 

 69 69  0  0  0  0  0  0  0  0999 V2000
   14.7060   10.8820   23.3290 N   0  3  0  0  0
   14.5890   10.0180   24.5180 C   0  0  0  0  0
   15.6900    8.9740   24.4280 C   0  0  0  0  0
   16.1050    8.4440   25.4750 O   0  0  0  0  0
   16.1610    8.7210   23.2970 O   0  0  0  0  0
   13.2180    9.3520   24.5340 C   0  0  0  0  0
   12.9620    8.5240   25.7690 C   0  0  0  0  0
   11.5130    8.1270   25.9040 C   0  0  0  0  0
   10.7590    8.1250   24.9380 O   0  0  0  0  0
   11.1200    7.7560   27.1100 N   0  0  0  0  0
    9.7400    7.3830   27.3600 C   0  0  0  0  0
    9.3730    7.7640   28.7820 C   0  0  0  0  0
   10.2510    7.9770   29.6200 O   0  0  0  0  0
    9.5250    5.8930   27.1140 C   0  0  0  0  0
   10.2670    4.8490   28.3470 S   0  0  0  0  0
    8.0740    7.8490   29.0420 N   0  0  0  0  0
    7.6000    8.2300   30.3560 C   0  0  0  0  0
    6.9270    9.5890   30.2680 C   0  0  0  0  0
    6.1760    9.9410   31.1900 O   0  0  0  0  0
    7.1240   10.3010   29.2620 O   0  0  0  0  0
    3.8860    5.0690   25.4440 C   0  0  0  0  0
    2.6310    5.5870   25.1570 O   0  0  0  0  0
    4.9500    5.4220   24.5780 C   0  0  0  0  0
    4.6470    6.5010   23.2010 Cl  0  0  0  0  0
    6.2520    4.9130   24.8010 C   0  0  0  0  0
    7.5490    5.4180   23.6940 Cl  0  0  0  0  0
    6.4940    4.0200   25.8960 C   0  0  0  0  0
    5.4100    3.6880   26.7440 C   0  0  0  0  0
    4.1360    4.1990   26.5170 C   0  0  0  0  0
    7.8590    3.3760   26.1530 C   0  0  0  0  0
    8.6650    3.1560   25.2470 O   0  0  0  0  0
    8.3570    2.9460   27.5890 C   0  0  0  0  0
    7.8640    1.5480   28.0140 C   0  0  0  0  0
    8.3880    0.9600   29.3190 C   0  0  0  0  0
    9.8630    3.1710   27.8400 C   0  0  0  0  0
    1.5370    4.8070   24.5820 C   0  0  0  0  0
    0.7460    5.5470   23.5080 C   0  0  0  0  0
   -0.4730    5.2960   23.3800 O   0  0  0  0  0
    1.3270    6.4210   22.8180 O   0  0  0  0  0
   15.6244   11.3258   23.3217 H   0  0  0  0  0
   14.5934   10.3170   22.4873 H   0  0  0  0  0
   13.9809   11.5988   23.3584 H   0  0  0  0  0
   14.6918   10.5957   25.4366 H   0  0  0  0  0
   15.6961    9.2380   22.6350 H   0  0  0  0  0
   13.1707    8.6816   23.6759 H   0  0  0  0  0
   12.4699   10.1444   24.5113 H   0  0  0  0  0
   13.2302    9.1236   26.6389 H   0  0  0  0  0
   13.5559    7.6131   25.6938 H   0  0  0  0  0
   11.7949    7.7315   27.8744 H   0  0  0  0  0
    9.0897    7.9194   26.6690 H   0  0  0  0  0
    9.9909    5.6503   26.1589 H   0  0  0  0  0
    8.4505    5.7111   27.1373 H   0  0  0  0  0
    7.3997    7.6428   28.3050 H   0  0  0  0  0
    8.4407    8.2817   31.0479 H   0  0  0  0  0
    6.8854    7.4900   30.7164 H   0  0  0  0  0
    7.7323    9.8539   28.6690 H   0  0  0  0  0
    5.5764    3.0204   27.5894 H   0  0  0  0  0
    3.3193    3.9195   27.1826 H   0  0  0  0  0
    7.8677    3.6473   28.2649 H   0  0  0  0  0
    8.2155    0.8719   27.2346 H   0  0  0  0  0
    6.7894    1.6564   28.1606 H   0  0  0  0  0
    9.4730    0.8699   29.2656 H   0  0  0  0  0
    8.1168    1.6159   30.1463 H   0  0  0  0  0
    7.9476   -0.0248   29.4750 H   0  0  0  0  0
   10.3826    2.9796   26.9011 H   0  0  0  0  0
   10.1623    2.5046   28.6489 H   0  0  0  0  0
    0.8448    4.5749   25.3914 H   0  0  0  0  0
    1.9785    3.9286   24.1112 H   0  0  0  0  0
    2.2534    6.4597   23.0667 H   0  0  0  0  0
  2  1  1  0  0  0
  2  3  1  0  0  0
  6  2  1  0  0  0
  3  4  2  0  0  0
  3  5  1  0  0  0
  7  6  1  0  0  0
  8  7  1  0  0  0
  8  9  2  0  0  0
 10  8  1  0  0  0
 11 10  1  0  0  0
 11 12  1  0  0  0
 14 11  1  0  0  0
 12 13  2  0  0  0
 12 16  1  0  0  0
 15 14  1  0  0  0
 16 17  1  0  0  0
 17 18  1  0  0  0
 18 19  2  0  0  0
 18 20  1  0  0  0
 21 22  1  0  0  0
 23 21  4  0  0  0
 29 21  4  0  0  0
 22 36  1  0  0  0
 23 24  1  0  0  0
 25 23  4  0  0  0
 25 26  1  0  0  0
 27 25  4  0  0  0
 27 28  4  0  0  0
 30 27  1  0  0  0
 28 29  4  0  0  0
 30 31  2  0  0  0
 32 30  1  0  0  0
 32 33  1  0  0  0
 35 32  1  0  0  0
 33 34  1  0  0  0
 35 15  1  0  0  0
 36 37  1  0  0  0
 37 38  2  0  0  0
 37 39  1  0  0  0
  1 40  1  0  0  0
  1 41  1  0  0  0
  1 42  1  0  0  0
  2 43  1  0  0  0
  5 44  1  0  0  0
  6 45  1  0  0  0
  6 46  1  0  0  0
  7 47  1  0  0  0
  7 48  1  0  0  0
 10 49  1  0  0  0
 11 50  1  0  0  0
 14 51  1  0  0  0
 14 52  1  0  0  0
 16 53  1  0  0  0
 17 54  1  0  0  0
 17 55  1  0  0  0
 20 56  1  0  0  0
 28 57  1  0  0  0
 29 58  1  0  0  0
 32 59  1  0  0  0
 33 60  1  0  0  0
 33 61  1  0  0  0
 34 62  1  0  0  0
 34 63  1  0  0  0
 34 64  1  0  0  0
 35 65  1  0  0  0
 35 66  1  0  0  0
 36 67  1  0  0  0
 36 68  1  0  0  0
 39 69  1  0  0  0
M  END
$$$$
