### 
### Created by X-TOOL on Mon Sep 10 21:12:59 2018
### 

@<TRIPOS>MOLECULE
3coj_ligand
  143   146     1     0     0
SMALL
GAST_HUCK


@<TRIPOS>ATOM
      1 N          -5.4670  -20.2660  -19.2680 N.4       1 PRO         0.2461
      2 CA         -6.1440  -19.1220  -19.8780 C.3       1 PRO         0.0670
      3 C          -5.3500  -18.5590  -21.0640 C.2       1 PRO         0.2268
      4 O          -5.8340  -18.5860  -22.2020 O.2       1 PRO        -0.3907
      5 CB         -6.2260  -18.1030  -18.7260 C.3       1 PRO         0.0127
      6 CG         -5.3780  -18.6760  -17.5870 C.3       1 PRO        -0.0053
      7 CD         -4.6420  -19.8740  -18.1130 C.3       1 PRO        -0.0313
      8 N          -4.1540  -18.0380  -20.7750 N.am      1 GLN        -0.2609
      9 CA         -3.1480  -17.6900  -21.7760 C.3       1 GLN         0.1331
     10 C          -1.8310  -18.3320  -21.3430 C.2       1 GLN         0.2041
     11 O          -1.8280  -19.2210  -20.4900 O.2       1 GLN        -0.3944
     12 CB         -3.0040  -16.1700  -21.9170 C.3       1 GLN         0.0045
     13 CG         -4.1070  -15.5040  -22.7380 C.3       1 GLN         0.0412
     14 CD         -3.7650  -14.0790  -23.1740 C.2       1 GLN         0.1737
     15 OE1        -2.6170  -13.6360  -23.0520 O.2       1 GLN        -0.3973
     16 NE2        -4.7630  -13.3630  -23.6880 N.am      1 GLN        -0.3009
     17 N          -0.7220  -17.8900  -21.9280 N.am      1 SEP        -0.2613
     18 CA          0.5940  -18.4380  -21.6030 C.3       1 SEP         0.1588
     19 CB          1.5000  -18.4170  -22.8280 C.3       1 SEP         0.1184
     20 OG          1.3360  -19.6050  -23.5690 O.3       1 SEP        -0.2714
     21 C           1.2770  -17.7100  -20.4510 C.2       1 SEP         0.2090
     22 O           1.2910  -16.4780  -20.4170 O.2       1 SEP        -0.3941
     23 P           2.2810  -19.5730  -24.8600 P.3       1 SEP         0.2010
     24 O1P         3.8250  -19.4770  -24.4100 O.co2     1 SEP        -0.5537
     25 O2P         1.8880  -18.3200  -25.7950 O.co2     1 SEP        -0.5537
     26 O3P         2.0140  -20.9460  -25.6480 O.co2     1 SEP        -0.5537
     27 N           1.8520  -18.4700  -19.5190 N.am      1 PRO        -0.2498
     28 CA          2.5410  -17.8980  -18.3660 C.3       1 PRO         0.1338
     29 C           3.7220  -17.0240  -18.7710 C.2       1 PRO         0.2042
     30 O           4.4280  -17.3440  -19.7310 O.2       1 PRO        -0.3944
     31 CB          3.0520  -19.1330  -17.6160 C.3       1 PRO        -0.0104
     32 CG          2.1980  -20.2470  -18.0770 C.3       1 PRO        -0.0281
     33 CD          1.8850  -19.9440  -19.5030 C.3       1 PRO         0.0369
     34 N           3.9150  -15.9260  -18.0470 N.am      1 THR        -0.2613
     35 CA          5.0800  -15.0630  -18.2180 C.3       1 THR         0.1565
     36 C           5.9550  -15.1430  -16.9710 C.2       1 THR         0.2066
     37 O           5.6030  -15.8210  -16.0110 O.2       1 THR        -0.3943
     38 CB          4.6540  -13.6080  -18.4910 C.3       1 THR         0.0924
     39 OG1         3.6590  -13.2080  -17.5420 O.3       1 THR        -0.3874
     40 CG2         3.9350  -13.4980  -19.8300 C.3       1 THR        -0.0346
     41 N           7.1010  -14.4700  -16.9840 N.am      1 PHE        -0.2618
     42 CA          8.0140  -14.4960  -15.8410 C.3       1 PHE         0.1406
     43 C           8.6350  -13.1220  -15.5860 C.2       1 PHE         0.2085
     44 O           9.4540  -12.6580  -16.3740 O.2       1 PHE        -0.3940
     45 CB          9.0950  -15.5690  -16.0360 C.3       1 PHE         0.0214
     46 CG          8.5610  -16.9810  -16.0390 C.ar      1 PHE        -0.0386
     47 CD1         8.2910  -17.6320  -17.2350 C.ar      1 PHE        -0.0601
     48 CD2         8.3260  -17.6550  -14.8430 C.ar      1 PHE        -0.0601
     49 CE1         7.7960  -18.9320  -17.2390 C.ar      1 PHE        -0.0686
     50 CE2         7.8300  -18.9560  -14.8380 C.ar      1 PHE        -0.0686
     51 CZ          7.5620  -19.5950  -16.0390 C.ar      1 PHE        -0.0687
     52 N           8.2210  -12.4730  -14.4980 N.am      1 PRO        -0.2497
     53 CA          8.6120  -11.0840  -14.1830 C.3       1 PRO         0.1338
     54 C          10.1070  -10.7740  -13.8840 C.2       1 PRO         0.2041
     55 O          10.9280  -10.8520  -14.8050 O.2       1 PRO        -0.3944
     56 CB          7.6990  -10.7310  -13.0000 C.3       1 PRO        -0.0104
     57 CG          6.5850  -11.7360  -13.0940 C.3       1 PRO        -0.0281
     58 CD          7.2700  -13.0040  -13.5080 C.3       1 PRO         0.0369
     59 N          10.4490  -10.4110  -12.6390 N.am      1 GLU        -0.2636
     60 CA         11.7450   -9.7460  -12.3430 C.3       1 GLU         0.1325
     61 C          12.9050  -10.5770  -11.7700 C.2       1 GLU         0.2040
     62 O          12.6920  -11.6200  -11.1510 O.2       1 GLU        -0.3944
     63 CB         11.5410   -8.4660  -11.5180 C.3       1 GLU        -0.0008
     64 CG         11.7580   -7.1780  -12.3060 C.3       1 GLU         0.0044
     65 CD         13.2290   -6.8330  -12.4970 C.2       1 GLU         0.0350
     66 OE1        13.6590   -5.7790  -11.9860 O.co2     1 GLU        -0.5690
     67 OE2        13.9610   -7.6080  -13.1510 O.co2     1 GLU        -0.5690
     68 N          14.1200  -10.0520  -11.9630 N.am      1 ALA        -0.2640
     69 CA         15.3870  -10.7930  -11.8600 C.3       1 ALA         0.1282
     70 C          15.8480  -11.1190  -10.4390 C.2       1 ALA         0.2035
     71 O          15.0360  -11.3840   -9.5560 O.2       1 ALA        -0.3944
     72 CB         16.4900  -10.0450  -12.6230 C.3       1 ALA        -0.0244
     73 N          17.1630  -11.1060  -10.2360 N.am      1 GLY        -0.2651
     74 CA         17.7550  -11.4050   -8.9380 C.3       1 GLY         0.1312
     75 C          19.2090  -10.9850   -8.8820 C.2       1 GLY         0.2539
     76 O          19.5690   -9.9010   -9.3410 O.2       1 GLY        -0.3683
     77 H1         -4.8736  -20.6981  -19.9588 H         1 PRO         0.2035
     78 H2         -6.1620  -20.9282  -18.9605 H         1 PRO         0.2035
     79 H3         -7.1504  -19.4043  -20.2206 H         1 PRO         0.1099
     80 H4         -7.2692  -17.9796  -18.3997 H         1 PRO         0.0347
     81 H5         -5.8250  -17.1306  -19.0479 H         1 PRO         0.0347
     82 H6         -6.0282  -18.9747  -16.7515 H         1 PRO         0.0320
     83 H7         -4.6591  -17.9193  -17.2398 H         1 PRO         0.0320
     84 H8         -3.6207  -19.6092  -18.4243 H         1 PRO         0.0814
     85 H9         -4.6000  -20.6770  -17.3624 H         1 PRO         0.0814
     86 H10        -3.9335  -17.8761  -19.8131 H         1 GLN         0.1885
     87 H11        -3.4491  -18.1029  -22.7501 H         1 GLN         0.0801
     88 H12        -2.0395  -15.9595  -22.4022 H         1 GLN         0.0337
     89 H13        -3.0115  -15.7289  -20.9093 H         1 GLN         0.0337
     90 H14        -5.0230  -15.4719  -22.1298 H         1 GLN         0.0504
     91 H15        -4.2857  -16.1103  -23.6382 H         1 GLN         0.0504
     92 H16        -4.6003  -12.4240  -23.9911 H         1 GLN         0.1814
     93 H17        -5.6752  -13.7642  -23.7709 H         1 GLN         0.1814
     94 H18        -0.7898  -17.1618  -22.6100 H         1 SEP         0.1884
     95 H19         0.4507  -19.4854  -21.2990 H         1 SEP         0.0827
     96 H20         2.5479  -18.3310  -22.5047 H         1 SEP         0.0662
     97 H21         1.2391  -17.5549  -23.4594 H         1 SEP         0.0662
     98 H22         1.8454  -17.3125  -17.7469 H         1 PRO         0.0802
     99 H23         2.9511  -18.9937  -16.5295 H         1 PRO         0.0313
    100 H24         4.1059  -19.3266  -17.8645 H         1 PRO         0.0313
    101 H25         1.2739  -20.2948  -17.4822 H         1 PRO         0.0287
    102 H26         2.7360  -21.2030  -17.9961 H         1 PRO         0.0287
    103 H27         2.6676  -20.3309  -20.1721 H         1 PRO         0.0524
    104 H28         0.9119  -20.3662  -19.7942 H         1 PRO         0.0524
    105 H29         3.2341  -15.6811  -17.3568 H         1 THR         0.1884
    106 H30         5.6606  -15.4223  -19.0805 H         1 THR         0.0826
    107 H31         5.5320  -12.9463  -18.4553 H         1 THR         0.0639
    108 H32         3.4004  -12.3105  -17.7153 H         1 THR         0.2101
    109 H33         3.6408  -12.4524  -20.0033 H         1 THR         0.0257
    110 H34         3.0377  -14.1341  -19.8177 H         1 THR         0.0257
    111 H35         4.6075  -13.8280  -20.6355 H         1 THR         0.0257
    112 H36         7.3445  -13.9343  -17.7925 H         1 PHE         0.1885
    113 H37         7.4283  -14.7670  -14.9502 H         1 PHE         0.0823
    114 H38         9.8260  -15.4768  -15.2192 H         1 PHE         0.0474
    115 H39         9.5954  -15.3858  -16.9983 H         1 PHE         0.0474
    116 H40         8.4677  -17.1222  -18.1752 H         1 PHE         0.0557
    117 H41         8.5325  -17.1590  -13.9015 H         1 PHE         0.0557
    118 H42         7.5921  -19.4297  -18.1801 H         1 PHE         0.0599
    119 H43         7.6540  -19.4675  -13.8986 H         1 PHE         0.0599
    120 H44         7.1720  -20.6064  -16.0426 H         1 PHE         0.0559
    121 H45         8.3406  -10.4573  -15.0453 H         1 PRO         0.0802
    122 H46         7.3112   -9.7062  -13.0965 H         1 PRO         0.0313
    123 H47         8.2374  -10.8311  -12.0460 H         1 PRO         0.0313
    124 H48         5.8443  -11.4286  -13.8469 H         1 PRO         0.0287
    125 H49         6.0883  -11.8605  -12.1205 H         1 PRO         0.0287
    126 H50         7.7861  -13.4831  -12.6630 H         1 PRO         0.0524
    127 H51         6.5665  -13.7183  -13.9607 H         1 PRO         0.0524
    128 H52         9.8139  -10.5929  -11.8883 H         1 GLU         0.1883
    129 H53        12.1082   -9.4151  -13.3272 H         1 GLU         0.0801
    130 H54        12.2496   -8.4802  -10.6768 H         1 GLU         0.0330
    131 H55        10.5116   -8.4648  -11.1303 H         1 GLU         0.0330
    132 H56        11.2723   -6.3517  -11.7663 H         1 GLU         0.0433
    133 H57        11.2940   -7.2918  -13.2968 H         1 GLU         0.0433
    134 H58        14.1712   -9.0807  -12.1953 H         1 ALA         0.1883
    135 H59        15.2285  -11.7573  -12.3650 H         1 ALA         0.0797
    136 H60        17.4345  -10.6031  -12.5427 H         1 ALA         0.0277
    137 H61        16.6191   -9.0417  -12.1908 H         1 ALA         0.0277
    138 H62        16.2066   -9.9544  -13.6820 H         1 ALA         0.0277
    139 H63        17.7668  -10.8831  -11.0014 H         1 GLY         0.1882
    140 H64        17.6883  -12.4877   -8.7554 H         1 GLY         0.0780
    141 H65        17.1970  -10.8665   -8.1579 H         1 GLY         0.0780
    142 O          20.1071  -11.7964   -8.3307 O.3       1 GLY        -0.2912
    143 H66        20.7657  -12.0235   -8.9766 H         1 GLY         0.2540
@<TRIPOS>BOND
     1    1    2 1  
     2    1    7 1  
     3    2    3 1  
     4    2    5 1  
     5    3    4 2  
     6    3    8 am 
     7    5    6 1  
     8    6    7 1  
     9    8    9 1  
    10    9   10 1  
    11    9   12 1  
    12   10   11 2  
    13   10   17 am 
    14   12   13 1  
    15   13   14 1  
    16   14   15 2  
    17   14   16 am 
    18   17   18 1  
    19   18   19 1  
    20   18   21 1  
    21   19   20 1  
    22   20   23 1  
    23   21   22 2  
    24   21   27 am 
    25   23   24 ar 
    26   23   25 ar 
    27   23   26 ar 
    28   27   28 1  
    29   27   33 1  
    30   28   29 1  
    31   28   31 1  
    32   29   30 2  
    33   29   34 am 
    34   31   32 1  
    35   32   33 1  
    36   34   35 1  
    37   35   36 1  
    38   35   38 1  
    39   36   37 2  
    40   36   41 am 
    41   38   39 1  
    42   38   40 1  
    43   41   42 1  
    44   42   43 1  
    45   42   45 1  
    46   43   44 2  
    47   43   52 am 
    48   45   46 1  
    49   46   47 ar 
    50   46   48 ar 
    51   47   49 ar 
    52   48   50 ar 
    53   49   51 ar 
    54   50   51 ar 
    55   52   53 1  
    56   52   58 1  
    57   53   54 1  
    58   53   56 1  
    59   54   55 2  
    60   54   59 am 
    61   56   57 1  
    62   57   58 1  
    63   59   60 1  
    64   60   61 1  
    65   60   63 1  
    66   61   62 2  
    67   61   68 am 
    68   63   64 1  
    69   64   65 1  
    70   65   66 ar 
    71   65   67 ar 
    72   68   69 1  
    73   69   70 1  
    74   69   72 1  
    75   70   71 2  
    76   70   73 am 
    77   73   74 1  
    78   74   75 1  
    79   75   76 2  
    80    1   77 1  
    81    1   78 1  
    82    2   79 1  
    83    5   80 1  
    84    5   81 1  
    85    6   82 1  
    86    6   83 1  
    87    7   84 1  
    88    7   85 1  
    89    8   86 1  
    90    9   87 1  
    91   12   88 1  
    92   12   89 1  
    93   13   90 1  
    94   13   91 1  
    95   16   92 1  
    96   16   93 1  
    97   17   94 1  
    98   18   95 1  
    99   19   96 1  
   100   19   97 1  
   101   28   98 1  
   102   31   99 1  
   103   31  100 1  
   104   32  101 1  
   105   32  102 1  
   106   33  103 1  
   107   33  104 1  
   108   34  105 1  
   109   35  106 1  
   110   38  107 1  
   111   39  108 1  
   112   40  109 1  
   113   40  110 1  
   114   40  111 1  
   115   41  112 1  
   116   42  113 1  
   117   45  114 1  
   118   45  115 1  
   119   47  116 1  
   120   48  117 1  
   121   49  118 1  
   122   50  119 1  
   123   51  120 1  
   124   53  121 1  
   125   56  122 1  
   126   56  123 1  
   127   57  124 1  
   128   57  125 1  
   129   58  126 1  
   130   58  127 1  
   131   59  128 1  
   132   60  129 1  
   133   63  130 1  
   134   63  131 1  
   135   64  132 1  
   136   64  133 1  
   137   68  134 1  
   138   69  135 1  
   139   72  136 1  
   140   72  137 1  
   141   72  138 1  
   142   73  139 1  
   143   74  140 1  
   144   74  141 1  
   145   75  142 1  
   146  142  143 1  
@<TRIPOS>SUBSTRUCTURE
     1 PRO         1

