3coj_ligand
  -I-interpret- 

146149  0  0  0  0  0  0  0  0999 V2000
   -5.4670  -20.2660  -19.2680 N   0  3  0  0  0
   -6.1440  -19.1220  -19.8780 C   0  0  0  0  0
   -5.3500  -18.5590  -21.0640 C   0  0  0  0  0
   -5.8340  -18.5860  -22.2020 O   0  0  0  0  0
   -6.2260  -18.1030  -18.7260 C   0  0  0  0  0
   -5.3780  -18.6760  -17.5870 C   0  0  0  0  0
   -4.6420  -19.8740  -18.1130 C   0  0  0  0  0
   -4.1540  -18.0380  -20.7750 N   0  0  0  0  0
   -3.1480  -17.6900  -21.7760 C   0  0  0  0  0
   -1.8310  -18.3320  -21.3430 C   0  0  0  0  0
   -1.8280  -19.2210  -20.4900 O   0  0  0  0  0
   -3.0040  -16.1700  -21.9170 C   0  0  0  0  0
   -4.1070  -15.5040  -22.7380 C   0  0  0  0  0
   -3.7650  -14.0790  -23.1740 C   0  0  0  0  0
   -2.6170  -13.6360  -23.0520 O   0  0  0  0  0
   -4.7630  -13.3630  -23.6880 N   0  0  0  0  0
   -0.7220  -17.8900  -21.9280 N   0  0  0  0  0
    0.5940  -18.4380  -21.6030 C   0  0  0  0  0
    1.5000  -18.4170  -22.8280 C   0  0  0  0  0
    1.3360  -19.6050  -23.5690 O   0  0  0  0  0
    1.2770  -17.7100  -20.4510 C   0  0  0  0  0
    1.2910  -16.4780  -20.4170 O   0  0  0  0  0
    2.2810  -19.5730  -24.8600 P   0  0  0  0  0
    3.8250  -19.4770  -24.4100 O   0  0  0  0  0
    1.8880  -18.3200  -25.7950 O   0  0  0  0  0
    2.0140  -20.9460  -25.6480 O   0  0  0  0  0
    1.8520  -18.4700  -19.5190 N   0  0  0  0  0
    2.5410  -17.8980  -18.3660 C   0  0  0  0  0
    3.7220  -17.0240  -18.7710 C   0  0  0  0  0
    4.4280  -17.3440  -19.7310 O   0  0  0  0  0
    3.0520  -19.1330  -17.6160 C   0  0  0  0  0
    2.1980  -20.2470  -18.0770 C   0  0  0  0  0
    1.8850  -19.9440  -19.5030 C   0  0  0  0  0
    3.9150  -15.9260  -18.0470 N   0  0  0  0  0
    5.0800  -15.0630  -18.2180 C   0  0  0  0  0
    5.9550  -15.1430  -16.9710 C   0  0  0  0  0
    5.6030  -15.8210  -16.0110 O   0  0  0  0  0
    4.6540  -13.6080  -18.4910 C   0  0  0  0  0
    3.6590  -13.2080  -17.5420 O   0  0  0  0  0
    3.9350  -13.4980  -19.8300 C   0  0  0  0  0
    7.1010  -14.4700  -16.9840 N   0  0  0  0  0
    8.0140  -14.4960  -15.8410 C   0  0  0  0  0
    8.6350  -13.1220  -15.5860 C   0  0  0  0  0
    9.4540  -12.6580  -16.3740 O   0  0  0  0  0
    9.0950  -15.5690  -16.0360 C   0  0  0  0  0
    8.5610  -16.9810  -16.0390 C   0  0  0  0  0
    8.2910  -17.6320  -17.2350 C   0  0  0  0  0
    8.3260  -17.6550  -14.8430 C   0  0  0  0  0
    7.7960  -18.9320  -17.2390 C   0  0  0  0  0
    7.8300  -18.9560  -14.8380 C   0  0  0  0  0
    7.5620  -19.5950  -16.0390 C   0  0  0  0  0
    8.2210  -12.4730  -14.4980 N   0  0  0  0  0
    8.6120  -11.0840  -14.1830 C   0  0  0  0  0
   10.1070  -10.7740  -13.8840 C   0  0  0  0  0
   10.9280  -10.8520  -14.8050 O   0  0  0  0  0
    7.6990  -10.7310  -13.0000 C   0  0  0  0  0
    6.5850  -11.7360  -13.0940 C   0  0  0  0  0
    7.2700  -13.0040  -13.5080 C   0  0  0  0  0
   10.4490  -10.4110  -12.6390 N   0  0  0  0  0
   11.7450   -9.7460  -12.3430 C   0  0  0  0  0
   12.9050  -10.5770  -11.7700 C   0  0  0  0  0
   12.6920  -11.6200  -11.1510 O   0  0  0  0  0
   11.5410   -8.4660  -11.5180 C   0  0  0  0  0
   11.7580   -7.1780  -12.3060 C   0  0  0  0  0
   13.2290   -6.8330  -12.4970 C   0  0  0  0  0
   13.6590   -5.7790  -11.9860 O   0  0  0  0  0
   13.9610   -7.6080  -13.1510 O   0  0  0  0  0
   14.1200  -10.0520  -11.9630 N   0  0  0  0  0
   15.3870  -10.7930  -11.8600 C   0  0  0  0  0
   15.8480  -11.1190  -10.4390 C   0  0  0  0  0
   15.0360  -11.3840   -9.5560 O   0  0  0  0  0
   16.4900  -10.0450  -12.6230 C   0  0  0  0  0
   17.1630  -11.1060  -10.2360 N   0  0  0  0  0
   17.7550  -11.4050   -8.9380 C   0  0  0  0  0
   19.2090  -10.9850   -8.8820 C   0  0  0  0  0
   19.5690   -9.9010   -9.3410 O   0  0  0  0  0
   20.1071  -11.7964   -8.3307 O   0  0  0  0  0
   -4.8539  -20.6823  -19.9689 H   0  0  0  0  0
   -6.1794  -20.9190  -18.9418 H   0  0  0  0  0
   -7.1192  -19.3811  -20.2903 H   0  0  0  0  0
   -7.2577  -17.9505  -18.4092 H   0  0  0  0  0
   -5.8559  -17.1265  -19.0383 H   0  0  0  0  0
   -6.0156  -18.9633  -16.7509 H   0  0  0  0  0
   -4.6712  -17.9268  -17.2304 H   0  0  0  0  0
   -3.6068  -19.6593  -18.3782 H   0  0  0  0  0
   -4.5321  -20.6684  -17.3748 H   0  0  0  0  0
   -3.9291  -17.8728  -19.7939 H   0  0  0  0  0
   -3.4470  -18.0622  -22.7559 H   0  0  0  0  0
   -2.0635  -15.9849  -22.4359 H   0  0  0  0  0
   -3.0552  -15.7497  -20.9126 H   0  0  0  0  0
   -4.9964  -15.4504  -22.1102 H   0  0  0  0  0
   -4.2483  -16.0983  -23.6407 H   0  0  0  0  0
   -4.5962  -12.4066  -24.0008 H   0  0  0  0  0
   -5.6944  -13.7709  -23.7690 H   0  0  0  0  0
   -0.7912  -17.1472  -22.6236 H   0  0  0  0  0
    0.4248  -19.4658  -21.2821 H   0  0  0  0  0
    2.5379  -18.3360  -22.5052 H   0  0  0  0  0
    1.2370  -17.5645  -23.4542 H   0  0  0  0  0
    3.9697  -18.6521  -23.9407 H   0  0  0  0  0
    2.0500  -17.5029  -25.3179 H   0  0  0  0  0
    1.8841  -17.2537  -17.7816 H   0  0  0  0  0
    2.9920  -19.0008  -16.5357 H   0  0  0  0  0
    4.1054  -19.3217  -17.8228 H   0  0  0  0  0
    1.2914  -20.3301  -17.4777 H   0  0  0  0  0
    2.7034  -21.2072  -17.9740 H   0  0  0  0  0
    2.6143  -20.3614  -20.1973 H   0  0  0  0  0
    0.9513  -20.3948  -19.8393 H   0  0  0  0  0
    3.2205  -15.6762  -17.3430 H   0  0  0  0  0
    5.6508  -15.4059  -19.0810 H   0  0  0  0  0
    5.5605  -13.0041  -18.4515 H   0  0  0  0  0
    3.3977  -12.3010  -17.7171 H   0  0  0  0  0
    4.6024  -13.8253  -20.6273 H   0  0  0  0  0
    3.0462  -14.1288  -19.8166 H   0  0  0  0  0
    3.6440  -12.4615  -20.0006 H   0  0  0  0  0
    7.3494  -13.9235  -17.8087 H   0  0  0  0  0
    7.4336  -14.7557  -14.9557 H   0  0  0  0  0
    9.7887  -15.4863  -15.1993 H   0  0  0  0  0
    9.5542  -15.3938  -17.0089 H   0  0  0  0  0
    8.4686  -17.1194  -18.1804 H   0  0  0  0  0
    8.5336  -17.1563  -13.8963 H   0  0  0  0  0
    7.5909  -19.4325  -18.1853 H   0  0  0  0  0
    7.6530  -19.4703  -13.8934 H   0  0  0  0  0
    7.1698  -20.6120  -16.0426 H   0  0  0  0  0
    8.4907  -10.4735  -15.0778 H   0  0  0  0  0
    7.3365   -9.7042  -13.0477 H   0  0  0  0  0
    8.2211  -10.7786  -12.0444 H   0  0  0  0  0
    5.8154  -11.4328  -13.8039 H   0  0  0  0  0
    6.0489  -11.8462  -12.1514 H   0  0  0  0  0
    7.7343  -13.5521  -12.6881 H   0  0  0  0  0
    6.5994  -13.7709  -13.8957 H   0  0  0  0  0
    9.8012  -10.5966  -11.8733 H   0  0  0  0  0
   12.0998   -9.5267  -13.3500 H   0  0  0  0  0
   12.2757   -8.4799  -10.7130 H   0  0  0  0  0
   10.5065   -8.4643  -11.1747 H   0  0  0  0  0
   11.2981   -6.3652  -11.7440 H   0  0  0  0  0
   11.3201   -7.3174  -13.2944 H   0  0  0  0  0
   13.4416   -8.3554  -13.4564 H   0  0  0  0  0
   14.1723   -9.0613  -12.1999 H   0  0  0  0  0
   15.1888  -11.7644  -12.3129 H   0  0  0  0  0
   16.2079   -9.9559  -13.6721 H   0  0  0  0  0
   16.6169   -9.0511  -12.1939 H   0  0  0  0  0
   17.4253  -10.5990  -12.5427 H   0  0  0  0  0
   17.7788  -10.8787  -11.0167 H   0  0  0  0  0
   17.6995  -12.4809   -8.7725 H   0  0  0  0  0
   17.2067  -10.8549   -8.1732 H   0  0  0  0  0
   19.6701  -12.5941   -8.0236 H   0  0  0  0  0
  1  2  1  0  0  0
  1  7  1  0  0  0
  2  3  1  0  0  0
  2  5  1  0  0  0
  3  4  2  0  0  0
  3  8  1  0  0  0
  5  6  1  0  0  0
  6  7  1  0  0  0
  8  9  1  0  0  0
  9 10  1  0  0  0
  9 12  1  0  0  0
 10 11  2  0  0  0
 10 17  1  0  0  0
 12 13  1  0  0  0
 13 14  1  0  0  0
 14 15  2  0  0  0
 14 16  1  0  0  0
 17 18  1  0  0  0
 18 19  1  0  0  0
 18 21  1  0  0  0
 19 20  1  0  0  0
 20 23  1  0  0  0
 21 22  2  0  0  0
 21 27  1  0  0  0
 23 24  1  0  0  0
 23 25  1  0  0  0
 23 26  2  0  0  0
 27 28  1  0  0  0
 27 33  1  0  0  0
 28 29  1  0  0  0
 28 31  1  0  0  0
 29 30  2  0  0  0
 29 34  1  0  0  0
 31 32  1  0  0  0
 32 33  1  0  0  0
 34 35  1  0  0  0
 35 36  1  0  0  0
 35 38  1  0  0  0
 36 37  2  0  0  0
 36 41  1  0  0  0
 38 39  1  0  0  0
 38 40  1  0  0  0
 41 42  1  0  0  0
 42 43  1  0  0  0
 42 45  1  0  0  0
 43 44  2  0  0  0
 43 52  1  0  0  0
 45 46  1  0  0  0
 46 47  4  0  0  0
 46 48  4  0  0  0
 47 49  4  0  0  0
 48 50  4  0  0  0
 49 51  4  0  0  0
 50 51  4  0  0  0
 52 53  1  0  0  0
 52 58  1  0  0  0
 53 54  1  0  0  0
 53 56  1  0  0  0
 54 55  2  0  0  0
 54 59  1  0  0  0
 56 57  1  0  0  0
 57 58  1  0  0  0
 59 60  1  0  0  0
 60 61  1  0  0  0
 60 63  1  0  0  0
 61 62  2  0  0  0
 61 68  1  0  0  0
 63 64  1  0  0  0
 64 65  1  0  0  0
 65 66  2  0  0  0
 65 67  1  0  0  0
 68 69  1  0  0  0
 69 70  1  0  0  0
 69 72  1  0  0  0
 70 71  2  0  0  0
 70 73  1  0  0  0
 73 74  1  0  0  0
 74 75  1  0  0  0
 75 76  2  0  0  0
 75 77  1  0  0  0
  1 78  1  0  0  0
  1 79  1  0  0  0
  2 80  1  0  0  0
  5 81  1  0  0  0
  5 82  1  0  0  0
  6 83  1  0  0  0
  6 84  1  0  0  0
  7 85  1  0  0  0
  7 86  1  0  0  0
  8 87  1  0  0  0
  9 88  1  0  0  0
 12 89  1  0  0  0
 12 90  1  0  0  0
 13 91  1  0  0  0
 13 92  1  0  0  0
 16 93  1  0  0  0
 16 94  1  0  0  0
 17 95  1  0  0  0
 18 96  1  0  0  0
 19 97  1  0  0  0
 19 98  1  0  0  0
 24 99  1  0  0  0
 25100  1  0  0  0
 28101  1  0  0  0
 31102  1  0  0  0
 31103  1  0  0  0
 32104  1  0  0  0
 32105  1  0  0  0
 33106  1  0  0  0
 33107  1  0  0  0
 34108  1  0  0  0
 35109  1  0  0  0
 38110  1  0  0  0
 39111  1  0  0  0
 40112  1  0  0  0
 40113  1  0  0  0
 40114  1  0  0  0
 41115  1  0  0  0
 42116  1  0  0  0
 45117  1  0  0  0
 45118  1  0  0  0
 47119  1  0  0  0
 48120  1  0  0  0
 49121  1  0  0  0
 50122  1  0  0  0
 51123  1  0  0  0
 53124  1  0  0  0
 56125  1  0  0  0
 56126  1  0  0  0
 57127  1  0  0  0
 57128  1  0  0  0
 58129  1  0  0  0
 58130  1  0  0  0
 59131  1  0  0  0
 60132  1  0  0  0
 63133  1  0  0  0
 63134  1  0  0  0
 64135  1  0  0  0
 64136  1  0  0  0
 67137  1  0  0  0
 68138  1  0  0  0
 69139  1  0  0  0
 72140  1  0  0  0
 72141  1  0  0  0
 72142  1  0  0  0
 73143  1  0  0  0
 74144  1  0  0  0
 74145  1  0  0  0
 77146  1  0  0  0
M  END
$$$$
