3nmq_ligand
  -I-interpret- 

 53 55  0  0  0  0  0  0  0  0999 V2000
   -1.0080    9.1800   28.0850 Cl  0  0  0  0  0
   -0.7040    9.8680   26.4610 C   0  0  0  0  0
   -1.6830   10.4400   25.7600 N   0  0  0  0  0
   -1.4380   10.9800   24.5480 C   0  0  0  0  0
   -2.4570   11.5350   23.8540 N   0  0  0  0  0
   -0.1860   10.9850   24.0350 N   0  0  0  0  0
    0.8180   10.4400   24.7030 C   0  0  0  0  0
    0.5600    9.8590   25.9470 C   0  0  0  0  0
    2.1190   10.3280   24.3890 N   0  0  0  0  0
    2.7690   10.8640   23.1630 C   0  0  0  0  0
    3.8290   11.9130   23.6480 C   0  0  0  0  0
    3.5360   13.1930   24.1520 C   0  0  0  0  0
    2.1270   13.7260   24.2720 C   0  0  0  0  0
    4.6060   14.0670   24.5600 C   0  0  0  0  0
    4.3380   15.3140   25.0370 O   0  0  0  0  0
    4.6230   15.6990   26.3680 C   0  0  0  0  0
    5.9390   13.6570   24.4270 C   0  0  0  0  0
    7.1030   14.5460   24.8330 C   0  0  0  0  0
    6.1620   12.3870   23.9210 C   0  0  0  0  0
    5.1510   11.5880   23.5700 N   0  0  0  0  0
    2.7290    9.6650   25.3830 C   0  0  0  0  0
    1.7800    9.4190   26.3580 C   0  0  0  0  0
    2.0830    8.7440   27.4850 C   0  0  0  0  0
    2.3450    8.1040   28.4390 C   0  0  0  0  0
    2.7330    7.2830   29.6350 C   0  0  0  0  0
    2.0140    5.9290   29.7950 C   0  0  0  0  0
    2.4570    5.2210   31.0960 C   0  0  0  0  0
    2.2090    5.0250   28.5850 C   0  0  0  0  0
    0.6040    6.1690   29.9420 O   0  0  0  0  0
   -3.3979   11.5422   24.2477 H   0  0  0  0  0
   -2.2848   11.9465   22.9367 H   0  0  0  0  0
    2.0361   11.3252   22.5010 H   0  0  0  0  0
    3.2414   10.0664   22.5896 H   0  0  0  0  0
    1.6640   13.7506   23.2855 H   0  0  0  0  0
    1.5492   13.0769   24.9299 H   0  0  0  0  0
    2.1552   14.7336   24.6868 H   0  0  0  0  0
    4.0722   15.0578   27.0562 H   0  0  0  0  0
    5.6925   15.5985   26.5528 H   0  0  0  0  0
    4.3231   16.7363   26.5170 H   0  0  0  0  0
    7.0738   15.4682   24.2527 H   0  0  0  0  0
    7.0262   14.7807   25.8947 H   0  0  0  0  0
    8.0408   14.0244   24.6418 H   0  0  0  0  0
    7.1861   12.0316   23.8067 H   0  0  0  0  0
    3.7789    9.3740   25.4159 H   0  0  0  0  0
    2.4645    7.8749   30.5100 H   0  0  0  0  0
    3.7916    7.0526   29.5150 H   0  0  0  0  0
    3.5325    5.0464   31.0650 H   0  0  0  0  0
    2.2144    5.8511   31.9517 H   0  0  0  0  0
    1.9353    4.2681   31.1853 H   0  0  0  0  0
    1.8106    5.5169   27.6976 H   0  0  0  0  0
    3.2723    4.8292   28.4469 H   0  0  0  0  0
    1.6831    4.0842   28.7475 H   0  0  0  0  0
    0.1467    5.3309   30.0424 H   0  0  0  0  0
  1  2  1  0  0  0
  2  3  4  0  0  0
  2  8  4  0  0  0
  3  4  4  0  0  0
  4  5  1  0  0  0
  4  6  4  0  0  0
  6  7  4  0  0  0
  7  8  4  0  0  0
  7  9  4  0  0  0
  8 22  4  0  0  0
  9 10  1  0  0  0
  9 21  4  0  0  0
 10 11  1  0  0  0
 11 12  4  0  0  0
 11 20  4  0  0  0
 12 13  1  0  0  0
 12 14  4  0  0  0
 14 15  1  0  0  0
 14 17  4  0  0  0
 15 16  1  0  0  0
 17 18  1  0  0  0
 17 19  4  0  0  0
 19 20  4  0  0  0
 21 22  4  0  0  0
 22 23  1  0  0  0
 23 24  3  0  0  0
 24 25  1  0  0  0
 25 26  1  0  0  0
 26 27  1  0  0  0
 26 28  1  0  0  0
 26 29  1  0  0  0
  5 30  1  0  0  0
  5 31  1  0  0  0
 10 32  1  0  0  0
 10 33  1  0  0  0
 13 34  1  0  0  0
 13 35  1  0  0  0
 13 36  1  0  0  0
 16 37  1  0  0  0
 16 38  1  0  0  0
 16 39  1  0  0  0
 18 40  1  0  0  0
 18 41  1  0  0  0
 18 42  1  0  0  0
 19 43  1  0  0  0
 21 44  1  0  0  0
 25 45  1  0  0  0
 25 46  1  0  0  0
 27 47  1  0  0  0
 27 48  1  0  0  0
 27 49  1  0  0  0
 28 50  1  0  0  0
 28 51  1  0  0  0
 28 52  1  0  0  0
 29 53  1  0  0  0
M  END
$$$$
