2ad5_ligand
  -I-interpret- 

 45 46  0  0  0  0  0  0  0  0999 V2000
    9.0270   -2.9400   15.7180 N   0  0  0  0  0
    7.8520   -2.1780   15.4110 C   0  0  0  0  0
    7.0670   -2.5610   14.3640 N   0  0  0  0  0
    7.4120   -3.6840   13.6220 C   0  0  0  0  0
    8.5520   -4.4320   13.9520 C   0  0  0  0  0
    9.3640   -4.0620   15.0020 C   0  0  0  0  0
    7.5520   -1.1850   16.0620 O   0  0  0  0  0
    6.6430   -4.0430   12.5930 N   0  0  0  0  0
    9.8730   -2.4960   16.8340 C   0  0  0  0  0
    9.9960   -3.3960   18.0140 C   0  0  0  0  0
    9.0400   -3.0060   19.0090 O   0  0  0  0  0
   11.4140   -3.0930   18.5250 C   0  0  0  0  0
   12.0650   -2.3010   17.3960 C   0  0  0  0  0
   11.2100   -2.5270   16.2700 O   0  0  0  0  0
   11.3140   -2.2650   19.6800 O   0  0  0  0  0
   13.5010   -2.7930   17.1200 C   0  0  0  0  0
   13.9900   -2.1580   15.9640 O   0  0  0  0  0
   15.3980   -1.3740   15.9430 P   0  0  0  0  0
   16.0410   -1.3230   17.2860 O   0  0  0  0  0
   15.2440   -0.0960   15.2090 O   0  0  0  0  0
   16.3500   -2.3970   15.1070 O   0  0  0  0  0
   16.0080   -3.8860   14.4330 P   0  0  0  0  0
   14.5510   -4.1000   14.2380 O   0  0  0  0  0
   16.7490   -4.9630   15.1100 O   0  0  0  0  0
   16.6180   -3.6890   12.9430 O   0  0  0  0  0
   18.0930   -2.9990   12.5450 P   0  0  0  0  0
   19.0970   -2.9720   13.6390 O   0  0  0  0  0
   17.7580   -1.5490   11.9360 O   0  0  0  0  0
   18.5990   -3.8830   11.3140 O   0  0  0  0  0
    6.2314   -2.0263   14.1268 H   0  0  0  0  0
    8.7992   -5.3192   13.3690 H   0  0  0  0  0
   10.2495   -4.6441   15.2572 H   0  0  0  0  0
    6.8823   -4.8662   12.0403 H   0  0  0  0  0
    9.4419   -1.5612   17.1924 H   0  0  0  0  0
    9.8264   -4.4480   17.7848 H   0  0  0  0  0
    9.1180   -3.5853   19.7705 H   0  0  0  0  0
   11.9757   -3.9902   18.7851 H   0  0  0  0  0
   12.1642   -1.2422   17.6352 H   0  0  0  0  0
   12.1943   -2.0687   20.0088 H   0  0  0  0  0
   13.4968   -3.8728   16.9716 H   0  0  0  0  0
   14.1408   -2.5528   17.9692 H   0  0  0  0  0
   16.0812   -2.2087   17.6541 H   0  0  0  0  0
   14.1741   -3.3392   13.7899 H   0  0  0  0  0
   17.1057   -1.6395   11.2375 H   0  0  0  0  0
   17.9310   -3.8816   10.6245 H   0  0  0  0  0
  1  2  1  0  0  0
  1  6  1  0  0  0
  1  9  1  0  0  0
  2  3  1  0  0  0
  2  7  2  0  0  0
  3  4  1  0  0  0
  4  5  1  0  0  0
  4  8  2  0  0  0
  5  6  2  0  0  0
  9 10  1  0  0  0
  9 14  1  0  0  0
 10 11  1  0  0  0
 10 12  1  0  0  0
 12 13  1  0  0  0
 12 15  1  0  0  0
 13 14  1  0  0  0
 13 16  1  0  0  0
 16 17  1  0  0  0
 17 18  1  0  0  0
 18 19  1  0  0  0
 18 20  2  0  0  0
 18 21  1  0  0  0
 21 22  1  0  0  0
 22 23  1  0  0  0
 22 24  2  0  0  0
 22 25  1  0  0  0
 25 26  1  0  0  0
 26 27  2  0  0  0
 26 28  1  0  0  0
 26 29  1  0  0  0
  3 30  1  0  0  0
  5 31  1  0  0  0
  6 32  1  0  0  0
  8 33  1  0  0  0
  9 34  1  0  0  0
 10 35  1  0  0  0
 11 36  1  0  0  0
 12 37  1  0  0  0
 13 38  1  0  0  0
 15 39  1  0  0  0
 16 40  1  0  0  0
 16 41  1  0  0  0
 19 42  1  0  0  0
 23 43  1  0  0  0
 28 44  1  0  0  0
 29 45  1  0  0  0
M  END
$$$$
