### 
### Created by X-TOOL on Mon Sep 10 21:12:52 2018
### 

@<TRIPOS>MOLECULE
2ad5_ligand
   41    42     1     0     0
SMALL
GAST_HUCK


@<TRIPOS>ATOM
      1 N1          9.0270   -2.9400   15.7180 N.am      1 CTP        -0.1467
      2 C2          7.8520   -2.1780   15.4110 C.2       1 CTP         0.3488
      3 N3          7.0670   -2.5610   14.3640 N.am      1 CTP        -0.1924
      4 C4          7.4120   -3.6840   13.6220 C.2       1 CTP         0.0853
      5 C5          8.5520   -4.4320   13.9520 C.2       1 CTP         0.0019
      6 C6          9.3640   -4.0620   15.0020 C.2       1 CTP         0.0739
      7 O2          7.5520   -1.1850   16.0620 O.2       1 CTP        -0.3777
      8 N4          6.6430   -4.0430   12.5930 N.2       1 CTP        -0.4291
      9 C1          9.8730   -2.4960   16.8340 C.3       1 CTP         0.2109
     10 C2          9.9960   -3.3960   18.0140 C.3       1 CTP         0.1399
     11 O2          9.0400   -3.0060   19.0090 O.3       1 CTP        -0.3835
     12 C3         11.4140   -3.0930   18.5250 C.3       1 CTP         0.1150
     13 C4         12.0650   -2.3010   17.3960 C.3       1 CTP         0.1190
     14 O4         11.2100   -2.5270   16.2700 O.3       1 CTP        -0.3353
     15 O3         11.3140   -2.2650   19.6800 O.3       1 CTP        -0.3864
     16 C5         13.5010   -2.7930   17.1200 C.3       1 CTP         0.1131
     17 O5         13.9900   -2.1580   15.9640 O.3       1 CTP        -0.2441
     18 PA         15.3980   -1.3740   15.9430 P.3       1 CTP         0.3266
     19 O1A        16.0410   -1.3230   17.2860 O.co2     1 CTP        -0.5692
     20 O2A        15.2440   -0.0960   15.2090 O.co2     1 CTP        -0.5692
     21 O3A        16.3500   -2.3970   15.1070 O.3       1 CTP        -0.1171
     22 PB         16.0080   -3.8860   14.4330 P.3       1 CTP         0.3553
     23 O1B        14.5510   -4.1000   14.2380 O.co2     1 CTP        -0.5652
     24 O2B        16.7490   -4.9630   15.1100 O.co2     1 CTP        -0.5652
     25 O3B        16.6180   -3.6890   12.9430 O.3       1 CTP        -0.1546
     26 PG         18.0930   -2.9990   12.5450 P.3       1 CTP         0.1879
     27 O1G        19.0970   -2.9720   13.6390 O.co2     1 CTP        -0.6091
     28 O2G        17.7580   -1.5490   11.9360 O.co2     1 CTP        -0.6091
     29 O3G        18.5990   -3.8830   11.3140 O.co2     1 CTP        -0.6091
     30 H1          6.2478   -2.0368   14.1315 H         1 CTP         0.2412
     31 H2          8.7989   -5.3184   13.3696 H         1 CTP         0.0330
     32 H3         10.2487   -4.6435   15.2569 H         1 CTP         0.1288
     33 H4          6.8806   -4.8553   12.0455 H         1 CTP         0.0340
     34 H5          9.5659   -1.4909   17.1587 H         1 CTP         0.1013
     35 H6          9.8698   -4.4547   17.7435 H         1 CTP         0.0677
     36 H7          9.2079   -2.1091   19.2735 H         1 CTP         0.2101
     37 H8         11.9724   -4.0135   18.7503 H         1 CTP         0.0648
     38 H9         12.0952   -1.2302   17.6461 H         1 CTP         0.0651
     39 H10        10.7840   -1.5031   19.4772 H         1 CTP         0.2100
     40 H11        13.4944   -3.8823   16.9672 H         1 CTP         0.0648
     41 H12        14.1459   -2.5468   17.9764 H         1 CTP         0.0648
@<TRIPOS>BOND
     1    1    2 am 
     2    1    6 1  
     3    1    9 1  
     4    2    3 am 
     5    2    7 2  
     6    3    4 1  
     7    4    5 1  
     8    4    8 2  
     9    5    6 2  
    10    9   10 1  
    11    9   14 1  
    12   10   11 1  
    13   10   12 1  
    14   12   13 1  
    15   12   15 1  
    16   13   14 1  
    17   13   16 1  
    18   16   17 1  
    19   17   18 1  
    20   18   19 ar 
    21   18   20 ar 
    22   18   21 1  
    23   21   22 1  
    24   22   23 ar 
    25   22   24 ar 
    26   22   25 1  
    27   25   26 1  
    28   26   27 ar 
    29   26   28 ar 
    30   26   29 ar 
    31    3   30 1  
    32    5   31 1  
    33    6   32 1  
    34    8   33 1  
    35    9   34 1  
    36   10   35 1  
    37   11   36 1  
    38   12   37 1  
    39   13   38 1  
    40   15   39 1  
    41   16   40 1  
    42   16   41 1  
@<TRIPOS>SUBSTRUCTURE
     1 CTP         1

