4w9d_ligand
  -I-interpret- 

 58 60  0  0  0  0  0  0  0  0999 V2000
   11.4360   52.1870   94.2600 C   0  0  0  0  0
   12.8600   52.8120   94.2470 C   0  0  0  0  0
   13.7990   51.9350   93.3950 C   0  0  0  0  0
   13.3630   52.8960   95.7170 C   0  0  0  0  0
   12.8060   54.2270   93.7260 C   0  0  0  0  0
   12.3390   54.2440   92.2190 C   0  0  0  0  0
   11.1420   54.0890   91.9660 O   0  0  0  0  0
   13.2630   54.5110   91.2420 N   0  0  0  0  0
   14.7220   54.7930   91.3600 C   0  0  0  0  0
   15.0400   55.6790   90.1700 C   0  0  0  0  0
   14.6950   57.0480   90.4410 O   0  0  0  0  0
   14.1590   55.1140   89.0940 C   0  0  0  0  0
   12.8510   54.6730   89.7970 C   0  0  0  0  0
   12.3720   53.5010   89.1900 C   0  0  0  0  0
   12.8640   52.4170   89.4980 O   0  0  0  0  0
   11.4500   53.6370   88.1940 N   0  0  0  0  0
   10.9730   52.4610   87.4350 C   0  0  0  0  0
   11.7910   52.2310   86.2660 C   0  0  0  0  0
   11.5420   51.0970   85.4650 C   0  0  0  0  0
   12.3110   50.8060   84.3270 C   0  0  0  0  0
   12.8460   53.0650   85.8700 C   0  0  0  0  0
   13.6190   52.7790   84.7210 C   0  0  0  0  0
   13.3550   51.6650   83.9170 C   0  0  0  0  0
   14.1320   51.4410   82.8310 C   0  0  0  0  0
   15.4420   51.8020   82.7620 O   0  0  0  0  0
   15.9210   51.4150   81.5540 C   0  0  0  0  0
   14.9480   50.8380   80.8750 N   0  0  0  0  0
   13.8520   50.8580   81.6520 C   0  0  0  0  0
   12.5140   50.2620   81.1760 C   0  0  0  0  0
   10.7864   52.7795   94.9042 H   0  0  0  0  0
   11.0350   52.1786   93.2465 H   0  0  0  0  0
   11.4920   51.1663   94.6384 H   0  0  0  0  0
   13.4389   51.9123   92.3664 H   0  0  0  0  0
   14.8057   52.3523   93.4198 H   0  0  0  0  0
   13.8140   50.9225   93.7985 H   0  0  0  0  0
   14.3516   53.3548   95.7357 H   0  0  0  0  0
   12.6698   53.4995   96.3029 H   0  0  0  0  0
   13.4188   51.8923   96.1385 H   0  0  0  0  0
   13.8009   54.6672   93.7933 H   0  0  0  0  0
   12.0947   54.7973   94.3235 H   0  0  0  0  0
   15.3148   53.8783   91.3561 H   0  0  0  0  0
   14.9676   55.2774   92.3050 H   0  0  0  0  0
   16.0982   55.6872   89.9087 H   0  0  0  0  0
   14.9050   57.5874   89.6751 H   0  0  0  0  0
   14.6392   54.2737   88.5927 H   0  0  0  0  0
   13.9594   55.8544   88.3193 H   0  0  0  0  0
   12.0212   55.3759   89.7221 H   0  0  0  0  0
   11.0846   54.5625   87.9697 H   0  0  0  0  0
    9.9480   52.6453   87.1133 H   0  0  0  0  0
   11.0294   51.5834   88.0789 H   0  0  0  0  0
   10.7275   50.4260   85.7379 H   0  0  0  0  0
   12.0996   49.9046   83.7517 H   0  0  0  0  0
   13.0752   53.9524   86.4601 H   0  0  0  0  0
   14.4413   53.4432   84.4550 H   0  0  0  0  0
   16.9426   51.5573   81.2016 H   0  0  0  0  0
   12.2162   49.4578   81.8487 H   0  0  0  0  0
   11.7504   51.0398   81.1770 H   0  0  0  0  0
   12.6318   49.8681   80.1665 H   0  0  0  0  0
  1  2  1  0  0  0
  2  3  1  0  0  0
  2  4  1  0  0  0
  2  5  1  0  0  0
  5  6  1  0  0  0
  6  7  2  0  0  0
  6  8  1  0  0  0
  8  9  1  0  0  0
  8 13  1  0  0  0
  9 10  1  0  0  0
 10 11  1  0  0  0
 10 12  1  0  0  0
 12 13  1  0  0  0
 13 14  1  0  0  0
 14 15  2  0  0  0
 14 16  1  0  0  0
 16 17  1  0  0  0
 17 18  1  0  0  0
 18 19  4  0  0  0
 18 21  4  0  0  0
 19 20  4  0  0  0
 20 23  4  0  0  0
 21 22  4  0  0  0
 22 23  4  0  0  0
 23 24  1  0  0  0
 24 25  4  0  0  0
 24 28  4  0  0  0
 25 26  4  0  0  0
 26 27  4  0  0  0
 27 28  4  0  0  0
 28 29  1  0  0  0
  1 30  1  0  0  0
  1 31  1  0  0  0
  1 32  1  0  0  0
  3 33  1  0  0  0
  3 34  1  0  0  0
  3 35  1  0  0  0
  4 36  1  0  0  0
  4 37  1  0  0  0
  4 38  1  0  0  0
  5 39  1  0  0  0
  5 40  1  0  0  0
  9 41  1  0  0  0
  9 42  1  0  0  0
 10 43  1  0  0  0
 11 44  1  0  0  0
 12 45  1  0  0  0
 12 46  1  0  0  0
 13 47  1  0  0  0
 16 48  1  0  0  0
 17 49  1  0  0  0
 17 50  1  0  0  0
 19 51  1  0  0  0
 20 52  1  0  0  0
 21 53  1  0  0  0
 22 54  1  0  0  0
 26 55  1  0  0  0
 29 56  1  0  0  0
 29 57  1  0  0  0
 29 58  1  0  0  0
M  END
$$$$
