1ya4_ligand
  -I-interpret- 

 58 60  0  0  0  0  0  0  0  0999 V2000
   -1.5910   38.1990   37.8080 C   0  0  0  0  0
   -1.1130   39.6060   37.4220 C   0  0  0  0  0
    3.7350   43.7100   43.0990 O   0  0  0  0  0
    4.8010   44.6710   42.7510 C   0  0  0  0  0
    5.5470   45.1600   43.9930 C   0  0  0  0  0
    2.8570   43.1010   42.1950 C   0  0  0  0  0
    2.8480   43.3170   40.7510 C   0  0  0  0  0
    1.8950   42.6700   39.9440 C   0  0  0  0  0
    0.9180   41.5510   41.9310 C   0  0  0  0  0
    1.8780   42.1980   42.7790 C   0  0  0  0  0
    0.8970   41.7690   40.5050 C   0  0  0  0  0
   -0.2010   41.1000   39.5440 C   0  0  0  0  0
   -1.5900   41.5210   40.0130 C   0  0  0  0  0
   -2.5490   40.5390   40.4890 C   0  0  0  0  0
   -3.8390   40.9610   40.9300 C   0  0  0  0  0
   -4.1870   42.3410   40.9090 C   0  0  0  0  0
   -3.2510   43.3170   40.4440 C   0  0  0  0  0
   -1.9840   42.9180   40.0070 C   0  0  0  0  0
    3.2090   39.8190   36.2130 C   0  0  0  0  0
    4.0430   39.0660   37.0890 C   0  0  0  0  0
    3.5750   38.6820   38.3720 C   0  0  0  0  0
    2.2720   39.0500   38.7790 C   0  0  0  0  0
    1.4230   39.8090   37.9050 C   0  0  0  0  0
    1.9060   40.1900   36.6170 C   0  0  0  0  0
   -0.0040   40.2130   38.3510 C   0  0  0  0  0
    7.0640   45.2840   43.7180 N   0  3  0  0  0
    7.7110   44.0090   43.3150 C   0  0  0  0  0
    7.3830   46.3560   42.7110 C   0  0  0  0  0
   -0.7477   37.5090   37.7773 H   0  0  0  0  0
   -2.0072   38.2216   38.8152 H   0  0  0  0  0
   -2.3563   37.8709   37.1046 H   0  0  0  0  0
   -1.9795   40.2629   37.4986 H   0  0  0  0  0
   -0.6777   39.5263   36.4259 H   0  0  0  0  0
    4.3426   45.5317   42.2640 H   0  0  0  0  0
    5.5144   44.1710   42.0959 H   0  0  0  0  0
    5.3958   44.4397   44.7970 H   0  0  0  0  0
    5.1609   46.1415   44.2681 H   0  0  0  0  0
    3.5825   43.9821   40.2968 H   0  0  0  0  0
    1.9033   42.8477   38.8686 H   0  0  0  0  0
    0.1856   40.8773   42.3758 H   0  0  0  0  0
    1.8734   42.0139   43.8533 H   0  0  0  0  0
   -2.2838   39.4820   40.5093 H   0  0  0  0  0
   -4.5600   40.2242   41.2840 H   0  0  0  0  0
   -5.1734   42.6559   41.2496 H   0  0  0  0  0
   -3.5251   44.3719   40.4302 H   0  0  0  0  0
   -1.2786   43.6707   39.6550 H   0  0  0  0  0
    3.5765   40.1098   35.2289 H   0  0  0  0  0
    5.0467   38.7833   36.7715 H   0  0  0  0  0
    4.2161   38.1067   39.0399 H   0  0  0  0  0
    1.9094   38.7552   39.7637 H   0  0  0  0  0
    1.2704   40.7668   35.9451 H   0  0  0  0  0
    7.4582   45.5515   44.6199 H   0  0  0  0  0
    7.3387   43.7078   42.3358 H   0  0  0  0  0
    8.7907   44.1503   43.2669 H   0  0  0  0  0
    7.4766   43.2367   44.0476 H   0  0  0  0  0
    8.4627   46.4977   42.6628 H   0  0  0  0  0
    7.0107   46.0552   41.7317 H   0  0  0  0  0
    6.9059   47.2888   43.0117 H   0  0  0  0  0
  2  1  1  0  0  0
 25  2  1  0  0  0
  3  4  1  0  0  0
  6  3  1  0  0  0
  4  5  1  0  0  0
  5 26  1  0  0  0
  7  6  4  0  0  0
 10  6  4  0  0  0
  8  7  4  0  0  0
 11  8  4  0  0  0
  9 10  4  0  0  0
 11  9  4  0  0  0
 12 11  1  0  0  0
 12 13  1  0  0  0
 25 12  2  0  0  0
 13 14  4  0  0  0
 13 18  4  0  0  0
 14 15  4  0  0  0
 15 16  4  0  0  0
 17 16  4  0  0  0
 18 17  4  0  0  0
 19 20  4  0  0  0
 24 19  4  0  0  0
 21 20  4  0  0  0
 22 21  4  0  0  0
 23 22  4  0  0  0
 23 24  4  0  0  0
 23 25  1  0  0  0
 26 27  1  0  0  0
 26 28  1  0  0  0
  1 29  1  0  0  0
  1 30  1  0  0  0
  1 31  1  0  0  0
  2 32  1  0  0  0
  2 33  1  0  0  0
  4 34  1  0  0  0
  4 35  1  0  0  0
  5 36  1  0  0  0
  5 37  1  0  0  0
  7 38  1  0  0  0
  8 39  1  0  0  0
  9 40  1  0  0  0
 10 41  1  0  0  0
 14 42  1  0  0  0
 15 43  1  0  0  0
 16 44  1  0  0  0
 17 45  1  0  0  0
 18 46  1  0  0  0
 19 47  1  0  0  0
 20 48  1  0  0  0
 21 49  1  0  0  0
 22 50  1  0  0  0
 24 51  1  0  0  0
 26 52  1  0  0  0
 27 53  1  0  0  0
 27 54  1  0  0  0
 27 55  1  0  0  0
 28 56  1  0  0  0
 28 57  1  0  0  0
 28 58  1  0  0  0
M  END
$$$$
