4l0l_ligand
  -I-interpret- 

 68 69  0  0  0  0  0  0  0  0999 V2000
   -2.3610   -0.1330  -17.7170 C   0  0  0  0  0
    0.0450    0.2600  -17.5560 C   0  0  0  0  0
   -8.2830   -1.2590  -15.0840 C   0  0  0  0  0
   -9.3100   -2.1320  -14.5240 C   0  0  0  0  0
   -6.8790    0.4900  -15.0070 O   0  0  0  0  0
   -5.2270    2.2900  -15.0690 C   0  0  0  0  0
   -6.3210    1.5950  -14.2510 C   0  0  0  0  0
   -5.7050    1.2680  -12.9110 C   0  0  0  0  0
    0.8030    2.6190  -17.4970 C   0  0  0  0  0
   -2.5590   -0.0140  -16.5150 O   0  0  0  0  0
   -1.2070    0.3060  -18.2700 N   0  0  0  0  0
    0.9380    1.3820  -18.0460 C   0  0  0  0  0
    1.8820    1.1170  -19.0630 N   0  0  0  0  0
    2.0220   -0.1860  -19.6330 O   0  0  0  0  0
    2.7210    2.1510  -19.5210 C   0  0  0  0  0
    2.6880    3.4390  -19.0560 C   0  0  0  0  0
    3.5090    4.4590  -19.5080 O   0  0  0  0  0
    1.6820    3.7440  -17.9820 C   0  0  0  0  0
    1.5770    4.8710  -17.5060 O   0  0  0  0  0
   -3.2760   -0.7200  -18.6150 N   0  0  0  0  0
   -4.5820   -1.1480  -18.0850 C   0  0  0  0  0
   -4.5160   -2.6240  -17.6520 C   0  0  0  0  0
   -3.6170   -2.8070  -16.5220 N   0  0  0  0  0
   -2.2070   -3.7630  -16.6400 S   0  0  0  0  0
   -2.6810   -5.1100  -16.8240 O   0  0  0  0  0
   -1.5240   -3.6860  -15.3950 O   0  0  0  0  0
   -1.4290   -3.2740  -17.7210 O   0  0  0  0  0
   -5.9200   -3.1450  -17.2510 C   0  0  0  0  0
   -5.8080   -4.5780  -16.8240 C   0  0  0  0  0
   -5.7890   -4.9760  -15.6460 O   0  0  0  0  0
   -6.4630   -2.4230  -16.1370 N   0  0  0  0  0
   -7.5630   -1.6880  -16.3760 C   0  0  0  0  0
   -7.9860   -1.4220  -17.4880 O   0  0  0  0  0
   -8.0150   -0.1590  -14.4410 N   0  0  0  0  0
   -7.4050    2.7250  -14.0300 C   0  0  0  0  0
   -8.5290    2.6070  -14.5970 O   0  0  0  0  0
   -7.0960    3.6760  -13.2960 O   0  0  0  0  0
  -10.0060   -1.8130  -13.3610 N   0  0  0  0  0
  -10.8640   -2.7090  -12.9810 C   0  0  0  0  0
  -11.6900   -2.6680  -11.8570 N   0  0  0  0  0
  -10.8860   -4.0360  -14.0840 S   0  0  0  0  0
   -9.6820   -3.3380  -15.1010 C   0  0  0  0  0
    0.5320   -0.6992  -17.7320 H   0  0  0  0  0
   -0.1379    0.3774  -16.4879 H   0  0  0  0  0
   -4.9089    3.1956  -14.5525 H   0  0  0  0  0
   -4.3770    1.6171  -15.1822 H   0  0  0  0  0
   -5.6198    2.5498  -16.0520 H   0  0  0  0  0
   -5.2376    2.1626  -12.4994 H   0  0  0  0  0
   -6.4816    0.9168  -12.2315 H   0  0  0  0  0
   -4.9529    0.4895  -13.0386 H   0  0  0  0  0
    0.0661    2.7955  -16.7135 H   0  0  0  0  0
   -1.2230    0.6801  -19.2188 H   0  0  0  0  0
    2.7090   -0.1687  -20.3034 H   0  0  0  0  0
    3.4460    1.9101  -20.2984 H   0  0  0  0  0
    3.3017    5.2684  -19.0352 H   0  0  0  0  0
   -3.0411   -0.8442  -19.5998 H   0  0  0  0  0
   -5.3386   -1.0354  -18.8615 H   0  0  0  0  0
   -4.8385   -0.5323  -17.2229 H   0  0  0  0  0
   -4.1409   -3.1873  -18.5065 H   0  0  0  0  0
   -3.8351   -2.3519  -15.6356 H   0  0  0  0  0
   -3.1442   -5.1733  -17.6625 H   0  0  0  0  0
   -6.5694   -3.0196  -18.1174 H   0  0  0  0  0
   -5.7376   -5.3311  -17.6089 H   0  0  0  0  0
   -6.0366   -2.4650  -15.2113 H   0  0  0  0  0
   -8.5426    1.7973  -15.1126 H   0  0  0  0  0
  -11.6562   -1.8655  -11.2283 H   0  0  0  0  0
  -12.3276   -3.4405  -11.6642 H   0  0  0  0  0
   -9.2872   -3.7637  -16.0235 H   0  0  0  0  0
  1 10  2  0  0  0
  1 11  1  0  0  0
 20  1  1  0  0  0
 11  2  1  0  0  0
  2 12  1  0  0  0
  3  4  1  0  0  0
 32  3  1  0  0  0
  3 34  2  0  0  0
  4 38  4  0  0  0
  4 42  4  0  0  0
  5  7  1  0  0  0
 34  5  1  0  0  0
  7  6  1  0  0  0
  7  8  1  0  0  0
  7 35  1  0  0  0
 12  9  2  0  0  0
  9 18  1  0  0  0
 12 13  1  0  0  0
 13 14  1  0  0  0
 13 15  1  0  0  0
 15 16  2  0  0  0
 16 17  1  0  0  0
 18 16  1  0  0  0
 18 19  2  0  0  0
 21 20  1  0  0  0
 22 21  1  0  0  0
 22 23  1  0  0  0
 28 22  1  0  0  0
 23 24  1  0  0  0
 24 25  1  0  0  0
 24 26  2  0  0  0
 24 27  2  0  0  0
 28 29  1  0  0  0
 31 28  1  0  0  0
 29 30  2  0  0  0
 31 32  1  0  0  0
 32 33  2  0  0  0
 35 36  1  0  0  0
 35 37  2  0  0  0
 38 39  4  0  0  0
 39 40  1  0  0  0
 39 41  4  0  0  0
 41 42  4  0  0  0
  2 43  1  0  0  0
  2 44  1  0  0  0
  6 45  1  0  0  0
  6 46  1  0  0  0
  6 47  1  0  0  0
  8 48  1  0  0  0
  8 49  1  0  0  0
  8 50  1  0  0  0
  9 51  1  0  0  0
 11 52  1  0  0  0
 14 53  1  0  0  0
 15 54  1  0  0  0
 17 55  1  0  0  0
 20 56  1  0  0  0
 21 57  1  0  0  0
 21 58  1  0  0  0
 22 59  1  0  0  0
 23 60  1  0  0  0
 25 61  1  0  0  0
 28 62  1  0  0  0
 29 63  1  0  0  0
 31 64  1  0  0  0
 36 65  1  0  0  0
 40 66  1  0  0  0
 40 67  1  0  0  0
 42 68  1  0  0  0
M  END
$$$$
