3r5t_ligand
  -I-interpret- 

 96100  0  0  0  0  0  0  0  0999 V2000
   24.5880   18.1150    4.4830 C   0  0  0  0  0
   23.5680   16.0490    5.5380 N   0  3  0  0  0
   23.7480   18.8300    4.9180 O   0  0  0  0  0
   24.4350   16.6000    4.5110 C   0  0  0  0  0
   23.7880   15.9960    3.2080 C   0  0  0  0  0
   31.6920   13.4670    5.9410 C   0  0  0  0  0
   26.6840   21.5390    8.2820 O   0  0  0  0  0
   28.4330   14.8660    3.0410 O   0  0  0  0  0
   24.5380   16.0830    9.6450 O   0  0  0  0  0
   19.8890   15.5960    9.2380 O   0  0  0  0  0
   23.7350   13.7270    7.8980 O   0  0  0  0  0
   25.0470   17.7270    7.6150 O   0  0  0  0  0
   22.1520   16.0780    7.8070 O   0  0  0  0  0
   25.9470   14.8430    6.7870 O   0  0  0  0  0
   25.7900   19.0580   11.5350 C   0  0  0  0  0
   18.7800   14.9170    5.7460 C   0  0  0  0  0
   25.9600   10.7690    7.5600 C   0  0  0  0  0
   25.2650   17.7460   11.2820 C   0  0  0  0  0
   18.7450   15.0430    7.1640 C   0  0  0  0  0
   24.8130   11.5520    7.9160 C   0  0  0  0  0
   26.0660   19.9600   10.4430 C   0  0  0  0  0
   19.9530   15.1990    5.0310 C   0  0  0  0  0
   27.0740   11.3680    6.9180 C   0  0  0  0  0
   26.3850   21.0030    4.4690 C   0  0  0  0  0
   27.9980   18.4930    2.6540 C   0  0  0  0  0
   25.5500   21.3430    5.7150 C   0  0  0  0  0
   29.1610   17.5450    2.2790 C   0  0  0  0  0
   25.6990   20.1030    3.4390 C   0  0  0  0  0
   26.7170   17.7870    3.1300 C   0  0  0  0  0
   25.4740   20.3190    6.7540 N   0  0  0  0  0
   29.6490   16.8290    3.4560 N   0  0  0  0  0
   28.4530   14.7520    6.0410 N   0  3  0  0  0
   29.3320   12.6080    5.6890 O   0  0  0  0  0
   26.0790   20.5530    8.0450 C   0  0  0  0  0
   29.1810   15.4720    3.7530 C   0  0  0  0  0
   22.2540   16.0610    4.9500 C   0  0  0  0  0
   25.0200   17.3400    9.9380 C   0  0  0  0  0
   19.8930   15.4610    7.8620 C   0  0  0  0  0
   24.8200   12.9130    7.6200 C   0  0  0  0  0
   25.2730   18.1910    8.9020 C   0  0  0  0  0
   21.0020   15.7270    7.1690 C   0  0  0  0  0
   25.8980   13.4850    7.0000 C   0  0  0  0  0
   25.8220   19.5570    9.1700 C   0  0  0  0  0
   21.0450   15.5700    5.7070 C   0  0  0  0  0
   27.0790   12.6870    6.6560 C   0  0  0  0  0
   30.3810   13.5390    5.1780 C   0  0  0  0  0
   28.1730   13.3600    5.8770 C   0  0  0  0  0
   29.5840   14.9360    5.1210 C   0  0  0  0  0
   25.7080   18.6660    3.7290 N   0  0  0  0  0
   22.3390   15.8810    3.5530 O   0  0  0  0  0
   24.4690   14.8080    2.5470 C   0  0  0  0  0
   23.6047   16.5932    6.3999 H   0  0  0  0  0
   23.8535   15.1094    5.8138 H   0  0  0  0  0
   25.4796   16.3328    4.6706 H   0  0  0  0  0
   23.9413   16.6499    2.3495 H   0  0  0  0  0
   31.5167   13.7200    6.9866 H   0  0  0  0  0
   32.0955   12.4567    5.8730 H   0  0  0  0  0
   32.4015   14.1728    5.5091 H   0  0  0  0  0
   24.4373   15.9937    8.6945 H   0  0  0  0  0
   20.7548   15.8883    9.5322 H   0  0  0  0  0
   23.9315   14.6254    7.6225 H   0  0  0  0  0
   25.2625   18.4181    6.9845 H   0  0  0  0  0
   22.8426   16.2316    7.1581 H   0  0  0  0  0
   26.7687   15.0668    6.3439 H   0  0  0  0  0
   25.9816   19.3753   12.5600 H   0  0  0  0  0
   17.8857   14.5980    5.2107 H   0  0  0  0  0
   25.9762    9.7026    7.7850 H   0  0  0  0  0
   25.0560   17.0675   12.1091 H   0  0  0  0  0
   17.8287   14.8156    7.7088 H   0  0  0  0  0
   23.9551   11.0927    8.4071 H   0  0  0  0  0
   26.4663   20.9548   10.6384 H   0  0  0  0  0
   19.9739   15.1172    3.9443 H   0  0  0  0  0
   27.9306   10.7559    6.6355 H   0  0  0  0  0
   27.2603   20.4579    4.8222 H   0  0  0  0  0
   26.5901   21.9482    3.9664 H   0  0  0  0  0
   27.7375   19.0461    1.7516 H   0  0  0  0  0
   28.3466   19.1084    3.4834 H   0  0  0  0  0
   24.5292   21.4882    5.3616 H   0  0  0  0  0
   26.0358   22.2029    6.1762 H   0  0  0  0  0
   29.9771   18.1374    1.8652 H   0  0  0  0  0
   28.8006   16.8185    1.5507 H   0  0  0  0  0
   26.2512   20.2295    2.5078 H   0  0  0  0  0
   24.6515   20.4038    3.4209 H   0  0  0  0  0
   27.0172   17.0808    3.9041 H   0  0  0  0  0
   26.2592   17.3394    2.2479 H   0  0  0  0  0
   24.9937   19.4386    6.5680 H   0  0  0  0  0
   30.3220   17.2781    4.0770 H   0  0  0  0  0
   28.6639   15.0146    7.0038 H   0  0  0  0  0
   27.6569   15.3550    5.8338 H   0  0  0  0  0
   21.8790   17.0695    5.1243 H   0  0  0  0  0
   30.7873   13.2999    4.1953 H   0  0  0  0  0
   27.6127   13.3852    4.9424 H   0  0  0  0  0
   30.2588   15.7392    5.4170 H   0  0  0  0  0
   24.4052   13.9417    3.2054 H   0  0  0  0  0
   23.9725   14.5855    1.6025 H   0  0  0  0  0
   25.5158   15.0482    2.3609 H   0  0  0  0  0
  1  3  2  0  0  0
  1  4  1  0  0  0
 49  1  1  0  0  0
  4  2  1  0  0  0
  2 36  1  0  0  0
  4  5  1  0  0  0
  5 50  1  0  0  0
  5 51  1  0  0  0
 46  6  1  0  0  0
 34  7  2  0  0  0
 35  8  2  0  0  0
 37  9  1  0  0  0
 38 10  1  0  0  0
 39 11  1  0  0  0
 40 12  1  0  0  0
 41 13  1  0  0  0
 42 14  1  0  0  0
 15 18  4  0  0  0
 21 15  4  0  0  0
 16 19  4  0  0  0
 22 16  4  0  0  0
 17 20  4  0  0  0
 23 17  4  0  0  0
 37 18  4  0  0  0
 38 19  4  0  0  0
 39 20  4  0  0  0
 43 21  4  0  0  0
 44 22  4  0  0  0
 45 23  4  0  0  0
 24 26  1  0  0  0
 28 24  1  0  0  0
 27 25  1  0  0  0
 25 29  1  0  0  0
 26 30  1  0  0  0
 31 27  1  0  0  0
 49 28  1  0  0  0
 29 49  1  0  0  0
 30 34  1  0  0  0
 35 31  1  0  0  0
 47 32  1  0  0  0
 32 48  1  0  0  0
 33 46  1  0  0  0
 47 33  1  0  0  0
 34 43  1  0  0  0
 48 35  1  0  0  0
 36 44  1  0  0  0
 50 36  1  0  0  0
 40 37  4  0  0  0
 41 38  4  0  0  0
 42 39  4  0  0  0
 43 40  4  0  0  0
 44 41  4  0  0  0
 45 42  4  0  0  0
 45 47  1  0  0  0
 46 48  1  0  0  0
  2 52  1  0  0  0
  2 53  1  0  0  0
  4 54  1  0  0  0
  5 55  1  0  0  0
  6 56  1  0  0  0
  6 57  1  0  0  0
  6 58  1  0  0  0
  9 59  1  0  0  0
 10 60  1  0  0  0
 11 61  1  0  0  0
 12 62  1  0  0  0
 13 63  1  0  0  0
 14 64  1  0  0  0
 15 65  1  0  0  0
 16 66  1  0  0  0
 17 67  1  0  0  0
 18 68  1  0  0  0
 19 69  1  0  0  0
 20 70  1  0  0  0
 21 71  1  0  0  0
 22 72  1  0  0  0
 23 73  1  0  0  0
 24 74  1  0  0  0
 24 75  1  0  0  0
 25 76  1  0  0  0
 25 77  1  0  0  0
 26 78  1  0  0  0
 26 79  1  0  0  0
 27 80  1  0  0  0
 27 81  1  0  0  0
 28 82  1  0  0  0
 28 83  1  0  0  0
 29 84  1  0  0  0
 29 85  1  0  0  0
 30 86  1  0  0  0
 31 87  1  0  0  0
 32 88  1  0  0  0
 32 89  1  0  0  0
 36 90  1  0  0  0
 46 91  1  0  0  0
 47 92  1  0  0  0
 48 93  1  0  0  0
 51 94  1  0  0  0
 51 95  1  0  0  0
 51 96  1  0  0  0
M  END
$$$$
