4afe_ligand
  -I-interpret- 

 60 62  0  0  0  0  0  0  0  0999 V2000
    0.7340  -10.6350   16.2100 C   0  0  0  0  0
    1.6380  -10.3860   15.0640 C   0  0  0  0  0
    2.2870  -11.6990   14.6490 C   0  0  0  0  0
    1.6540  -12.5230   13.7680 C   0  0  0  0  0
    0.3350  -12.1410   13.2160 C   0  0  0  0  0
   -0.1130  -13.1120   12.3990 F   0  0  0  0  0
    0.4550  -10.9920   12.5220 F   0  0  0  0  0
   -0.5310  -11.9680   14.2160 F   0  0  0  0  0
    2.5890   -9.4410   15.4250 O   0  0  0  0  0
    3.3560   -8.7970   14.4370 C   0  0  0  0  0
    2.7760   -8.5050   13.2090 C   0  0  0  0  0
    3.5100   -7.8720   12.2230 C   0  0  0  0  0
    2.8500   -7.5530   10.8590 C   0  0  0  0  0
    2.2010   -8.5770   10.1440 C   0  0  0  0  0
    1.6030   -8.2640    8.8960 C   0  0  0  0  0
    0.9050   -9.3170    8.1060 C   0  0  0  0  0
    0.3080   -9.1760    6.8140 C   0  0  0  0  0
   -0.3080  -10.3960    6.2870 C   0  0  0  0  0
   -1.0060  -10.4710    4.9190 C   0  0  0  0  0
   -1.5860   -9.2340    4.3820 N   0  3  0  0  0
   -1.6680   -9.3120    2.9340 C   0  0  0  0  0
   -2.9570   -9.0320    4.9470 C   0  0  0  0  0
   -0.1960  -11.5140    7.1740 C   0  0  0  0  0
    0.6520  -10.9540    8.5590 S   0  0  0  0  0
    1.6800   -6.9660    8.4280 C   0  0  0  0  0
    2.3110   -6.0040    9.1380 N   0  0  0  0  0
    2.8930   -6.2710   10.3360 C   0  0  0  0  0
    3.5410   -5.2150   11.0330 N   0  0  0  0  0
    4.8740   -7.5160   12.4670 C   0  0  0  0  0
    5.4570   -7.8050   13.6910 C   0  0  0  0  0
    4.7280   -8.4390   14.6870 C   0  0  0  0  0
    5.3750   -8.7460   16.0080 C   0  0  0  0  0
    4.9180   -9.8690   16.8310 N   0  0  0  0  0
    6.2880   -8.0650   16.4150 O   0  0  0  0  0
    1.3143  -11.0055   17.0551 H   0  0  0  0  0
    0.2375   -9.7053   16.4882 H   0  0  0  0  0
   -0.0130  -11.3768   15.9274 H   0  0  0  0  0
    1.0789   -9.9951   14.2139 H   0  0  0  0  0
    3.2581  -11.9798   15.0567 H   0  0  0  0  0
    2.1186  -13.4629   13.4699 H   0  0  0  0  0
    1.7370   -8.7763   13.0218 H   0  0  0  0  0
    2.1586   -9.5911   10.5414 H   0  0  0  0  0
    0.3112   -8.2346    6.2646 H   0  0  0  0  0
   -1.8459  -11.1520    5.0564 H   0  0  0  0  0
   -0.2302  -10.7616    4.2106 H   0  0  0  0  0
   -0.9902   -8.4485    4.6436 H   0  0  0  0  0
   -0.6683   -9.4488    2.5216 H   0  0  0  0  0
   -2.2974  -10.1560    2.6519 H   0  0  0  0  0
   -2.0996   -8.3895    2.5456 H   0  0  0  0  0
   -3.5894   -9.8765    4.6733 H   0  0  0  0  0
   -2.8942   -8.9603    6.0328 H   0  0  0  0  0
   -3.3824   -8.1125    4.5449 H   0  0  0  0  0
   -0.5743  -12.5220    7.0041 H   0  0  0  0  0
    1.2244   -6.7136    7.4705 H   0  0  0  0  0
    3.9843   -5.3951   11.9338 H   0  0  0  0  0
    3.5626   -4.2772   10.6323 H   0  0  0  0  0
    5.4546   -7.0177   11.6907 H   0  0  0  0  0
    6.4965   -7.5320   13.8725 H   0  0  0  0  0
    5.3681  -10.0620   17.7257 H   0  0  0  0  0
    4.1498  -10.4577   16.5091 H   0  0  0  0  0
  1  2  1  0  0  0
  2  3  1  0  0  0
  2  9  1  0  0  0
  3  4  2  0  0  0
  4  5  1  0  0  0
  5  6  1  0  0  0
  5  7  1  0  0  0
  5  8  1  0  0  0
  9 10  1  0  0  0
 10 11  4  0  0  0
 10 31  4  0  0  0
 11 12  4  0  0  0
 12 13  1  0  0  0
 12 29  4  0  0  0
 13 14  4  0  0  0
 13 27  4  0  0  0
 14 15  4  0  0  0
 15 16  1  0  0  0
 15 25  4  0  0  0
 16 17  4  0  0  0
 16 24  4  0  0  0
 17 18  4  0  0  0
 18 19  1  0  0  0
 18 23  4  0  0  0
 19 20  1  0  0  0
 20 21  1  0  0  0
 20 22  1  0  0  0
 23 24  4  0  0  0
 25 26  4  0  0  0
 26 27  4  0  0  0
 27 28  1  0  0  0
 29 30  4  0  0  0
 30 31  4  0  0  0
 31 32  1  0  0  0
 32 33  1  0  0  0
 32 34  2  0  0  0
  1 35  1  0  0  0
  1 36  1  0  0  0
  1 37  1  0  0  0
  2 38  1  0  0  0
  3 39  1  0  0  0
  4 40  1  0  0  0
 11 41  1  0  0  0
 14 42  1  0  0  0
 17 43  1  0  0  0
 19 44  1  0  0  0
 19 45  1  0  0  0
 20 46  1  0  0  0
 21 47  1  0  0  0
 21 48  1  0  0  0
 21 49  1  0  0  0
 22 50  1  0  0  0
 22 51  1  0  0  0
 22 52  1  0  0  0
 23 53  1  0  0  0
 25 54  1  0  0  0
 28 55  1  0  0  0
 28 56  1  0  0  0
 29 57  1  0  0  0
 30 58  1  0  0  0
 33 59  1  0  0  0
 33 60  1  0  0  0
M  END
$$$$
