### 
### Created by X-TOOL on Mon Sep 10 21:13:11 2018
### 

@<TRIPOS>MOLECULE
4afe_ligand
   59    61     1     0     0
SMALL
GAST_HUCK


@<TRIPOS>ATOM
      1 C01         0.7340  -10.6350   16.2100 C.3       1 GGY        -0.0063
      2 C02         1.6380  -10.3860   15.0640 C.3       1 GGY         0.1550
      3 C03         2.2870  -11.6990   14.6490 C.2       1 GGY         0.0248
      4 C04         1.6540  -12.5230   13.7680 C.2       1 GGY         0.0117
      5 C05         0.3350  -12.1410   13.2160 C.3       1 GGY         0.3409
      6 F06        -0.1130  -13.1120   12.3990 F         1 GGY        -0.2515
      7 F07         0.4550  -10.9920   12.5220 F         1 GGY        -0.2515
      8 F08        -0.5310  -11.9680   14.2160 F         1 GGY        -0.2515
      9 O09         2.5890   -9.4410   15.4250 O.3       1 GGY        -0.2765
     10 C10         3.3560   -8.7970   14.4370 C.ar      1 GGY         0.1187
     11 C11         2.7760   -8.5050   13.2090 C.ar      1 GGY        -0.0212
     12 C12         3.5100   -7.8720   12.2230 C.ar      1 GGY        -0.0215
     13 C13         2.8500   -7.5530   10.8590 C.ar      1 GGY         0.0282
     14 C14         2.2010   -8.5770   10.1440 C.ar      1 GGY        -0.0384
     15 C15         1.6030   -8.2640    8.8960 C.ar      1 GGY         0.0038
     16 C16         0.9050   -9.3170    8.1060 C.2       1 GGY         0.0303
     17 C17         0.3080   -9.1760    6.8140 C.2       1 GGY        -0.0675
     18 C18        -0.3080  -10.3960    6.2870 C.2       1 GGY        -0.0803
     19 C19        -1.0060  -10.4710    4.9190 C.3       1 GGY        -0.0901
     20 N20        -1.5860   -9.2340    4.3820 N.4       1 GGY         0.4017
     21 C21        -1.6680   -9.3120    2.9340 C.3       1 GGY        -0.1240
     22 C22        -2.9570   -9.0320    4.9470 C.3       1 GGY        -0.1240
     23 C23        -0.1960  -11.5140    7.1740 C.2       1 GGY        -0.0149
     24 S24         0.6520  -10.9540    8.5590 S.3       1 GGY        -0.0531
     25 C25         1.6800   -6.9660    8.4280 C.ar      1 GGY         0.0043
     26 N26         2.3110   -6.0040    9.1380 N.ar      1 GGY        -0.2827
     27 C27         2.8930   -6.2710   10.3360 C.ar      1 GGY         0.1201
     28 N28         3.5410   -5.2150   11.0330 N.pl3     1 GGY        -0.3196
     29 C29         4.8740   -7.5160   12.4670 C.ar      1 GGY        -0.0612
     30 C30         5.4570   -7.8050   13.6910 C.ar      1 GGY        -0.0511
     31 C31         4.7280   -8.4390   14.6870 C.ar      1 GGY         0.0771
     32 C32         5.3750   -8.7460   16.0080 C.2       1 GGY         0.1957
     33 N33         4.9180   -9.8690   16.8310 N.am      1 GGY        -0.3022
     34 O34         6.2880   -8.0650   16.4150 O.2       1 GGY        -0.3919
     35 H           1.3143  -11.0055   17.0551 H         1 GGY         0.0316
     36 H           0.2375   -9.7053   16.4882 H         1 GGY         0.0316
     37 H          -0.0130  -11.3768   15.9274 H         1 GGY         0.0316
     38 H           1.0789   -9.9951   14.2139 H         1 GGY         0.1089
     39 H           3.2581  -11.9798   15.0567 H         1 GGY         0.1564
     40 H           2.1186  -13.4629   13.4699 H         1 GGY         0.0546
     41 H           1.7370   -8.7763   13.0218 H         1 GGY         0.0542
     42 H           2.1586   -9.5911   10.5414 H         1 GGY         0.0698
     43 H           0.3112   -8.2346    6.2646 H         1 GGY         0.0405
     44 H          -1.8459  -11.1520    5.0564 H         1 GGY         0.0134
     45 H          -0.2302  -10.7616    4.2106 H         1 GGY         0.0134
     46 H          -0.6683   -9.4488    2.5216 H         1 GGY        -0.0017
     47 H          -2.2974  -10.1560    2.6519 H         1 GGY        -0.0017
     48 H          -2.0996   -8.3895    2.5456 H         1 GGY        -0.0017
     49 H          -3.5894   -9.8765    4.6733 H         1 GGY        -0.0017
     50 H          -2.8942   -8.9603    6.0328 H         1 GGY        -0.0017
     51 H          -3.3824   -8.1125    4.5449 H         1 GGY        -0.0017
     52 H          -0.5743  -12.5220    7.0041 H         1 GGY         0.0589
     53 H           1.2244   -6.7136    7.4705 H         1 GGY         0.0782
     54 H           3.5629   -4.2773   10.6321 H         1 GGY         0.1790
     55 H           3.9840   -5.3950   11.9340 H         1 GGY         0.1790
     56 H           5.4546   -7.0177   11.6907 H         1 GGY         0.0533
     57 H           6.4965   -7.5320   13.8725 H         1 GGY         0.0637
     58 H           5.3681  -10.0620   17.7257 H         1 GGY         0.1803
     59 H           4.1498  -10.4577   16.5091 H         1 GGY         0.1803
@<TRIPOS>BOND
     1    1    2 1  
     2    2    3 1  
     3    2    9 1  
     4    3    4 2  
     5    4    5 1  
     6    5    6 1  
     7    5    7 1  
     8    5    8 1  
     9    9   10 1  
    10   10   11 ar 
    11   10   31 ar 
    12   11   12 ar 
    13   12   13 1  
    14   12   29 ar 
    15   13   14 ar 
    16   13   27 ar 
    17   14   15 ar 
    18   15   16 1  
    19   15   25 ar 
    20   16   17 2  
    21   16   24 1  
    22   17   18 1  
    23   18   19 1  
    24   18   23 2  
    25   19   20 1  
    26   20   21 1  
    27   20   22 1  
    28   23   24 1  
    29   25   26 ar 
    30   26   27 ar 
    31   27   28 1  
    32   29   30 ar 
    33   30   31 ar 
    34   31   32 1  
    35   32   33 am 
    36   32   34 2  
    37    1   35 1  
    38    1   36 1  
    39    1   37 1  
    40    2   38 1  
    41    3   39 1  
    42    4   40 1  
    43   11   41 1  
    44   14   42 1  
    45   17   43 1  
    46   19   44 1  
    47   19   45 1  
    48   21   46 1  
    49   21   47 1  
    50   21   48 1  
    51   22   49 1  
    52   22   50 1  
    53   22   51 1  
    54   23   52 1  
    55   25   53 1  
    56   28   54 1  
    57   28   55 1  
    58   29   56 1  
    59   30   57 1  
    60   33   58 1  
    61   33   59 1  
@<TRIPOS>SUBSTRUCTURE
     1 GGY         1

