### 
### Created by X-TOOL on Wed Jan  1 15:39:36 2020
### 

@<TRIPOS>MOLECULE
6f09_ligand
  160   161     1     0     0
SMALL
GAST_HUCK


@<TRIPOS>ATOM
      1 N          11.3600   42.4390    1.8070 N.4       1 ARG         0.2379
      2 CA         10.6170   41.5490    0.9210 C.3       1 ARG         0.0651
      3 C          10.9000   40.0600    1.2180 C.2       1 ARG         0.2268
      4 O          11.7790   39.7270    2.0140 O.2       1 ARG        -0.3907
      5 CB         10.9780   41.8790   -0.5210 C.3       1 ARG         0.0110
      6 CG         12.4920   41.8140   -0.7860 C.3       1 ARG        -0.0125
      7 CD         12.8770   42.3270   -2.1760 C.3       1 ARG         0.0629
      8 NE         14.0600   41.6430   -2.7180 N.pl3     1 ARG        -0.2723
      9 CZ         14.0310   40.6010   -3.5540 C.cat     1 ARG         0.2882
     10 NH1        15.1770   40.0410   -3.9840 N.pl3     1 ARG        -0.2849
     11 NH2        12.8610   40.1000   -3.9530 N.pl3     1 ARG        -0.2849
     12 N          10.1460   39.1710    0.5790 N.am      1 SER        -0.2589
     13 CA         10.4740   37.7570    0.5850 C.3       1 SER         0.1540
     14 C          11.8630   37.5400    0.0100 C.2       1 SER         0.2063
     15 O          12.3810   38.3490   -0.7610 O.2       1 SER        -0.3943
     16 CB          9.4940   36.9480   -0.2720 C.3       1 SER         0.0843
     17 OG          8.1520   37.1560    0.1060 O.3       1 SER        -0.3903
     18 N          12.4490   36.4120    0.3730 N.am      1 TYR        -0.2621
     19 CA         13.6810   35.9370   -0.2100 C.3       1 TYR         0.1390
     20 C          13.3380   35.1370   -1.4440 C.2       1 TYR         0.2058
     21 O          12.6130   34.1660   -1.4000 O.2       1 TYR        -0.3942
     22 CB         14.4560   35.0800    0.8010 C.3       1 TYR         0.0163
     23 CG         14.5680   35.7400    2.1200 C.ar      1 TYR        -0.0493
     24 CD1        15.0970   36.9930    2.2180 C.ar      1 TYR        -0.0685
     25 CD2        14.0980   35.1080    3.2760 C.ar      1 TYR        -0.0685
     26 CE1        15.2010   37.6270    3.4310 C.ar      1 TYR        -0.0398
     27 CE2        14.1920   35.7460    4.4970 C.ar      1 TYR        -0.0398
     28 CZ         14.7340   37.0000    4.5550 C.ar      1 TYR         0.0805
     29 OH         14.8370   37.6280    5.7610 O.3       1 TYR        -0.3376
     30 N          14.0410   35.4650   -2.5210 N.am      1 SEP        -0.2611
     31 CA         13.9280   34.7290   -3.7590 C.3       1 SEP         0.1586
     32 CB         13.3140   35.5420   -4.8860 C.3       1 SEP         0.1184
     33 OG         14.2190   36.5550   -5.2310 O.3       1 SEP        -0.2714
     34 C          15.2900   34.1470   -4.0840 C.2       1 SEP         0.2066
     35 O          16.3010   34.4760   -3.4460 O.2       1 SEP        -0.3943
     36 P          13.7860   37.5320   -6.4140 P.3       1 SEP         0.2010
     37 O1P        13.6760   36.6310   -7.5960 O.co2     1 SEP        -0.5537
     38 O2P        12.4900   38.1410   -5.9770 O.co2     1 SEP        -0.5537
     39 O3P        14.9450   38.4800   -6.4890 O.co2     1 SEP        -0.5537
     40 N          15.2930   33.1720   -4.9740 N.am      1 SER        -0.2615
     41 CA         16.5020   32.4380   -5.3690 C.3       1 SER         0.1541
     42 C          17.6730   33.2600   -5.9190 C.2       1 SER         0.2087
     43 O          17.5420   33.8970   -6.9650 O.2       1 SER        -0.3941
     44 CB         16.1310   31.3630   -6.3950 C.3       1 SER         0.0843
     45 OG         17.2190   30.4850   -6.6290 O.3       1 SER        -0.3903
     46 N          18.8280   33.2500   -5.2180 N.am      1 PRO        -0.2498
     47 CA         19.9400   33.9820   -5.8280 C.3       1 PRO         0.1338
     48 C          20.5310   33.2780   -7.0410 C.2       1 PRO         0.2042
     49 O          21.4700   33.8120   -7.6480 O.2       1 PRO        -0.3944
     50 CB         20.9520   34.0970   -4.6800 C.3       1 PRO        -0.0104
     51 CG         20.6910   32.9620   -3.8130 C.3       1 PRO        -0.0281
     52 CD         19.2000   32.6860   -3.9060 C.3       1 PRO         0.0369
     53 N          19.9860   32.1220   -7.4290 N.am      1 ASP        -0.2622
     54 CA         20.3800   31.4420   -8.6640 C.3       1 ASP         0.1423
     55 C          21.8930   31.2040   -8.6770 C.2       1 ASP         0.2056
     56 O          22.5650   31.3570   -9.6990 O.2       1 ASP        -0.3943
     57 CB         19.9250   32.2310   -9.9060 C.3       1 ASP         0.0406
     58 CG         18.3950   32.1580  -10.1570 C.2       1 ASP         0.0393
     59 OD1        17.6780   31.4290   -9.4550 O.co2     1 ASP        -0.5688
     60 OD2        17.9010   32.8320  -11.0830 O.co2     1 ASP        -0.5688
     61 N          22.4270   30.8290   -7.5160 N.am      1 ILE        -0.2634
     62 CA         23.8530   30.6050   -7.3360 C.3       1 ILE         0.1335
     63 C          24.1570   29.1530   -7.6690 C.2       1 ILE         0.2042
     64 O          23.5670   28.2340   -7.0870 O.2       1 ILE        -0.3944
     65 CB         24.2910   30.9250   -5.8970 C.3       1 ILE        -0.0037
     66 CG1        24.1810   32.4230   -5.6110 C.3       1 ILE        -0.0491
     67 CG2        25.7270   30.4250   -5.6410 C.3       1 ILE        -0.0582
     68 CD1        24.1560   32.7480   -4.1140 C.3       1 ILE        -0.0648
     69 N          25.0900   28.9470   -8.5870 N.am      1 THR        -0.2613
     70 CA         25.7520   27.6650   -8.7680 C.3       1 THR         0.1564
     71 C          27.1830   27.8540   -8.2860 C.2       1 THR         0.2059
     72 O          27.9410   28.6260   -8.8820 O.2       1 THR        -0.3943
     73 CB         25.7250   27.2150  -10.2230 C.3       1 THR         0.0924
     74 OG1        24.3670   27.1050  -10.6560 O.3       1 THR        -0.3874
     75 CG2        26.4200   25.8670  -10.3740 C.3       1 THR        -0.0346
     76 N          27.5400   27.1690   -7.2050 N.am      1 GLN        -0.2693
     77 CA         28.8790   27.2710   -6.6340 C.3       1 GLN         0.0964
     78 C          29.9100   26.6750   -7.5630 C.2       1 GLN         0.0602
     79 O          29.6190   25.6820   -8.2270 O.co2     1 GLN        -0.5666
     80 CB         28.9440   26.5620   -5.2860 C.3       1 GLN        -0.0010
     81 CG         28.2940   27.3210   -4.1380 C.3       1 GLN         0.0407
     82 CD         28.7110   26.7650   -2.7850 C.2       1 GLN         0.1737
     83 OE1        29.4670   25.7980   -2.7050 O.2       1 GLN        -0.3973
     84 NE2        28.2190   27.3700   -1.7220 N.am      1 GLN        -0.3009
     85 OXT        31.0390   27.1620   -7.6440 O.co2     1 GLN        -0.5666
     86 H1         11.1454   43.3969    1.5780 H         1 ARG         0.2015
     87 H2         12.3486   42.2794    1.6917 H         1 ARG         0.2015
     88 H3         11.0992   42.2556    2.7633 H         1 ARG         0.2015
     89 H4          9.5419   41.7294    1.0679 H         1 ARG         0.1098
     90 H5         10.6248   42.8957   -0.7480 H         1 ARG         0.0347
     91 H6         10.4741   41.1594   -1.1830 H         1 ARG         0.0347
     92 H7         12.8195   40.7678   -0.6951 H         1 ARG         0.0302
     93 H8         13.0069   42.4263   -0.0311 H         1 ARG         0.0302
     94 H9         13.0917   43.4037   -2.1082 H         1 ARG         0.0689
     95 H10        12.0307   42.1641   -2.8596 H         1 ARG         0.0689
     96 H11        14.9844   41.9948   -2.4306 H         1 ARG         0.2642
     97 H12        15.1477   39.2380   -4.6284 H         1 ARG         0.2615
     98 H13        16.0832   40.4155   -3.6687 H         1 ARG         0.2615
     99 H14        11.9810   40.5245   -3.6271 H         1 ARG         0.2615
    100 H15        12.8375   39.2886   -4.5870 H         1 ARG         0.2615
    101 H16         9.3354   39.4831    0.0835 H         1 SER         0.1885
    102 H17        10.4412   37.3897    1.6213 H         1 SER         0.0823
    103 H18         9.7297   35.8790   -0.1644 H         1 SER         0.0606
    104 H19         9.6150   37.2461   -1.3239 H         1 SER         0.0606
    105 H20         7.9362   38.0762    0.0101 H         1 SER         0.2097
    106 H21        12.0174   35.8605    1.0868 H         1 TYR         0.1885
    107 H22        14.3041   36.7970   -0.4968 H         1 TYR         0.0821
    108 H23        15.4674   34.8969    0.4091 H         1 TYR         0.0453
    109 H24        13.9326   34.1208    0.9277 H         1 TYR         0.0453
    110 H25        15.4414   37.4972    1.3223 H         1 TYR         0.0530
    111 H26        13.6604   34.1182    3.2134 H         1 TYR         0.0530
    112 H27        15.6476   38.6124    3.4982 H         1 TYR         0.0525
    113 H28        13.8402   35.2584    5.3990 H         1 TYR         0.0525
    114 H29        15.2302   38.4841    5.6384 H         1 TYR         0.2458
    115 H30        14.6666   36.2437   -2.4742 H         1 SEP         0.1884
    116 H31        13.2458   33.8848   -3.5805 H         1 SEP         0.0827
    117 H32        12.3652   35.9869   -4.5516 H         1 SEP         0.0662
    118 H33        13.1290   34.8945   -5.7558 H         1 SEP         0.0662
    119 H34        14.4253   32.9197   -5.4022 H         1 SER         0.1884
    120 H35        16.8705   31.9343   -4.4632 H         1 SER         0.0823
    121 H36        15.8523   31.8500   -7.3411 H         1 SER         0.0606
    122 H37        15.2767   30.7834   -6.0154 H         1 SER         0.0606
    123 H38        17.9586   30.9804   -6.9607 H         1 SER         0.2097
    124 H39        19.6045   34.9819   -6.1405 H         1 PRO         0.0802
    125 H40        20.8058   35.0398   -4.1325 H         1 PRO         0.0313
    126 H41        21.9801   34.0544   -5.0689 H         1 PRO         0.0313
    127 H42        20.9694   33.2029   -2.7765 H         1 PRO         0.0287
    128 H43        21.2621   32.0851   -4.1518 H         1 PRO         0.0287
    129 H44        18.9970   31.6055   -3.8703 H         1 PRO         0.0524
    130 H45        18.6554   33.1885   -3.0930 H         1 PRO         0.0524
    131 H46        19.2820   31.7052   -6.8540 H         1 ASP         0.1884
    132 H47        19.8813   30.4618   -8.6871 H         1 ASP         0.0819
    133 H48        20.4425   31.8233  -10.7869 H         1 ASP         0.0478
    134 H49        20.2061   33.2859   -9.7711 H         1 ASP         0.0478
    135 H50        21.8202   30.6954   -6.7325 H         1 ILE         0.1883
    136 H51        24.4079   31.2581   -8.0256 H         1 ILE         0.0803
    137 H52        23.6160   30.3954   -5.2086 H         1 ILE         0.0345
    138 H53        23.2532   32.7994   -6.0666 H         1 ILE         0.0267
    139 H54        25.0447   32.9306   -6.0652 H         1 ILE         0.0267
    140 H55        25.7831   29.3470   -5.8526 H         1 ILE         0.0235
    141 H56        25.9968   30.6069   -4.5902 H         1 ILE         0.0235
    142 H57        26.4256   30.9643   -6.2976 H         1 ILE         0.0235
    143 H58        24.0761   33.8364   -3.9764 H         1 ILE         0.0230
    144 H59        25.0827   32.3862   -3.6447 H         1 ILE         0.0230
    145 H60        23.2912   32.2549   -3.6461 H         1 ILE         0.0230
    146 H61        25.3506   29.7073   -9.1821 H         1 THR         0.1884
    147 H62        25.2508   26.9018   -8.1545 H         1 THR         0.0826
    148 H63        26.2459   27.9603  -10.8420 H         1 THR         0.0639
    149 H64        24.3469   26.8244  -11.5634 H         1 THR         0.2101
    150 H65        26.3921   25.5563  -11.4288 H         1 THR         0.0257
    151 H66        25.9035   25.1170   -9.7571 H         1 THR         0.0257
    152 H67        27.4660   25.9549  -10.0452 H         1 THR         0.0257
    153 H68        26.8715   26.5658   -6.7699 H         1 GLN         0.1875
    154 H69        29.1129   28.3354   -6.4849 H         1 GLN         0.0727
    155 H70        30.0025   26.4002   -5.0343 H         1 GLN         0.0330
    156 H71        28.4379   25.5904   -5.3848 H         1 GLN         0.0330
    157 H72        27.2009   27.2430   -4.2333 H         1 GLN         0.0504
    158 H73        28.5926   28.3781   -4.1958 H         1 GLN         0.0504
    159 H74        28.4594   27.0469   -0.8067 H         1 GLN         0.1814
    160 H75        27.6054   28.1521   -1.8310 H         1 GLN         0.1814
@<TRIPOS>BOND
     1    1    2 1  
     2    2    3 1  
     3    2    5 1  
     4    3    4 2  
     5    3   12 am 
     6    5    6 1  
     7    6    7 1  
     8    7    8 1  
     9    8    9 ar 
    10    9   10 ar 
    11    9   11 ar 
    12   12   13 1  
    13   13   14 1  
    14   13   16 1  
    15   14   15 2  
    16   14   18 am 
    17   16   17 1  
    18   18   19 1  
    19   19   20 1  
    20   19   22 1  
    21   20   21 2  
    22   20   30 am 
    23   22   23 1  
    24   23   24 ar 
    25   23   25 ar 
    26   24   26 ar 
    27   25   27 ar 
    28   26   28 ar 
    29   27   28 ar 
    30   28   29 1  
    31   30   31 1  
    32   31   32 1  
    33   31   34 1  
    34   32   33 1  
    35   33   36 1  
    36   34   35 2  
    37   34   40 am 
    38   36   37 ar 
    39   36   38 ar 
    40   36   39 ar 
    41   40   41 1  
    42   41   42 1  
    43   41   44 1  
    44   42   43 2  
    45   42   46 am 
    46   44   45 1  
    47   46   47 1  
    48   46   52 1  
    49   47   48 1  
    50   47   50 1  
    51   48   49 2  
    52   48   53 am 
    53   50   51 1  
    54   51   52 1  
    55   53   54 1  
    56   54   55 1  
    57   54   57 1  
    58   55   56 2  
    59   55   61 am 
    60   57   58 1  
    61   58   59 ar 
    62   58   60 ar 
    63   61   62 1  
    64   62   63 1  
    65   62   65 1  
    66   63   64 2  
    67   63   69 am 
    68   65   66 1  
    69   65   67 1  
    70   66   68 1  
    71   69   70 1  
    72   70   71 1  
    73   70   73 1  
    74   71   72 2  
    75   71   76 am 
    76   73   74 1  
    77   73   75 1  
    78   76   77 1  
    79   77   78 1  
    80   77   80 1  
    81   78   79 ar 
    82   78   85 ar 
    83   80   81 1  
    84   81   82 1  
    85   82   83 2  
    86   82   84 am 
    87    1   86 1  
    88    1   87 1  
    89    1   88 1  
    90    2   89 1  
    91    5   90 1  
    92    5   91 1  
    93    6   92 1  
    94    6   93 1  
    95    7   94 1  
    96    7   95 1  
    97    8   96 1  
    98   10   97 1  
    99   10   98 1  
   100   11   99 1  
   101   11  100 1  
   102   12  101 1  
   103   13  102 1  
   104   16  103 1  
   105   16  104 1  
   106   17  105 1  
   107   18  106 1  
   108   19  107 1  
   109   22  108 1  
   110   22  109 1  
   111   24  110 1  
   112   25  111 1  
   113   26  112 1  
   114   27  113 1  
   115   29  114 1  
   116   30  115 1  
   117   31  116 1  
   118   32  117 1  
   119   32  118 1  
   120   40  119 1  
   121   41  120 1  
   122   44  121 1  
   123   44  122 1  
   124   45  123 1  
   125   47  124 1  
   126   50  125 1  
   127   50  126 1  
   128   51  127 1  
   129   51  128 1  
   130   52  129 1  
   131   52  130 1  
   132   53  131 1  
   133   54  132 1  
   134   57  133 1  
   135   57  134 1  
   136   61  135 1  
   137   62  136 1  
   138   65  137 1  
   139   66  138 1  
   140   66  139 1  
   141   67  140 1  
   142   67  141 1  
   143   67  142 1  
   144   68  143 1  
   145   68  144 1  
   146   68  145 1  
   147   69  146 1  
   148   70  147 1  
   149   73  148 1  
   150   74  149 1  
   151   75  150 1  
   152   75  151 1  
   153   75  152 1  
   154   76  153 1  
   155   77  154 1  
   156   80  155 1  
   157   80  156 1  
   158   81  157 1  
   159   81  158 1  
   160   84  159 1  
   161   84  160 1  
@<TRIPOS>SUBSTRUCTURE
     1 ARG         1

