6f09_ligand
  -I-interpret- 

163164  0  0  0  0  0  0  0  0999 V2000
   11.3600   42.4390    1.8070 N   0  3  0  0  0
   10.6170   41.5490    0.9210 C   0  0  0  0  0
   10.9000   40.0600    1.2180 C   0  0  0  0  0
   11.7790   39.7270    2.0140 O   0  0  0  0  0
   10.9780   41.8790   -0.5210 C   0  0  0  0  0
   12.4920   41.8140   -0.7860 C   0  0  0  0  0
   12.8770   42.3270   -2.1760 C   0  0  0  0  0
   14.0600   41.6430   -2.7180 N   0  0  0  0  0
   14.0310   40.6010   -3.5540 C   0  0  0  0  0
   15.1770   40.0410   -3.9840 N   0  0  0  0  0
   12.8610   40.1000   -3.9530 N   0  0  0  0  0
   10.1460   39.1710    0.5790 N   0  0  0  0  0
   10.4740   37.7570    0.5850 C   0  0  0  0  0
   11.8630   37.5400    0.0100 C   0  0  0  0  0
   12.3810   38.3490   -0.7610 O   0  0  0  0  0
    9.4940   36.9480   -0.2720 C   0  0  0  0  0
    8.1520   37.1560    0.1060 O   0  0  0  0  0
   12.4490   36.4120    0.3730 N   0  0  0  0  0
   13.6810   35.9370   -0.2100 C   0  0  0  0  0
   13.3380   35.1370   -1.4440 C   0  0  0  0  0
   12.6130   34.1660   -1.4000 O   0  0  0  0  0
   14.4560   35.0800    0.8010 C   0  0  0  0  0
   14.5680   35.7400    2.1200 C   0  0  0  0  0
   15.0970   36.9930    2.2180 C   0  0  0  0  0
   14.0980   35.1080    3.2760 C   0  0  0  0  0
   15.2010   37.6270    3.4310 C   0  0  0  0  0
   14.1920   35.7460    4.4970 C   0  0  0  0  0
   14.7340   37.0000    4.5550 C   0  0  0  0  0
   14.8370   37.6280    5.7610 O   0  0  0  0  0
   14.0410   35.4650   -2.5210 N   0  0  0  0  0
   13.9280   34.7290   -3.7590 C   0  0  0  0  0
   13.3140   35.5420   -4.8860 C   0  0  0  0  0
   14.2190   36.5550   -5.2310 O   0  0  0  0  0
   15.2900   34.1470   -4.0840 C   0  0  0  0  0
   16.3010   34.4760   -3.4460 O   0  0  0  0  0
   13.7860   37.5320   -6.4140 P   0  0  0  0  0
   13.6760   36.6310   -7.5960 O   0  0  0  0  0
   12.4900   38.1410   -5.9770 O   0  0  0  0  0
   14.9450   38.4800   -6.4890 O   0  0  0  0  0
   15.2930   33.1720   -4.9740 N   0  0  0  0  0
   16.5020   32.4380   -5.3690 C   0  0  0  0  0
   17.6730   33.2600   -5.9190 C   0  0  0  0  0
   17.5420   33.8970   -6.9650 O   0  0  0  0  0
   16.1310   31.3630   -6.3950 C   0  0  0  0  0
   17.2190   30.4850   -6.6290 O   0  0  0  0  0
   18.8280   33.2500   -5.2180 N   0  0  0  0  0
   19.9400   33.9820   -5.8280 C   0  0  0  0  0
   20.5310   33.2780   -7.0410 C   0  0  0  0  0
   21.4700   33.8120   -7.6480 O   0  0  0  0  0
   20.9520   34.0970   -4.6800 C   0  0  0  0  0
   20.6910   32.9620   -3.8130 C   0  0  0  0  0
   19.2000   32.6860   -3.9060 C   0  0  0  0  0
   19.9860   32.1220   -7.4290 N   0  0  0  0  0
   20.3800   31.4420   -8.6640 C   0  0  0  0  0
   21.8930   31.2040   -8.6770 C   0  0  0  0  0
   22.5650   31.3570   -9.6990 O   0  0  0  0  0
   19.9250   32.2310   -9.9060 C   0  0  0  0  0
   18.3950   32.1580  -10.1570 C   0  0  0  0  0
   17.6780   31.4290   -9.4550 O   0  0  0  0  0
   17.9010   32.8320  -11.0830 O   0  0  0  0  0
   22.4270   30.8290   -7.5160 N   0  0  0  0  0
   23.8530   30.6050   -7.3360 C   0  0  0  0  0
   24.1570   29.1530   -7.6690 C   0  0  0  0  0
   23.5670   28.2340   -7.0870 O   0  0  0  0  0
   24.2910   30.9250   -5.8970 C   0  0  0  0  0
   24.1810   32.4230   -5.6110 C   0  0  0  0  0
   25.7270   30.4250   -5.6410 C   0  0  0  0  0
   24.1560   32.7480   -4.1140 C   0  0  0  0  0
   25.0900   28.9470   -8.5870 N   0  0  0  0  0
   25.7520   27.6650   -8.7680 C   0  0  0  0  0
   27.1830   27.8540   -8.2860 C   0  0  0  0  0
   27.9410   28.6260   -8.8820 O   0  0  0  0  0
   25.7250   27.2150  -10.2230 C   0  0  0  0  0
   24.3670   27.1050  -10.6560 O   0  0  0  0  0
   26.4200   25.8670  -10.3740 C   0  0  0  0  0
   27.5400   27.1690   -7.2050 N   0  0  0  0  0
   28.8790   27.2710   -6.6340 C   0  0  0  0  0
   29.9100   26.6750   -7.5630 C   0  0  0  0  0
   29.6190   25.6820   -8.2270 O   0  0  0  0  0
   28.9440   26.5620   -5.2860 C   0  0  0  0  0
   28.2940   27.3210   -4.1380 C   0  0  0  0  0
   28.7110   26.7650   -2.7850 C   0  0  0  0  0
   29.4670   25.7980   -2.7050 O   0  0  0  0  0
   28.2190   27.3700   -1.7220 N   0  0  0  0  0
   31.0390   27.1620   -7.6440 O   0  0  0  0  0
   11.1249   42.2257    2.7764 H   0  0  0  0  0
   12.3605   42.3045    1.6610 H   0  0  0  0  0
   11.1122   43.4067    1.6008 H   0  0  0  0  0
    9.5518   41.7065    1.0901 H   0  0  0  0  0
   10.6470   42.8976   -0.7234 H   0  0  0  0  0
   10.4947   41.1427   -1.1631 H   0  0  0  0  0
   12.7965   40.7694   -0.7209 H   0  0  0  0  0
   12.9861   42.4473   -0.0491 H   0  0  0  0  0
   13.1105   43.3883   -2.0910 H   0  0  0  0  0
   12.0405   42.1381   -2.8488 H   0  0  0  0  0
   14.9754   41.9914   -2.4334 H   0  0  0  0  0
   15.1479   39.2376   -4.6118 H   0  0  0  0  0
   16.0745   40.4200   -3.6821 H   0  0  0  0  0
   11.9895   40.5123   -3.6200 H   0  0  0  0  0
    9.3192   39.4893    0.0736 H   0  0  0  0  0
   10.4199   37.4231    1.6212 H   0  0  0  0  0
    9.7222   35.8906   -0.1383 H   0  0  0  0  0
    9.6066   37.2693   -1.3075 H   0  0  0  0  0
    7.5774   36.6311   -0.4561 H   0  0  0  0  0
   12.0087   35.8495    1.1011 H   0  0  0  0  0
   14.3191   36.7779   -0.4817 H   0  0  0  0  0
   15.4624   34.9233    0.4128 H   0  0  0  0  0
   13.9173   34.1420    0.9350 H   0  0  0  0  0
   15.4433   37.5000    1.3174 H   0  0  0  0  0
   13.6579   34.1128    3.2130 H   0  0  0  0  0
   15.6501   38.6179    3.4986 H   0  0  0  0  0
   13.8383   35.2557    5.4040 H   0  0  0  0  0
   14.4685   37.0653    6.4460 H   0  0  0  0  0
   14.6792   36.2593   -2.4732 H   0  0  0  0  0
   13.2190   33.9103   -3.6361 H   0  0  0  0  0
   12.3670   35.9759   -4.5651 H   0  0  0  0  0
   13.1167   34.9036   -5.7471 H   0  0  0  0  0
   12.6434   38.7047   -5.2152 H   0  0  0  0  0
   14.9592   39.0292   -5.7017 H   0  0  0  0  0
   14.4079   32.9146   -5.4108 H   0  0  0  0  0
   16.8742   32.0254   -4.4313 H   0  0  0  0  0
   15.8687   31.8517   -7.3333 H   0  0  0  0  0
   15.2927   30.7844   -6.0069 H   0  0  0  0  0
   16.9611   29.8225   -7.2741 H   0  0  0  0  0
   19.6266   34.9465   -6.2275 H   0  0  0  0  0
   20.8416   35.0403   -4.1450 H   0  0  0  0  0
   21.9771   34.0875   -5.0505 H   0  0  0  0  0
   20.9857   33.1780   -2.7861 H   0  0  0  0  0
   21.2701   32.0919   -4.1223 H   0  0  0  0  0
   18.9652   31.6247   -3.8251 H   0  0  0  0  0
   18.6398   33.1327   -3.0846 H   0  0  0  0  0
   19.2679   31.6968   -6.8425 H   0  0  0  0  0
   19.8810   30.4735   -8.6979 H   0  0  0  0  0
   20.4211   31.7940  -10.7726 H   0  0  0  0  0
   20.1813   33.2777   -9.7421 H   0  0  0  0  0
   18.5947   33.3333  -11.5177 H   0  0  0  0  0
   21.8080   30.6927   -6.7168 H   0  0  0  0  0
   24.4075   31.2685   -7.9996 H   0  0  0  0  0
   23.6195   30.4021   -5.2160 H   0  0  0  0  0
   23.2438   32.7749   -6.0423 H   0  0  0  0  0
   25.0575   32.9078   -6.0409 H   0  0  0  0  0
   25.7667   29.3460   -5.7905 H   0  0  0  0  0
   26.4100   30.9147   -6.3351 H   0  0  0  0  0
   26.0158   30.6621   -4.6170 H   0  0  0  0  0
   23.2987   32.2588   -3.6516 H   0  0  0  0  0
   25.0747   32.3889   -3.6502 H   0  0  0  0  0
   24.0768   33.8267   -3.9790 H   0  0  0  0  0
   25.3558   29.7225   -9.1940 H   0  0  0  0  0
   25.2393   26.8857   -8.2041 H   0  0  0  0  0
   26.2503   27.9496  -10.8333 H   0  0  0  0  0
   24.3466   26.8215  -11.5729 H   0  0  0  0  0
   27.4563   25.9554  -10.0479 H   0  0  0  0  0
   25.9073   25.1248   -9.7622 H   0  0  0  0  0
   26.3917   25.5602  -11.4195 H   0  0  0  0  0
   26.8581   26.5538   -6.7612 H   0  0  0  0  0
   29.0981   28.3297   -6.4949 H   0  0  0  0  0
   29.9991   26.4503   -5.0362 H   0  0  0  0  0
   28.4009   25.6232   -5.3942 H   0  0  0  0  0
   27.2125   27.2216   -4.2306 H   0  0  0  0  0
   28.6112   28.3624   -4.1928 H   0  0  0  0  0
   28.4624   27.0389   -0.7884 H   0  0  0  0  0
   27.5950   28.1692   -1.8331 H   0  0  0  0  0
   31.0990   27.9259   -7.0657 H   0  0  0  0  0
  1  2  1  0  0  0
  2  3  1  0  0  0
  2  5  1  0  0  0
  3  4  2  0  0  0
  3 12  1  0  0  0
  5  6  1  0  0  0
  6  7  1  0  0  0
  7  8  1  0  0  0
  8  9  1  0  0  0
  9 10  1  0  0  0
  9 11  2  0  0  0
 12 13  1  0  0  0
 13 14  1  0  0  0
 13 16  1  0  0  0
 14 15  2  0  0  0
 14 18  1  0  0  0
 16 17  1  0  0  0
 18 19  1  0  0  0
 19 20  1  0  0  0
 19 22  1  0  0  0
 20 21  2  0  0  0
 20 30  1  0  0  0
 22 23  1  0  0  0
 23 24  4  0  0  0
 23 25  4  0  0  0
 24 26  4  0  0  0
 25 27  4  0  0  0
 26 28  4  0  0  0
 27 28  4  0  0  0
 28 29  1  0  0  0
 30 31  1  0  0  0
 31 32  1  0  0  0
 31 34  1  0  0  0
 32 33  1  0  0  0
 33 36  1  0  0  0
 34 35  2  0  0  0
 34 40  1  0  0  0
 36 37  2  0  0  0
 36 38  1  0  0  0
 36 39  1  0  0  0
 40 41  1  0  0  0
 41 42  1  0  0  0
 41 44  1  0  0  0
 42 43  2  0  0  0
 42 46  1  0  0  0
 44 45  1  0  0  0
 46 47  1  0  0  0
 46 52  1  0  0  0
 47 48  1  0  0  0
 47 50  1  0  0  0
 48 49  2  0  0  0
 48 53  1  0  0  0
 50 51  1  0  0  0
 51 52  1  0  0  0
 53 54  1  0  0  0
 54 55  1  0  0  0
 54 57  1  0  0  0
 55 56  2  0  0  0
 55 61  1  0  0  0
 57 58  1  0  0  0
 58 59  2  0  0  0
 58 60  1  0  0  0
 61 62  1  0  0  0
 62 63  1  0  0  0
 62 65  1  0  0  0
 63 64  2  0  0  0
 63 69  1  0  0  0
 65 66  1  0  0  0
 65 67  1  0  0  0
 66 68  1  0  0  0
 69 70  1  0  0  0
 70 71  1  0  0  0
 70 73  1  0  0  0
 71 72  2  0  0  0
 71 76  1  0  0  0
 73 74  1  0  0  0
 73 75  1  0  0  0
 76 77  1  0  0  0
 77 78  1  0  0  0
 77 80  1  0  0  0
 78 79  2  0  0  0
 78 85  1  0  0  0
 80 81  1  0  0  0
 81 82  1  0  0  0
 82 83  2  0  0  0
 82 84  1  0  0  0
  1 86  1  0  0  0
  1 87  1  0  0  0
  1 88  1  0  0  0
  2 89  1  0  0  0
  5 90  1  0  0  0
  5 91  1  0  0  0
  6 92  1  0  0  0
  6 93  1  0  0  0
  7 94  1  0  0  0
  7 95  1  0  0  0
  8 96  1  0  0  0
 10 97  1  0  0  0
 10 98  1  0  0  0
 11 99  1  0  0  0
 12100  1  0  0  0
 13101  1  0  0  0
 16102  1  0  0  0
 16103  1  0  0  0
 17104  1  0  0  0
 18105  1  0  0  0
 19106  1  0  0  0
 22107  1  0  0  0
 22108  1  0  0  0
 24109  1  0  0  0
 25110  1  0  0  0
 26111  1  0  0  0
 27112  1  0  0  0
 29113  1  0  0  0
 30114  1  0  0  0
 31115  1  0  0  0
 32116  1  0  0  0
 32117  1  0  0  0
 38118  1  0  0  0
 39119  1  0  0  0
 40120  1  0  0  0
 41121  1  0  0  0
 44122  1  0  0  0
 44123  1  0  0  0
 45124  1  0  0  0
 47125  1  0  0  0
 50126  1  0  0  0
 50127  1  0  0  0
 51128  1  0  0  0
 51129  1  0  0  0
 52130  1  0  0  0
 52131  1  0  0  0
 53132  1  0  0  0
 54133  1  0  0  0
 57134  1  0  0  0
 57135  1  0  0  0
 60136  1  0  0  0
 61137  1  0  0  0
 62138  1  0  0  0
 65139  1  0  0  0
 66140  1  0  0  0
 66141  1  0  0  0
 67142  1  0  0  0
 67143  1  0  0  0
 67144  1  0  0  0
 68145  1  0  0  0
 68146  1  0  0  0
 68147  1  0  0  0
 69148  1  0  0  0
 70149  1  0  0  0
 73150  1  0  0  0
 74151  1  0  0  0
 75152  1  0  0  0
 75153  1  0  0  0
 75154  1  0  0  0
 76155  1  0  0  0
 77156  1  0  0  0
 80157  1  0  0  0
 80158  1  0  0  0
 81159  1  0  0  0
 81160  1  0  0  0
 84161  1  0  0  0
 84162  1  0  0  0
 85163  1  0  0  0
M  END
$$$$
