6fmk_ligand
  -I-interpret- 

 56 58  0  0  0  0  0  0  0  0999 V2000
   10.5510   55.6600   96.5270 C   0  0  0  0  0
   11.6070   55.6680   95.4180 C   0  0  0  0  0
   12.0830   56.7330   95.0250 O   0  0  0  0  0
   11.9340   54.4500   94.9420 N   0  0  0  0  0
   12.9280   54.2590   93.8670 C   0  0  0  0  0
   13.4940   52.8380   93.9580 C   0  0  0  0  0
   12.3010   54.4360   92.4550 C   0  0  0  0  0
   10.6870   54.1500   92.3040 S   0  0  0  0  0
   13.0860   54.7280   91.3850 N   0  0  0  0  0
   14.5540   55.0250   91.4150 C   0  0  0  0  0
   14.7630   55.9950   90.2810 C   0  0  0  0  0
   14.3240   57.3070   90.6810 O   0  0  0  0  0
   13.8620   55.4580   89.1970 C   0  0  0  0  0
   12.6230   54.9200   89.9290 C   0  0  0  0  0
   12.1760   53.7530   89.2560 C   0  0  0  0  0
   12.7260   52.2570   89.7900 S   0  0  0  0  0
   11.3600   53.9010   88.1760 N   0  0  0  0  0
   10.8640   52.7670   87.3790 C   0  0  0  0  0
   11.6790   52.5700   86.2300 C   0  0  0  0  0
   12.4560   53.5820   85.6430 C   0  0  0  0  0
   13.2390   53.3220   84.5140 C   0  0  0  0  0
   11.7100   51.3000   85.6330 C   0  0  0  0  0
   12.4940   51.0420   84.5020 C   0  0  0  0  0
   13.2640   52.0560   83.9170 C   0  0  0  0  0
   14.0300   51.8400   82.8280 C   0  0  0  0  0
   15.5910   52.3750   82.6720 S   0  0  0  0  0
   15.8450   51.7660   81.1630 C   0  0  0  0  0
   14.7180   51.1540   80.7780 N   0  0  0  0  0
   13.7190   51.1950   81.6820 C   0  0  0  0  0
   12.3720   50.5320   81.3550 C   0  0  0  0  0
   10.9687   56.1093   97.4280 H   0  0  0  0  0
    9.6818   56.2326   96.2034 H   0  0  0  0  0
   10.2535   54.6325   96.7362 H   0  0  0  0  0
   11.4774   53.6291   95.3395 H   0  0  0  0  0
   13.7055   55.0114   93.9996 H   0  0  0  0  0
   12.6896   52.1177   93.8093 H   0  0  0  0  0
   14.2533   52.7007   93.1881 H   0  0  0  0  0
   13.9404   52.6883   94.9411 H   0  0  0  0  0
   15.1566   54.1241   91.2997 H   0  0  0  0  0
   14.8684   55.4404   92.3725 H   0  0  0  0  0
   15.8037   56.0837   89.9694 H   0  0  0  0  0
   14.4583   57.9227   89.9568 H   0  0  0  0  0
   14.3544   54.6785   88.6157 H   0  0  0  0  0
   13.5975   56.2312   88.4757 H   0  0  0  0  0
   11.7524   55.5758   89.9346 H   0  0  0  0  0
   11.0787   54.8435   87.9060 H   0  0  0  0  0
    9.8445   52.9798   87.0573 H   0  0  0  0  0
   10.8917   51.8655   87.9911 H   0  0  0  0  0
   12.4486   54.5835   86.0732 H   0  0  0  0  0
   13.8436   54.1233   84.0891 H   0  0  0  0  0
   11.1100   50.4962   86.0597 H   0  0  0  0  0
   12.5055   50.0407   84.0716 H   0  0  0  0  0
   16.7642   51.8466   80.5827 H   0  0  0  0  0
   12.1642   49.7533   82.0888 H   0  0  0  0  0
   11.5821   51.2824   81.3861 H   0  0  0  0  0
   12.4176   50.0916   80.3590 H   0  0  0  0  0
  1  2  1  0  0  0
  2  3  2  0  0  0
  2  4  1  0  0  0
  4  5  1  0  0  0
  5  6  1  0  0  0
  5  7  1  0  0  0
  7  8  2  0  0  0
  7  9  1  0  0  0
  9 10  1  0  0  0
  9 14  1  0  0  0
 10 11  1  0  0  0
 11 12  1  0  0  0
 11 13  1  0  0  0
 13 14  1  0  0  0
 14 15  1  0  0  0
 15 16  2  0  0  0
 15 17  1  0  0  0
 17 18  1  0  0  0
 18 19  1  0  0  0
 19 20  4  0  0  0
 19 22  4  0  0  0
 20 21  4  0  0  0
 21 24  4  0  0  0
 22 23  4  0  0  0
 23 24  4  0  0  0
 24 25  1  0  0  0
 25 26  4  0  0  0
 25 29  4  0  0  0
 26 27  4  0  0  0
 27 28  4  0  0  0
 28 29  4  0  0  0
 29 30  1  0  0  0
  1 31  1  0  0  0
  1 32  1  0  0  0
  1 33  1  0  0  0
  4 34  1  0  0  0
  5 35  1  0  0  0
  6 36  1  0  0  0
  6 37  1  0  0  0
  6 38  1  0  0  0
 10 39  1  0  0  0
 10 40  1  0  0  0
 11 41  1  0  0  0
 12 42  1  0  0  0
 13 43  1  0  0  0
 13 44  1  0  0  0
 14 45  1  0  0  0
 17 46  1  0  0  0
 18 47  1  0  0  0
 18 48  1  0  0  0
 20 49  1  0  0  0
 21 50  1  0  0  0
 22 51  1  0  0  0
 23 52  1  0  0  0
 27 53  1  0  0  0
 30 54  1  0  0  0
 30 55  1  0  0  0
 30 56  1  0  0  0
M  END
$$$$
