5nk6_ligand
  -I-interpret- 

 58 61  0  0  0  0  0  0  0  0999 V2000
  -81.7360  -14.9920   11.1360 C   0  0  0  0  0
  -81.3880  -14.9180   12.6050 C   0  0  0  0  0
  -80.1210  -14.0850   12.7800 C   0  0  0  0  0
  -80.2360  -13.3260   13.9950 O   0  0  0  0  0
  -79.8940  -13.1630   11.5640 C   0  0  0  0  0
  -81.2060  -12.5150   11.1250 C   0  0  0  0  0
  -82.2110  -13.6020   10.7010 C   0  0  0  0  0
  -82.4800  -13.6090    9.2510 N   0  0  0  0  0
  -83.7440  -13.4610    8.8340 C   0  0  0  0  0
  -84.6810  -13.3070    9.6140 O   0  0  0  0  0
  -83.9900  -13.5150    7.4670 C   0  0  0  0  0
  -85.3210  -13.5260    7.0710 C   0  0  0  0  0
  -82.9790  -13.5700    6.5150 C   0  0  0  0  0
  -83.3260  -13.6280    5.1670 C   0  0  0  0  0
  -84.6650  -13.6380    4.7810 C   0  0  0  0  0
  -85.6810  -13.6020    5.7310 C   0  0  0  0  0
  -86.9560  -13.5960    5.2910 N   0  0  0  0  0
  -88.0280  -14.0940    5.9410 C   0  0  0  0  0
  -88.1460  -14.8560    7.4580 S   0  0  0  0  0
  -89.2580  -14.0440    5.3960 N   0  0  0  0  0
  -90.2300  -14.5960    6.1750 C   0  0  0  0  0
  -89.7980  -15.0960    7.3650 C   0  0  0  0  0
  -90.4640  -15.7180    8.3780 C   0  0  0  0  0
  -89.8640  -15.9410    9.4260 O   0  0  0  0  0
  -91.7560  -16.0930    8.2100 N   0  0  0  0  0
  -92.3970  -16.7340    9.2350 C   0  0  0  0  0
  -93.0100  -16.0010   10.2580 C   0  0  0  0  0
  -92.9630  -14.2730   10.3060 Cl  0  0  0  0  0
  -93.6720  -16.6810   11.2800 C   0  0  0  0  0
  -93.7300  -18.0720   11.2870 C   0  0  0  0  0
  -93.1290  -18.7990   10.2660 C   0  0  0  0  0
  -92.4610  -18.1350    9.2380 C   0  0  0  0  0
  -91.8700  -18.8940    8.2300 C   0  0  0  0  0
  -82.5194  -15.7310   10.9679 H   0  0  0  0  0
  -80.8656  -15.2953   10.5542 H   0  0  0  0  0
  -81.2210  -15.9231   12.9922 H   0  0  0  0  0
  -82.2088  -14.4544   13.1522 H   0  0  0  0  0
  -79.2548  -14.7435   12.8452 H   0  0  0  0  0
  -80.3763  -13.9242   14.7326 H   0  0  0  0  0
  -79.5016  -13.7579   10.7392 H   0  0  0  0  0
  -79.1899  -12.3790   11.8429 H   0  0  0  0  0
  -81.0151  -11.8527   10.2806 H   0  0  0  0  0
  -81.6216  -11.9455   11.9563 H   0  0  0  0  0
  -83.1440  -13.3555   11.2079 H   0  0  0  0  0
  -81.7200  -13.7240    8.5805 H   0  0  0  0  0
  -86.1021  -13.4738    7.8295 H   0  0  0  0  0
  -81.9320  -13.5678    6.8180 H   0  0  0  0  0
  -82.5442  -13.6658    4.4084 H   0  0  0  0  0
  -84.9196  -13.6745    3.7218 H   0  0  0  0  0
  -87.1261  -13.1739    4.3781 H   0  0  0  0  0
  -91.2752  -14.6343    5.8683 H   0  0  0  0  0
  -92.2421  -15.9005    7.3342 H   0  0  0  0  0
  -94.1491  -16.1174   12.0818 H   0  0  0  0  0
  -94.2471  -18.5914   12.0938 H   0  0  0  0  0
  -93.1799  -19.8878   10.2691 H   0  0  0  0  0
  -92.3113  -18.6270    7.2698 H   0  0  0  0  0
  -90.7987  -18.6941    8.2071 H   0  0  0  0  0
  -92.0393  -19.9525    8.4274 H   0  0  0  0  0
  1  2  1  0  0  0
  1  7  1  0  0  0
  2  3  1  0  0  0
  3  4  1  0  0  0
  3  5  1  0  0  0
  5  6  1  0  0  0
  6  7  1  0  0  0
  7  8  1  0  0  0
  8  9  1  0  0  0
  9 10  2  0  0  0
  9 11  1  0  0  0
 11 12  4  0  0  0
 11 13  4  0  0  0
 12 16  4  0  0  0
 13 14  4  0  0  0
 14 15  4  0  0  0
 15 16  4  0  0  0
 16 17  1  0  0  0
 17 18  1  0  0  0
 18 19  4  0  0  0
 18 20  4  0  0  0
 19 22  4  0  0  0
 20 21  4  0  0  0
 21 22  4  0  0  0
 22 23  1  0  0  0
 23 24  2  0  0  0
 23 25  1  0  0  0
 25 26  1  0  0  0
 26 27  4  0  0  0
 26 32  4  0  0  0
 27 28  1  0  0  0
 27 29  4  0  0  0
 29 30  4  0  0  0
 30 31  4  0  0  0
 31 32  4  0  0  0
 32 33  1  0  0  0
  1 34  1  0  0  0
  1 35  1  0  0  0
  2 36  1  0  0  0
  2 37  1  0  0  0
  3 38  1  0  0  0
  4 39  1  0  0  0
  5 40  1  0  0  0
  5 41  1  0  0  0
  6 42  1  0  0  0
  6 43  1  0  0  0
  7 44  1  0  0  0
  8 45  1  0  0  0
 12 46  1  0  0  0
 13 47  1  0  0  0
 14 48  1  0  0  0
 15 49  1  0  0  0
 17 50  1  0  0  0
 21 51  1  0  0  0
 25 52  1  0  0  0
 29 53  1  0  0  0
 30 54  1  0  0  0
 31 55  1  0  0  0
 33 56  1  0  0  0
 33 57  1  0  0  0
 33 58  1  0  0  0
M  END
$$$$
