6tld_ligand
  -I-interpret- 

 26 27  0  0  0  0  0  0  0  0999 V2000
   42.1950   35.4630   84.2760 C   0  0  0  0  0
   39.9530   35.8260   85.0420 C   0  0  0  0  0
   41.2370   35.3630   85.2760 C   0  0  0  0  0
   39.6210   36.3800   83.8210 C   0  0  0  0  0
   40.5720   36.4670   82.8240 C   0  0  0  0  0
   44.0150   34.2260   85.5200 C   0  0  0  0  0
   45.9180   32.5270   85.7670 C   0  0  0  0  0
   41.8600   36.0100   83.0430 C   0  0  0  0  0
   43.5370   35.0490   84.5250 N   0  0  0  0  0
   44.3430   34.8070   83.3190 N   0  3  0  0  0
   45.3260   33.7890   83.7170 N   0  0  0  0  0
   45.0830   33.4980   85.0130 C   0  0  0  0  0
   46.1200   31.3620   85.1430 N   0  0  0  0  0
   47.2520   30.5970   85.4180 O   0  0  0  0  0
   46.3760   32.8050   86.8770 O   0  0  0  0  0
   39.1996   35.7528   85.8263 H   0  0  0  0  0
   41.4940   34.9227   86.2394 H   0  0  0  0  0
   38.6101   36.7478   83.6450 H   0  0  0  0  0
   40.3069   36.8982   81.8586 H   0  0  0  0  0
   43.6215   34.1576   86.5342 H   0  0  0  0  0
   42.6076   36.0787   82.2527 H   0  0  0  0  0
   44.7944   35.6598   82.9884 H   0  0  0  0  0
   43.7685   34.4927   82.5370 H   0  0  0  0  0
   46.0518   33.3811   83.1277 H   0  0  0  0  0
   45.4395   31.0301   84.4595 H   0  0  0  0  0
   47.2351   29.7992   84.8843 H   0  0  0  0  0
  1  3  4  0  0  0
  1  8  4  0  0  0
  1  9  1  0  0  0
  3  2  4  0  0  0
  2  4  4  0  0  0
  4  5  4  0  0  0
  5  8  4  0  0  0
  9  6  1  0  0  0
  6 12  2  0  0  0
 12  7  1  0  0  0
  7 13  1  0  0  0
  7 15  2  0  0  0
  9 10  1  0  0  0
 10 11  1  0  0  0
 11 12  1  0  0  0
 13 14  1  0  0  0
  2 16  1  0  0  0
  3 17  1  0  0  0
  4 18  1  0  0  0
  5 19  1  0  0  0
  6 20  1  0  0  0
  8 21  1  0  0  0
 10 22  1  0  0  0
 10 23  1  0  0  0
 11 24  1  0  0  0
 13 25  1  0  0  0
 14 26  1  0  0  0
M  END
$$$$
