5m4k_ligand
  -I-interpret- 

 45 46  0  0  0  0  0  0  0  0999 V2000
   33.7700  -36.6430    9.0670 C   0  0  0  0  0
   32.2260  -32.9100   10.6970 N   0  0  0  0  0
   30.8150  -34.4310   11.7860 O   0  0  0  0  0
   34.2810  -37.4440   10.0840 C   0  0  0  0  0
   31.1850  -30.1270   12.5890 N   0  0  0  0  0
   36.6040  -32.5380    7.2280 O   0  0  0  0  0
   33.9500  -37.1780   11.4060 C   0  0  0  0  0
   32.7520  -35.8060   12.9720 O   0  0  0  0  0
   33.1100  -36.1110   11.6950 C   0  0  0  0  0
   35.1040  -38.4860    9.7890 O   0  0  0  0  0
   32.5910  -35.3030   10.6870 C   0  0  0  0  0
   33.1750  -30.4020   11.5380 O   0  0  0  0  0
   32.9250  -35.5770    9.3640 C   0  0  0  0  0
   31.7550  -34.2430   11.0360 C   0  0  0  0  0
   33.3120  -32.7790    9.7520 C   0  0  0  0  0
   34.5660  -33.2270   10.1560 C   0  0  0  0  0
   35.6620  -33.1440    9.3100 C   0  0  0  0  0
   35.5080  -32.6070    8.0400 C   0  0  0  0  0
   34.2490  -32.1600    7.6310 C   0  0  0  0  0
   33.1460  -32.2430    8.4790 C   0  0  0  0  0
   36.3920  -31.7610    6.0450 C   0  0  0  0  0
   31.9830  -30.6950   11.6750 C   0  0  0  0  0
   31.6730  -29.0850   13.5040 C   0  0  0  0  0
   31.3090  -31.7690   10.8090 C   0  0  0  0  0
   30.5620  -28.0650   13.7560 C   0  0  0  0  0
   34.0333  -36.8518    8.0301 H   0  0  0  0  0
   30.2118  -30.4258   12.6518 H   0  0  0  0  0
   34.3456  -37.8005   12.2086 H   0  0  0  0  0
   32.1712  -35.0416   12.9664 H   0  0  0  0  0
   35.3618  -38.9285   10.6010 H   0  0  0  0  0
   32.5254  -34.9576    8.5610 H   0  0  0  0  0
   34.6889  -33.6498   11.1531 H   0  0  0  0  0
   36.6382  -33.4984    9.6408 H   0  0  0  0  0
   34.1275  -31.7396    6.6327 H   0  0  0  0  0
   32.1677  -31.8931    8.1496 H   0  0  0  0  0
   35.5820  -32.2009    5.4632 H   0  0  0  0  0
   36.1280  -30.7410    6.3243 H   0  0  0  0  0
   37.3050  -31.7514    5.4497 H   0  0  0  0  0
   32.5317  -28.5834   13.0578 H   0  0  0  0  0
   31.9681  -29.5411   14.4490 H   0  0  0  0  0
   30.3715  -32.0852   11.2664 H   0  0  0  0  0
   31.0872  -31.3680    9.8200 H   0  0  0  0  0
   30.2673  -27.6096   12.8105 H   0  0  0  0  0
   29.7036  -28.5674   14.2019 H   0  0  0  0  0
   30.9259  -27.2935   14.4345 H   0  0  0  0  0
  1  4  4  0  0  0
 13  1  4  0  0  0
  2 14  1  0  0  0
  2 15  1  0  0  0
 24  2  1  0  0  0
 14  3  2  0  0  0
  7  4  4  0  0  0
  4 10  1  0  0  0
 22  5  1  0  0  0
  5 23  1  0  0  0
 18  6  1  0  0  0
  6 21  1  0  0  0
  9  7  4  0  0  0
  9  8  1  0  0  0
 11  9  4  0  0  0
 11 13  4  0  0  0
 14 11  1  0  0  0
 22 12  2  0  0  0
 15 16  4  0  0  0
 15 20  4  0  0  0
 16 17  4  0  0  0
 17 18  4  0  0  0
 19 18  4  0  0  0
 20 19  4  0  0  0
 22 24  1  0  0  0
 23 25  1  0  0  0
  1 26  1  0  0  0
  5 27  1  0  0  0
  7 28  1  0  0  0
  8 29  1  0  0  0
 10 30  1  0  0  0
 13 31  1  0  0  0
 16 32  1  0  0  0
 17 33  1  0  0  0
 19 34  1  0  0  0
 20 35  1  0  0  0
 21 36  1  0  0  0
 21 37  1  0  0  0
 21 38  1  0  0  0
 23 39  1  0  0  0
 23 40  1  0  0  0
 24 41  1  0  0  0
 24 42  1  0  0  0
 25 43  1  0  0  0
 25 44  1  0  0  0
 25 45  1  0  0  0
M  END
$$$$
