4ehg_ligand
  -I-interpret- 

 49 50  0  0  0  0  0  0  0  0999 V2000
   -5.7180   17.8930    6.7030 O   0  0  0  0  0
   -6.7190   18.4310    7.1620 C   0  0  0  0  0
   -7.8300   17.7620    7.4730 N   0  0  0  0  0
   -9.0700   18.2120    7.9930 C   0  0  0  0  0
   -9.4050   19.5060    8.1520 N   0  0  0  0  0
  -10.6280   19.7580    8.6530 C   0  0  0  0  0
  -11.5590   18.8540    9.0110 N   0  0  0  0  0
  -11.2520   17.5510    8.8540 C   0  0  0  0  0
   -9.9890   17.1950    8.3350 C   0  0  0  0  0
  -12.1660   16.6080    9.2010 N   0  0  0  0  0
   -6.7970   19.7380    7.4080 N   0  0  0  0  0
   -5.8080   20.7320    7.1740 C   0  0  0  0  0
   -5.3720   20.9370    5.8500 C   0  0  0  0  0
   -4.3840   21.9020    5.5610 C   0  0  0  0  0
   -3.8850   22.7170    6.5980 C   0  0  0  0  0
   -4.3060   22.5170    7.9280 C   0  0  0  0  0
   -5.2690   21.5290    8.2060 C   0  0  0  0  0
   -5.6710   21.3550    9.4760 F   0  0  0  0  0
   -5.8950   20.1660    4.8670 F   0  0  0  0  0
   -4.0400   22.1240    4.2890 N   0  0  0  0  0
   -3.1480   23.4450    3.6280 S   0  0  0  0  0
   -4.1600   24.9480    3.9550 C   0  0  0  0  0
   -1.9000   23.4890    4.3980 O   0  0  0  0  0
   -3.1230   23.2620    2.1750 O   0  0  0  0  0
   -5.1560   25.2070    2.8210 C   0  0  0  0  0
   -6.6180   25.1600    3.3400 C   0  0  0  0  0
  -12.5040   15.3060    8.3790 C   0  0  0  0  0
  -12.0110   14.1060    9.5950 C   0  0  0  0  0
  -13.3560   13.4130    9.7560 O   0  0  0  0  0
   -7.7791   16.7565    7.3091 H   0  0  0  0  0
  -10.8936   20.8071    8.7830 H   0  0  0  0  0
   -9.7252   16.1461    8.1994 H   0  0  0  0  0
  -12.6790   16.7553   10.0702 H   0  0  0  0  0
   -7.6736   20.0655    7.8139 H   0  0  0  0  0
   -3.1692   23.5066    6.3695 H   0  0  0  0  0
   -3.8898   23.1217    8.7337 H   0  0  0  0  0
   -4.3456   21.4181    3.6191 H   0  0  0  0  0
   -3.4918   25.8057    4.0321 H   0  0  0  0  0
   -4.7183   24.7957    4.8787 H   0  0  0  0  0
   -5.0300   24.4342    2.0627 H   0  0  0  0  0
   -4.9642   26.1972    2.4076 H   0  0  0  0  0
   -6.8200   24.1766    3.7646 H   0  0  0  0  0
   -6.7549   25.9231    4.1062 H   0  0  0  0  0
   -7.3022   25.3474    2.5124 H   0  0  0  0  0
  -12.0095   15.2220    7.4113 H   0  0  0  0  0
  -13.5345   15.2254    8.0329 H   0  0  0  0  0
  -11.1792   13.4612    9.3111 H   0  0  0  0  0
  -11.5770   14.5116   10.5089 H   0  0  0  0  0
  -13.2757   12.7071   10.4017 H   0  0  0  0  0
  1  2  2  0  0  0
  2  3  1  0  0  0
  2 11  1  0  0  0
  3  4  1  0  0  0
  4  5  4  0  0  0
  4  9  4  0  0  0
  5  6  4  0  0  0
  6  7  4  0  0  0
  7  8  4  0  0  0
  8  9  4  0  0  0
  8 10  1  0  0  0
 10 27  1  0  0  0
 11 12  1  0  0  0
 12 13  4  0  0  0
 12 17  4  0  0  0
 13 14  4  0  0  0
 13 19  1  0  0  0
 14 15  4  0  0  0
 14 20  1  0  0  0
 15 16  4  0  0  0
 16 17  4  0  0  0
 17 18  1  0  0  0
 20 21  1  0  0  0
 21 22  1  0  0  0
 21 23  2  0  0  0
 21 24  2  0  0  0
 22 25  1  0  0  0
 25 26  1  0  0  0
 28 29  1  0  0  0
 28 27  1  0  0  0
  3 30  1  0  0  0
  6 31  1  0  0  0
  9 32  1  0  0  0
 10 33  1  0  0  0
 11 34  1  0  0  0
 15 35  1  0  0  0
 16 36  1  0  0  0
 20 37  1  0  0  0
 22 38  1  0  0  0
 22 39  1  0  0  0
 25 40  1  0  0  0
 25 41  1  0  0  0
 26 42  1  0  0  0
 26 43  1  0  0  0
 26 44  1  0  0  0
 27 45  1  0  0  0
 27 46  1  0  0  0
 28 47  1  0  0  0
 28 48  1  0  0  0
 29 49  1  0  0  0
M  END
$$$$
