1r0x_ligand
  -I-interpret- 

 47 49  0  0  0  0  0  0  0  0999 V2000
  161.7650    6.7740   29.7860 P   0  0  0  0  0
  162.1430    6.7740   28.3670 O   0  0  0  0  0
  160.4590    5.9990   30.1110 O   0  0  0  0  0
  162.8420    6.0200   30.5770 O   0  0  0  0  0
  160.3860    9.2660   30.0000 P   0  0  0  0  0
  160.2940    9.7630   28.6200 O   0  0  0  0  0
  159.1270    8.6060   30.5450 O   0  0  0  0  0
  161.6610    8.3190   30.2170 O   0  0  0  0  0
  160.3120   10.8880   32.3570 P   0  0  0  0  0
  160.3390    9.7030   33.2570 O   0  0  0  0  0
  158.9490   11.6380   32.4040 O   0  0  0  0  0
  160.7090   10.6280   30.8110 O   0  0  0  0  0
  161.5640   11.7980   32.8780 O   0  0  0  0  0
  161.7530   13.1600   32.5720 C   0  0  0  0  0
  162.8880   13.6440   33.4700 C   0  0  0  0  0
  162.7390   13.1070   34.7710 O   0  0  0  0  0
  164.2620   13.1980   33.0110 C   0  0  0  0  0
  164.8270   14.2300   32.2480 O   0  0  0  0  0
  165.0220   12.9720   34.3040 C   0  0  0  0  0
  165.5840   14.1780   34.7890 O   0  0  0  0  0
  163.9680   12.6820   35.3410 C   0  0  0  0  0
  163.9310   11.2850   35.8240 N   0  0  0  0  0
  162.8660   10.4290   35.6920 C   0  0  0  0  0
  163.1560    9.2450   36.2650 N   0  0  0  0  0
  164.4090    9.3190   36.7760 C   0  0  0  0  0
  165.1770    8.3790   37.4780 C   0  0  0  0  0
  164.6650    7.1720   37.7200 N   0  0  0  0  0
  166.4510    8.7330   37.8840 N   0  0  0  0  0
  166.9360   10.0020   37.6110 C   0  0  0  0  0
  166.1670   10.9300   36.9290 N   0  0  0  0  0
  164.9130   10.5990   36.5110 C   0  0  0  0  0
  160.2852    6.0482   31.0539 H   0  0  0  0  0
  162.6072    6.0123   31.5078 H   0  0  0  0  0
  159.2838    8.3159   31.4466 H   0  0  0  0  0
  158.9791   12.3916   31.8100 H   0  0  0  0  0
  160.8420   13.7323   32.7468 H   0  0  0  0  0
  161.9996   13.2958   31.5190 H   0  0  0  0  0
  162.8249   14.7317   33.4393 H   0  0  0  0  0
  164.2645   12.3024   32.3898 H   0  0  0  0  0
  165.6994   13.9641   31.9484 H   0  0  0  0  0
  165.7814   12.2084   34.1356 H   0  0  0  0  0
  166.0573   14.0034   35.6058 H   0  0  0  0  0
  164.1975   13.2260   36.2572 H   0  0  0  0  0
  161.9256   10.6714   35.1971 H   0  0  0  0  0
  163.7257    6.9421   37.3956 H   0  0  0  0  0
  165.2126    6.4785   38.2295 H   0  0  0  0  0
  167.9394   10.2743   37.9385 H   0  0  0  0  0
  1  2  2  0  0  0
  1  3  1  0  0  0
  1  4  1  0  0  0
  8  1  1  0  0  0
  5  6  2  0  0  0
  5  7  1  0  0  0
  5  8  1  0  0  0
 12  5  1  0  0  0
  9 10  2  0  0  0
  9 11  1  0  0  0
  9 12  1  0  0  0
  9 13  1  0  0  0
 13 14  1  0  0  0
 14 15  1  0  0  0
 15 16  1  0  0  0
 15 17  1  0  0  0
 16 21  1  0  0  0
 17 18  1  0  0  0
 17 19  1  0  0  0
 19 20  1  0  0  0
 19 21  1  0  0  0
 21 22  1  0  0  0
 22 23  4  0  0  0
 22 31  4  0  0  0
 23 24  4  0  0  0
 24 25  4  0  0  0
 25 26  4  0  0  0
 25 31  4  0  0  0
 26 27  1  0  0  0
 26 28  4  0  0  0
 28 29  4  0  0  0
 29 30  4  0  0  0
 30 31  4  0  0  0
  3 32  1  0  0  0
  4 33  1  0  0  0
  7 34  1  0  0  0
 11 35  1  0  0  0
 14 36  1  0  0  0
 14 37  1  0  0  0
 15 38  1  0  0  0
 17 39  1  0  0  0
 18 40  1  0  0  0
 19 41  1  0  0  0
 20 42  1  0  0  0
 21 43  1  0  0  0
 23 44  1  0  0  0
 27 45  1  0  0  0
 27 46  1  0  0  0
 29 47  1  0  0  0
M  END
$$$$
