5mxf_ligand
  -I-interpret- 

 26 26  0  0  0  0  0  0  0  0999 V2000
   -2.4940   15.3100   -8.7520 C   0  0  0  0  0
   -2.6990   15.5830  -10.2520 C   0  0  0  0  0
   -4.0580   16.2280  -10.5440 C   0  0  0  0  0
   -4.3170   17.4370   -9.6380 C   0  0  0  0  0
   -4.1190   17.0130   -8.1750 C   0  0  0  0  0
   -4.3310   18.1320   -7.1550 C   0  0  0  0  0
   -3.2850   14.1970   -8.2810 O   0  0  0  0  0
   -2.5630   14.3640  -10.9950 O   0  0  0  0  0
   -4.1070   16.6640  -11.9050 O   0  0  0  0  0
   -3.4770   18.5390  -10.0530 O   0  0  0  0  0
   -2.7940   16.5040   -8.0080 O   0  0  0  0  0
   -2.8240   13.6680   -7.0300 C   0  0  0  0  0
   -1.4514   15.0322   -8.5975 H   0  0  0  0  0
   -1.9304   16.2907  -10.5628 H   0  0  0  0  0
   -4.8230   15.4752  -10.3536 H   0  0  0  0  0
   -5.3442   17.7911   -9.7251 H   0  0  0  0  0
   -4.8818   16.2592   -7.9802 H   0  0  0  0  0
   -4.2058   17.7329   -6.1485 H   0  0  0  0  0
   -3.6003   18.9222   -7.3274 H   0  0  0  0  0
   -5.3375   18.5358   -7.2645 H   0  0  0  0  0
   -1.7092   13.9684  -10.8051 H   0  0  0  0  0
   -3.9463   15.9163  -12.4853 H   0  0  0  0  0
   -3.6552   18.7469  -10.9731 H   0  0  0  0  0
   -1.7968   13.3204   -7.1404 H   0  0  0  0  0
   -2.8652   14.4481   -6.2698 H   0  0  0  0  0
   -3.4609   12.8349   -6.7325 H   0  0  0  0  0
  1  2  1  0  0  0
  1  7  1  0  0  0
  1 11  1  0  0  0
  2  3  1  0  0  0
  2  8  1  0  0  0
  3  4  1  0  0  0
  3  9  1  0  0  0
  4  5  1  0  0  0
  4 10  1  0  0  0
  5  6  1  0  0  0
  5 11  1  0  0  0
  7 12  1  0  0  0
  1 13  1  0  0  0
  2 14  1  0  0  0
  3 15  1  0  0  0
  4 16  1  0  0  0
  5 17  1  0  0  0
  6 18  1  0  0  0
  6 19  1  0  0  0
  6 20  1  0  0  0
  8 21  1  0  0  0
  9 22  1  0  0  0
 10 23  1  0  0  0
 12 24  1  0  0  0
 12 25  1  0  0  0
 12 26  1  0  0  0
M  END
$$$$
