5tyh_ligand
  -I-interpret- 

 18 19  0  0  0  0  0  0  0  0999 V2000
   10.1950  -41.2960  -12.7570 C   0  0  0  0  0
    9.9400  -42.0680  -13.8410 C   0  0  0  0  0
    9.3330  -43.1890  -13.4360 C   0  0  0  0  0
    9.1700  -43.1330  -12.0660 O   0  0  0  0  0
    9.7510  -41.9450  -11.6580 C   0  0  0  0  0
    9.7870  -41.5570  -10.2870 C   0  0  0  0  0
   10.0560  -42.3370   -9.2120 C   0  0  0  0  0
    9.9640  -41.5410   -8.1280 C   0  0  0  0  0
   10.1580  -41.9550   -6.6390 C   0  0  0  0  0
   11.2780  -41.8100   -6.1040 O   0  0  0  0  0
    9.1820  -42.4450   -6.0360 O   0  0  0  0  0
    9.6480  -40.3100   -8.5390 N   0  0  0  0  0
    9.5560  -40.3270   -9.7900 N   0  0  0  0  0
   10.6763  -40.3181  -12.7694 H   0  0  0  0  0
   10.1884  -41.8171  -14.8722 H   0  0  0  0  0
    9.0192  -44.0102  -14.0804 H   0  0  0  0  0
   10.2991  -43.3995   -9.2219 H   0  0  0  0  0
   11.8849  -41.4179   -6.7360 H   0  0  0  0  0
  1  2  4  0  0  0
  1  5  4  0  0  0
  2  3  4  0  0  0
  3  4  4  0  0  0
  4  5  4  0  0  0
  5  6  1  0  0  0
  6  7  4  0  0  0
  6 13  4  0  0  0
  7  8  4  0  0  0
  8  9  1  0  0  0
  8 12  4  0  0  0
  9 10  1  0  0  0
  9 11  2  0  0  0
 12 13  4  0  0  0
  1 14  1  0  0  0
  2 15  1  0  0  0
  3 16  1  0  0  0
  7 17  1  0  0  0
 10 18  1  0  0  0
M  END
$$$$
