### 
### Created by X-TOOL on Mon Sep 10 21:12:57 2018
### 

@<TRIPOS>MOLECULE
3bi0_ligand
   35    34     1     0     0
SMALL
GAST_HUCK


@<TRIPOS>ATOM
      1 C2         20.6530   46.6800   44.2620 C.3       1 BIX         0.0298
      2 C5         18.8110   44.9500   44.6870 C.3       1 BIX         0.0203
      3 C3         20.4040   47.0840   45.6850 C.2       1 BIX         0.0845
      4 C4         19.5020   45.8290   43.6730 C.3       1 BIX         0.0182
      5 C1         16.3820   45.1160   42.9370 C.3       1 BIX         0.0278
      6 O1         20.9880   46.4780   46.5960 O.co2     1 BIX        -0.5643
      7 OE2        13.0800   47.1290   39.5810 O.co2     1 BIX        -0.5690
      8 CD         13.9210   47.6830   40.3260 C.2       1 BIX         0.0349
      9 OE1        13.8880   48.9150   40.5370 O.co2     1 BIX        -0.5690
     10 CG         15.0220   46.8980   41.0680 C.3       1 BIX         0.0020
     11 CB         14.7730   45.3950   40.9220 C.3       1 BIX        -0.0256
     12 CA         15.9580   44.5710   41.5140 C.3       1 BIX         0.0291
     13 C          17.0890   44.6320   40.4990 C.2       1 BIX         0.0395
     14 OC         17.0920   43.8530   39.4850 O.co2     1 BIX        -0.5687
     15 O          17.9720   45.4820   40.6520 O.co2     1 BIX        -0.5687
     16 P6         17.5820   43.9970   43.7870 P.3       1 BIX        -0.0138
     17 O61        18.2850   43.1170   42.6950 O.co2     1 BIX        -0.6189
     18 O6         16.7770   43.2200   44.7730 O.co2     1 BIX        -0.6189
     19 N          21.8660   45.8660   44.3100 N.4       1 BIX         0.2327
     20 O3         19.6350   47.9720   45.9510 O.co2     1 BIX        -0.5643
     21 H1         20.8035   47.5720   43.6362 H         1 BIX         0.1025
     22 H2         18.3239   45.5679   45.4557 H         1 BIX         0.0468
     23 H3         19.5384   44.2769   45.1642 H         1 BIX         0.0468
     24 H4         19.9161   45.1861   42.8823 H         1 BIX         0.0354
     25 H5         18.7551   46.5097   43.2386 H         1 BIX         0.0354
     26 H6         15.4820   45.2101   43.5624 H         1 BIX         0.0486
     27 H7         16.8474   46.1049   42.8129 H         1 BIX         0.0486
     28 H8         15.0086   47.1687   42.1341 H         1 BIX         0.0432
     29 H9         16.0028   47.1493   40.6382 H         1 BIX         0.0432
     30 H10        14.6628   45.1507   39.8551 H         1 BIX         0.0304
     31 H11        13.8486   45.1301   41.4562 H         1 BIX         0.0304
     32 H12        15.6442   43.5234   41.6323 H         1 BIX         0.0482
     33 H13        22.6221   46.4120   44.6925 H         1 BIX         0.2010
     34 H14        22.1063   45.5658   43.3782 H         1 BIX         0.2010
     35 H15        21.7062   45.0589   44.8924 H         1 BIX         0.2010
@<TRIPOS>BOND
     1    1    3 1  
     2    4    1 1  
     3    1   19 1  
     4    2    4 1  
     5   16    2 1  
     6    3    6 ar 
     7    3   20 ar 
     8   12    5 1  
     9    5   16 1  
    10    8    7 ar 
    11    8    9 ar 
    12   10    8 1  
    13   11   10 1  
    14   11   12 1  
    15   12   13 1  
    16   13   14 ar 
    17   13   15 ar 
    18   16   17 ar 
    19   16   18 ar 
    20    1   21 1  
    21    2   22 1  
    22    2   23 1  
    23    4   24 1  
    24    4   25 1  
    25    5   26 1  
    26    5   27 1  
    27   10   28 1  
    28   10   29 1  
    29   11   30 1  
    30   11   31 1  
    31   12   32 1  
    32   19   33 1  
    33   19   34 1  
    34   19   35 1  
@<TRIPOS>SUBSTRUCTURE
     1 BIX         1

