3bi0_ligand
  -I-interpret- 

 39 38  0  0  0  0  0  0  0  0999 V2000
   20.6530   46.6800   44.2620 C   0  0  0  0  0
   18.8110   44.9500   44.6870 C   0  0  0  0  0
   20.4040   47.0840   45.6850 C   0  0  0  0  0
   19.5020   45.8290   43.6730 C   0  0  0  0  0
   16.3820   45.1160   42.9370 C   0  0  0  0  0
   20.9880   46.4780   46.5960 O   0  0  0  0  0
   13.0800   47.1290   39.5810 O   0  0  0  0  0
   13.9210   47.6830   40.3260 C   0  0  0  0  0
   13.8880   48.9150   40.5370 O   0  0  0  0  0
   15.0220   46.8980   41.0680 C   0  0  0  0  0
   14.7730   45.3950   40.9220 C   0  0  0  0  0
   15.9580   44.5710   41.5140 C   0  0  0  0  0
   17.0890   44.6320   40.4990 C   0  0  0  0  0
   17.0920   43.8530   39.4850 O   0  0  0  0  0
   17.9720   45.4820   40.6520 O   0  0  0  0  0
   17.5820   43.9970   43.7870 P   0  0  0  0  0
   18.2850   43.1170   42.6950 O   0  0  0  0  0
   16.7770   43.2200   44.7730 O   0  0  0  0  0
   21.8660   45.8660   44.3100 N   0  3  0  0  0
   19.6350   47.9720   45.9510 O   0  0  0  0  0
   20.7370   47.5629   43.6284 H   0  0  0  0  0
   18.3434   45.5497   45.4679 H   0  0  0  0  0
   19.5251   44.2936   45.1843 H   0  0  0  0  0
   19.9367   45.1736   42.9183 H   0  0  0  0  0
   18.7558   46.5199   43.2807 H   0  0  0  0  0
   15.4862   45.1829   43.5543 H   0  0  0  0  0
   16.8622   46.0847   42.7989 H   0  0  0  0  0
   21.5598   45.8065   46.2169 H   0  0  0  0  0
   13.2624   46.1874   39.5391 H   0  0  0  0  0
   15.0063   47.1655   42.1246 H   0  0  0  0  0
   15.9931   47.1462   40.6398 H   0  0  0  0  0
   14.6776   45.1580   39.8624 H   0  0  0  0  0
   13.8631   45.1373   41.4640 H   0  0  0  0  0
   15.6713   43.5328   41.6814 H   0  0  0  0  0
   16.3359   43.2635   39.5335 H   0  0  0  0  0
   18.7814   43.6836   42.0999 H   0  0  0  0  0
   22.6303   46.4194   44.6972 H   0  0  0  0  0
   21.7031   45.0497   44.8995 H   0  0  0  0  0
   22.1081   45.5628   43.3667 H   0  0  0  0  0
  1  3  1  0  0  0
  4  1  1  0  0  0
  1 19  1  0  0  0
  2  4  1  0  0  0
 16  2  1  0  0  0
  3  6  1  0  0  0
  3 20  2  0  0  0
 12  5  1  0  0  0
  5 16  1  0  0  0
  8  7  1  0  0  0
  8  9  2  0  0  0
 10  8  1  0  0  0
 11 10  1  0  0  0
 11 12  1  0  0  0
 12 13  1  0  0  0
 13 14  1  0  0  0
 13 15  2  0  0  0
 16 17  1  0  0  0
 16 18  2  0  0  0
  1 21  1  0  0  0
  2 22  1  0  0  0
  2 23  1  0  0  0
  4 24  1  0  0  0
  4 25  1  0  0  0
  5 26  1  0  0  0
  5 27  1  0  0  0
  6 28  1  0  0  0
  7 29  1  0  0  0
 10 30  1  0  0  0
 10 31  1  0  0  0
 11 32  1  0  0  0
 11 33  1  0  0  0
 12 34  1  0  0  0
 14 35  1  0  0  0
 17 36  1  0  0  0
 19 37  1  0  0  0
 19 38  1  0  0  0
 19 39  1  0  0  0
M  END
$$$$
