5hk2_ligand
  -I-interpret- 

 45 47  0  0  0  0  0  0  0  0999 V2000
   -8.2780   22.5740  -25.5590 C   0  0  0  0  0
   -7.9980   21.1930  -26.1260 C   0  0  0  0  0
   -9.7960   21.7310  -27.6940 C   0  0  0  0  0
  -10.5360   21.8110  -26.3900 C   0  0  0  0  0
   -9.7960   22.8040  -25.4910 C   0  0  0  0  0
  -11.5200   23.1650  -23.8100 C   0  0  0  0  0
  -11.9520   22.9510  -22.5100 C   0  0  0  0  0
  -13.2460   23.3270  -22.1750 C   0  0  0  0  0
  -13.7220   23.1260  -20.8880 C   0  0  0  0  0
  -12.8990   22.5460  -19.9350 C   0  0  0  0  0
  -11.6030   22.1650  -20.2670 C   0  0  0  0  0
  -11.1250   22.3660  -21.5580 C   0  0  0  0  0
   -7.5860   21.6450  -28.4990 C   0  0  0  0  0
   -6.4030   20.9300  -28.5810 C   0  0  0  0  0
   -6.4220   19.5860  -28.9300 C   0  0  0  0  0
   -5.2330   18.8720  -29.0110 C   0  0  0  0  0
   -4.0280   19.5080  -28.7430 C   0  0  0  0  0
   -4.0170   20.8520  -28.3950 C   0  0  0  0  0
   -5.2010   21.5680  -28.3140 C   0  0  0  0  0
   -8.5010   21.0550  -27.5120 N   0  3  0  0  0
  -10.3200   22.6550  -24.1270 N   0  0  0  0  0
  -12.2320   23.7810  -24.6030 O   0  0  0  0  0
  -13.6280   22.2510  -18.0020 I   0  0  0  0  0
   -7.8254   23.3287  -26.2022 H   0  0  0  0  0
   -7.8549   22.6473  -24.5571 H   0  0  0  0  0
   -8.5059   20.4573  -25.5024 H   0  0  0  0  0
   -6.9189   21.0393  -26.1363 H   0  0  0  0  0
   -9.6191   22.7412  -28.0631 H   0  0  0  0  0
  -10.3946   21.1632  -28.4063 H   0  0  0  0  0
  -10.5756   20.8298  -25.9170 H   0  0  0  0  0
  -11.5607   22.1430  -26.5567 H   0  0  0  0  0
   -9.9635   23.8268  -25.8285 H   0  0  0  0  0
  -13.8906   23.7822  -22.9269 H   0  0  0  0  0
  -14.7379   23.4225  -20.6271 H   0  0  0  0  0
  -10.9607   21.7081  -19.5142 H   0  0  0  0  0
  -10.1103   22.0672  -21.8209 H   0  0  0  0  0
   -8.0705   21.6261  -29.4752 H   0  0  0  0  0
   -7.3540   22.6643  -28.1903 H   0  0  0  0  0
   -7.3701   19.0911  -29.1405 H   0  0  0  0  0
   -5.2459   17.8168  -29.2838 H   0  0  0  0  0
   -3.0921   18.9528  -28.8058 H   0  0  0  0  0
   -3.0697   21.3481  -28.1838 H   0  0  0  0  0
   -5.1875   22.6236  -28.0427 H   0  0  0  0  0
   -8.5881   20.0496  -27.6602 H   0  0  0  0  0
   -9.7718   22.1639  -23.4208 H   0  0  0  0  0
  2  1  1  0  0  0
  1  5  1  0  0  0
 20  2  1  0  0  0
  3  4  1  0  0  0
 20  3  1  0  0  0
  4  5  1  0  0  0
  5 21  1  0  0  0
  6  7  1  0  0  0
 21  6  1  0  0  0
  6 22  2  0  0  0
  7  8  4  0  0  0
  7 12  4  0  0  0
  8  9  4  0  0  0
  9 10  4  0  0  0
 11 10  4  0  0  0
 10 23  1  0  0  0
 12 11  4  0  0  0
 13 14  1  0  0  0
 13 20  1  0  0  0
 14 15  4  0  0  0
 14 19  4  0  0  0
 15 16  4  0  0  0
 16 17  4  0  0  0
 17 18  4  0  0  0
 18 19  4  0  0  0
  1 24  1  0  0  0
  1 25  1  0  0  0
  2 26  1  0  0  0
  2 27  1  0  0  0
  3 28  1  0  0  0
  3 29  1  0  0  0
  4 30  1  0  0  0
  4 31  1  0  0  0
  5 32  1  0  0  0
  8 33  1  0  0  0
  9 34  1  0  0  0
 11 35  1  0  0  0
 12 36  1  0  0  0
 13 37  1  0  0  0
 13 38  1  0  0  0
 15 39  1  0  0  0
 16 40  1  0  0  0
 17 41  1  0  0  0
 18 42  1  0  0  0
 19 43  1  0  0  0
 20 44  1  0  0  0
 21 45  1  0  0  0
M  END
$$$$
