### 
### Created by X-TOOL on Mon Sep 10 21:13:29 2018
### 

@<TRIPOS>MOLECULE
5a7j_ligand
   28    28     1     0     0
SMALL
GAST_HUCK


@<TRIPOS>ATOM
      1 OAE       -19.1060   26.2790   54.0770 O.co2     1 K2Y        -0.6600
      2 PAW       -18.0510   26.4130   52.8770 P.3       1 K2Y         0.1670
      3 OAF       -17.3180   24.9740   52.8090 O.co2     1 K2Y        -0.6600
      4 OAA       -17.0840   27.5120   53.0970 O.co2     1 K2Y        -0.6600
      5 OAO       -18.9070   26.5860   51.5110 O.3       1 K2Y        -0.1374
      6 CAS       -19.5500   25.5260   50.9300 C.ar      1 K2Y         0.3313
      7 CAM       -20.2160   24.5390   51.6910 C.ar      1 K2Y         0.1567
      8 CAT       -20.8940   23.4690   51.0440 C.ar      1 K2Y         0.3313
      9 OAP       -21.5760   22.5090   51.7750 O.3       1 K2Y        -0.1374
     10 PAX       -20.8810   21.7010   53.0100 P.3       1 K2Y         0.1670
     11 OAG       -21.5600   20.2470   53.0470 O.co2     1 K2Y        -0.6600
     12 OAH       -19.3040   21.5250   52.6880 O.co2     1 K2Y        -0.6600
     13 OAB       -21.0800   22.4180   54.2910 O.co2     1 K2Y        -0.6600
     14 CAV       -20.9370   23.4490   49.6290 C.ar      1 K2Y         0.3313
     15 OAR       -21.6450   22.4960   48.9780 O.3       1 K2Y        -0.1374
     16 PAZ       -23.1470   22.9410   48.5880 P.3       1 K2Y         0.1670
     17 OAK       -23.5290   24.3170   49.3480 O.co2     1 K2Y        -0.6600
     18 OAL       -23.0900   23.2580   47.0000 O.co2     1 K2Y        -0.6600
     19 OAD       -24.1160   21.8690   48.9080 O.co2     1 K2Y        -0.6600
     20 CAN       -20.3230   24.4650   48.8670 C.ar      1 K2Y         0.1567
     21 CAU       -19.6440   25.5190   49.5100 C.ar      1 K2Y         0.3313
     22 OAQ       -19.0060   26.5030   48.7780 O.3       1 K2Y        -0.1374
     23 PAY       -19.9000   27.3510   47.7010 P.3       1 K2Y         0.1670
     24 OAI       -21.4480   27.3980   48.1500 O.co2     1 K2Y        -0.6600
     25 OAJ       -19.2710   28.8310   47.8070 O.co2     1 K2Y        -0.6600
     26 OAC       -19.7780   26.8500   46.3200 O.co2     1 K2Y        -0.6600
     27 H1        -20.2102   24.5976   52.7734 H         1 K2Y         0.0814
     28 H2        -20.3736   24.4348   47.7846 H         1 K2Y         0.0814
@<TRIPOS>BOND
     1    1    2 ar 
     2    2    3 ar 
     3    2    4 ar 
     4    2    5 1  
     5    5    6 1  
     6    6    7 ar 
     7    6   21 ar 
     8    7    8 ar 
     9    8    9 1  
    10    8   14 ar 
    11    9   10 1  
    12   10   11 ar 
    13   10   12 ar 
    14   10   13 ar 
    15   14   15 1  
    16   14   20 ar 
    17   15   16 1  
    18   16   17 ar 
    19   16   18 ar 
    20   16   19 ar 
    21   20   21 ar 
    22   21   22 1  
    23   22   23 1  
    24   23   24 ar 
    25   23   25 ar 
    26   23   26 ar 
    27    7   27 1  
    28   20   28 1  
@<TRIPOS>SUBSTRUCTURE
     1 K2Y         1

