5a7j_ligand
  -I-interpret- 

 36 36  0  0  0  0  0  0  0  0999 V2000
  -19.1060   26.2790   54.0770 O   0  0  0  0  0
  -18.0510   26.4130   52.8770 P   0  0  0  0  0
  -17.3180   24.9740   52.8090 O   0  0  0  0  0
  -17.0840   27.5120   53.0970 O   0  0  0  0  0
  -18.9070   26.5860   51.5110 O   0  0  0  0  0
  -19.5500   25.5260   50.9300 C   0  0  0  0  0
  -20.2160   24.5390   51.6910 C   0  0  0  0  0
  -20.8940   23.4690   51.0440 C   0  0  0  0  0
  -21.5760   22.5090   51.7750 O   0  0  0  0  0
  -20.8810   21.7010   53.0100 P   0  0  0  0  0
  -21.5600   20.2470   53.0470 O   0  0  0  0  0
  -19.3040   21.5250   52.6880 O   0  0  0  0  0
  -21.0800   22.4180   54.2910 O   0  0  0  0  0
  -20.9370   23.4490   49.6290 C   0  0  0  0  0
  -21.6450   22.4960   48.9780 O   0  0  0  0  0
  -23.1470   22.9410   48.5880 P   0  0  0  0  0
  -23.5290   24.3170   49.3480 O   0  0  0  0  0
  -23.0900   23.2580   47.0000 O   0  0  0  0  0
  -24.1160   21.8690   48.9080 O   0  0  0  0  0
  -20.3230   24.4650   48.8670 C   0  0  0  0  0
  -19.6440   25.5190   49.5100 C   0  0  0  0  0
  -19.0060   26.5030   48.7780 O   0  0  0  0  0
  -19.9000   27.3510   47.7010 P   0  0  0  0  0
  -21.4480   27.3980   48.1500 O   0  0  0  0  0
  -19.2710   28.8310   47.8070 O   0  0  0  0  0
  -19.7780   26.8500   46.3200 O   0  0  0  0  0
  -19.7102   25.5565   53.8912 H   0  0  0  0  0
  -17.9744   24.2882   52.6659 H   0  0  0  0  0
  -20.2101   24.5979   52.7794 H   0  0  0  0  0
  -21.4158   19.8063   52.2064 H   0  0  0  0  0
  -19.1986   21.0589   51.8554 H   0  0  0  0  0
  -22.8864   24.9941   49.1239 H   0  0  0  0  0
  -22.4518   23.9563   46.8369 H   0  0  0  0  0
  -20.3739   24.4347   47.7786 H   0  0  0  0  0
  -21.5091   27.7260   49.0502 H   0  0  0  0  0
  -19.3547   29.1492   48.7089 H   0  0  0  0  0
  1  2  1  0  0  0
  2  3  1  0  0  0
  2  4  2  0  0  0
  2  5  1  0  0  0
  5  6  1  0  0  0
  6  7  4  0  0  0
  6 21  4  0  0  0
  7  8  4  0  0  0
  8  9  1  0  0  0
  8 14  4  0  0  0
  9 10  1  0  0  0
 10 11  1  0  0  0
 10 12  1  0  0  0
 10 13  2  0  0  0
 14 15  1  0  0  0
 14 20  4  0  0  0
 15 16  1  0  0  0
 16 17  1  0  0  0
 16 18  1  0  0  0
 16 19  2  0  0  0
 20 21  4  0  0  0
 21 22  1  0  0  0
 22 23  1  0  0  0
 23 24  1  0  0  0
 23 25  1  0  0  0
 23 26  2  0  0  0
  1 27  1  0  0  0
  3 28  1  0  0  0
  7 29  1  0  0  0
 11 30  1  0  0  0
 12 31  1  0  0  0
 17 32  1  0  0  0
 18 33  1  0  0  0
 20 34  1  0  0  0
 24 35  1  0  0  0
 25 36  1  0  0  0
M  END
$$$$
