6alc_ligand
  -I-interpret- 

 46 50  0  0  0  0  0  0  0  0999 V2000
   -8.3090   17.3210   13.8490 C   0  0  0  0  0
   -4.9370   15.7870   17.3650 C   0  0  0  0  0
   -5.3130   16.9500   16.4340 C   0  0  0  0  0
   -6.3740   17.7580   17.1380 C   0  0  0  0  0
   -6.7180   17.6330   18.4510 C   0  0  0  0  0
   -7.7280   18.5780   18.6490 C   0  0  0  0  0
   -7.1490   19.2080   15.2180 C   0  0  0  0  0
   -8.4030   18.6850   14.5060 C   0  0  0  0  0
   -3.4020   16.8690   20.7420 C   0  0  0  0  0
   -8.3540   18.5830   12.9750 C   0  0  0  0  0
   -8.5070   18.8640   19.8820 C   0  0  0  0  0
   -9.0090   17.8320   20.6640 C   0  0  0  0  0
   -9.8180   18.0420   21.8050 C   0  0  0  0  0
  -10.1930   19.3420   22.1560 C   0  0  0  0  0
   -3.5740   16.4410   19.2860 C   0  0  0  0  0
   -9.7390   20.3970   21.3450 C   0  0  0  0  0
   -8.8990   20.1860   20.1920 C   0  0  0  0  0
   -8.6280   21.4930   19.6110 C   0  0  0  0  0
   -9.2820   22.4250   20.3830 C   0  0  0  0  0
   -6.0590   16.6460   19.3970 C   0  0  0  0  0
   -7.9650   19.2370   17.5440 N   0  0  0  0  0
   -7.1610   18.7120   16.5840 N   0  0  0  0  0
   -9.9200   21.7710   21.3980 N   0  0  0  0  0
   -4.7810   16.2500   18.7480 N   0  0  0  0  0
   -2.5830   16.1510   18.6040 O   0  0  0  0  0
   -8.8063   16.3528   13.9076 H   0  0  0  0  0
   -7.7122   16.4133   13.9386 H   0  0  0  0  0
   -3.9908   15.3625   17.0296 H   0  0  0  0  0
   -5.7324   15.0424   17.3332 H   0  0  0  0  0
   -5.6853   16.5744   15.4809 H   0  0  0  0  0
   -4.4406   17.5667   16.2178 H   0  0  0  0  0
   -7.1443   20.2980   15.2156 H   0  0  0  0  0
   -6.2536   18.8617   14.7019 H   0  0  0  0  0
   -9.0798   19.1489   15.2235 H   0  0  0  0  0
   -2.9230   16.0654   21.3014 H   0  0  0  0  0
   -2.7811   17.7638   20.7854 H   0  0  0  0  0
   -4.3795   17.0821   21.1746 H   0  0  0  0  0
   -8.8899   18.9649   12.1061 H   0  0  0  0  0
   -7.8152   19.0243   12.1365 H   0  0  0  0  0
   -8.7670   16.8068   20.3839 H   0  0  0  0  0
  -10.1471   17.1951   22.4071 H   0  0  0  0  0
  -10.8168   19.5316   23.0295 H   0  0  0  0  0
   -8.0204   21.6953   18.7290 H   0  0  0  0  0
   -9.2897   23.5017   20.2135 H   0  0  0  0  0
   -6.6977   15.7806   19.5735 H   0  0  0  0  0
   -5.8838   17.0928   20.3756 H   0  0  0  0  0
  8  1  1  0  0  0
 10  1  1  0  0  0
  2  3  1  0  0  0
 24  2  1  0  0  0
  3  4  1  0  0  0
  4  5  4  0  0  0
  4 22  4  0  0  0
  5  6  4  0  0  0
  5 20  1  0  0  0
  6 11  1  0  0  0
  6 21  4  0  0  0
  7  8  1  0  0  0
 22  7  1  0  0  0
  8 10  1  0  0  0
 15  9  1  0  0  0
 11 12  4  0  0  0
 11 17  4  0  0  0
 12 13  4  0  0  0
 13 14  4  0  0  0
 14 16  4  0  0  0
 15 24  1  0  0  0
 15 25  2  0  0  0
 16 17  4  0  0  0
 16 23  4  0  0  0
 17 18  4  0  0  0
 18 19  4  0  0  0
 19 23  4  0  0  0
 20 24  1  0  0  0
 21 22  4  0  0  0
  1 26  1  0  0  0
  1 27  1  0  0  0
  2 28  1  0  0  0
  2 29  1  0  0  0
  3 30  1  0  0  0
  3 31  1  0  0  0
  7 32  1  0  0  0
  7 33  1  0  0  0
  8 34  1  0  0  0
  9 35  1  0  0  0
  9 36  1  0  0  0
  9 37  1  0  0  0
 10 38  1  0  0  0
 10 39  1  0  0  0
 12 40  1  0  0  0
 13 41  1  0  0  0
 14 42  1  0  0  0
 18 43  1  0  0  0
 19 44  1  0  0  0
 20 45  1  0  0  0
 20 46  1  0  0  0
M  END
$$$$
