4gs6_ligand
  -I-interpret- 

 52 53  0  0  0  0  0  0  0  0999 V2000
   15.0090   18.5770   55.3550 C   0  0  0  0  0
   14.4020   17.6370   54.4810 C   0  0  0  0  0
   14.2440   19.6720   55.8090 C   0  0  0  0  0
   13.0920   17.8480   54.0770 C   0  0  0  0  0
   12.3620   18.9370   54.5250 C   0  0  0  0  0
   17.1290   17.4400   55.3210 O   0  0  0  0  0
   12.9450   19.8400   55.3920 C   0  0  0  0  0
   14.7180   15.5760   53.1130 C   0  0  0  0  0
   19.3330   16.5290   54.5660 C   0  0  0  0  0
   15.1630   16.4920   53.9690 C   0  0  0  0  0
   16.3960   14.9490   51.4140 C   0  0  0  0  0
   16.4190   18.5020   55.8530 C   0  0  0  0  0
   18.5780   17.3700   55.5820 C   0  0  0  0  0
   15.5290   14.4800   52.5580 C   0  0  0  0  0
   16.8910   19.3470   56.6200 O   0  0  0  0  0
   17.7680   14.2850   51.2320 C   0  0  0  0  0
   18.7840   14.7650   52.2380 C   0  0  0  0  0
   19.1470   13.8340   53.1190 O   0  0  0  0  0
   19.2310   16.0190   52.1810 C   0  0  0  0  0
   19.4540   16.8980   53.2970 C   0  0  0  0  0
   15.6860   14.8940   50.1960 O   0  0  0  0  0
   17.6830   12.8680   51.2040 O   0  0  0  0  0
   14.7940   20.6070   56.6690 O   0  0  0  0  0
   11.0270   19.1980   54.1650 O   0  0  0  0  0
   10.3490   18.2530   53.3440 C   0  0  0  0  0
   18.7820   16.8750   56.9870 C   0  0  0  0  0
   12.6260   17.1406   53.3911 H   0  0  0  0  0
   12.3696   20.6941   55.7491 H   0  0  0  0  0
   13.6761   15.6419   52.7995 H   0  0  0  0  0
   18.7496   15.6100   54.5106 H   0  0  0  0  0
   20.3586   16.5418   54.9350 H   0  0  0  0  0
   16.1881   16.3816   54.3228 H   0  0  0  0  0
   16.6359   15.9711   51.7071 H   0  0  0  0  0
   18.9979   18.3702   55.4756 H   0  0  0  0  0
   14.8546   13.7098   52.1838 H   0  0  0  0  0
   16.1781   14.1002   53.3470 H   0  0  0  0  0
   18.1262   14.6012   50.2523 H   0  0  0  0  0
   19.4259   15.5078   52.7115 H   0  0  0  0  0
   19.7917   14.2040   53.7265 H   0  0  0  0  0
   18.4141   16.5217   51.6632 H   0  0  0  0  0
   20.2445   15.8758   51.8062 H   0  0  0  0  0
   20.5160   17.1287   53.2134 H   0  0  0  0  0
   18.6604   17.6366   53.1842 H   0  0  0  0  0
   16.2531   15.1955   49.4825 H   0  0  0  0  0
   18.5614   12.4981   51.0890 H   0  0  0  0  0
   14.1378   21.2773   56.8732 H   0  0  0  0  0
   10.8789   18.1501   52.3971 H   0  0  0  0  0
   10.3184   17.2888   53.8514 H   0  0  0  0  0
    9.3325   18.5992   53.1572 H   0  0  0  0  0
   18.4267   15.8474   57.0640 H   0  0  0  0  0
   19.8430   16.9135   57.2340 H   0  0  0  0  0
   18.2237   17.5065   57.6780 H   0  0  0  0  0
  1  2  4  0  0  0
  1  3  4  0  0  0
  1 12  1  0  0  0
  2  4  4  0  0  0
  2 10  1  0  0  0
  3  7  4  0  0  0
  3 23  1  0  0  0
  4  5  4  0  0  0
  5  7  4  0  0  0
  5 24  1  0  0  0
 12  6  1  0  0  0
  6 13  1  0  0  0
 10  8  2  0  0  0
  8 14  1  0  0  0
 13  9  1  0  0  0
  9 20  1  0  0  0
 14 11  1  0  0  0
 11 16  1  0  0  0
 11 21  1  0  0  0
 12 15  2  0  0  0
 13 26  1  0  0  0
 16 17  1  0  0  0
 16 22  1  0  0  0
 17 18  1  0  0  0
 17 19  1  0  0  0
 19 20  1  0  0  0
 24 25  1  0  0  0
  4 27  1  0  0  0
  7 28  1  0  0  0
  8 29  1  0  0  0
  9 30  1  0  0  0
  9 31  1  0  0  0
 10 32  1  0  0  0
 11 33  1  0  0  0
 13 34  1  0  0  0
 14 35  1  0  0  0
 14 36  1  0  0  0
 16 37  1  0  0  0
 17 38  1  0  0  0
 18 39  1  0  0  0
 19 40  1  0  0  0
 19 41  1  0  0  0
 20 42  1  0  0  0
 20 43  1  0  0  0
 21 44  1  0  0  0
 22 45  1  0  0  0
 23 46  1  0  0  0
 25 47  1  0  0  0
 25 48  1  0  0  0
 25 49  1  0  0  0
 26 50  1  0  0  0
 26 51  1  0  0  0
 26 52  1  0  0  0
M  END
$$$$
