5fso_ligand
  -I-interpret- 

 17 17  0  0  0  0  0  0  0  0999 V2000
   17.5280   19.5050    6.4790 O   0  0  0  0  0
   17.0750   20.1480    5.5390 C   0  0  0  0  0
   15.7380   20.1230    5.2200 N   0  0  0  0  0
   15.1180   20.8570    4.2190 C   0  0  0  0  0
   13.9130   20.6500    3.9830 O   0  0  0  0  0
   15.9790   21.7100    3.4550 C   0  0  0  0  0
   17.8490   21.0340    4.8300 N   0  0  0  0  0
   17.3110   21.8100    3.7680 C   0  0  0  0  0
   18.2000   22.5300    3.0470 N   0  0  0  0  0
   17.8320   23.3930    1.9380 C   0  0  0  0  0
   15.1442   19.5049    5.7729 H   0  0  0  0  0
   15.5860   22.7123    3.6254 H   0  0  0  0  0
   15.9688   21.2772    2.4546 H   0  0  0  0  0
   18.8345   21.1375    5.0718 H   0  0  0  0  0
   17.3423   22.8005    1.1652 H   0  0  0  0  0
   17.1499   24.1661    2.2917 H   0  0  0  0  0
   18.7286   23.8577    1.5278 H   0  0  0  0  0
  1  2  2  0  0  0
  2  3  1  0  0  0
  2  7  1  0  0  0
  3  4  1  0  0  0
  4  5  2  0  0  0
  4  6  1  0  0  0
  6  8  1  0  0  0
  7  8  1  0  0  0
  8  9  2  0  0  0
  9 10  1  0  0  0
  3 11  1  0  0  0
  6 12  1  0  0  0
  6 13  1  0  0  0
  7 14  1  0  0  0
 10 15  1  0  0  0
 10 16  1  0  0  0
 10 17  1  0  0  0
M  END
$$$$
