6ccn_ligand
  -I-interpret- 

 42 43  0  0  0  0  0  0  0  0999 V2000
   27.5520   -8.1900   31.4320 C   0  0  0  0  0
   26.1730   -7.5790   31.2980 C   0  0  0  0  0
   25.2590   -8.1460   32.4140 C   0  0  0  0  0
   25.8500  -10.5020   33.0190 C   0  0  0  0  0
   25.5900  -12.0040   32.8880 C   0  0  0  0  0
   24.7100  -12.5980   34.0470 C   0  0  0  0  0
   23.3590  -11.8270   34.1930 C   0  0  0  0  0
   24.3260  -14.0800   33.7440 C   0  0  0  0  0
   25.4680  -12.5460   35.4230 C   0  0  0  0  0
   25.0950   -9.6100   32.3180 N   0  0  0  0  0
   31.6870   -9.5860   32.5370 C   0  0  0  0  0
   31.3620  -10.6010   31.6050 C   0  0  0  0  0
   30.1150  -10.5900   30.9330 C   0  0  0  0  0
   29.2140   -9.5430   31.2380 C   0  0  0  0  0
   29.5280   -8.5770   32.1790 C   0  0  0  0  0
   30.7680   -8.5450   32.8230 C   0  0  0  0  0
   28.4570   -7.7500   32.2090 N   0  0  0  0  0
   27.9390   -9.2900   30.8190 N   0  0  0  0  0
   31.0370   -7.5530   33.7580 O   0  0  0  0  0
   26.7310  -10.1600   33.7990 O   0  0  0  0  0
   25.0520  -12.3080   31.5830 O   0  0  0  0  0
   25.4780  -14.9220   33.7060 O   0  0  0  0  0
   25.7557   -7.8242   30.3213 H   0  0  0  0  0
   26.2404   -6.4953   31.3934 H   0  0  0  0  0
   24.2751   -7.6889   32.3086 H   0  0  0  0  0
   25.7212   -7.9209   33.3751 H   0  0  0  0  0
   26.5545  -12.5014   32.9902 H   0  0  0  0  0
   22.7943  -11.9069   33.2641 H   0  0  0  0  0
   22.7812  -12.2604   35.0094 H   0  0  0  0  0
   23.5622  -10.7777   34.4070 H   0  0  0  0  0
   23.8385  -14.1179   32.7698 H   0  0  0  0  0
   23.6656  -14.4342   34.5356 H   0  0  0  0  0
   25.6599  -11.5072   35.6916 H   0  0  0  0  0
   24.8541  -13.0141   36.1925 H   0  0  0  0  0
   26.4138  -13.0808   35.3358 H   0  0  0  0  0
   24.3766   -9.9741   31.6921 H   0  0  0  0  0
   32.6539   -9.6051   33.0399 H   0  0  0  0  0
   32.0776  -11.3979   31.4028 H   0  0  0  0  0
   29.8588  -11.3611   30.2065 H   0  0  0  0  0
   30.2934   -6.9475   33.8034 H   0  0  0  0  0
   25.6187  -11.9276   30.9079 H   0  0  0  0  0
   25.2078  -15.8238   33.5180 H   0  0  0  0  0
  1  2  1  0  0  0
  1 17  4  0  0  0
 18  1  4  0  0  0
  2  3  1  0  0  0
  3 10  1  0  0  0
  4  5  1  0  0  0
 10  4  1  0  0  0
  4 20  2  0  0  0
  5  6  1  0  0  0
  5 21  1  0  0  0
  6  7  1  0  0  0
  6  8  1  0  0  0
  6  9  1  0  0  0
  8 22  1  0  0  0
 12 11  4  0  0  0
 11 16  4  0  0  0
 13 12  4  0  0  0
 14 13  4  0  0  0
 14 15  4  0  0  0
 14 18  4  0  0  0
 15 16  4  0  0  0
 15 17  4  0  0  0
 16 19  1  0  0  0
  2 23  1  0  0  0
  2 24  1  0  0  0
  3 25  1  0  0  0
  3 26  1  0  0  0
  5 27  1  0  0  0
  7 28  1  0  0  0
  7 29  1  0  0  0
  7 30  1  0  0  0
  8 31  1  0  0  0
  8 32  1  0  0  0
  9 33  1  0  0  0
  9 34  1  0  0  0
  9 35  1  0  0  0
 10 36  1  0  0  0
 11 37  1  0  0  0
 12 38  1  0  0  0
 13 39  1  0  0  0
 19 40  1  0  0  0
 21 41  1  0  0  0
 22 42  1  0  0  0
M  END
$$$$
