6hrx_ligand
  -I-interpret- 

 24 25  0  0  0  0  0  0  0  0999 V2000
  -17.1370    5.5790    5.4800 C   0  0  0  0  0
  -12.9630    3.5630    7.2500 C   0  0  0  0  0
  -13.2430    2.2370    7.5450 C   0  0  0  0  0
  -10.9210    1.8170    7.6160 C   0  0  0  0  0
  -11.6350    4.0080    7.1480 C   0  0  0  0  0
  -14.1590    4.1830    7.1110 N   0  0  0  0  0
  -12.2130    1.3820    7.7170 N   0  0  0  0  0
  -16.5760    6.3940    7.6900 C   0  0  0  0  0
  -10.6210    3.0990    7.3490 N   0  0  0  0  0
  -15.1360    3.2800    7.2860 C   0  0  0  0  0
  -16.8660    3.6080    7.2320 S   0  0  0  0  0
  -17.3260    5.2900    6.9380 C   0  0  0  0  0
  -11.3870    5.3330    6.8630 N   0  0  0  0  0
  -14.5710    2.1100    7.5660 N   0  0  0  0  0
  -16.0918    5.4236    5.2126 H   0  0  0  0  0
  -17.7667    4.9098    4.8937 H   0  0  0  0  0
  -17.4155    6.6130    5.2768 H   0  0  0  0  0
  -10.1100    1.1024    7.7563 H   0  0  0  0  0
  -16.7044    6.2527    8.7631 H   0  0  0  0  0
  -15.5161    6.3464    7.4403 H   0  0  0  0  0
  -16.9757    7.3656    7.3998 H   0  0  0  0  0
  -18.3505    5.3340    7.3076 H   0  0  0  0  0
  -12.1641    5.9798    6.7284 H   0  0  0  0  0
  -10.4263    5.6671    6.7866 H   0  0  0  0  0
 12  1  1  0  0  0
  3  2  4  0  0  0
  2  5  4  0  0  0
  6  2  4  0  0  0
  3  7  4  0  0  0
 14  3  4  0  0  0
  7  4  4  0  0  0
  4  9  4  0  0  0
  5  9  4  0  0  0
  5 13  1  0  0  0
 10  6  4  0  0  0
 12  8  1  0  0  0
 11 10  1  0  0  0
 10 14  4  0  0  0
 11 12  1  0  0  0
  1 15  1  0  0  0
  1 16  1  0  0  0
  1 17  1  0  0  0
  4 18  1  0  0  0
  8 19  1  0  0  0
  8 20  1  0  0  0
  8 21  1  0  0  0
 12 22  1  0  0  0
 13 23  1  0  0  0
 13 24  1  0  0  0
M  END
$$$$
