4qmp_ligand
  -I-interpret- 

 41 43  0  0  0  0  0  0  0  0999 V2000
   27.6040    0.5220   77.5470 F   0  0  0  0  0
   26.3150    0.6580   77.4790 C   0  0  0  0  0
   25.6530    1.4040   78.4750 C   0  0  0  0  0
   24.2580    1.5720   78.4180 C   0  0  0  0  0
   23.5270    0.9890   77.3760 C   0  0  0  0  0
   24.2030    0.2590   76.3760 C   0  0  0  0  0
   23.5200   -0.2890   75.4190 F   0  0  0  0  0
   25.5950    0.0740   76.4250 C   0  0  0  0  0
   26.1420   -0.6620   75.4170 N   0  0  0  0  0
   26.4410   -1.9550   75.3070 C   0  0  0  0  0
   25.8230   -3.0200   76.5000 S   0  0  0  0  0
   27.1240   -2.4040   74.2590 N   0  0  0  0  0
   27.7520   -1.5740   73.4870 N   0  0  0  0  0
   27.2400   -3.6390   73.7380 C   0  0  0  0  0
   26.7180   -4.7960   74.1810 N   0  0  0  0  0
   27.9830   -3.5520   72.6330 N   0  0  0  0  0
   28.2970   -2.2600   72.4840 C   0  0  0  0  0
   29.0570   -1.8300   71.4470 N   0  0  0  0  0
   29.5310   -0.6020   71.1110 C   0  0  0  0  0
   29.3520    0.4860   71.9990 C   0  0  0  0  0
   29.8440    1.7650   71.6620 C   0  0  0  0  0
   30.2120   -0.3890   69.8930 C   0  0  0  0  0
   30.6980    0.8840   69.5540 C   0  0  0  0  0
   30.5180    1.9610   70.4340 C   0  0  0  0  0
   31.1460    3.5370   69.9390 S   0  0  0  0  0
   31.3290    4.4950   71.2000 O   0  0  0  0  0
   32.5320    3.3580   69.1660 O   0  0  0  0  0
   30.0250    4.2580   68.8070 N   0  0  0  0  0
   26.2226    1.8509   79.2898 H   0  0  0  0  0
   23.7467    2.1552   79.1839 H   0  0  0  0  0
   22.4432    1.0984   77.3377 H   0  0  0  0  0
   26.3660   -0.1164   74.5848 H   0  0  0  0  0
   26.1446   -4.8069   75.0245 H   0  0  0  0  0
   26.8954   -5.6629   73.6736 H   0  0  0  0  0
   29.3234   -2.5684   70.7957 H   0  0  0  0  0
   28.8328    0.3354   72.9455 H   0  0  0  0  0
   29.7048    2.6011   72.3474 H   0  0  0  0  0
   30.3624   -1.2229   69.2073 H   0  0  0  0  0
   31.2153    1.0352   68.6066 H   0  0  0  0  0
   29.6025    5.1630   69.0140 H   0  0  0  0  0
   29.7936    3.7735   67.9397 H   0  0  0  0  0
  1  2  1  0  0  0
  2  3  4  0  0  0
  2  8  4  0  0  0
  3  4  4  0  0  0
  4  5  4  0  0  0
  5  6  4  0  0  0
  6  7  1  0  0  0
  6  8  4  0  0  0
  8  9  1  0  0  0
  9 10  1  0  0  0
 10 11  2  0  0  0
 10 12  1  0  0  0
 12 13  4  0  0  0
 12 14  4  0  0  0
 13 17  4  0  0  0
 14 15  1  0  0  0
 14 16  4  0  0  0
 16 17  4  0  0  0
 17 18  1  0  0  0
 18 19  1  0  0  0
 19 20  4  0  0  0
 19 22  4  0  0  0
 20 21  4  0  0  0
 21 24  4  0  0  0
 22 23  4  0  0  0
 23 24  4  0  0  0
 24 25  1  0  0  0
 25 26  2  0  0  0
 25 27  2  0  0  0
 25 28  1  0  0  0
  3 29  1  0  0  0
  4 30  1  0  0  0
  5 31  1  0  0  0
  9 32  1  0  0  0
 15 33  1  0  0  0
 15 34  1  0  0  0
 18 35  1  0  0  0
 20 36  1  0  0  0
 21 37  1  0  0  0
 22 38  1  0  0  0
 23 39  1  0  0  0
 28 40  1  0  0  0
 28 41  1  0  0  0
M  END
$$$$
