### 
### Created by X-TOOL on Mon Sep 10 21:13:00 2018
### 

@<TRIPOS>MOLECULE
3iuc_ligand
   39    41     1     0     0
SMALL
GAST_HUCK


@<TRIPOS>ATOM
      1 PB          0.3330   -0.6570    0.3950 P.3       1 ADP         0.2069
      2 O1B        -0.4280   -1.2750   -0.7550 O.co2     1 ADP        -0.5891
      3 O2B         0.8090    0.7890    0.2070 O.co2     1 ADP        -0.5891
      4 O3B        -0.2960   -0.8440    1.7470 O.co2     1 ADP        -0.5891
      5 PA          2.0540   -2.9890    0.0210 P.3       1 ADP         0.3276
      6 O1A         1.2740   -3.2630   -1.2530 O.co2     1 ADP        -0.5556
      7 O2A         3.5610   -3.1660   -0.0350 O.co2     1 ADP        -0.5556
      8 O3A         1.7320   -1.4920    0.4510 O.3       1 ADP        -0.1548
      9 O5'         1.5530   -3.9580    1.1710 O.3       1 ADP        -0.2436
     10 C5'         1.9850   -3.6760    2.5140 C.3       1 ADP         0.1132
     11 C4'         1.6010   -4.8250    3.4360 C.3       1 ADP         0.1189
     12 O4'         2.1800   -6.0140    2.9240 O.3       1 ADP        -0.3364
     13 C3'         2.1160   -4.6950    4.8710 C.3       1 ADP         0.1149
     14 O3'         1.0790   -4.9070    5.8160 O.3       1 ADP        -0.3864
     15 C2'         3.1000   -5.8280    5.0240 C.3       1 ADP         0.1385
     16 O2'         3.1880   -6.3830    6.3270 O.3       1 ADP        -0.3836
     17 C1'         2.5670   -6.8180    4.0160 C.3       1 ADP         0.2010
     18 N9          3.6600   -7.7210    3.6910 N.pl3     1 ADP        -0.1919
     19 C8          4.8430   -7.4100    3.0940 C.2       1 ADP         0.1123
     20 N7          5.6360   -8.5220    2.9870 N.2       1 ADP        -0.2958
     21 C5          4.9200   -9.5380    3.5330 C.ar      1 ADP         0.1045
     22 C6          5.1080  -10.9550    3.7550 C.ar      1 ADP         0.1298
     23 N6          6.2770  -11.5080    3.3790 N.pl3     1 ADP        -0.3152
     24 N1          4.1190  -11.6740    4.3680 N.ar      1 ADP        -0.2698
     25 C2          2.9750  -11.1190    4.7900 C.ar      1 ADP         0.0533
     26 N3          2.7320   -9.8050    4.6000 N.ar      1 ADP        -0.2714
     27 C4          3.6330   -9.0070    3.9920 C.ar      1 ADP         0.1613
     28 H1          1.5040   -2.7510    2.8648 H         1 ADP         0.0648
     29 H2          3.0775   -3.5486    2.5262 H         1 ADP         0.0648
     30 H3          0.5044   -4.9091    3.4542 H         1 ADP         0.0651
     31 H4          2.5899   -3.7156    5.0329 H         1 ADP         0.0648
     32 H5          1.4299   -4.8197    6.6945 H         1 ADP         0.2100
     33 H6          4.1062   -5.4896    4.7358 H         1 ADP         0.0676
     34 H7          3.4554   -5.7082    6.9400 H         1 ADP         0.2101
     35 H8          1.7093   -7.3846    4.4076 H         1 ADP         0.0996
     36 H9          5.1207   -6.4151    2.7492 H         1 ADP         0.1349
     37 H10         6.4408  -12.5145    3.5239 H         1 ADP         0.1820
     38 H11         7.0073  -10.9244    2.9465 H         1 ADP         0.1820
     39 H12         2.2351  -11.7331    5.2904 H         1 ADP         0.0996
@<TRIPOS>BOND
     1    1    2 ar 
     2    1    3 ar 
     3    1    4 ar 
     4    8    1 1  
     5    5    6 ar 
     6    5    7 ar 
     7    5    8 1  
     8    5    9 1  
     9    9   10 1  
    10   10   11 1  
    11   11   12 1  
    12   11   13 1  
    13   12   17 1  
    14   13   14 1  
    15   13   15 1  
    16   15   16 1  
    17   15   17 1  
    18   17   18 1  
    19   18   19 1  
    20   18   27 1  
    21   19   20 2  
    22   20   21 1  
    23   21   22 ar 
    24   21   27 ar 
    25   22   23 1  
    26   22   24 ar 
    27   24   25 ar 
    28   25   26 ar 
    29   26   27 ar 
    30   10   28 1  
    31   10   29 1  
    32   11   30 1  
    33   13   31 1  
    34   14   32 1  
    35   15   33 1  
    36   16   34 1  
    37   17   35 1  
    38   19   36 1  
    39   23   37 1  
    40   23   38 1  
    41   25   39 1  
@<TRIPOS>SUBSTRUCTURE
     1 ADP         1

