3iuc_ligand
  -I-interpret- 

 42 44  0  0  0  0  0  0  0  0999 V2000
    0.3330   -0.6570    0.3950 P   0  0  0  0  0
   -0.4280   -1.2750   -0.7550 O   0  0  0  0  0
    0.8090    0.7890    0.2070 O   0  0  0  0  0
   -0.2960   -0.8440    1.7470 O   0  0  0  0  0
    2.0540   -2.9890    0.0210 P   0  0  0  0  0
    1.2740   -3.2630   -1.2530 O   0  0  0  0  0
    3.5610   -3.1660   -0.0350 O   0  0  0  0  0
    1.7320   -1.4920    0.4510 O   0  0  0  0  0
    1.5530   -3.9580    1.1710 O   0  0  0  0  0
    1.9850   -3.6760    2.5140 C   0  0  0  0  0
    1.6010   -4.8250    3.4360 C   0  0  0  0  0
    2.1800   -6.0140    2.9240 O   0  0  0  0  0
    2.1160   -4.6950    4.8710 C   0  0  0  0  0
    1.0790   -4.9070    5.8160 O   0  0  0  0  0
    3.1000   -5.8280    5.0240 C   0  0  0  0  0
    3.1880   -6.3830    6.3270 O   0  0  0  0  0
    2.5670   -6.8180    4.0160 C   0  0  0  0  0
    3.6600   -7.7210    3.6910 N   0  0  0  0  0
    4.8430   -7.4100    3.0940 C   0  0  0  0  0
    5.6360   -8.5220    2.9870 N   0  0  0  0  0
    4.9200   -9.5380    3.5330 C   0  0  0  0  0
    5.1080  -10.9550    3.7550 C   0  0  0  0  0
    6.2770  -11.5080    3.3790 N   0  0  0  0  0
    4.1190  -11.6740    4.3680 N   0  0  0  0  0
    2.9750  -11.1190    4.7900 C   0  0  0  0  0
    2.7320   -9.8050    4.6000 N   0  0  0  0  0
    3.6330   -9.0070    3.9920 C   0  0  0  0  0
    0.0425   -1.1082   -1.5750 H   0  0  0  0  0
    1.2062    0.8835   -0.6618 H   0  0  0  0  0
    0.3388   -3.1177   -1.0918 H   0  0  0  0  0
    1.5041   -2.7614    2.8610 H   0  0  0  0  0
    3.0681   -3.5543    2.5244 H   0  0  0  0  0
    0.5115   -4.8264    3.4675 H   0  0  0  0  0
    2.5338   -3.7030    5.0425 H   0  0  0  0  0
    1.4336   -4.8188    6.7037 H   0  0  0  0  0
    4.1285   -5.5057    4.8612 H   0  0  0  0  0
    3.8346   -7.0926    6.3284 H   0  0  0  0  0
    1.7284   -7.4292    4.3497 H   0  0  0  0  0
    5.1209   -6.4141    2.7489 H   0  0  0  0  0
    7.0002  -10.9301    2.9507 H   0  0  0  0  0
    6.4392  -12.5047    3.5225 H   0  0  0  0  0
    2.2310  -11.7365    5.2932 H   0  0  0  0  0
  1  2  1  0  0  0
  1  3  1  0  0  0
  1  4  2  0  0  0
  8  1  1  0  0  0
  5  6  1  0  0  0
  5  7  2  0  0  0
  5  8  1  0  0  0
  5  9  1  0  0  0
  9 10  1  0  0  0
 10 11  1  0  0  0
 11 12  1  0  0  0
 11 13  1  0  0  0
 12 17  1  0  0  0
 13 14  1  0  0  0
 13 15  1  0  0  0
 15 16  1  0  0  0
 15 17  1  0  0  0
 17 18  1  0  0  0
 18 19  4  0  0  0
 18 27  4  0  0  0
 19 20  4  0  0  0
 20 21  4  0  0  0
 21 22  4  0  0  0
 21 27  4  0  0  0
 22 23  1  0  0  0
 22 24  4  0  0  0
 24 25  4  0  0  0
 25 26  4  0  0  0
 26 27  4  0  0  0
  2 28  1  0  0  0
  3 29  1  0  0  0
  6 30  1  0  0  0
 10 31  1  0  0  0
 10 32  1  0  0  0
 11 33  1  0  0  0
 13 34  1  0  0  0
 14 35  1  0  0  0
 15 36  1  0  0  0
 16 37  1  0  0  0
 17 38  1  0  0  0
 19 39  1  0  0  0
 23 40  1  0  0  0
 23 41  1  0  0  0
 25 42  1  0  0  0
M  END
$$$$
