4x6x_ligand
  -I-interpret- 

 68 72  0  0  0  0  0  0  0  0999 V2000
   -6.4970    8.4760   27.1060 C   0  0  0  0  0
   -1.8310   11.1250   30.1020 C   0  0  0  0  0
   -6.5890    8.1580   28.4390 C   0  0  0  0  0
   -5.4010    8.0580   26.3910 C   0  0  0  0  0
   -2.0410   10.6030   28.8480 C   0  0  0  0  0
   -1.7470   10.2720   31.1780 C   0  0  0  0  0
   -5.5950    7.4270   29.0520 C   0  0  0  0  0
   -4.4140    7.3290   27.0150 C   0  0  0  0  0
   -2.1690    9.2430   28.6830 C   0  0  0  0  0
   -1.8840    8.9120   31.0030 C   0  0  0  0  0
   -2.5760   -0.1180   38.2940 C   0  0  0  0  0
   -1.0520    1.5870   38.9260 C   0  0  0  0  0
   -2.4970    0.2870   36.9790 C   0  0  0  0  0
   -0.9690    1.9920   37.6130 C   0  0  0  0  0
   -4.4890    7.0020   28.3520 C   0  0  0  0  0
   -2.1000    8.3750   29.7520 C   0  0  0  0  0
   -1.8550    0.5300   39.2730 C   0  0  0  0  0
   -1.6840    1.3500   36.6300 C   0  0  0  0  0
   -3.2360   -0.0100   42.6770 C   0  0  0  0  0
   -3.6040    4.2090   31.8230 C   0  0  0  0  0
   -3.5260    1.3290   34.0890 C   0  0  0  0  0
   -1.3180    1.4130   33.0250 C   0  0  0  0  0
   -3.7680    2.7700   33.7520 C   0  0  0  0  0
   -1.6800    2.7730   32.4670 C   0  0  0  0  0
   -3.3990    6.2210   28.9550 C   0  0  0  0  0
   -2.2240    6.9170   29.5740 C   0  0  0  0  0
   -3.1850    6.1750   30.4410 C   0  0  0  0  0
   -2.0530    1.0610   34.2990 C   0  0  0  0  0
   -1.9350    0.0940   40.6980 C   0  0  0  0  0
   -3.3650    0.2000   41.1790 C   0  0  0  0  0
   -3.0720    3.1520   32.5510 N   0  0  0  0  0
   -2.7340    4.9910   31.0900 N   0  0  0  0  0
   -2.7360   -1.1100   43.0450 O   0  0  0  0  0
   -3.6660    0.9460   43.3750 O   0  0  0  0  0
   -4.8040    4.4440   31.8380 O   0  0  0  0  0
   -1.5110    1.8680   35.3410 O   0  0  0  0  0
   -7.2843    9.0532   26.6212 H   0  0  0  0  0
   -1.7322   12.2014   30.2422 H   0  0  0  0  0
   -7.4539    8.4861   29.0156 H   0  0  0  0  0
   -5.3131    8.3029   25.3325 H   0  0  0  0  0
   -2.1061   11.2657   27.9851 H   0  0  0  0  0
   -1.5709   10.6745   32.1755 H   0  0  0  0  0
   -5.6862    7.1810   30.1099 H   0  0  0  0  0
   -3.5502    7.0016   26.4365 H   0  0  0  0  0
   -2.3289    8.8418   27.6822 H   0  0  0  0  0
   -1.8206    8.2507   31.8672 H   0  0  0  0  0
   -3.2152   -0.9592   38.5621 H   0  0  0  0  0
   -0.4780    2.1077   39.6925 H   0  0  0  0  0
   -3.0755   -0.2306   36.2138 H   0  0  0  0  0
   -0.3277    2.8330   37.3492 H   0  0  0  0  0
   -3.8789    0.7127   33.2621 H   0  0  0  0  0
   -4.0592    1.0911   35.0094 H   0  0  0  0  0
   -0.2533    1.4300   33.2579 H   0  0  0  0  0
   -1.5923    0.6705   32.2756 H   0  0  0  0  0
   -3.4021    3.3843   34.5747 H   0  0  0  0  0
   -4.8368    2.9139   33.5936 H   0  0  0  0  0
   -1.4393    2.7381   31.4045 H   0  0  0  0  0
   -1.1314    3.5012   33.0644 H   0  0  0  0  0
   -3.5433    5.4678   28.1805 H   0  0  0  0  0
   -1.1586    6.8951   29.3448 H   0  0  0  0  0
   -3.8151    6.4089   31.2991 H   0  0  0  0  0
   -1.9369    0.0111   34.5680 H   0  0  0  0  0
   -1.2980    0.7331   41.3095 H   0  0  0  0  0
   -1.5999   -0.9399   40.7807 H   0  0  0  0  0
   -3.8276    1.1534   40.9238 H   0  0  0  0  0
   -4.0256   -0.5262   40.7053 H   0  0  0  0  0
   -1.7546    4.7167   31.0124 H   0  0  0  0  0
   -2.5041   -1.6295   42.2717 H   0  0  0  0  0
  3  1  4  0  0  0
  4  1  4  0  0  0
  5  2  4  0  0  0
  6  2  4  0  0  0
  7  3  4  0  0  0
  8  4  4  0  0  0
  9  5  4  0  0  0
 10  6  4  0  0  0
 15  7  4  0  0  0
 15  8  4  0  0  0
 16  9  4  0  0  0
 16 10  4  0  0  0
 11 13  4  0  0  0
 17 11  4  0  0  0
 12 14  4  0  0  0
 17 12  4  0  0  0
 13 18  4  0  0  0
 14 18  4  0  0  0
 25 15  1  0  0  0
 26 16  1  0  0  0
 29 17  1  0  0  0
 18 36  1  0  0  0
 30 19  1  0  0  0
 19 33  1  0  0  0
 19 34  2  0  0  0
 31 20  1  0  0  0
 20 32  1  0  0  0
 20 35  2  0  0  0
 21 23  1  0  0  0
 28 21  1  0  0  0
 22 24  1  0  0  0
 28 22  1  0  0  0
 23 31  1  0  0  0
 24 31  1  0  0  0
 26 25  1  0  0  0
 27 25  1  0  0  0
 27 26  1  0  0  0
 32 27  1  0  0  0
 36 28  1  0  0  0
 29 30  1  0  0  0
  1 37  1  0  0  0
  2 38  1  0  0  0
  3 39  1  0  0  0
  4 40  1  0  0  0
  5 41  1  0  0  0
  6 42  1  0  0  0
  7 43  1  0  0  0
  8 44  1  0  0  0
  9 45  1  0  0  0
 10 46  1  0  0  0
 11 47  1  0  0  0
 12 48  1  0  0  0
 13 49  1  0  0  0
 14 50  1  0  0  0
 21 51  1  0  0  0
 21 52  1  0  0  0
 22 53  1  0  0  0
 22 54  1  0  0  0
 23 55  1  0  0  0
 23 56  1  0  0  0
 24 57  1  0  0  0
 24 58  1  0  0  0
 25 59  1  0  0  0
 26 60  1  0  0  0
 27 61  1  0  0  0
 28 62  1  0  0  0
 29 63  1  0  0  0
 29 64  1  0  0  0
 30 65  1  0  0  0
 30 66  1  0  0  0
 32 67  1  0  0  0
 33 68  1  0  0  0
M  END
$$$$
