### 
### Created by X-TOOL on Wed Jan  1 15:39:36 2020
### 

@<TRIPOS>MOLECULE
5nxx_ligand
   19    18     1     0     0
SMALL
GAST_HUCK


@<TRIPOS>ATOM
      1 C2        -12.9660   -3.2470  -45.1000 C.3       1 3Q7        -0.3603
      2 O2        -17.3000   -4.2660  -43.5180 O.co2     1 3Q7        -0.8217
      3 C         -16.0860   -4.4460  -43.7700 C.2       1 3Q7        -0.2745
      4 O1        -15.1930   -4.1100  -42.9670 O.co2     1 3Q7        -0.8217
      5 CA        -15.6750   -5.1050  -45.0710 C.3       1 3Q7        -0.1123
      6 AS        -13.7470   -5.0400  -45.3950 As        1 3Q7         4.0000
      7 C3        -12.9330   -6.3590  -44.1840 C.3       1 3Q7        -0.3603
      8 C1        -13.4880   -5.3540  -47.3010 C.3       1 3Q7        -0.3603
      9 H1        -11.8818   -3.2101  -45.2821 H         1 3Q7        -0.2132
     10 H2        -13.5021   -2.9871  -46.0247 H         1 3Q7        -0.2132
     11 H3        -13.2295   -2.5292  -44.3092 H         1 3Q7        -0.2132
     12 H5        -15.9962   -6.1570  -45.0666 H         1 3Q7         0.0150
     13 H7        -16.1492   -4.5804  -45.9135 H         1 3Q7         0.0150
     14 H8        -11.8379   -6.4309  -44.2591 H         1 3Q7        -0.2132
     15 H10       -13.2000   -5.6050  -43.4289 H         1 3Q7        -0.2132
     16 H11       -13.3452   -7.3352  -43.8890 H         1 3Q7        -0.2132
     17 H12       -14.0416   -4.4780  -47.6700 H         1 3Q7        -0.2132
     18 H13       -14.1887   -6.0582  -46.8287 H         1 3Q7        -0.2132
     19 H15       -12.9820   -5.8493  -48.1428 H         1 3Q7        -0.2132
@<TRIPOS>BOND
     1    6    1 1  
     2    3    2 ar 
     3    3    4 ar 
     4    5    3 1  
     5    5    6 1  
     6    6    7 1  
     7    6    8 1  
     8    1    9 1  
     9    1   10 1  
    10    1   11 1  
    11    5   12 1  
    12    5   13 1  
    13    7   14 1  
    14    7   15 1  
    15    7   16 1  
    16    8   17 1  
    17    8   18 1  
    18    8   19 1  
@<TRIPOS>SUBSTRUCTURE
     1 3Q7         1

