5nxx_ligand
  -I-interpret- 

 20 19  0  0  0  0  0  0  0  0999 V2000
  -12.9660   -3.2470  -45.1000 C   0  0  0  0  0
  -17.3000   -4.2660  -43.5180 O   0  0  0  0  0
  -16.0860   -4.4460  -43.7700 C   0  0  0  0  0
  -15.1930   -4.1100  -42.9670 O   0  0  0  0  0
  -15.6750   -5.1050  -45.0710 C   0  0  0  0  0
  -13.7470   -5.0400  -45.3950 As  0  0  0  0  0
  -12.9330   -6.3590  -44.1840 C   0  0  0  0  0
  -13.4880   -5.3540  -47.3010 C   0  0  0  0  0
  -13.1454   -2.9389  -44.0699 H   0  0  0  0  0
  -11.8929   -3.2841  -45.2878 H   0  0  0  0  0
  -13.4307   -2.5333  -45.7802 H   0  0  0  0  0
  -17.8291   -4.5874  -44.2518 H   0  0  0  0  0
  -16.1640   -4.5660  -45.8824 H   0  0  0  0  0
  -15.9647   -6.1543  -45.0149 H   0  0  0  0  0
  -13.3514   -7.3446  -44.3882 H   0  0  0  0  0
  -11.8550   -6.3803  -44.3437 H   0  0  0  0  0
  -13.1432   -6.0805  -43.1513 H   0  0  0  0  0
  -12.4215   -5.3543  -47.5262 H   0  0  0  0  0
  -13.9179   -6.3186  -47.5707 H   0  0  0  0  0
  -13.9802   -4.5640  -47.8682 H   0  0  0  0  0
  6  1  1  0  0  0
  3  2  1  0  0  0
  3  4  2  0  0  0
  5  3  1  0  0  0
  5  6  1  0  0  0
  6  7  1  0  0  0
  6  8  1  0  0  0
  1  9  1  0  0  0
  1 10  1  0  0  0
  1 11  1  0  0  0
  2 12  1  0  0  0
  5 13  1  0  0  0
  5 14  1  0  0  0
  7 15  1  0  0  0
  7 16  1  0  0  0
  7 17  1  0  0  0
  8 18  1  0  0  0
  8 19  1  0  0  0
  8 20  1  0  0  0
M  END
$$$$
