1fh8_ligand
  -I-interpret- 

 37 38  0  0  0  0  0  0  0  0999 V2000
  -62.5840   16.9810   57.3620 C   0  0  0  0  0
  -61.5230   16.8090   58.4660 C   0  0  0  0  0
  -60.9540   15.3920   58.4700 C   0  0  0  0  0
  -62.0830   14.3440   58.4220 C   0  0  0  0  0
  -63.0670   14.6550   57.2980 C   0  0  0  0  0
  -60.4710   17.7510   58.2810 O   0  0  0  0  0
  -60.1920   15.1950   59.6520 O   0  0  0  0  0
  -61.5430   13.0350   58.2460 O   0  0  0  0  0
  -63.6040   15.9790   57.4720 O   0  0  0  0  0
  -65.0070   20.4660   54.4730 N   0  3  0  0  0
  -65.9520   19.9430   55.5110 C   0  0  0  0  0
  -65.0790   19.5820   56.7600 C   0  0  0  0  0
  -65.8800   19.0610   57.8140 O   0  0  0  0  0
  -63.9760   18.5830   56.3350 C   0  0  0  0  0
  -63.2060   18.2750   57.4890 O   0  0  0  0  0
  -63.1180   19.1780   55.2020 C   0  0  0  0  0
  -64.0450   19.4720   54.0610 C   0  0  0  0  0
  -62.0866   16.8853   56.3969 H   0  0  0  0  0
  -62.0048   16.9856   59.4277 H   0  0  0  0  0
  -60.3257   15.2713   57.5875 H   0  0  0  0  0
  -62.6170   14.3824   59.3715 H   0  0  0  0  0
  -63.8809   13.9303   57.3209 H   0  0  0  0  0
  -62.5494   14.5992   56.3404 H   0  0  0  0  0
  -60.8350   18.6393   58.2794 H   0  0  0  0  0
  -59.4864   15.8449   59.6885 H   0  0  0  0  0
  -60.9253   12.8467   58.9564 H   0  0  0  0  0
  -65.5527   20.7376   53.6552 H   0  0  0  0  0
  -64.4977   21.2529   54.8752 H   0  0  0  0  0
  -66.4917   19.0697   55.1448 H   0  0  0  0  0
  -66.7076   20.6871   55.7632 H   0  0  0  0  0
  -64.6069   20.4865   57.1436 H   0  0  0  0  0
  -65.3205   18.8489   58.5647 H   0  0  0  0  0
  -64.4108   17.6651   55.9393 H   0  0  0  0  0
  -62.3405   18.4774   54.8975 H   0  0  0  0  0
  -62.6146   20.0858   55.5346 H   0  0  0  0  0
  -63.4725   19.8473   53.2128 H   0  0  0  0  0
  -64.5649   18.5597   53.7685 H   0  0  0  0  0
  1  9  1  0  0  0
  1  2  1  0  0  0
  2  6  1  0  0  0
  2  3  1  0  0  0
  3  7  1  0  0  0
  3  4  1  0  0  0
  4  8  1  0  0  0
  5  4  1  0  0  0
  9  5  1  0  0  0
 17 10  1  0  0  0
 11 10  1  0  0  0
 12 11  1  0  0  0
 14 12  1  0  0  0
 12 13  1  0  0  0
 14 16  1  0  0  0
 15 14  1  0  0  0
 16 17  1  0  0  0
 15  1  1  0  0  0
  1 18  1  0  0  0
  2 19  1  0  0  0
  3 20  1  0  0  0
  4 21  1  0  0  0
  5 22  1  0  0  0
  5 23  1  0  0  0
  6 24  1  0  0  0
  7 25  1  0  0  0
  8 26  1  0  0  0
 10 27  1  0  0  0
 10 28  1  0  0  0
 11 29  1  0  0  0
 11 30  1  0  0  0
 12 31  1  0  0  0
 13 32  1  0  0  0
 14 33  1  0  0  0
 16 34  1  0  0  0
 16 35  1  0  0  0
 17 36  1  0  0  0
 17 37  1  0  0  0
M  END
$$$$
