5y0f_ligand
  -I-interpret- 

 40 42  0  0  0  0  0  0  0  0999 V2000
    3.4420   -6.1170  -20.4100 C   0  0  0  0  0
    7.1670   -6.5370  -16.4190 C   0  0  0  0  0
    4.4120   -6.4800  -21.3930 C   0  0  0  0  0
    5.2580   -7.5970  -21.1330 C   0  0  0  0  0
    1.8800   -4.4690  -19.6800 C   0  0  0  0  0
    4.5580   -5.7770  -22.6130 C   0  0  0  0  0
    5.5010   -6.1700  -23.5220 C   0  0  0  0  0
    6.3410   -7.2670  -23.2670 C   0  0  0  0  0
    6.2230   -7.9690  -22.1040 C   0  0  0  0  0
    7.8530   -8.0020  -18.2200 C   0  0  0  0  0
    6.9070   -7.6120  -17.2680 C   0  0  0  0  0
    7.5820   -9.0730  -19.1180 N   0  0  0  0  0
    3.3330   -6.8070  -19.2310 C   0  0  0  0  0
    5.0900   -8.3010  -19.8980 C   0  0  0  0  0
    8.3830   -5.8960  -16.5500 C   0  0  0  0  0
    9.3270   -6.2570  -17.4830 C   0  0  0  0  0
    9.0510   -7.3180  -18.3310 C   0  0  0  0  0
    6.1380   -6.1040  -15.4010 C   0  0  0  0  0
    4.1600   -7.9070  -18.9720 C   0  0  0  0  0
    8.6760   -4.8560  -15.7330 F   0  0  0  0  0
    2.6830   -5.0240  -20.7240 O   0  0  0  0  0
    6.2550  -10.5760  -20.5510 O   0  0  0  0  0
    5.5870  -10.2260  -18.2220 O   0  0  0  0  0
    6.0540   -4.8860  -15.1420 O   0  0  0  0  0
    5.4160   -6.9750  -14.8830 O   0  0  0  0  0
    6.1030   -9.6820  -19.4410 S   0  0  0  0  0
    1.1767   -5.2222  -19.3248 H   0  0  0  0  0
    2.5224   -4.1536  -18.8579 H   0  0  0  0  0
    1.3306   -3.6094  -20.0639 H   0  0  0  0  0
    3.9179   -4.9213  -22.8281 H   0  0  0  0  0
    5.6026   -5.6234  -24.4595 H   0  0  0  0  0
    7.0908   -7.5584  -24.0026 H   0  0  0  0  0
    6.8752   -8.8226  -21.9190 H   0  0  0  0  0
    5.9625   -8.1502  -17.1890 H   0  0  0  0  0
    8.3771   -9.4939  -19.5986 H   0  0  0  0  0
    2.5969   -6.4972  -18.4891 H   0  0  0  0  0
   10.2727   -5.7197  -17.5540 H   0  0  0  0  0
    9.7787   -7.6142  -19.0866 H   0  0  0  0  0
    4.0638   -8.4507  -18.0322 H   0  0  0  0  0
    6.7065   -4.4049  -15.6562 H   0  0  0  0  0
  3  1  4  0  0  0
 13  1  4  0  0  0
  1 21  1  0  0  0
 11  2  4  0  0  0
  2 15  4  0  0  0
  2 18  1  0  0  0
  4  3  4  0  0  0
  3  6  4  0  0  0
  4  9  4  0  0  0
 14  4  4  0  0  0
 21  5  1  0  0  0
  6  7  4  0  0  0
  8  7  4  0  0  0
  9  8  4  0  0  0
 10 11  4  0  0  0
 12 10  1  0  0  0
 10 17  4  0  0  0
 26 12  1  0  0  0
 19 13  4  0  0  0
 14 19  4  0  0  0
 14 26  1  0  0  0
 15 16  4  0  0  0
 15 20  1  0  0  0
 16 17  4  0  0  0
 18 24  1  0  0  0
 18 25  2  0  0  0
 26 22  2  0  0  0
 26 23  2  0  0  0
  5 27  1  0  0  0
  5 28  1  0  0  0
  5 29  1  0  0  0
  6 30  1  0  0  0
  7 31  1  0  0  0
  8 32  1  0  0  0
  9 33  1  0  0  0
 11 34  1  0  0  0
 12 35  1  0  0  0
 13 36  1  0  0  0
 16 37  1  0  0  0
 17 38  1  0  0  0
 19 39  1  0  0  0
 24 40  1  0  0  0
M  END
$$$$
