3lnj_ligand
  -I-interpret- 

210212  0  0  0  0  0  0  0  0999 V2000
    2.2580  -52.1520    6.3310 N   0  3  0  0  0
    2.6410  -50.7360    6.2880 C   0  0  0  0  0
    1.5800  -50.0400    5.4310 C   0  0  0  0  0
    1.6800  -48.8050    5.2450 O   0  0  0  0  0
    2.6420  -50.1960    7.7330 C   0  0  0  0  0
    3.6050  -50.9480    8.7070 C   0  0  0  0  0
    4.4830  -50.3150    9.3050 O   0  0  0  0  0
    3.3690  -52.2790    8.9040 N   0  0  0  0  0
    1.8870  -50.7360    4.2210 N   0  3  0  0  0
    2.1150  -50.2440    2.8330 C   0  0  0  0  0
    2.5750  -51.3650    1.8280 C   0  0  0  0  0
    4.0750  -51.7170    1.9110 C   0  0  0  0  0
    4.5640  -52.7240    2.6580 C   0  0  0  0  0
    5.8920  -52.7970    2.5290 N   0  0  0  0  0
    6.3140  -51.8380    1.6850 C   0  0  0  0  0
    7.5930  -51.4760    1.2320 C   0  0  0  0  0
    7.7440  -50.4220    0.3170 C   0  0  0  0  0
    6.6080  -49.7190   -0.1300 C   0  0  0  0  0
    5.3280  -50.0740    0.3320 C   0  0  0  0  0
    5.1680  -51.1410    1.2460 C   0  0  0  0  0
    3.1140  -49.0400    2.8290 C   0  0  0  0  0
    3.1920  -48.4480    1.7010 O   0  0  0  0  0
    4.0870  -48.9660    3.6870 N   0  0  0  0  0
    5.2060  -48.0990    3.1880 C   0  0  0  0  0
    5.0590  -46.6730    3.7320 C   0  0  0  0  0
    6.1150  -46.0640    4.0590 O   0  0  0  0  0
    6.6190  -48.6850    3.4940 C   0  0  0  0  0
    6.6940  -49.2390    4.9290 C   0  0  0  0  0
    6.5040  -50.6080    5.1520 C   0  0  0  0  0
    6.9910  -48.4000    5.9880 C   0  0  0  0  0
    6.5330  -51.1310    6.4270 C   0  0  0  0  0
    7.0430  -48.9460    7.2730 C   0  0  0  0  0
    6.8200  -50.2890    7.4750 C   0  0  0  0  0
    6.8940  -50.8020    8.7160 O   0  0  0  0  0
    4.1770  -46.5990    4.6320 N   0  3  0  0  0
    3.8870  -45.4190    5.5040 C   0  0  0  0  0
    2.5540  -45.5530    6.2510 C   0  0  0  0  0
    3.7610  -44.1830    4.6600 C   0  0  0  0  0
    4.3340  -43.2310    5.1800 O   0  0  0  0  0
    3.2830  -43.9000    3.5180 N   0  0  0  0  0
    3.4890  -42.8310    2.5300 C   0  0  0  0  0
    4.9770  -42.7280    2.1440 C   0  0  0  0  0
    5.4510  -41.5690    2.3200 O   0  0  0  0  0
    2.6150  -42.8980    1.2280 C   0  0  0  0  0
    2.3890  -41.4330    0.8000 C   0  0  0  0  0
    2.5690  -41.0450   -0.3760 O   0  0  0  0  0
    2.0760  -40.6310    1.8440 N   0  0  0  0  0
    5.5140  -43.8080    1.7030 N   0  0  0  0  0
    6.9770  -43.8700    1.3700 C   0  0  0  0  0
    7.4670  -45.2920    1.2260 C   0  0  0  0  0
    8.3490  -45.5140   -0.0240 C   0  0  0  0  0
    9.2240  -44.3920   -0.5010 C   0  0  0  0  0
    9.1980  -46.7740    0.1120 C   0  0  0  0  0
    7.8340  -43.2400    2.5270 C   0  0  0  0  0
    8.5740  -42.2880    2.1840 O   0  0  0  0  0
    7.7780  -43.6820    3.7200 N   0  0  0  0  0
    8.5390  -43.0730    4.8740 C   0  0  0  0  0
    8.1510  -41.6000    5.0970 C   0  0  0  0  0
    9.1440  -40.8600    5.1000 O   0  0  0  0  0
    8.2620  -43.7630    6.2090 C   0  0  0  0  0
    8.8550  -45.1200    6.0740 C   0  0  0  0  0
   10.0430  -45.2970    7.0290 C   0  0  0  0  0
    9.8320  -46.1240    7.9710 O   0  0  0  0  0
   11.1300  -44.7110    6.7480 O   0  0  0  0  0
    7.0050  -41.1450    4.8230 N   0  0  0  0  0
    6.5560  -39.7850    5.1030 C   0  0  0  0  0
    7.1100  -38.9570    3.9610 C   0  0  0  0  0
    8.0830  -38.3020    4.3350 O   0  0  0  0  0
    4.9920  -39.6230    5.3140 C   0  0  0  0  0
    4.5820  -38.1490    5.4810 C   0  0  0  0  0
    3.0740  -37.8740    5.8380 C   0  0  0  0  0
    2.3150  -39.0120    6.6460 C   0  0  0  0  0
    1.9240  -38.5820    8.0330 N   0  3  0  0  0
    7.2650  -39.4490    2.7780 N   0  0  0  0  0
    8.0010  -38.7720    1.6680 C   0  0  0  0  0
    7.7400  -39.3080    0.2290 C   0  0  0  0  0
    6.2320  -39.4920   -0.0690 C   0  0  0  0  0
    5.4050  -38.2050    0.1460 C   0  0  0  0  0
    5.9780  -40.0890   -1.4700 C   0  0  0  0  0
    9.5140  -38.8810    1.9410 C   0  0  0  0  0
   10.2140  -37.9280    1.5710 O   0  0  0  0  0
    9.9760  -39.9640    2.4040 N   0  0  0  0  0
   11.4310  -40.0640    2.4430 C   0  0  0  0  0
   11.8180  -41.4920    2.8640 C   0  0  0  0  0
   11.9200  -42.5020    1.6980 C   0  0  0  0  0
   13.2140  -42.3640    0.8550 C   0  0  0  0  0
   11.8190  -43.8640    2.3030 C   0  0  0  0  0
   11.9690  -38.9820    3.4840 C   0  0  0  0  0
   12.9730  -38.3130    3.1110 O   0  0  0  0  0
   11.2660  -38.7420    4.5470 N   0  0  0  0  0
   11.4850  -37.8190    5.6990 C   0  0  0  0  0
   10.4090  -37.9480    6.7680 C   0  0  0  0  0
   10.6590  -39.1310    7.6860 C   0  0  0  0  0
    9.4150  -39.3140    8.5510 C   0  0  0  0  0
    9.7070  -39.8770    9.8910 N   0  0  0  0  0
   10.3100  -39.2270   10.9260 C   0  0  0  0  0
   10.8220  -37.9870   10.8150 N   0  0  0  0  0
   10.4060  -39.8710   12.1020 N   0  0  0  0  0
   11.4690  -36.3650    5.2230 C   0  0  0  0  0
   12.1840  -35.5440    5.7520 O   0  0  0  0  0
   10.8000  -35.9080    4.3040 O   0  0  0  0  0
    2.2509  -52.5300    5.3836 H   0  0  0  0  0
    2.9301  -52.6677    6.8991 H   0  0  0  0  0
    1.3277  -52.2391    6.7400 H   0  0  0  0  0
    3.6319  -50.5694    5.8656 H   0  0  0  0  0
    0.5835  -50.0846    5.8703 H   0  0  0  0  0
    1.4730  -48.3420    6.0601 H   0  0  0  0  0
    1.6318  -50.3247    8.1217 H   0  0  0  0  0
    2.9811  -49.1612    7.6859 H   0  0  0  0  0
    3.9319  -52.8031    9.5740 H   0  0  0  0  0
    2.6299  -52.7488    8.3811 H   0  0  0  0  0
    1.0109  -51.2401    4.0842 H   0  0  0  0  0
    2.8262  -51.0654    4.4443 H   0  0  0  0  0
    1.1449  -49.9039    2.4707 H   0  0  0  0  0
    2.3893  -50.9891    0.8219 H   0  0  0  0  0
    2.0195  -52.2684    2.0796 H   0  0  0  0  0
    3.9620  -53.3863    3.2802 H   0  0  0  0  0
    8.4700  -52.0143    1.5914 H   0  0  0  0  0
    8.7350  -50.1490   -0.0456 H   0  0  0  0  0
    6.7215  -48.8968   -0.8366 H   0  0  0  0  0
    4.4542  -49.5234   -0.0165 H   0  0  0  0  0
    4.0900  -49.4398    4.5903 H   0  0  0  0  0
    5.1268  -48.0704    2.1013 H   0  0  0  0  0
    4.7263  -46.1197    2.8538 H   0  0  0  0  0
    5.8910  -45.1881    4.3818 H   0  0  0  0  0
    7.3558  -47.8885    3.3898 H   0  0  0  0  0
    6.8164  -49.4989    2.7963 H   0  0  0  0  0
    6.3304  -51.2707    4.3041 H   0  0  0  0  0
    7.1798  -47.3391    5.8240 H   0  0  0  0  0
    6.3329  -52.1884    6.6003 H   0  0  0  0  0
    7.2625  -48.3017    8.1243 H   0  0  0  0  0
    7.0999  -50.1012    9.3390 H   0  0  0  0  0
    4.5201  -47.2774    5.3120 H   0  0  0  0  0
    3.3189  -46.6655    4.0845 H   0  0  0  0  0
    4.7095  -45.3611    6.2170 H   0  0  0  0  0
    1.7423  -45.6450    5.5294 H   0  0  0  0  0
    2.5813  -46.4399    6.8841 H   0  0  0  0  0
    2.3945  -44.6690    6.8685 H   0  0  0  0  0
    2.5868  -44.5797    3.2118 H   0  0  0  0  0
    3.1467  -41.9360    3.0495 H   0  0  0  0  0
    1.6696  -43.4090    1.4101 H   0  0  0  0  0
    3.1131  -43.4685    0.4441 H   0  0  0  0  0
    1.9698  -39.6266    1.7016 H   0  0  0  0  0
    1.9462  -41.0309    2.7733 H   0  0  0  0  0
    4.9362  -44.6390    1.5766 H   0  0  0  0  0
    7.0908  -43.3272    0.4316 H   0  0  0  0  0
    6.5909  -45.9330    1.1279 H   0  0  0  0  0
    8.0747  -45.5203    2.1016 H   0  0  0  0  0
    7.5880  -45.6013   -0.7995 H   0  0  0  0  0
    8.6044  -43.5305   -0.7502 H   0  0  0  0  0
    9.9262  -44.1203    0.2872 H   0  0  0  0  0
    9.7747  -44.7131   -1.3852 H   0  0  0  0  0
    9.8472  -46.6809    0.9826 H   0  0  0  0  0
    8.5457  -47.6386    0.2344 H   0  0  0  0  0
    9.8056  -46.8996   -0.7842 H   0  0  0  0  0
    7.1867  -44.4919    3.9066 H   0  0  0  0  0
    9.5851  -43.1870    4.5899 H   0  0  0  0  0
    7.1946  -43.8092    6.4250 H   0  0  0  0  0
    8.6971  -43.2143    7.0443 H   0  0  0  0  0
    9.2066  -45.2483    5.0503 H   0  0  0  0  0
    8.0942  -45.8607    6.3204 H   0  0  0  0  0
    8.9153  -46.4081    7.9466 H   0  0  0  0  0
    6.3430  -41.7762    4.3717 H   0  0  0  0  0
    6.9282  -39.4475    6.0703 H   0  0  0  0  0
    4.7133  -40.1591    6.2212 H   0  0  0  0  0
    4.4865  -40.0196    4.4335 H   0  0  0  0  0
    4.7535  -37.6771    4.5135 H   0  0  0  0  0
    5.1645  -37.7674    6.3195 H   0  0  0  0  0
    2.5515  -37.7815    4.8859 H   0  0  0  0  0
    3.0729  -36.9953    6.4830 H   0  0  0  0  0
    2.9908  -39.8622    6.7387 H   0  0  0  0  0
    1.4019  -39.2543    6.1023 H   0  0  0  0  0
    1.4426  -39.3490    8.5024 H   0  0  0  0  0
    2.7614  -38.3320    8.5589 H   0  0  0  0  0
    1.3037  -37.7743    7.9751 H   0  0  0  0  0
    6.8565  -40.3640    2.5875 H   0  0  0  0  0
    7.6225  -37.7499    1.6724 H   0  0  0  0  0
    8.2223  -40.2814    0.1395 H   0  0  0  0  0
    8.1368  -38.5801   -0.4787 H   0  0  0  0  0
    5.8812  -40.2150    0.6674 H   0  0  0  0  0
    5.4984  -37.8837    1.1834 H   0  0  0  0  0
    5.7773  -37.4210   -0.5135 H   0  0  0  0  0
    4.3578  -38.4054   -0.0807 H   0  0  0  0  0
    6.3930  -39.4241   -2.2275 H   0  0  0  0  0
    6.4573  -41.0655   -1.5398 H   0  0  0  0  0
    4.9050  -40.1974   -1.6283 H   0  0  0  0  0
    9.3707  -40.7180    2.7288 H   0  0  0  0  0
   11.8741  -39.8672    1.4668 H   0  0  0  0  0
   11.0322  -41.8516    3.5283 H   0  0  0  0  0
   12.8062  -41.4322    3.3202 H   0  0  0  0  0
   11.1142  -42.3071    0.9904 H   0  0  0  0  0
   13.2585  -41.3652    0.4209 H   0  0  0  0  0
   14.0818  -42.5223    1.4953 H   0  0  0  0  0
   13.2081  -43.1079    0.0583 H   0  0  0  0  0
   12.6336  -44.0060    3.0132 H   0  0  0  0  0
   10.8640  -43.9609    2.8194 H   0  0  0  0  0
   11.8860  -44.6155    1.5163 H   0  0  0  0  0
   10.4042  -39.2843    4.6067 H   0  0  0  0  0
   12.4499  -38.0949    6.1243 H   0  0  0  0  0
    9.4507  -38.0987    6.2709 H   0  0  0  0  0
   10.4173  -37.0403    7.3715 H   0  0  0  0  0
   11.5335  -38.9496    8.3108 H   0  0  0  0  0
   10.8524  -40.0311    7.1025 H   0  0  0  0  0
    8.7573  -40.0146    8.0365 H   0  0  0  0  0
    8.9695  -38.3301    8.6980 H   0  0  0  0  0
    9.4296  -40.8449   10.0542 H   0  0  0  0  0
   11.2752  -37.5487   11.6168 H   0  0  0  0  0
   10.7568  -37.4857    9.9291 H   0  0  0  0  0
   10.0337  -40.8157   12.1980 H   0  0  0  0  0
   10.2571  -36.6046    3.9277 H   0  0  0  0  0
  1  2  1  0  0  0
  2  3  1  0  0  0
  2  5  1  0  0  0
  3  4  1  0  0  0
  3  9  1  0  0  0
  5  6  1  0  0  0
  6  7  2  0  0  0
  6  8  1  0  0  0
  9 10  1  0  0  0
 10 11  1  0  0  0
 10 21  1  0  0  0
 11 12  1  0  0  0
 12 13  4  0  0  0
 12 20  4  0  0  0
 13 14  4  0  0  0
 14 15  4  0  0  0
 15 16  4  0  0  0
 15 20  4  0  0  0
 16 17  4  0  0  0
 17 18  4  0  0  0
 18 19  4  0  0  0
 19 20  4  0  0  0
 21 22  2  0  0  0
 21 23  1  0  0  0
 23 24  1  0  0  0
 24 25  1  0  0  0
 24 27  1  0  0  0
 25 26  1  0  0  0
 25 35  1  0  0  0
 27 28  1  0  0  0
 28 29  4  0  0  0
 28 30  4  0  0  0
 29 31  4  0  0  0
 30 32  4  0  0  0
 31 33  4  0  0  0
 32 33  4  0  0  0
 33 34  1  0  0  0
 35 36  1  0  0  0
 36 37  1  0  0  0
 36 38  1  0  0  0
 38 39  2  0  0  0
 38 40  1  0  0  0
 40 41  1  0  0  0
 41 42  1  0  0  0
 41 44  1  0  0  0
 42 43  2  0  0  0
 42 48  1  0  0  0
 44 45  1  0  0  0
 45 46  2  0  0  0
 45 47  1  0  0  0
 48 49  1  0  0  0
 49 50  1  0  0  0
 49 54  1  0  0  0
 50 51  1  0  0  0
 51 52  1  0  0  0
 51 53  1  0  0  0
 54 55  2  0  0  0
 54 56  1  0  0  0
 56 57  1  0  0  0
 57 58  1  0  0  0
 57 60  1  0  0  0
 58 59  2  0  0  0
 58 65  1  0  0  0
 60 61  1  0  0  0
 61 62  1  0  0  0
 62 63  1  0  0  0
 62 64  2  0  0  0
 65 66  1  0  0  0
 66 67  1  0  0  0
 66 69  1  0  0  0
 67 68  2  0  0  0
 67 74  1  0  0  0
 69 70  1  0  0  0
 70 71  1  0  0  0
 71 72  1  0  0  0
 72 73  1  0  0  0
 74 75  1  0  0  0
 75 76  1  0  0  0
 75 80  1  0  0  0
 76 77  1  0  0  0
 77 78  1  0  0  0
 77 79  1  0  0  0
 80 81  2  0  0  0
 80 82  1  0  0  0
 82 83  1  0  0  0
 83 84  1  0  0  0
 83 88  1  0  0  0
 84 85  1  0  0  0
 85 86  1  0  0  0
 85 87  1  0  0  0
 88 89  2  0  0  0
 88 90  1  0  0  0
 90 91  1  0  0  0
 91 92  1  0  0  0
 91 99  1  0  0  0
 92 93  1  0  0  0
 93 94  1  0  0  0
 94 95  1  0  0  0
 95 96  1  0  0  0
 96 97  1  0  0  0
 96 98  2  0  0  0
 99100  2  0  0  0
 99101  1  0  0  0
  1102  1  0  0  0
  1103  1  0  0  0
  1104  1  0  0  0
  2105  1  0  0  0
  3106  1  0  0  0
  4107  1  0  0  0
  5108  1  0  0  0
  5109  1  0  0  0
  8110  1  0  0  0
  8111  1  0  0  0
  9112  1  0  0  0
  9113  1  0  0  0
 10114  1  0  0  0
 11115  1  0  0  0
 11116  1  0  0  0
 13117  1  0  0  0
 16118  1  0  0  0
 17119  1  0  0  0
 18120  1  0  0  0
 19121  1  0  0  0
 23122  1  0  0  0
 24123  1  0  0  0
 25124  1  0  0  0
 26125  1  0  0  0
 27126  1  0  0  0
 27127  1  0  0  0
 29128  1  0  0  0
 30129  1  0  0  0
 31130  1  0  0  0
 32131  1  0  0  0
 34132  1  0  0  0
 35133  1  0  0  0
 35134  1  0  0  0
 36135  1  0  0  0
 37136  1  0  0  0
 37137  1  0  0  0
 37138  1  0  0  0
 40139  1  0  0  0
 41140  1  0  0  0
 44141  1  0  0  0
 44142  1  0  0  0
 47143  1  0  0  0
 47144  1  0  0  0
 48145  1  0  0  0
 49146  1  0  0  0
 50147  1  0  0  0
 50148  1  0  0  0
 51149  1  0  0  0
 52150  1  0  0  0
 52151  1  0  0  0
 52152  1  0  0  0
 53153  1  0  0  0
 53154  1  0  0  0
 53155  1  0  0  0
 56156  1  0  0  0
 57157  1  0  0  0
 60158  1  0  0  0
 60159  1  0  0  0
 61160  1  0  0  0
 61161  1  0  0  0
 63162  1  0  0  0
 65163  1  0  0  0
 66164  1  0  0  0
 69165  1  0  0  0
 69166  1  0  0  0
 70167  1  0  0  0
 70168  1  0  0  0
 71169  1  0  0  0
 71170  1  0  0  0
 72171  1  0  0  0
 72172  1  0  0  0
 73173  1  0  0  0
 73174  1  0  0  0
 73175  1  0  0  0
 74176  1  0  0  0
 75177  1  0  0  0
 76178  1  0  0  0
 76179  1  0  0  0
 77180  1  0  0  0
 78181  1  0  0  0
 78182  1  0  0  0
 78183  1  0  0  0
 79184  1  0  0  0
 79185  1  0  0  0
 79186  1  0  0  0
 82187  1  0  0  0
 83188  1  0  0  0
 84189  1  0  0  0
 84190  1  0  0  0
 85191  1  0  0  0
 86192  1  0  0  0
 86193  1  0  0  0
 86194  1  0  0  0
 87195  1  0  0  0
 87196  1  0  0  0
 87197  1  0  0  0
 90198  1  0  0  0
 91199  1  0  0  0
 92200  1  0  0  0
 92201  1  0  0  0
 93202  1  0  0  0
 93203  1  0  0  0
 94204  1  0  0  0
 94205  1  0  0  0
 95206  1  0  0  0
 97207  1  0  0  0
 97208  1  0  0  0
 98209  1  0  0  0
101210  1  0  0  0
M  END
$$$$
