### 
### Created by X-TOOL on Mon Sep 10 21:13:04 2018
### 

@<TRIPOS>MOLECULE
3lnj_ligand
  210   212     1     0     0
SMALL
GAST_HUCK


@<TRIPOS>ATOM
      1 N           2.2580  -52.1520    6.3310 N.4       1 DSG         0.2283
      2 CA          2.6410  -50.7360    6.2880 C.3       1 DSG         0.0628
      3 C           1.5800  -50.0400    5.4310 C.3       1 DSG         0.1281
      4 O           1.6800  -48.8050    5.2450 O.3       1 DSG        -0.3476
      5 CB          2.6420  -50.1960    7.7330 C.3       1 DSG         0.0875
      6 CG          3.6050  -50.9480    8.7070 C.2       1 DSG         0.1792
      7 OD1         4.4830  -50.3150    9.3050 O.2       1 DSG        -0.3971
      8 ND2         3.3690  -52.2790    8.9040 N.am      1 DSG        -0.3007
      9 N           1.8870  -50.7360    4.2210 N.4       1 DTR         0.2729
     10 CA          2.1150  -50.2440    2.8330 C.3       1 DTR         0.0735
     11 CB          2.5750  -51.3650    1.8280 C.3       1 DTR         0.0246
     12 CG          4.0750  -51.7170    1.9110 C.2       1 DTR        -0.0386
     13 CD1         4.5640  -52.7240    2.6580 C.2       1 DTR         0.0168
     14 NE1         5.8920  -52.7970    2.5290 N.pl3     1 DTR        -0.2890
     15 CE2         6.3140  -51.8380    1.6850 C.ar      1 DTR         0.0603
     16 CZ2         7.5930  -51.4760    1.2320 C.ar      1 DTR        -0.0443
     17 CH2         7.7440  -50.4220    0.3170 C.ar      1 DTR        -0.0768
     18 CZ3         6.6080  -49.7190   -0.1300 C.ar      1 DTR        -0.0792
     19 CE3         5.3280  -50.0740    0.3320 C.ar      1 DTR        -0.0747
     20 CD2         5.1680  -51.1410    1.2460 C.ar      1 DTR        -0.0213
     21 C           3.1140  -49.0400    2.8290 C.2       1 DTR         0.2265
     22 O           3.1920  -48.4480    1.7010 O.2       1 DTR        -0.3907
     23 N           4.0870  -48.9660    3.6870 N.am      1 DTY        -0.2694
     24 CA          5.2060  -48.0990    3.1880 C.3       1 DTY         0.1186
     25 C           5.0590  -46.6730    3.7320 C.3       1 DTY         0.1073
     26 O           6.1150  -46.0640    4.0590 O.3       1 DTY        -0.3506
     27 CB          6.6190  -48.6850    3.4940 C.3       1 DTY         0.0067
     28 CG          6.6940  -49.2390    4.9290 C.ar      1 DTY        -0.0512
     29 CD1         6.5040  -50.6080    5.1520 C.ar      1 DTY        -0.0687
     30 CD2         6.9910  -48.4000    5.9880 C.ar      1 DTY        -0.0687
     31 CE1         6.5330  -51.1310    6.4270 C.ar      1 DTY        -0.0398
     32 CE2         7.0430  -48.9460    7.2730 C.ar      1 DTY        -0.0398
     33 CZ          6.8200  -50.2890    7.4750 C.ar      1 DTY         0.0805
     34 OH          6.8940  -50.8020    8.7160 O.3       1 DTY        -0.3376
     35 N           4.1770  -46.5990    4.6320 N.4       1 DAL         0.2694
     36 CA          3.8870  -45.4190    5.5040 C.3       1 DAL         0.0665
     37 CB          2.5540  -45.5530    6.2510 C.3       1 DAL        -0.0038
     38 C           3.7610  -44.1830    4.6600 C.2       1 DAL         0.2267
     39 O           4.3340  -43.2310    5.1800 O.2       1 DAL        -0.3907
     40 N           3.2830  -43.9000    3.5180 N.am      1 DSG        -0.2589
     41 CA          3.4890  -42.8310    2.5300 C.3       1 DSG         0.1477
     42 C           4.9770  -42.7280    2.1440 C.2       1 DSG         0.2063
     43 O           5.4510  -41.5690    2.3200 O.2       1 DSG        -0.3942
     44 CB          2.6150  -42.8980    1.2280 C.3       1 DSG         0.0773
     45 CG          2.3890  -41.4330    0.8000 C.2       1 DSG         0.1780
     46 OD1         2.5690  -41.0450   -0.3760 O.2       1 DSG        -0.3970
     47 ND2         2.0760  -40.6310    1.8440 N.am      1 DSG        -0.3007
     48 N           5.5140  -43.8080    1.7030 N.am      1 DLE        -0.2636
     49 CA          6.9770  -43.8700    1.3700 C.3       1 DLE         0.1312
     50 CB          7.4670  -45.2920    1.2260 C.3       1 DLE        -0.0101
     51 CG          8.3490  -45.5140   -0.0240 C.3       1 DLE        -0.0425
     52 CD1         9.2240  -44.3920   -0.5010 C.3       1 DLE        -0.0625
     53 CD2         9.1980  -46.7740    0.1120 C.3       1 DLE        -0.0625
     54 C           7.8340  -43.2400    2.5270 C.2       1 DLE         0.2039
     55 O           8.5740  -42.2880    2.1840 O.2       1 DLE        -0.3944
     56 N           7.7780  -43.6820    3.7200 N.am      1 DGL        -0.2636
     57 CA          8.5390  -43.0730    4.8740 C.3       1 DGL         0.1325
     58 C           8.1510  -41.6000    5.0970 C.2       1 DGL         0.2040
     59 O           9.1440  -40.8600    5.1000 O.2       1 DGL        -0.3944
     60 CB          8.2620  -43.7630    6.2090 C.3       1 DGL        -0.0008
     61 CG          8.8550  -45.1200    6.0740 C.3       1 DGL         0.0044
     62 CD         10.0430  -45.2970    7.0290 C.2       1 DGL         0.0350
     63 OE1         9.8320  -46.1240    7.9710 O.co2     1 DGL        -0.5690
     64 OE2        11.1300  -44.7110    6.7480 O.co2     1 DGL        -0.5690
     65 N           7.0050  -41.1450    4.8230 N.am      1 DLY        -0.2637
     66 CA          6.5560  -39.7850    5.1030 C.3       1 DLY         0.1310
     67 C           7.1100  -38.9570    3.9610 C.2       1 DLY         0.2039
     68 O           8.0830  -38.3020    4.3350 O.2       1 DLY        -0.3944
     69 CB          4.9920  -39.6230    5.3140 C.3       1 DLY        -0.0122
     70 CG          4.5820  -38.1490    5.4810 C.3       1 DLY        -0.0440
     71 CD          3.0740  -37.8740    5.8380 C.3       1 DLY        -0.0124
     72 CE          2.3150  -39.0120    6.6460 C.3       1 DLY        -0.0354
     73 NZ          1.9240  -38.5820    8.0330 N.4       1 DLY         0.2185
     74 N           7.2650  -39.4490    2.7780 N.am      1 DLE        -0.2637
     75 CA          8.0010  -38.7720    1.6680 C.3       1 DLE         0.1312
     76 CB          7.7400  -39.3080    0.2290 C.3       1 DLE        -0.0101
     77 CG          6.2320  -39.4920   -0.0690 C.3       1 DLE        -0.0425
     78 CD1         5.4050  -38.2050    0.1460 C.3       1 DLE        -0.0625
     79 CD2         5.9780  -40.0890   -1.4700 C.3       1 DLE        -0.0625
     80 C           9.5140  -38.8810    1.9410 C.2       1 DLE         0.2039
     81 O          10.2140  -37.9280    1.5710 O.2       1 DLE        -0.3944
     82 N           9.9760  -39.9640    2.4040 N.am      1 DLE        -0.2637
     83 CA         11.4310  -40.0640    2.4430 C.3       1 DLE         0.1312
     84 CB         11.8180  -41.4920    2.8640 C.3       1 DLE        -0.0101
     85 CG         11.9200  -42.5020    1.6980 C.3       1 DLE        -0.0425
     86 CD1        13.2140  -42.3640    0.8550 C.3       1 DLE        -0.0625
     87 CD2        11.8190  -43.8640    2.3030 C.3       1 DLE        -0.0625
     88 C          11.9690  -38.9820    3.4840 C.2       1 DLE         0.2033
     89 O          12.9730  -38.3130    3.1110 O.2       1 DLE        -0.3944
     90 N          11.2660  -38.7420    4.5470 N.am      1 DAR        -0.2695
     91 CA         11.4850  -37.8190    5.6990 C.3       1 DAR         0.0945
     92 CB         10.4090  -37.9480    6.7680 C.3       1 DAR        -0.0148
     93 CG         10.6590  -39.1310    7.6860 C.3       1 DAR        -0.0162
     94 CD          9.4150  -39.3140    8.5510 C.3       1 DAR         0.0627
     95 NE          9.7070  -39.8770    9.8910 N.pl3     1 DAR        -0.2723
     96 CZ         10.3100  -39.2270   10.9260 C.cat     1 DAR         0.2882
     97 NH1        10.8220  -37.9870   10.8150 N.pl3     1 DAR        -0.2849
     98 NH2        10.4060  -39.8710   12.1020 N.pl3     1 DAR        -0.2849
     99 C          11.4690  -36.3650    5.2230 C.2       1 DAR         0.0601
    100 O          12.1840  -35.5440    5.7520 O.co2     1 DAR        -0.5666
    101 OXT        10.8000  -35.9080    4.3040 O.co2     1 DAR        -0.5666
    102 H1          2.9258  -52.6640    6.8860 H         1 DSG         0.2002
    103 H2          2.2434  -52.5247    5.3946 H         1 DSG         0.2002
    104 H3          1.3418  -52.2400    6.7420 H         1 DSG         0.2002
    105 H4          3.6377  -50.6098    5.8401 H         1 DSG         0.0960
    106 H5          0.5679  -50.2551    5.8044 H         1 DSG         0.1245
    107 H6          1.4751  -48.3468    6.0516 H         1 DSG         0.2156
    108 H7          1.6196  -50.2773    8.1305 H         1 DSG         0.0562
    109 H8          2.9410  -49.1378    7.7038 H         1 DSG         0.0562
    110 H9          3.9570  -52.8055    9.5181 H         1 DSG         0.1814
    111 H10         2.6083  -52.7268    8.4342 H         1 DSG         0.1814
    112 H11         1.1269  -51.3905    4.1215 H         1 DTR         0.2067
    113 H12         2.7344  -51.2359    4.4403 H         1 DTR         0.2067
    114 H13         1.1482  -49.8683    2.4666 H         1 DTR         0.1115
    115 H14         2.3581  -51.0212    0.8059 H         1 DTR         0.0430
    116 H15         1.9955  -52.2758    2.0393 H         1 DTR         0.0430
    117 H16         3.9626  -53.3857    3.2796 H         1 DTR         0.0795
    118 H17         6.4987  -53.4816    3.0025 H         1 DTR         0.2216
    119 H18         8.4652  -52.0113    1.5894 H         1 DTR         0.0541
    120 H19         8.7296  -50.1505   -0.0436 H         1 DTR         0.0530
    121 H20         6.7209  -48.9014   -0.8327 H         1 DTR         0.0510
    122 H21         4.4590  -49.5265   -0.0146 H         1 DTR         0.0540
    123 H22         4.0899  -49.4305    4.5726 H         1 DTY         0.1861
    124 H23         5.1117  -48.0461    2.0933 H         1 DTY         0.0660
    125 H24         4.6619  -46.0964    2.8836 H         1 DTY         0.1209
    126 H25         6.7533  -46.1414    3.3597 H         1 DTY         0.2155
    127 H26         7.3701  -47.8900    3.3768 H         1 DTY         0.0430
    128 H27         6.8316  -49.4979    2.7841 H         1 DTY         0.0430
    129 H28         6.3314  -51.2670    4.3088 H         1 DTY         0.0530
    130 H29         7.1788  -47.3449    5.8249 H         1 DTY         0.0530
    131 H30         6.3340  -52.1825    6.5994 H         1 DTY         0.0525
    132 H31         7.2612  -48.3052    8.1197 H         1 DTY         0.0525
    133 H32         6.2532  -50.3752    9.2726 H         1 DTY         0.2458
    134 H33         4.3918  -47.3489    5.2704 H         1 DAL         0.2064
    135 H34         3.3073  -46.7964    4.1622 H         1 DAL         0.2064
    136 H35         4.7064  -45.3023    6.2285 H         1 DAL         0.1097
    137 H36         2.3919  -44.6614    6.8745 H         1 DAL         0.0310
    138 H37         2.5803  -46.4477    6.8904 H         1 DAL         0.0310
    139 H38         1.7339  -45.6459    5.5238 H         1 DAL         0.0310
    140 H39         2.6005  -44.5664    3.2178 H         1 DSG         0.1886
    141 H40         3.2146  -41.8937    3.0361 H         1 DSG         0.0826
    142 H41         1.6531  -43.3891    1.4368 H         1 DSG         0.0551
    143 H42         3.1451  -43.4506    0.4384 H         1 DSG         0.0551
    144 H43         1.9060  -39.6572    1.6930 H         1 DSG         0.1814
    145 H44         2.0147  -41.0121    2.7665 H         1 DSG         0.1814
    146 H45         4.9475  -44.6227    1.5791 H         1 DLE         0.1883
    147 H46         7.1497  -43.3215    0.4323 H         1 DLE         0.0800
    148 H47         6.5932  -45.9568    1.1586 H         1 DLE         0.0315
    149 H48         8.0560  -45.5499    2.1185 H         1 DLE         0.0315
    150 H49         7.6372  -45.6962   -0.8426 H         1 DLE         0.0298
    151 H50         9.7803  -44.7148   -1.3934 H         1 DLE         0.0232
    152 H51         9.9332  -44.1168    0.2935 H         1 DLE         0.0232
    153 H52         8.5999  -43.5219   -0.7529 H         1 DLE         0.0232
    154 H53         8.5676  -47.6049    0.4614 H         1 DLE         0.0232
    155 H54        10.0051  -46.5958    0.8378 H         1 DLE         0.0232
    156 H55         9.6335  -47.0300   -0.8651 H         1 DLE         0.0232
    157 H56         7.1983  -44.4760    3.9029 H         1 DGL         0.1883
    158 H57         9.6130  -43.1410    4.6462 H         1 DGL         0.0801
    159 H58         7.1794  -43.8311    6.3912 H         1 DGL         0.0330
    160 H59         8.7389  -43.2135    7.0340 H         1 DGL         0.0330
    161 H60         9.2010  -45.2604    5.0393 H         1 DGL         0.0433
    162 H61         8.0885  -45.8729    6.3097 H         1 DGL         0.0433
    163 H62         6.3560  -41.7638    4.3805 H         1 DLY         0.1883
    164 H63         7.0317  -39.4518    6.0372 H         1 DLY         0.0800
    165 H64         4.6960  -40.1782    6.2163 H         1 DLY         0.0312
    166 H65         4.4707  -40.0396    4.4396 H         1 DLY         0.0312
    167 H66         4.8007  -37.6323    4.5348 H         1 DLY         0.0269
    168 H67         5.1989  -37.7198    6.2843 H         1 DLY         0.0269
    169 H68         2.5311  -37.7162    4.8944 H         1 DLY         0.0317
    170 H69         3.0361  -36.9548    6.4410 H         1 DLY         0.0317
    171 H70         2.9756  -39.8881    6.7231 H         1 DLY         0.0813
    172 H71         1.4043  -39.2869    6.0938 H         1 DLY         0.0813
    173 H72         1.4481  -39.3393    8.4979 H         1 DLY         0.1994
    174 H73         1.3109  -37.7838    7.9771 H         1 DLY         0.1994
    175 H74         2.7509  -38.3348    8.5538 H         1 DLY         0.1994
    176 H75         6.8645  -40.3461    2.5913 H         1 DLE         0.1883
    177 H76         7.7093  -37.7115    1.6825 H         1 DLE         0.0800
    178 H77         8.2430  -40.2799    0.1176 H         1 DLE         0.0315
    179 H78         8.1583  -38.5935   -0.4952 H         1 DLE         0.0315
    180 H79         5.8612  -40.2275    0.6600 H         1 DLE         0.0298
    181 H80         4.3479  -38.4060   -0.0825 H         1 DLE         0.0232
    182 H81         5.7797  -37.4130   -0.5190 H         1 DLE         0.0232
    183 H82         5.4984  -37.8797    1.1926 H         1 DLE         0.0232
    184 H83         6.5788  -41.0021   -1.5939 H         1 DLE         0.0232
    185 H84         6.2632  -39.3554   -2.2384 H         1 DLE         0.0232
    186 H85         4.9111  -40.3349   -1.5759 H         1 DLE         0.0232
    187 H86         9.3826  -40.7032    2.7224 H         1 DLE         0.1883
    188 H87        11.8490  -39.8534    1.4476 H         1 DLE         0.0800
    189 H88        11.0587  -41.8591    3.5702 H         1 DLE         0.0315
    190 H89        12.7956  -41.4484    3.3665 H         1 DLE         0.0315
    191 H90        11.0652  -42.3436    1.0241 H         1 DLE         0.0298
    192 H91        13.2093  -43.1142    0.0506 H         1 DLE         0.0232
    193 H92        14.0906  -42.5236    1.5000 H         1 DLE         0.0232
    194 H93        13.2601  -41.3563    0.4163 H         1 DLE         0.0232
    195 H94        10.8942  -43.9348    2.8944 H         1 DLE         0.0232
    196 H95        12.6863  -44.0403    2.9562 H         1 DLE         0.0232
    197 H96        11.8020  -44.6198    1.5040 H         1 DLE         0.0232
    198 H97        10.4211  -39.2737    4.6055 H         1 DAR         0.1875
    199 H98        12.4635  -38.0485    6.1459 H         1 DAR         0.0726
    200 H99         9.4338  -38.0798    6.2764 H         1 DAR         0.0307
    201 H100       10.3946  -37.0278    7.3704 H         1 DAR         0.0307
    202 H101       11.5334  -38.9331    8.3234 H         1 DAR         0.0301
    203 H102       10.8378  -40.0377    7.0894 H         1 DAR         0.0301
    204 H103        8.7250  -39.9940    8.0300 H         1 DAR         0.0689
    205 H104        8.9342  -38.3334    8.6821 H         1 DAR         0.0689
    206 H105        9.4269  -40.8544   10.0558 H         1 DAR         0.2642
    207 H106       11.2681  -37.5393   11.6283 H         1 DAR         0.2615
    208 H107       10.7677  -37.4859    9.9167 H         1 DAR         0.2615
    209 H108       10.0190  -40.8203   12.2024 H         1 DAR         0.2615
    210 H109       10.8665  -39.4152   12.9027 H         1 DAR         0.2615
@<TRIPOS>BOND
     1    1    2 1  
     2    2    3 1  
     3    2    5 1  
     4    3    4 1  
     5    3    9 1  
     6    5    6 1  
     7    6    7 2  
     8    6    8 am 
     9    9   10 1  
    10   10   11 1  
    11   10   21 1  
    12   11   12 1  
    13   12   13 2  
    14   12   20 1  
    15   13   14 1  
    16   14   15 1  
    17   15   16 ar 
    18   15   20 ar 
    19   16   17 ar 
    20   17   18 ar 
    21   18   19 ar 
    22   19   20 ar 
    23   21   22 2  
    24   21   23 am 
    25   23   24 1  
    26   24   25 1  
    27   24   27 1  
    28   25   26 1  
    29   25   35 1  
    30   27   28 1  
    31   28   29 ar 
    32   28   30 ar 
    33   29   31 ar 
    34   30   32 ar 
    35   31   33 ar 
    36   32   33 ar 
    37   33   34 1  
    38   35   36 1  
    39   36   37 1  
    40   36   38 1  
    41   38   39 2  
    42   38   40 am 
    43   40   41 1  
    44   41   42 1  
    45   41   44 1  
    46   42   43 2  
    47   42   48 am 
    48   44   45 1  
    49   45   46 2  
    50   45   47 am 
    51   48   49 1  
    52   49   50 1  
    53   49   54 1  
    54   50   51 1  
    55   51   52 1  
    56   51   53 1  
    57   54   55 2  
    58   54   56 am 
    59   56   57 1  
    60   57   58 1  
    61   57   60 1  
    62   58   59 2  
    63   58   65 am 
    64   60   61 1  
    65   61   62 1  
    66   62   63 ar 
    67   62   64 ar 
    68   65   66 1  
    69   66   67 1  
    70   66   69 1  
    71   67   68 2  
    72   67   74 am 
    73   69   70 1  
    74   70   71 1  
    75   71   72 1  
    76   72   73 1  
    77   74   75 1  
    78   75   76 1  
    79   75   80 1  
    80   76   77 1  
    81   77   78 1  
    82   77   79 1  
    83   80   81 2  
    84   80   82 am 
    85   82   83 1  
    86   83   84 1  
    87   83   88 1  
    88   84   85 1  
    89   85   86 1  
    90   85   87 1  
    91   88   89 2  
    92   88   90 am 
    93   90   91 1  
    94   91   92 1  
    95   91   99 1  
    96   92   93 1  
    97   93   94 1  
    98   94   95 1  
    99   95   96 ar 
   100   96   97 ar 
   101   96   98 ar 
   102   99  100 ar 
   103   99  101 ar 
   104    1  102 1  
   105    1  103 1  
   106    1  104 1  
   107    2  105 1  
   108    3  106 1  
   109    4  107 1  
   110    5  108 1  
   111    5  109 1  
   112    8  110 1  
   113    8  111 1  
   114    9  112 1  
   115    9  113 1  
   116   10  114 1  
   117   11  115 1  
   118   11  116 1  
   119   13  117 1  
   120   14  118 1  
   121   16  119 1  
   122   17  120 1  
   123   18  121 1  
   124   19  122 1  
   125   23  123 1  
   126   24  124 1  
   127   25  125 1  
   128   26  126 1  
   129   27  127 1  
   130   27  128 1  
   131   29  129 1  
   132   30  130 1  
   133   31  131 1  
   134   32  132 1  
   135   34  133 1  
   136   35  134 1  
   137   35  135 1  
   138   36  136 1  
   139   37  137 1  
   140   37  138 1  
   141   37  139 1  
   142   40  140 1  
   143   41  141 1  
   144   44  142 1  
   145   44  143 1  
   146   47  144 1  
   147   47  145 1  
   148   48  146 1  
   149   49  147 1  
   150   50  148 1  
   151   50  149 1  
   152   51  150 1  
   153   52  151 1  
   154   52  152 1  
   155   52  153 1  
   156   53  154 1  
   157   53  155 1  
   158   53  156 1  
   159   56  157 1  
   160   57  158 1  
   161   60  159 1  
   162   60  160 1  
   163   61  161 1  
   164   61  162 1  
   165   65  163 1  
   166   66  164 1  
   167   69  165 1  
   168   69  166 1  
   169   70  167 1  
   170   70  168 1  
   171   71  169 1  
   172   71  170 1  
   173   72  171 1  
   174   72  172 1  
   175   73  173 1  
   176   73  174 1  
   177   73  175 1  
   178   74  176 1  
   179   75  177 1  
   180   76  178 1  
   181   76  179 1  
   182   77  180 1  
   183   78  181 1  
   184   78  182 1  
   185   78  183 1  
   186   79  184 1  
   187   79  185 1  
   188   79  186 1  
   189   82  187 1  
   190   83  188 1  
   191   84  189 1  
   192   84  190 1  
   193   85  191 1  
   194   86  192 1  
   195   86  193 1  
   196   86  194 1  
   197   87  195 1  
   198   87  196 1  
   199   87  197 1  
   200   90  198 1  
   201   91  199 1  
   202   92  200 1  
   203   92  201 1  
   204   93  202 1  
   205   93  203 1  
   206   94  204 1  
   207   94  205 1  
   208   95  206 1  
   209   97  207 1  
   210   97  208 1  
   211   98  209 1  
   212   98  210 1  
@<TRIPOS>SUBSTRUCTURE
     1 DSG         1

