3sx4_ligand
  -I-interpret- 

 49 52  0  0  0  0  0  0  0  0999 V2000
   54.7610   49.1450   35.2790 C   0  0  0  0  0
   55.0240   47.9750   34.5730 C   0  0  0  0  0
   47.1290   48.7440   36.9820 C   0  0  0  0  0
   53.5090   49.7260   35.2480 C   0  0  0  0  0
   54.0350   47.3790   33.8310 C   0  0  0  0  0
   46.9500   48.2300   38.2580 C   0  0  0  0  0
   47.9920   50.2010   39.2270 C   0  0  0  0  0
   47.7200   49.9830   36.8440 C   0  0  0  0  0
   47.9430   50.5060   35.5240 C   0  0  0  0  0
   49.1610   50.2820   34.9590 C   0  0  0  0  0
   47.0420   51.2610   34.7870 C   0  0  0  0  0
   52.5140   49.1270   34.4910 C   0  0  0  0  0
   52.7750   47.9610   33.7910 C   0  0  0  0  0
   47.3900   48.9790   39.3410 C   0  0  0  0  0
   48.1630   50.6900   37.9540 C   0  0  0  0  0
   49.4460   50.7790   33.7050 C   0  0  0  0  0
   47.4170   51.7190   33.5240 C   0  0  0  0  0
   50.8260   50.3900   33.3310 C   0  0  0  0  0
   50.3060   49.5460   35.5020 C   0  0  0  0  0
   46.4940   52.5140   32.6870 C   0  0  0  0  0
   52.1090   46.2940   32.3360 C   0  0  0  0  0
   45.6750   51.5540   35.3160 C   0  0  0  0  0
   48.6370   51.4920   32.9360 N   0  0  0  0  0
   51.2670   49.6730   34.4430 N   0  0  0  0  0
   45.7920   52.1690   36.5920 N   0  3  0  0  0
   51.4420   50.6270   32.3210 O   0  0  0  0  0
   51.7480   47.4310   33.0780 O   0  0  0  0  0
   47.1790   48.3600   40.8800 Cl  0  0  0  0  0
   48.9070   52.2080   37.7520 Cl  0  0  0  0  0
   55.5545   49.6092   35.8646 H   0  0  0  0  0
   56.0186   47.5305   34.6094 H   0  0  0  0  0
   46.8091   48.1801   36.1058 H   0  0  0  0  0
   53.3066   50.6388   35.8083 H   0  0  0  0  0
   54.2362   46.4603   33.2800 H   0  0  0  0  0
   46.4748   47.2604   38.4069 H   0  0  0  0  0
   48.3204   50.7603   40.1030 H   0  0  0  0  0
   50.0751   48.5114   35.7555 H   0  0  0  0  0
   50.6590   49.9368   36.4564 H   0  0  0  0  0
   45.5955   51.9310   32.4847 H   0  0  0  0  0
   46.2239   53.4289   33.2144 H   0  0  0  0  0
   46.9843   52.7664   31.7468 H   0  0  0  0  0
   52.8959   46.5577   31.6293 H   0  0  0  0  0
   52.4710   45.5200   33.0127 H   0  0  0  0  0
   51.2392   45.9253   31.7923 H   0  0  0  0  0
   45.1103   50.6261   35.4066 H   0  0  0  0  0
   45.1532   52.2239   34.6326 H   0  0  0  0  0
   44.8614   52.3710   36.9574 H   0  0  0  0  0
   46.2790   51.5383   37.2287 H   0  0  0  0  0
   46.3193   53.0375   36.5024 H   0  0  0  0  0
  1  2  4  0  0  0
  4  1  4  0  0  0
  5  2  4  0  0  0
  3  6  4  0  0  0
  8  3  4  0  0  0
 12  4  4  0  0  0
 13  5  4  0  0  0
  6 14  4  0  0  0
  7 14  4  0  0  0
 15  7  4  0  0  0
  9  8  1  0  0  0
  8 15  4  0  0  0
 10  9  4  0  0  0
  9 11  4  0  0  0
 16 10  4  0  0  0
 10 19  1  0  0  0
 17 11  4  0  0  0
 11 22  1  0  0  0
 12 13  4  0  0  0
 24 12  1  0  0  0
 13 27  1  0  0  0
 14 28  1  0  0  0
 15 29  1  0  0  0
 18 16  1  0  0  0
 16 23  4  0  0  0
 17 20  1  0  0  0
 23 17  4  0  0  0
 18 24  1  0  0  0
 18 26  2  0  0  0
 19 24  1  0  0  0
 27 21  1  0  0  0
 22 25  1  0  0  0
  1 30  1  0  0  0
  2 31  1  0  0  0
  3 32  1  0  0  0
  4 33  1  0  0  0
  5 34  1  0  0  0
  6 35  1  0  0  0
  7 36  1  0  0  0
 19 37  1  0  0  0
 19 38  1  0  0  0
 20 39  1  0  0  0
 20 40  1  0  0  0
 20 41  1  0  0  0
 21 42  1  0  0  0
 21 43  1  0  0  0
 21 44  1  0  0  0
 22 45  1  0  0  0
 22 46  1  0  0  0
 25 47  1  0  0  0
 25 48  1  0  0  0
 25 49  1  0  0  0
M  END
$$$$
