4i47_ligand
  -I-interpret- 

 19 20  0  0  0  0  0  0  0  0999 V2000
   22.0220    7.7740    9.2430 C   0  0  0  0  0
   23.0830    4.5280    7.8470 N   0  0  0  0  0
   22.7730    5.8660    7.7720 C   0  0  0  0  0
   22.3960    6.3410    8.9950 N   0  0  0  0  0
   22.4570    5.2810    9.8750 C   0  0  0  0  0
   22.1850    5.1400   11.2820 C   0  0  0  0  0
   21.7840    6.1700   12.1180 O   0  0  0  0  0
   22.3710    3.8890   11.8390 N   0  0  0  0  0
   22.8030    2.7890   11.0930 C   0  0  0  0  0
   22.9930    1.5680   11.6830 N   0  0  0  0  0
   23.0630    2.9170    9.7380 N   0  0  0  0  0
   22.8920    4.1600    9.1510 C   0  0  0  0  0
   22.8670    8.4167    8.9960 H   0  0  0  0  0
   21.1682    8.0385    8.6192 H   0  0  0  0  0
   21.7603    7.9033   10.2932 H   0  0  0  0  0
   22.8216    6.4641    6.8621 H   0  0  0  0  0
   22.1856    3.7635   12.8341 H   0  0  0  0  0
   23.3191    0.7779   11.1264 H   0  0  0  0  0
   22.8085    1.4486   12.6790 H   0  0  0  0  0
  4  1  1  0  0  0
  3  2  4  0  0  0
  2 12  4  0  0  0
  3  4  4  0  0  0
  4  5  4  0  0  0
  5  6  1  0  0  0
  5 12  4  0  0  0
  6  7  2  0  0  0
  6  8  1  0  0  0
  8  9  1  0  0  0
  9 10  1  0  0  0
  9 11  2  0  0  0
 11 12  1  0  0  0
  1 13  1  0  0  0
  1 14  1  0  0  0
  1 15  1  0  0  0
  3 16  1  0  0  0
  8 17  1  0  0  0
 10 18  1  0  0  0
 10 19  1  0  0  0
M  END
$$$$
