2brm_ligand
  -I-interpret- 

 42 45  0  0  0  0  0  0  0  0999 V2000
    6.0690   -2.2850   19.4910 C   0  0  0  0  0
    2.0930   -4.2810   19.7290 C   0  0  0  0  0
    0.7620   -4.6430   19.9740 C   0  0  0  0  0
    0.2530   -5.9090   19.7010 C   0  0  0  0  0
   -1.0810   -6.2130   19.9650 C   0  0  0  0  0
   -1.9300   -5.2530   20.5090 C   0  0  0  0  0
   -1.4340   -3.9840   20.7860 C   0  0  0  0  0
   -0.0980   -3.6880   20.5170 C   0  0  0  0  0
    2.1820   -6.3430   17.1790 C   0  0  0  0  0
    2.0550   -7.5920   16.5670 C   0  0  0  0  0
    2.6560   -8.7200   17.1260 C   0  0  0  0  0
    3.3880   -8.5960   18.3040 C   0  0  0  0  0
    4.8520   -2.1560   19.9810 N   0  0  0  0  0
    3.9260   -3.0990   19.7700 C   0  0  0  0  0
    4.2350   -4.2300   19.0210 C   0  0  0  0  0
    5.9720   -5.3620   17.7820 N   0  0  0  0  0
    5.5390   -4.3340   18.5170 C   0  0  0  0  0
    6.4120   -3.3440   18.7820 N   0  0  0  0  0
    2.6610   -3.1610   20.1650 N   0  0  0  0  0
    3.5100   -7.3500   18.9160 C   0  0  0  0  0
    3.0590   -4.9830   18.9950 C   0  0  0  0  0
    2.9100   -6.2190   18.3600 C   0  0  0  0  0
    7.5920   -4.3990   16.1920 C   0  0  0  0  0
    7.3640   -5.4350   17.3020 C   0  0  0  0  0
    8.4060   -3.3250   16.6890 O   0  0  0  0  0
    6.8055   -1.5027   19.6748 H   0  0  0  0  0
    0.9053   -6.6717   19.2757 H   0  0  0  0  0
   -1.4626   -7.2098   19.7440 H   0  0  0  0  0
   -2.9728   -5.4938   20.7156 H   0  0  0  0  0
   -2.0874   -3.2227   21.2122 H   0  0  0  0  0
    0.2821   -2.6901   20.7355 H   0  0  0  0  0
    1.7120   -5.4664   16.7330 H   0  0  0  0  0
    1.4815   -7.6862   15.6449 H   0  0  0  0  0
    2.5533   -9.6921   16.6438 H   0  0  0  0  0
    3.8642   -9.4711   18.7462 H   0  0  0  0  0
    5.3242   -6.1142   17.5474 H   0  0  0  0  0
    4.0808   -7.2575   19.8400 H   0  0  0  0  0
    6.6305   -4.0018   15.8666 H   0  0  0  0  0
    8.0976   -4.8757   15.3523 H   0  0  0  0  0
    7.5549   -6.4325   16.9061 H   0  0  0  0  0
    8.0405   -5.2270   18.1310 H   0  0  0  0  0
    8.5450   -2.6808   15.9909 H   0  0  0  0  0
 13  1  4  0  0  0
 18  1  4  0  0  0
  2  3  1  0  0  0
  2 19  4  0  0  0
 21  2  4  0  0  0
  3  4  4  0  0  0
  3  8  4  0  0  0
  4  5  4  0  0  0
  5  6  4  0  0  0
  7  6  4  0  0  0
  8  7  4  0  0  0
  9 10  4  0  0  0
 22  9  4  0  0  0
 10 11  4  0  0  0
 12 11  4  0  0  0
 20 12  4  0  0  0
 14 13  4  0  0  0
 15 14  4  0  0  0
 14 19  4  0  0  0
 15 17  4  0  0  0
 21 15  4  0  0  0
 17 16  1  0  0  0
 16 24  1  0  0  0
 17 18  4  0  0  0
 22 20  4  0  0  0
 21 22  1  0  0  0
 24 23  1  0  0  0
 23 25  1  0  0  0
  1 26  1  0  0  0
  4 27  1  0  0  0
  5 28  1  0  0  0
  6 29  1  0  0  0
  7 30  1  0  0  0
  8 31  1  0  0  0
  9 32  1  0  0  0
 10 33  1  0  0  0
 11 34  1  0  0  0
 12 35  1  0  0  0
 16 36  1  0  0  0
 20 37  1  0  0  0
 23 38  1  0  0  0
 23 39  1  0  0  0
 24 40  1  0  0  0
 24 41  1  0  0  0
 25 42  1  0  0  0
M  END
$$$$
