5n4t_ligand
  -I-interpret- 

 38 39  0  0  0  0  0  0  0  0999 V2000
   58.8480   -5.0900   34.8390 C   0  0  0  0  0
   55.7280    3.2140   34.4940 C   0  0  0  0  0
   56.5990    4.3100   34.5140 C   0  0  0  0  0
   57.9650    4.1450   34.2630 C   0  0  0  0  0
   59.7180   -3.6380   33.0970 C   0  0  0  0  0
   56.2400    1.9420   34.2300 C   0  0  0  0  0
   58.4000   -1.6080   32.3550 C   0  0  0  0  0
   58.6070   -0.8230   31.0590 C   0  0  0  0  0
   57.9450   -0.7820   33.5590 C   0  0  0  0  0
   58.4250    0.6530   33.6770 C   0  0  0  0  0
   57.6190    1.7740   33.9820 C   0  0  0  0  0
   58.4760    2.8610   33.9930 C   0  0  0  0  0
   59.7170    1.1180   33.5300 C   0  0  0  0  0
   58.4810   -4.4450   33.4930 C   0  0  0  0  0
   58.2950   -5.5280   32.4520 C   0  0  0  0  0
   59.6660   -2.3080   32.5890 N   0  0  0  0  0
   59.7190    2.4290   33.7160 N   0  0  0  0  0
   59.7470   -0.6490   30.5920 O   0  0  0  0  0
   57.6480   -0.3800   30.3970 O   0  0  0  0  0
   60.7830   -4.1330   33.2150 O   0  0  0  0  0
   57.7120   -4.8460   30.8650 S   0  0  0  0  0
   58.0470   -5.7609   35.1493 H   0  0  0  0  0
   59.7742   -5.6541   34.7296 H   0  0  0  0  0
   58.9821   -4.3108   35.5893 H   0  0  0  0  0
   54.6633    3.3520   34.6822 H   0  0  0  0  0
   56.2075    5.3045   34.7279 H   0  0  0  0  0
   58.6316    5.0073   34.2763 H   0  0  0  0  0
   55.5745    1.0789   34.2155 H   0  0  0  0  0
   57.5623   -2.2952   32.2363 H   0  0  0  0  0
   58.3596   -1.2932   34.4279 H   0  0  0  0  0
   56.8614   -0.7127   33.4635 H   0  0  0  0  0
   60.5899    0.5074   33.2992 H   0  0  0  0  0
   57.5718   -3.8479   33.5628 H   0  0  0  0  0
   57.5475   -6.2315   32.8185 H   0  0  0  0  0
   59.2572   -6.0121   32.2847 H   0  0  0  0  0
   60.5406   -1.8261   32.3809 H   0  0  0  0  0
   56.8273   -0.5738   30.8558 H   0  0  0  0  0
   57.5647   -5.8341   29.9870 H   0  0  0  0  0
 14  1  1  0  0  0
  2  3  4  0  0  0
  6  2  4  0  0  0
  3  4  4  0  0  0
  4 12  4  0  0  0
  5 14  1  0  0  0
 16  5  1  0  0  0
  5 20  2  0  0  0
 11  6  4  0  0  0
  7  8  1  0  0  0
  9  7  1  0  0  0
  7 16  1  0  0  0
  8 18  2  0  0  0
  8 19  1  0  0  0
 10  9  1  0  0  0
 10 11  4  0  0  0
 10 13  4  0  0  0
 11 12  4  0  0  0
 12 17  4  0  0  0
 13 17  4  0  0  0
 14 15  1  0  0  0
 15 21  1  0  0  0
  1 22  1  0  0  0
  1 23  1  0  0  0
  1 24  1  0  0  0
  2 25  1  0  0  0
  3 26  1  0  0  0
  4 27  1  0  0  0
  6 28  1  0  0  0
  7 29  1  0  0  0
  9 30  1  0  0  0
  9 31  1  0  0  0
 13 32  1  0  0  0
 14 33  1  0  0  0
 15 34  1  0  0  0
 15 35  1  0  0  0
 16 36  1  0  0  0
 19 37  1  0  0  0
 21 38  1  0  0  0
M  END
$$$$
