1sm2_ligand
  -I-interpret- 

 62 69  0  0  0  0  0  0  0  0999 V2000
   18.8100   -7.3760    4.9010 C   0  0  0  0  0
   17.5880   -7.2530    5.6540 C   0  0  0  0  0
   17.4940   -7.9160    6.9180 C   0  0  0  0  0
   18.6170   -8.7030    7.4300 C   0  0  0  0  0
   19.8470   -8.8110    6.6630 C   0  0  0  0  0
   21.0820   -9.4370    6.9110 N   0  0  0  0  0
   21.8600   -9.1270    5.8050 C   0  0  0  0  0
   23.2560   -9.5090    5.5120 C   0  0  0  0  0
   24.0750  -10.3030    6.3160 N   0  0  0  0  0
   25.2500  -10.3760    5.5560 C   0  0  0  0  0
   26.4660  -11.0660    5.7820 C   0  0  0  0  0
   27.5050  -10.9830    4.7960 C   0  0  0  0  0
   27.3300  -10.2110    3.5960 C   0  0  0  0  0
   26.1080   -9.5100    3.3490 C   0  0  0  0  0
   25.0620   -9.5960    4.3330 C   0  0  0  0  0
   23.7960   -9.0280    4.2670 C   0  0  0  0  0
   23.1030   -8.2380    3.3520 C   0  0  0  0  0
   23.4810   -7.6410    2.0720 C   0  0  0  0  0
   22.4740   -6.8630    1.6170 N   0  0  0  0  0
   21.2840   -6.9790    2.4990 C   0  0  0  0  0
   21.8090   -7.8830    3.6240 C   0  0  0  0  0
   21.1230   -8.3110    4.8590 C   0  0  0  0  0
   19.9010   -8.1440    5.4320 C   0  0  0  0  0
   21.5030  -10.1570    8.1460 C   0  0  0  0  0
   22.0880   -9.1060    9.1770 C   0  0  0  0  0
   23.3260   -9.7630    9.8150 C   0  0  0  0  0
   24.3480  -10.0430    8.7580 C   0  0  0  0  0
   23.8440  -10.9380    7.6170 C   0  0  0  0  0
   22.4260  -11.1890    7.8080 O   0  0  0  0  0
   24.5440   -7.7940    1.4950 O   0  0  0  0  0
   23.8930   -8.8670   10.8230 N   0  3  0  0  0
   24.7340   -9.5330   11.8500 C   0  0  0  0  0
   22.6120   -7.9060    8.5450 O   0  0  0  0  0
   21.8530   -6.7100    8.5560 C   0  0  0  0  0
   20.3860  -10.8800    8.9030 C   0  0  0  0  0
   18.9061   -6.8876    3.9313 H   0  0  0  0  0
   16.7532   -6.6674    5.2689 H   0  0  0  0  0
   16.5789   -7.8345    7.5046 H   0  0  0  0  0
   18.5305   -9.2104    8.3908 H   0  0  0  0  0
   26.6102  -11.6508    6.6905 H   0  0  0  0  0
   28.4427  -11.5142    4.9595 H   0  0  0  0  0
   28.1378  -10.1593    2.8660 H   0  0  0  0  0
   25.9727   -8.9257    2.4388 H   0  0  0  0  0
   22.5240   -6.2772    0.7835 H   0  0  0  0  0
   20.4082   -7.3842    1.9921 H   0  0  0  0  0
   20.9141   -6.0173    2.8545 H   0  0  0  0  0
   21.2808   -8.8372    9.8584 H   0  0  0  0  0
   23.0331  -10.6996   10.2894 H   0  0  0  0  0
   25.1726  -10.5690    9.2391 H   0  0  0  0  0
   24.6255   -9.0855    8.3172 H   0  0  0  0  0
   24.3918  -11.8802    7.6312 H   0  0  0  0  0
   23.1074   -8.4418   11.3153 H   0  0  0  0  0
   24.4963   -8.2101   10.3281 H   0  0  0  0  0
   24.1354  -10.2695   12.3861 H   0  0  0  0  0
   25.5737  -10.0297   11.3639 H   0  0  0  0  0
   25.1079   -8.7869   12.5512 H   0  0  0  0  0
   20.9019   -6.8801    8.0515 H   0  0  0  0  0
   21.6699   -6.4069    9.5869 H   0  0  0  0  0
   22.4053   -5.9259    8.0380 H   0  0  0  0  0
   20.8031  -11.3697    9.7829 H   0  0  0  0  0
   19.6310  -10.1570    9.2117 H   0  0  0  0  0
   19.9313  -11.6263    8.2515 H   0  0  0  0  0
  1  2  4  0  0  0
  1 23  4  0  0  0
  2  3  4  0  0  0
  3  4  4  0  0  0
  4  5  4  0  0  0
  5  6  4  0  0  0
  5 23  4  0  0  0
  6  7  4  0  0  0
  6 24  1  0  0  0
  7  8  4  0  0  0
  7 22  4  0  0  0
  8  9  4  0  0  0
  8 16  4  0  0  0
  9 10  4  0  0  0
  9 28  1  0  0  0
 10 11  4  0  0  0
 10 15  4  0  0  0
 11 12  4  0  0  0
 12 13  4  0  0  0
 13 14  4  0  0  0
 14 15  4  0  0  0
 15 16  4  0  0  0
 16 17  4  0  0  0
 17 18  1  0  0  0
 17 21  4  0  0  0
 18 19  1  0  0  0
 18 30  2  0  0  0
 19 20  1  0  0  0
 20 21  1  0  0  0
 21 22  4  0  0  0
 22 23  4  0  0  0
 24 25  1  0  0  0
 24 29  1  0  0  0
 24 35  1  0  0  0
 25 26  1  0  0  0
 25 33  1  0  0  0
 26 27  1  0  0  0
 26 31  1  0  0  0
 27 28  1  0  0  0
 28 29  1  0  0  0
 31 32  1  0  0  0
 33 34  1  0  0  0
  1 36  1  0  0  0
  2 37  1  0  0  0
  3 38  1  0  0  0
  4 39  1  0  0  0
 11 40  1  0  0  0
 12 41  1  0  0  0
 13 42  1  0  0  0
 14 43  1  0  0  0
 19 44  1  0  0  0
 20 45  1  0  0  0
 20 46  1  0  0  0
 25 47  1  0  0  0
 26 48  1  0  0  0
 27 49  1  0  0  0
 27 50  1  0  0  0
 28 51  1  0  0  0
 31 52  1  0  0  0
 31 53  1  0  0  0
 32 54  1  0  0  0
 32 55  1  0  0  0
 32 56  1  0  0  0
 34 57  1  0  0  0
 34 58  1  0  0  0
 34 59  1  0  0  0
 35 60  1  0  0  0
 35 61  1  0  0  0
 35 62  1  0  0  0
M  END
$$$$
