5kzq_ligand
  -I-interpret- 

 40 42  0  0  0  0  0  0  0  0999 V2000
  -20.9850  -28.2950   23.0120 C   0  0  0  0  0
  -26.9050  -31.4270   25.9420 C   0  0  0  0  0
  -27.5900  -32.5800   23.9380 C   0  0  0  0  0
  -26.7090  -33.8450   25.8270 C   0  0  0  0  0
  -27.2180  -33.7940   24.5280 C   0  0  0  0  0
  -26.5480  -32.6430   26.5270 C   0  0  0  0  0
  -27.4410  -31.3870   24.6510 C   0  0  0  0  0
  -23.9610  -27.2250   26.9540 C   0  0  0  0  0
  -22.0200  -28.7030   23.9460 C   0  0  0  0  0
  -21.7200  -29.1270   25.3560 C   0  0  0  0  0
  -22.4870  -27.8730   25.1080 C   0  0  0  0  0
  -24.0170  -29.5730   25.9790 C   0  0  0  0  0
  -22.5820  -30.1560   26.0140 C   0  0  0  0  0
  -23.8450  -28.0480   25.7160 C   0  0  0  0  0
  -24.8840  -30.0150   27.1590 C   0  0  0  0  0
  -24.8290  -27.5290   24.7920 N   0  3  0  0  0
  -20.1840  -27.3900   23.1820 O   0  0  0  0  0
  -24.8890  -26.4850   27.2270 O   0  0  0  0  0
  -21.0380  -29.1000   21.9400 O   0  0  0  0  0
  -22.8780  -27.4180   27.7260 O   0  0  0  0  0
  -22.4610  -31.3480   25.2420 O   0  0  0  0  0
  -27.3090  -34.9260   23.8340 F   0  0  0  0  0
  -26.3680  -35.0280   26.3880 F   0  0  0  0  0
  -26.6710  -29.9460   26.8540 S   0  0  0  0  0
  -27.9945  -32.5652   22.9259 H   0  0  0  0  0
  -26.1402  -32.6570   27.5378 H   0  0  0  0  0
  -27.7389  -30.4375   24.2063 H   0  0  0  0  0
  -22.5075  -29.1498   23.0795 H   0  0  0  0  0
  -20.7917  -29.4399   25.8340 H   0  0  0  0  0
  -22.4291  -26.7941   25.2517 H   0  0  0  0  0
  -24.6247  -29.9793   25.1705 H   0  0  0  0  0
  -22.3107  -30.3900   27.0434 H   0  0  0  0  0
  -24.6755  -29.3294   27.9804 H   0  0  0  0  0
  -24.6367  -31.0570   27.3618 H   0  0  0  0  0
  -24.7910  -28.0609   23.9225 H   0  0  0  0  0
  -25.7583  -27.6140   25.2037 H   0  0  0  0  0
  -24.6292  -26.5473   24.6004 H   0  0  0  0  0
  -21.7559  -29.7281   22.0481 H   0  0  0  0  0
  -22.2891  -28.0440   27.2984 H   0  0  0  0  0
  -23.0023  -32.0376   25.6332 H   0  0  0  0  0
  9  1  1  0  0  0
  1 17  2  0  0  0
  1 19  1  0  0  0
  2  6  4  0  0  0
  2  7  4  0  0  0
 24  2  1  0  0  0
  3  5  4  0  0  0
  7  3  4  0  0  0
  4  5  4  0  0  0
  6  4  4  0  0  0
  4 23  1  0  0  0
  5 22  1  0  0  0
 14  8  1  0  0  0
  8 18  2  0  0  0
  8 20  1  0  0  0
 10  9  1  0  0  0
 11  9  1  0  0  0
 11 10  1  0  0  0
 13 10  1  0  0  0
 14 11  1  0  0  0
 12 13  1  0  0  0
 12 14  1  0  0  0
 15 12  1  0  0  0
 13 21  1  0  0  0
 14 16  1  0  0  0
 15 24  1  0  0  0
  3 25  1  0  0  0
  6 26  1  0  0  0
  7 27  1  0  0  0
  9 28  1  0  0  0
 10 29  1  0  0  0
 11 30  1  0  0  0
 12 31  1  0  0  0
 13 32  1  0  0  0
 15 33  1  0  0  0
 15 34  1  0  0  0
 16 35  1  0  0  0
 16 36  1  0  0  0
 16 37  1  0  0  0
 19 38  1  0  0  0
 20 39  1  0  0  0
 21 40  1  0  0  0
M  END
$$$$
