5urm_ligand
  -I-interpret- 

 55 59  0  0  0  0  0  0  0  0999 V2000
   11.6830   -9.3270   37.2250 C   0  0  0  0  0
   10.3770   -9.7530   37.1410 C   0  0  0  0  0
   10.1080  -11.0770   36.8900 C   0  0  0  0  0
   11.1440  -11.9680   36.7270 C   0  0  0  0  0
   12.4540  -11.5500   36.8100 C   0  0  0  0  0
   13.4820  -12.5520   36.6240 C   0  0  0  0  0
   15.4650  -13.4780   36.7860 C   0  0  0  0  0
   17.9230  -12.7340   37.6660 C   0  0  0  0  0
   21.7320  -11.8450   39.9870 C   0  0  0  0  0
   19.0620  -13.2460   38.1530 C   0  0  0  0  0
   23.2310  -12.0130   40.0790 C   0  0  0  0  0
   24.9470  -12.4550   41.8970 C   0  0  0  0  0
   11.0160   -7.2740   38.0760 O   0  0  0  0  0
   11.9450   -7.9020   37.4920 C   0  0  0  0  0
   13.0560   -7.4470   37.0970 O   0  0  0  0  0
   12.7210  -10.2210   37.0610 C   0  0  0  0  0
   13.3630  -13.8040   36.0690 C   0  0  0  0  0
   14.6410  -14.3950   36.1710 C   0  0  0  0  0
   16.9000  -13.6760   37.1150 C   0  0  0  0  0
   17.7360  -11.2540   37.6870 C   0  0  0  0  0
   16.6970  -10.7730   37.2480 O   0  0  0  0  0
   18.7690  -10.4850   38.2160 N   0  0  0  0  0
   19.8280  -11.0880   38.6580 C   0  0  0  0  0
   21.2110  -10.2410   39.3570 S   0  0  0  0  0
   21.1210  -12.8630   39.1360 N   0  0  0  0  0
   20.0310  -12.4340   38.6550 N   0  3  0  0  0
   19.2430  -14.6060   38.1400 N   0  0  0  0  0
   23.5700  -11.9320   41.5530 C   0  0  0  0  0
   25.0970  -13.8680   41.4010 C   0  0  0  0  0
   24.9650  -13.8340   39.9000 C   0  0  0  0  0
   23.5730  -13.3790   39.5240 C   0  0  0  0  0
   14.7660  -12.3330   37.0590 O   0  0  0  0  0
    9.5600   -9.0436   37.2729 H   0  0  0  0  0
    9.0760  -11.4208   36.8201 H   0  0  0  0  0
   10.9253  -13.0175   36.5298 H   0  0  0  0  0
   21.3954  -11.9431   41.0191 H   0  0  0  0  0
   23.7854  -11.2584   39.5210 H   0  0  0  0  0
   25.0781  -12.4380   42.9790 H   0  0  0  0  0
   25.6996  -11.8255   41.4222 H   0  0  0  0  0
   10.2899   -7.8751   38.2577 H   0  0  0  0  0
   13.7528   -9.8763   37.1299 H   0  0  0  0  0
   12.4660  -14.2491   35.6385 H   0  0  0  0  0
   14.9230  -15.3903   35.8275 H   0  0  0  0  0
   17.3024  -13.8224   36.1126 H   0  0  0  0  0
   16.8051  -14.3613   37.9573 H   0  0  0  0  0
   18.5157  -15.2137   37.7630 H   0  0  0  0  0
   20.1048  -15.0093   38.5074 H   0  0  0  0  0
   22.8470  -12.5499   42.0856 H   0  0  0  0  0
   23.5447  -10.8790   41.8333 H   0  0  0  0  0
   24.3319  -14.5099   41.8377 H   0  0  0  0  0
   26.0662  -14.2741   41.6906 H   0  0  0  0  0
   25.1410  -14.8318   39.4980 H   0  0  0  0  0
   25.6970  -13.1397   39.4875 H   0  0  0  0  0
   23.5243  -13.3188   38.4368 H   0  0  0  0  0
   22.8644  -14.0949   39.9405 H   0  0  0  0  0
  1  2  4  0  0  0
  1 14  1  0  0  0
 16  1  4  0  0  0
  3  2  4  0  0  0
  4  3  4  0  0  0
  5  4  4  0  0  0
  6  5  1  0  0  0
  5 16  4  0  0  0
  6 17  4  0  0  0
 32  6  4  0  0  0
  7 18  4  0  0  0
 19  7  1  0  0  0
  7 32  4  0  0  0
  8 10  2  0  0  0
  8 19  1  0  0  0
 20  8  1  0  0  0
  9 11  1  0  0  0
 24  9  1  0  0  0
  9 25  1  0  0  0
 10 26  1  0  0  0
 10 27  1  0  0  0
 11 28  1  0  0  0
 11 31  1  0  0  0
 28 12  1  0  0  0
 12 29  1  0  0  0
 14 13  1  0  0  0
 14 15  2  0  0  0
 18 17  4  0  0  0
 20 21  2  0  0  0
 22 20  1  0  0  0
 23 22  2  0  0  0
 23 24  1  0  0  0
 23 26  1  0  0  0
 25 26  2  0  0  0
 29 30  1  0  0  0
 30 31  1  0  0  0
  2 33  1  0  0  0
  3 34  1  0  0  0
  4 35  1  0  0  0
  9 36  1  0  0  0
 11 37  1  0  0  0
 12 38  1  0  0  0
 12 39  1  0  0  0
 13 40  1  0  0  0
 16 41  1  0  0  0
 17 42  1  0  0  0
 18 43  1  0  0  0
 19 44  1  0  0  0
 19 45  1  0  0  0
 27 46  1  0  0  0
 27 47  1  0  0  0
 28 48  1  0  0  0
 28 49  1  0  0  0
 29 50  1  0  0  0
 29 51  1  0  0  0
 30 52  1  0  0  0
 30 53  1  0  0  0
 31 54  1  0  0  0
 31 55  1  0  0  0
M  END
$$$$
