### 
### Created by X-TOOL on Mon Sep 10 21:13:19 2018
### 

@<TRIPOS>MOLECULE
4u0a_ligand
  206   212     1     0     0
SMALL
GAST_HUCK


@<TRIPOS>ATOM
      1 N         -42.0040    5.8340   -4.0050 N.4       1 PRO         0.2461
      2 CA        -40.6140    6.1900   -3.7570 C.3       1 PRO         0.0670
      3 C         -39.6250    5.3120   -4.5230 C.2       1 PRO         0.2268
      4 O         -40.0130    4.2810   -5.0760 O.2       1 PRO        -0.3907
      5 CB        -40.4730    5.9640   -2.2500 C.3       1 PRO         0.0127
      6 CG        -41.8360    6.2310   -1.6970 C.3       1 PRO        -0.0053
      7 CD        -42.8370    6.0060   -2.8010 C.3       1 PRO        -0.0313
      8 N         -38.3620    5.7300   -4.5580 N.am      1 VAL        -0.2608
      9 CA        -37.2940    4.9280   -5.1500 C.3       1 VAL         0.1334
     10 C         -36.6910    4.0020   -4.0950 C.2       1 VAL         0.2042
     11 O         -36.4130    2.8360   -4.3730 O.2       1 VAL        -0.3944
     12 CB        -36.1950    5.8160   -5.7720 C.3       1 VAL        -0.0063
     13 CG1       -35.0150    4.9740   -6.2440 C.3       1 VAL        -0.0584
     14 CG2       -36.7710    6.6230   -6.9290 C.3       1 VAL        -0.0584
     15 N         -36.4970    4.5300   -2.8890 N.am      1 LEU        -0.2637
     16 CA        -35.9210    3.7760   -1.7820 C.3       1 LEU         0.1312
     17 C         -36.8820    3.7120   -0.6070 C.2       1 LEU         0.2040
     18 O         -37.6090    4.6690   -0.3330 O.2       1 LEU        -0.3944
     19 CB        -34.6160    4.4300   -1.3320 C.3       1 LEU        -0.0101
     20 CG        -33.4970    4.3760   -2.3680 C.3       1 LEU        -0.0425
     21 CD1       -32.3180    5.2310   -1.9310 C.3       1 LEU        -0.0625
     22 CD2       -33.0790    2.9310   -2.6110 C.3       1 LEU        -0.0625
     23 N         -36.8570    2.5780    0.0910 N.am      1 PHE        -0.2619
     24 CA        -37.7500    2.3180    1.2070 C.3       1 PHE         0.1406
     25 C         -36.9420    2.0570    2.4680 C.2       1 PHE         0.2085
     26 O         -35.7910    1.6280    2.3810 O.2       1 PHE        -0.3940
     27 CB        -38.6340    1.1100    0.8990 C.3       1 PHE         0.0214
     28 CG        -39.4590    1.2730   -0.3420 C.ar      1 PHE        -0.0386
     29 CD1       -38.9220    0.9860   -1.5910 C.ar      1 PHE        -0.0601
     30 CD2       -40.7710    1.7270   -0.2650 C.ar      1 PHE        -0.0601
     31 CE1       -39.6790    1.1410   -2.7400 C.ar      1 PHE        -0.0686
     32 CE2       -41.5320    1.8850   -1.4110 C.ar      1 PHE        -0.0686
     33 CZ        -40.9850    1.5910   -2.6500 C.ar      1 PHE        -0.0687
     34 N         -37.5430    2.3030    3.6490 N.am      1 PRO        -0.2497
     35 CA        -36.8360    2.0930    4.9140 C.3       1 PRO         0.1338
     36 C         -36.3430    0.6630    5.1090 C.2       1 PRO         0.2039
     37 O         -37.0870   -0.2880    4.8680 O.2       1 PRO        -0.3944
     38 CB        -37.8910    2.4390    5.9710 C.3       1 PRO        -0.0104
     39 CG        -38.8530    3.3360    5.2790 C.3       1 PRO        -0.0281
     40 CD        -38.8950    2.8540    3.8620 C.3       1 PRO         0.0369
     41 N         -35.0890    0.5240    5.5310 N.am      1 GLY        -0.2664
     42 CA        -34.5100   -0.7810    5.8420 C.3       1 GLY         0.1201
     43 C         -34.0500   -1.5840    4.6380 C.2       1 GLY         0.2007
     44 O         -33.6280   -2.7340    4.7940 O.2       1 GLY        -0.3947
     45 N         -34.1280   -0.9900    3.4450 N.am      1 GLN        -0.2638
     46 CA        -33.7180   -1.6530    2.2090 C.3       1 GLN         0.1332
     47 C         -32.4320   -1.0100    1.6900 C.2       1 GLN         0.2065
     48 O         -32.2660    0.2000    1.7950 O.2       1 GLN        -0.3942
     49 CB        -34.8150   -1.5370    1.1460 C.3       1 GLN         0.0045
     50 CG        -36.1710   -2.1050    1.5540 C.3       1 GLN         0.0412
     51 CD        -36.1500   -3.6030    1.8100 C.2       1 GLN         0.1737
     52 OE1       -35.2660   -4.3190    1.3350 O.2       1 GLN        -0.3973
     53 NE2       -37.1340   -4.0850    2.5610 N.am      1 GLN        -0.3009
     54 N         -31.5180   -1.8140    1.1170 N.am      1 PRO        -0.2498
     55 CA        -30.2470   -1.2390    0.6610 C.3       1 PRO         0.1338
     56 C         -30.3790   -0.1880   -0.4460 C.2       1 PRO         0.2042
     57 O         -31.3620   -0.1720   -1.1970 O.2       1 PRO        -0.3944
     58 CB        -29.4720   -2.4530    0.1260 C.3       1 PRO        -0.0104
     59 CG        -30.1520   -3.6500    0.6910 C.3       1 PRO        -0.0281
     60 CD        -31.5830   -3.2660    0.8810 C.3       1 PRO         0.0369
     61 N         -29.3700    0.6710   -0.5410 N.am      1 PHE        -0.2619
     62 CA        -29.2370    1.5690   -1.6790 C.3       1 PHE         0.1404
     63 C         -29.0500    0.6980   -2.9210 C.2       1 PHE         0.2058
     64 O         -28.2970   -0.2770   -2.8900 O.2       1 PHE        -0.3942
     65 CB        -28.0540    2.5270   -1.4860 C.3       1 PHE         0.0214
     66 CG        -28.2270    3.4820   -0.3320 C.ar      1 PHE        -0.0386
     67 CD1       -28.8440    4.7100   -0.5180 C.ar      1 PHE        -0.0601
     68 CD2       -27.7870    3.1480    0.9410 C.ar      1 PHE        -0.0601
     69 CE1       -29.0150    5.5870    0.5390 C.ar      1 PHE        -0.0686
     70 CE2       -27.9530    4.0210    2.0050 C.ar      1 PHE        -0.0686
     71 CZ        -28.5660    5.2440    1.8040 C.ar      1 PHE        -0.0687
     72 N         -29.7760    1.0210   -3.9890 N.am      1 GLY        -0.2663
     73 CA        -29.7310    0.2450   -5.2260 C.3       1 GLY         0.1201
     74 C         -30.6750   -0.9480   -5.2740 C.2       1 GLY         0.2007
     75 O         -30.7370   -1.6360   -6.2870 O.2       1 GLY        -0.3947
     76 N         -31.4140   -1.1930   -4.1900 N.am      1 GLN        -0.2638
     77 CA        -32.3510   -2.3180   -4.1090 C.3       1 GLN         0.1332
     78 C         -33.3890   -2.2420   -5.2290 C.2       1 GLN         0.2065
     79 O         -34.1050   -1.2490   -5.3300 O.2       1 GLN        -0.3942
     80 CB        -33.0630   -2.3070   -2.7470 C.3       1 GLN         0.0045
     81 CG        -34.1770   -3.3330   -2.5710 C.3       1 GLN         0.0412
     82 CD        -33.6660   -4.7570   -2.5100 C.2       1 GLN         0.1737
     83 OE1       -32.6740   -5.0450   -1.8430 O.2       1 GLN        -0.3973
     84 NE2       -34.3520   -5.6610   -3.1980 N.am      1 GLN        -0.3009
     85 N         -33.4710   -3.2820   -6.0820 N.am      1 PRO        -0.2498
     86 CA        -34.5360   -3.2530   -7.0920 C.3       1 PRO         0.1340
     87 C         -35.9300   -3.3440   -6.4570 C.2       1 PRO         0.2066
     88 O         -36.0900   -4.0220   -5.4420 O.2       1 PRO        -0.3942
     89 CB        -34.2430   -4.4790   -7.9710 C.3       1 PRO        -0.0104
     90 CG        -33.3190   -5.3360   -7.1780 C.3       1 PRO        -0.0281
     91 CD        -32.5630   -4.4300   -6.2570 C.3       1 PRO         0.0369
     92 N         -36.9270   -2.6460   -7.0350 N.am      1 PRO        -0.2498
     93 CA        -38.2930   -2.6870   -6.5130 C.3       1 PRO         0.1337
     94 C         -39.1070   -3.8520   -7.0790 C.2       1 PRO         0.2036
     95 O         -38.6210   -4.5830   -7.9440 O.2       1 PRO        -0.3944
     96 CB        -38.8720   -1.3570   -6.9880 C.3       1 PRO        -0.0104
     97 CG        -38.1940   -1.1230   -8.2980 C.3       1 PRO        -0.0281
     98 CD        -36.8160   -1.7230   -8.1810 C.3       1 PRO         0.0369
     99 N         -40.3330   -4.0130   -6.5820 N.am      1 LEU        -0.2673
    100 CA        -41.2700   -5.0290   -7.0770 C.3       1 LEU         0.1198
    101 C         -40.6900   -6.4440   -7.0080 C.2       1 LEU         0.2147
    102 O         -41.2170   -7.3760   -7.6200 O.co2     1 LEU        -0.4120
    103 CB        -41.7000   -4.7040   -8.5110 C.3       1 LEU        -0.0276
    104 H         -42.0468    4.8699   -4.2962 H         1 PRO         0.2035
    105 H         -42.3657    6.4230   -4.7387 H         1 PRO         0.2035
    106 H         -40.4337    7.2434   -4.0172 H         1 PRO         0.1099
    107 H         -39.7371    6.6597   -1.8206 H         1 PRO         0.0347
    108 H         -40.1652    4.9290   -2.0401 H         1 PRO         0.0347
    109 H         -41.8983    7.2704   -1.3424 H         1 PRO         0.0320
    110 H         -42.0410    5.5456   -0.8615 H         1 PRO         0.0320
    111 H         -43.4366    5.1043   -2.6078 H         1 PRO         0.0814
    112 H         -43.5041    6.8741   -2.9073 H         1 PRO         0.0814
    113 H         -38.1367    6.6221   -4.1663 H         1 VAL         0.1885
    114 H         -37.7296    4.3103   -5.9492 H         1 VAL         0.0802
    115 H         -35.8356    6.5152   -5.0026 H         1 VAL         0.0343
    116 H         -34.2483    5.6301   -6.6819 H         1 VAL         0.0234
    117 H         -35.3580    4.2543   -7.0018 H         1 VAL         0.0234
    118 H         -34.5872    4.4302   -5.3889 H         1 VAL         0.0234
    119 H         -37.6200    7.2234   -6.5704 H         1 VAL         0.0234
    120 H         -37.1138    5.9384   -7.7188 H         1 VAL         0.0234
    121 H         -35.9951    7.2899   -7.3331 H         1 VAL         0.0234
    122 H         -36.7570    5.4833   -2.7357 H         1 LEU         0.1883
    123 H         -35.7102    2.7521   -2.1243 H         1 LEU         0.0800
    124 H         -34.2690    3.9169   -0.4230 H         1 LEU         0.0315
    125 H         -34.8213    5.4858   -1.1014 H         1 LEU         0.0315
    126 H         -33.8818    4.7849   -3.3139 H         1 LEU         0.0298
    127 H         -31.5246    5.1775   -2.6911 H         1 LEU         0.0232
    128 H         -31.9314    4.8592   -0.9707 H         1 LEU         0.0232
    129 H         -32.6450    6.2749   -1.8152 H         1 LEU         0.0232
    130 H         -33.9547    2.3438   -2.9247 H         1 LEU         0.0232
    131 H         -32.6668    2.5075   -1.6832 H         1 LEU         0.0232
    132 H         -32.3138    2.8984   -3.4006 H         1 LEU         0.0232
    133 H         -36.1941    1.8742   -0.1645 H         1 PHE         0.1885
    134 H         -38.3894    3.1987    1.3666 H         1 PHE         0.0823
    135 H         -39.3128    0.9495    1.7496 H         1 PHE         0.0474
    136 H         -37.9878    0.2286    0.7741 H         1 PHE         0.0474
    137 H         -37.8986    0.6367   -1.6667 H         1 PHE         0.0557
    138 H         -41.2024    1.9596    0.7019 H         1 PHE         0.0557
    139 H         -39.2497    0.9104   -3.7083 H         1 PHE         0.0599
    140 H         -42.5543    2.2382   -1.3391 H         1 PHE         0.0599
    141 H         -41.5795    1.7134   -3.5481 H         1 PHE         0.0559
    142 H         -35.9761    2.7754    4.9834 H         1 PRO         0.0802
    143 H         -37.4275    2.9550    6.8248 H         1 PRO         0.0313
    144 H         -38.3973    1.5284    6.3238 H         1 PRO         0.0313
    145 H         -38.5057    4.3789    5.3209 H         1 PRO         0.0287
    146 H         -39.8488    3.2623    5.7405 H         1 PRO         0.0287
    147 H         -39.6620    2.0761    3.7333 H         1 PRO         0.0524
    148 H         -39.0953    3.6847    3.1693 H         1 PRO         0.0524
    149 H         -34.5229    1.3412    5.6391 H         1 GLY         0.1881
    150 H         -35.2685   -1.3720    6.3763 H         1 GLY         0.0763
    151 H         -33.6411   -0.6211    6.4973 H         1 GLY         0.0763
    152 H         -34.4805   -0.0555    3.3953 H         1 GLN         0.1883
    153 H         -33.5325   -2.7170    2.4173 H         1 GLN         0.0801
    154 H         -34.4771   -2.0732    0.2470 H         1 GLN         0.0337
    155 H         -34.9489   -0.4713    0.9087 H         1 GLN         0.0337
    156 H         -36.8909   -1.8999    0.7480 H         1 GLN         0.0504
    157 H         -36.4973   -1.5993    2.4747 H         1 GLN         0.0504
    158 H         -37.1744   -5.0632    2.7647 H         1 GLN         0.1814
    159 H         -37.8344   -3.4696    2.9227 H         1 GLN         0.1814
    160 H         -29.7197   -0.7848    1.5129 H         1 PRO         0.0802
    161 H         -28.4242   -2.4153    0.4586 H         1 PRO         0.0313
    162 H         -29.5073   -2.4758   -0.9732 H         1 PRO         0.0313
    163 H         -29.7000   -3.9256    1.6552 H         1 PRO         0.0287
    164 H         -30.0740   -4.4973   -0.0061 H         1 PRO         0.0287
    165 H         -32.1741   -3.4926   -0.0186 H         1 PRO         0.0524
    166 H         -32.0186   -3.7864    1.7467 H         1 PRO         0.0524
    167 H         -28.6851    0.7015    0.1870 H         1 PHE         0.1885
    168 H         -30.1563    2.1635   -1.7856 H         1 PHE         0.0823
    169 H         -27.9299    3.1151   -2.4073 H         1 PHE         0.0474
    170 H         -27.1484    1.9285   -1.3082 H         1 PHE         0.0474
    171 H         -29.1972    4.9868   -1.5048 H         1 PHE         0.0557
    172 H         -27.3064    2.1904    1.1058 H         1 PHE         0.0557
    173 H         -29.5004    6.5426    0.3770 H         1 PHE         0.0599
    174 H         -27.6028    3.7453    2.9931 H         1 PHE         0.0599
    175 H         -28.6947    5.9313    2.6324 H         1 PHE         0.0559
    176 H         -30.3726    1.8222   -3.9430 H         1 GLY         0.1881
    177 H         -28.7043   -0.1273   -5.3577 H         1 GLY         0.0763
    178 H         -29.9874    0.9162   -6.0589 H         1 GLY         0.0763
    179 H         -31.3251   -0.5848   -3.4012 H         1 GLN         0.1883
    180 H         -31.7867   -3.2567   -4.2110 H         1 GLN         0.0801
    181 H         -33.4991   -1.3076   -2.6025 H         1 GLN         0.0337
    182 H         -32.3072   -2.4932   -1.9698 H         1 GLN         0.0337
    183 H         -34.8711   -3.2458   -3.4199 H         1 GLN         0.0504
    184 H         -34.7121   -3.1124   -1.6356 H         1 GLN         0.0504
    185 H         -34.0614   -6.6178   -3.1950 H         1 GLN         0.1814
    186 H         -35.1595   -5.3854   -3.7195 H         1 GLN         0.1814
    187 H         -34.4747   -2.3295   -7.6864 H         1 PRO         0.0802
    188 H         -33.7654   -4.1699   -8.9124 H         1 PRO         0.0313
    189 H         -35.1734   -5.0222   -8.1929 H         1 PRO         0.0313
    190 H         -32.6219   -5.8605   -7.8480 H         1 PRO         0.0287
    191 H         -33.8927   -6.0725   -6.5963 H         1 PRO         0.0287
    192 H         -32.3643   -4.9245   -5.2947 H         1 PRO         0.0524
    193 H         -31.6119   -4.1136   -6.7100 H         1 PRO         0.0524
    194 H         -38.2878   -2.7491   -5.4148 H         1 PRO         0.0802
    195 H         -38.6389   -0.5513   -6.2764 H         1 PRO         0.0313
    196 H         -39.9620   -1.4277   -7.1177 H         1 PRO         0.0313
    197 H         -38.1226   -0.0443   -8.5014 H         1 PRO         0.0287
    198 H         -38.7539   -1.6127   -9.1083 H         1 PRO         0.0287
    199 H         -36.5474   -2.2680   -9.0979 H         1 PRO         0.0524
    200 H         -36.0652   -0.9435   -7.9844 H         1 PRO         0.0524
    201 H         -40.6283   -3.4141   -5.8376 H         1 LEU         0.1876
    202 H         -42.1635   -5.0010   -6.4361 H         1 LEU         0.0748
    203 O1        -39.6594   -6.6596   -6.3160 O.co2     1 LEU        -0.4120
    204 H         -42.4009   -5.4735   -8.8669 H         1 LEU         0.0271
    205 H         -40.8148   -4.6843   -9.1637 H         1 LEU         0.0271
    206 H         -42.1931   -3.7209   -8.5321 H         1 LEU         0.0271
@<TRIPOS>BOND
     1    1    2 1  
     2    1    7 1  
     3    2    3 1  
     4    2    5 1  
     5    3    4 2  
     6    3    8 am 
     7    5    6 1  
     8    6    7 1  
     9    8    9 1  
    10    9   10 1  
    11    9   12 1  
    12   10   11 2  
    13   10   15 am 
    14   12   13 1  
    15   12   14 1  
    16   15   16 1  
    17   16   17 1  
    18   16   19 1  
    19   17   18 2  
    20   17   23 am 
    21   19   20 1  
    22   20   21 1  
    23   20   22 1  
    24   23   24 1  
    25   24   25 1  
    26   24   27 1  
    27   25   26 2  
    28   25   34 am 
    29   27   28 1  
    30   28   29 ar 
    31   28   30 ar 
    32   29   31 ar 
    33   30   32 ar 
    34   31   33 ar 
    35   32   33 ar 
    36   34   35 1  
    37   34   40 1  
    38   35   36 1  
    39   35   38 1  
    40   36   37 2  
    41   36   41 am 
    42   38   39 1  
    43   39   40 1  
    44   41   42 1  
    45   42   43 1  
    46   43   44 2  
    47   43   45 am 
    48   45   46 1  
    49   46   47 1  
    50   46   49 1  
    51   47   48 2  
    52   47   54 am 
    53   49   50 1  
    54   50   51 1  
    55   51   52 2  
    56   51   53 am 
    57   54   55 1  
    58   54   60 1  
    59   55   56 1  
    60   55   58 1  
    61   56   57 2  
    62   56   61 am 
    63   58   59 1  
    64   59   60 1  
    65   61   62 1  
    66   62   63 1  
    67   62   65 1  
    68   63   64 2  
    69   63   72 am 
    70   65   66 1  
    71   66   67 ar 
    72   66   68 ar 
    73   67   69 ar 
    74   68   70 ar 
    75   69   71 ar 
    76   70   71 ar 
    77   72   73 1  
    78   73   74 1  
    79   74   75 2  
    80   74   76 am 
    81   76   77 1  
    82   77   78 1  
    83   77   80 1  
    84   78   79 2  
    85   78   85 am 
    86   80   81 1  
    87   81   82 1  
    88   82   83 2  
    89   82   84 am 
    90   85   86 1  
    91   85   91 1  
    92   86   87 1  
    93   86   89 1  
    94   87   88 2  
    95   87   92 am 
    96   89   90 1  
    97   90   91 1  
    98   92   93 1  
    99   92   98 1  
   100   93   94 1  
   101   93   96 1  
   102   94   95 2  
   103   94   99 am 
   104   96   97 1  
   105   97   98 1  
   106   99  100 1  
   107  100  101 1  
   108  100  103 1  
   109  101  102 ar 
   110    1  104 1  
   111    1  105 1  
   112    2  106 1  
   113    5  107 1  
   114    5  108 1  
   115    6  109 1  
   116    6  110 1  
   117    7  111 1  
   118    7  112 1  
   119    8  113 1  
   120    9  114 1  
   121   12  115 1  
   122   13  116 1  
   123   13  117 1  
   124   13  118 1  
   125   14  119 1  
   126   14  120 1  
   127   14  121 1  
   128   15  122 1  
   129   16  123 1  
   130   19  124 1  
   131   19  125 1  
   132   20  126 1  
   133   21  127 1  
   134   21  128 1  
   135   21  129 1  
   136   22  130 1  
   137   22  131 1  
   138   22  132 1  
   139   23  133 1  
   140   24  134 1  
   141   27  135 1  
   142   27  136 1  
   143   29  137 1  
   144   30  138 1  
   145   31  139 1  
   146   32  140 1  
   147   33  141 1  
   148   35  142 1  
   149   38  143 1  
   150   38  144 1  
   151   39  145 1  
   152   39  146 1  
   153   40  147 1  
   154   40  148 1  
   155   41  149 1  
   156   42  150 1  
   157   42  151 1  
   158   45  152 1  
   159   46  153 1  
   160   49  154 1  
   161   49  155 1  
   162   50  156 1  
   163   50  157 1  
   164   53  158 1  
   165   53  159 1  
   166   55  160 1  
   167   58  161 1  
   168   58  162 1  
   169   59  163 1  
   170   59  164 1  
   171   60  165 1  
   172   60  166 1  
   173   61  167 1  
   174   62  168 1  
   175   65  169 1  
   176   65  170 1  
   177   67  171 1  
   178   68  172 1  
   179   69  173 1  
   180   70  174 1  
   181   71  175 1  
   182   72  176 1  
   183   73  177 1  
   184   73  178 1  
   185   76  179 1  
   186   77  180 1  
   187   80  181 1  
   188   80  182 1  
   189   81  183 1  
   190   81  184 1  
   191   84  185 1  
   192   84  186 1  
   193   86  187 1  
   194   89  188 1  
   195   89  189 1  
   196   90  190 1  
   197   90  191 1  
   198   91  192 1  
   199   91  193 1  
   200   93  194 1  
   201   96  195 1  
   202   96  196 1  
   203   97  197 1  
   204   97  198 1  
   205   98  199 1  
   206   98  200 1  
   207   99  201 1  
   208  100  202 1  
   209  101  203 ar 
   210  103  204 1  
   211  103  205 1  
   212  103  206 1  
@<TRIPOS>SUBSTRUCTURE
     1 PRO         1

