4u0a_ligand
  -I-interpret- 

207213  0  0  0  0  0  0  0  0999 V2000
  -42.0040    5.8340   -4.0050 N   0  3  0  0  0
  -40.6140    6.1900   -3.7570 C   0  0  0  0  0
  -39.6250    5.3120   -4.5230 C   0  0  0  0  0
  -40.0130    4.2810   -5.0760 O   0  0  0  0  0
  -40.4730    5.9640   -2.2500 C   0  0  0  0  0
  -41.8360    6.2310   -1.6970 C   0  0  0  0  0
  -42.8370    6.0060   -2.8010 C   0  0  0  0  0
  -38.3620    5.7300   -4.5580 N   0  0  0  0  0
  -37.2940    4.9280   -5.1500 C   0  0  0  0  0
  -36.6910    4.0020   -4.0950 C   0  0  0  0  0
  -36.4130    2.8360   -4.3730 O   0  0  0  0  0
  -36.1950    5.8160   -5.7720 C   0  0  0  0  0
  -35.0150    4.9740   -6.2440 C   0  0  0  0  0
  -36.7710    6.6230   -6.9290 C   0  0  0  0  0
  -36.4970    4.5300   -2.8890 N   0  0  0  0  0
  -35.9210    3.7760   -1.7820 C   0  0  0  0  0
  -36.8820    3.7120   -0.6070 C   0  0  0  0  0
  -37.6090    4.6690   -0.3330 O   0  0  0  0  0
  -34.6160    4.4300   -1.3320 C   0  0  0  0  0
  -33.4970    4.3760   -2.3680 C   0  0  0  0  0
  -32.3180    5.2310   -1.9310 C   0  0  0  0  0
  -33.0790    2.9310   -2.6110 C   0  0  0  0  0
  -36.8570    2.5780    0.0910 N   0  0  0  0  0
  -37.7500    2.3180    1.2070 C   0  0  0  0  0
  -36.9420    2.0570    2.4680 C   0  0  0  0  0
  -35.7910    1.6280    2.3810 O   0  0  0  0  0
  -38.6340    1.1100    0.8990 C   0  0  0  0  0
  -39.4590    1.2730   -0.3420 C   0  0  0  0  0
  -38.9220    0.9860   -1.5910 C   0  0  0  0  0
  -40.7710    1.7270   -0.2650 C   0  0  0  0  0
  -39.6790    1.1410   -2.7400 C   0  0  0  0  0
  -41.5320    1.8850   -1.4110 C   0  0  0  0  0
  -40.9850    1.5910   -2.6500 C   0  0  0  0  0
  -37.5430    2.3030    3.6490 N   0  0  0  0  0
  -36.8360    2.0930    4.9140 C   0  0  0  0  0
  -36.3430    0.6630    5.1090 C   0  0  0  0  0
  -37.0870   -0.2880    4.8680 O   0  0  0  0  0
  -37.8910    2.4390    5.9710 C   0  0  0  0  0
  -38.8530    3.3360    5.2790 C   0  0  0  0  0
  -38.8950    2.8540    3.8620 C   0  0  0  0  0
  -35.0890    0.5240    5.5310 N   0  0  0  0  0
  -34.5100   -0.7810    5.8420 C   0  0  0  0  0
  -34.0500   -1.5840    4.6380 C   0  0  0  0  0
  -33.6280   -2.7340    4.7940 O   0  0  0  0  0
  -34.1280   -0.9900    3.4450 N   0  0  0  0  0
  -33.7180   -1.6530    2.2090 C   0  0  0  0  0
  -32.4320   -1.0100    1.6900 C   0  0  0  0  0
  -32.2660    0.2000    1.7950 O   0  0  0  0  0
  -34.8150   -1.5370    1.1460 C   0  0  0  0  0
  -36.1710   -2.1050    1.5540 C   0  0  0  0  0
  -36.1500   -3.6030    1.8100 C   0  0  0  0  0
  -35.2660   -4.3190    1.3350 O   0  0  0  0  0
  -37.1340   -4.0850    2.5610 N   0  0  0  0  0
  -31.5180   -1.8140    1.1170 N   0  0  0  0  0
  -30.2470   -1.2390    0.6610 C   0  0  0  0  0
  -30.3790   -0.1880   -0.4460 C   0  0  0  0  0
  -31.3620   -0.1720   -1.1970 O   0  0  0  0  0
  -29.4720   -2.4530    0.1260 C   0  0  0  0  0
  -30.1520   -3.6500    0.6910 C   0  0  0  0  0
  -31.5830   -3.2660    0.8810 C   0  0  0  0  0
  -29.3700    0.6710   -0.5410 N   0  0  0  0  0
  -29.2370    1.5690   -1.6790 C   0  0  0  0  0
  -29.0500    0.6980   -2.9210 C   0  0  0  0  0
  -28.2970   -0.2770   -2.8900 O   0  0  0  0  0
  -28.0540    2.5270   -1.4860 C   0  0  0  0  0
  -28.2270    3.4820   -0.3320 C   0  0  0  0  0
  -28.8440    4.7100   -0.5180 C   0  0  0  0  0
  -27.7870    3.1480    0.9410 C   0  0  0  0  0
  -29.0150    5.5870    0.5390 C   0  0  0  0  0
  -27.9530    4.0210    2.0050 C   0  0  0  0  0
  -28.5660    5.2440    1.8040 C   0  0  0  0  0
  -29.7760    1.0210   -3.9890 N   0  0  0  0  0
  -29.7310    0.2450   -5.2260 C   0  0  0  0  0
  -30.6750   -0.9480   -5.2740 C   0  0  0  0  0
  -30.7370   -1.6360   -6.2870 O   0  0  0  0  0
  -31.4140   -1.1930   -4.1900 N   0  0  0  0  0
  -32.3510   -2.3180   -4.1090 C   0  0  0  0  0
  -33.3890   -2.2420   -5.2290 C   0  0  0  0  0
  -34.1050   -1.2490   -5.3300 O   0  0  0  0  0
  -33.0630   -2.3070   -2.7470 C   0  0  0  0  0
  -34.1770   -3.3330   -2.5710 C   0  0  0  0  0
  -33.6660   -4.7570   -2.5100 C   0  0  0  0  0
  -32.6740   -5.0450   -1.8430 O   0  0  0  0  0
  -34.3520   -5.6610   -3.1980 N   0  0  0  0  0
  -33.4710   -3.2820   -6.0820 N   0  0  0  0  0
  -34.5360   -3.2530   -7.0920 C   0  0  0  0  0
  -35.9300   -3.3440   -6.4570 C   0  0  0  0  0
  -36.0900   -4.0220   -5.4420 O   0  0  0  0  0
  -34.2430   -4.4790   -7.9710 C   0  0  0  0  0
  -33.3190   -5.3360   -7.1780 C   0  0  0  0  0
  -32.5630   -4.4300   -6.2570 C   0  0  0  0  0
  -36.9270   -2.6460   -7.0350 N   0  0  0  0  0
  -38.2930   -2.6870   -6.5130 C   0  0  0  0  0
  -39.1070   -3.8520   -7.0790 C   0  0  0  0  0
  -38.6210   -4.5830   -7.9440 O   0  0  0  0  0
  -38.8720   -1.3570   -6.9880 C   0  0  0  0  0
  -38.1940   -1.1230   -8.2980 C   0  0  0  0  0
  -36.8160   -1.7230   -8.1810 C   0  0  0  0  0
  -40.3330   -4.0130   -6.5820 N   0  0  0  0  0
  -41.2700   -5.0290   -7.0770 C   0  0  0  0  0
  -40.6900   -6.4440   -7.0080 C   0  0  0  0  0
  -41.2170   -7.3760   -7.6200 O   0  0  0  0  0
  -41.7000   -4.7040   -8.5110 C   0  0  0  0  0
  -39.6594   -6.6596   -6.3160 O   0  0  0  0  0
  -42.0390    4.8528   -4.2813 H   0  0  0  0  0
  -42.3663    6.4468   -4.7355 H   0  0  0  0  0
  -40.3880    7.2044   -4.0857 H   0  0  0  0  0
  -39.7202    6.6177   -1.8095 H   0  0  0  0  0
  -40.1316    4.9546   -2.0204 H   0  0  0  0  0
  -41.9009    7.2561   -1.3322 H   0  0  0  0  0
  -42.0410    5.5633   -0.8602 H   0  0  0  0  0
  -43.4747    5.1425   -2.6120 H   0  0  0  0  0
  -43.5392    6.8340   -2.8982 H   0  0  0  0  0
  -38.1322    6.6399   -4.1585 H   0  0  0  0  0
  -37.7280    4.3292   -5.9508 H   0  0  0  0  0
  -35.8322    6.5026   -5.0071 H   0  0  0  0  0
  -34.5921    4.4357   -5.3958 H   0  0  0  0  0
  -35.3561    4.2613   -6.9948 H   0  0  0  0  0
  -34.2561    5.6252   -6.6777 H   0  0  0  0  0
  -37.1562    5.9427   -7.6885 H   0  0  0  0  0
  -37.5794    7.2554   -6.5622 H   0  0  0  0  0
  -35.9879    7.2461   -7.3610 H   0  0  0  0  0
  -36.7622    5.5024   -2.7326 H   0  0  0  0  0
  -35.7263    2.7612   -2.1289 H   0  0  0  0  0
  -34.2685    3.8829   -0.4556 H   0  0  0  0  0
  -34.8316    5.4824   -1.1472 H   0  0  0  0  0
  -33.8659    4.7848   -3.3087 H   0  0  0  0  0
  -32.6433    6.2650   -1.8166 H   0  0  0  0  0
  -31.9359    4.8616   -0.9794 H   0  0  0  0  0
  -31.5326    5.1772   -2.6849 H   0  0  0  0  0
  -32.7246    2.4947   -1.6771 H   0  0  0  0  0
  -33.9345    2.3633   -2.9771 H   0  0  0  0  0
  -32.2800    2.9049   -3.3520 H   0  0  0  0  0
  -36.1808    1.8602   -0.1696 H   0  0  0  0  0
  -38.3832    3.1914    1.3634 H   0  0  0  0  0
  -39.3218    0.9858    1.7354 H   0  0  0  0  0
  -37.9768    0.2541    0.7452 H   0  0  0  0  0
  -37.8929    0.6348   -1.6672 H   0  0  0  0  0
  -41.2048    1.9609    0.7072 H   0  0  0  0  0
  -39.2473    0.9091   -3.7136 H   0  0  0  0  0
  -42.5600    2.2402   -1.3387 H   0  0  0  0  0
  -41.5828    1.7140   -3.5531 H   0  0  0  0  0
  -35.9316    2.6995    4.9636 H   0  0  0  0  0
  -37.4461    2.9204    6.8419 H   0  0  0  0  0
  -38.3805    1.5458    6.3592 H   0  0  0  0  0
  -38.5425    4.3791    5.3385 H   0  0  0  0  0
  -39.8385    3.3016    5.7435 H   0  0  0  0  0
  -39.6795    2.1163    3.6934 H   0  0  0  0  0
  -39.1399    3.6479    3.1564 H   0  0  0  0  0
  -34.5116    1.3576    5.6413 H   0  0  0  0  0
  -35.2922   -1.3640    6.3282 H   0  0  0  0  0
  -33.6260   -0.5952    6.4520 H   0  0  0  0  0
  -34.4876   -0.0368    3.3943 H   0  0  0  0  0
  -33.5453   -2.7089    2.4175 H   0  0  0  0  0
  -34.4794   -2.1127    0.2834 H   0  0  0  0  0
  -34.9624   -0.4730    0.9608 H   0  0  0  0  0
  -36.8627   -1.9233    0.7314 H   0  0  0  0  0
  -36.4631   -1.6181    2.4845 H   0  0  0  0  0
  -37.1781   -5.0835    2.7644 H   0  0  0  0  0
  -37.8455   -3.4566    2.9342 H   0  0  0  0  0
  -29.7647   -0.7048    1.4796 H   0  0  0  0  0
  -28.4237   -2.4160    0.4224 H   0  0  0  0  0
  -29.4724   -2.4745   -0.9638 H   0  0  0  0  0
  -29.6974   -3.9510    1.6348 H   0  0  0  0  0
  -30.0604   -4.5059    0.0224 H   0  0  0  0  0
  -32.2032   -3.5234    0.0224 H   0  0  0  0  0
  -32.0551   -3.8033    1.7035 H   0  0  0  0  0
  -28.6714    0.7021    0.2016 H   0  0  0  0  0
  -30.1253    2.1919   -1.7842 H   0  0  0  0  0
  -27.9685    3.1252   -2.3932 H   0  0  0  0  0
  -27.1741    1.9190   -1.2759 H   0  0  0  0  0
  -29.1991    4.9883   -1.5102 H   0  0  0  0  0
  -27.3038    2.1851    1.1067 H   0  0  0  0  0
  -29.5031    6.5479    0.3761 H   0  0  0  0  0
  -27.6008    3.7437    2.9986 H   0  0  0  0  0
  -28.6954    5.9351    2.6369 H   0  0  0  0  0
  -30.3845    1.8382   -3.9421 H   0  0  0  0  0
  -28.7193   -0.1516   -5.3112 H   0  0  0  0  0
  -30.0331    0.9169   -6.0293 H   0  0  0  0  0
  -31.3233   -0.5727   -3.3854 H   0  0  0  0  0
  -31.7859   -3.2435   -4.2195 H   0  0  0  0  0
  -33.5301   -1.3267   -2.6522 H   0  0  0  0  0
  -32.3044   -2.5460   -2.0016 H   0  0  0  0  0
  -34.8396   -3.2547   -3.4330 H   0  0  0  0  0
  -34.6787   -3.1196   -1.6271 H   0  0  0  0  0
  -34.0617   -6.6388   -3.1865 H   0  0  0  0  0
  -35.1695   -5.3781   -3.7383 H   0  0  0  0  0
  -34.5442   -2.3201   -7.6557 H   0  0  0  0  0
  -33.7957   -4.1875   -8.9213 H   0  0  0  0  0
  -35.1589   -5.0127   -8.2247 H   0  0  0  0  0
  -32.6361   -5.8761   -7.8337 H   0  0  0  0  0
  -33.8760   -6.0830   -6.6124 H   0  0  0  0  0
  -32.3106   -4.9109   -5.3120 H   0  0  0  0  0
  -31.5935   -4.1382   -6.6608 H   0  0  0  0  0
  -38.3162   -2.8304   -5.4327 H   0  0  0  0  0
  -38.6947   -0.5492   -6.2780 H   0  0  0  0  0
  -39.9576   -1.3858   -7.0811 H   0  0  0  0  0
  -38.1377   -0.0580   -8.5232 H   0  0  0  0  0
  -38.7518   -1.5834   -9.1135 H   0  0  0  0  0
  -36.5072   -2.2320   -9.0941 H   0  0  0  0  0
  -36.0464   -0.9661   -8.0298 H   0  0  0  0  0
  -40.6342   -3.4022   -5.8227 H   0  0  0  0  0
  -42.1410   -5.0052   -6.4220 H   0  0  0  0  0
  -42.1884   -3.7297   -8.5305 H   0  0  0  0  0
  -40.8220   -4.6848   -9.1567 H   0  0  0  0  0
  -42.3945   -5.4671   -8.8625 H   0  0  0  0  0
  -39.3733   -5.8400   -5.9061 H   0  0  0  0  0
  1  2  1  0  0  0
  1  7  1  0  0  0
  2  3  1  0  0  0
  2  5  1  0  0  0
  3  4  2  0  0  0
  3  8  1  0  0  0
  5  6  1  0  0  0
  6  7  1  0  0  0
  8  9  1  0  0  0
  9 10  1  0  0  0
  9 12  1  0  0  0
 10 11  2  0  0  0
 10 15  1  0  0  0
 12 13  1  0  0  0
 12 14  1  0  0  0
 15 16  1  0  0  0
 16 17  1  0  0  0
 16 19  1  0  0  0
 17 18  2  0  0  0
 17 23  1  0  0  0
 19 20  1  0  0  0
 20 21  1  0  0  0
 20 22  1  0  0  0
 23 24  1  0  0  0
 24 25  1  0  0  0
 24 27  1  0  0  0
 25 26  2  0  0  0
 25 34  1  0  0  0
 27 28  1  0  0  0
 28 29  4  0  0  0
 28 30  4  0  0  0
 29 31  4  0  0  0
 30 32  4  0  0  0
 31 33  4  0  0  0
 32 33  4  0  0  0
 34 35  1  0  0  0
 34 40  1  0  0  0
 35 36  1  0  0  0
 35 38  1  0  0  0
 36 37  2  0  0  0
 36 41  1  0  0  0
 38 39  1  0  0  0
 39 40  1  0  0  0
 41 42  1  0  0  0
 42 43  1  0  0  0
 43 44  2  0  0  0
 43 45  1  0  0  0
 45 46  1  0  0  0
 46 47  1  0  0  0
 46 49  1  0  0  0
 47 48  2  0  0  0
 47 54  1  0  0  0
 49 50  1  0  0  0
 50 51  1  0  0  0
 51 52  2  0  0  0
 51 53  1  0  0  0
 54 55  1  0  0  0
 54 60  1  0  0  0
 55 56  1  0  0  0
 55 58  1  0  0  0
 56 57  2  0  0  0
 56 61  1  0  0  0
 58 59  1  0  0  0
 59 60  1  0  0  0
 61 62  1  0  0  0
 62 63  1  0  0  0
 62 65  1  0  0  0
 63 64  2  0  0  0
 63 72  1  0  0  0
 65 66  1  0  0  0
 66 67  4  0  0  0
 66 68  4  0  0  0
 67 69  4  0  0  0
 68 70  4  0  0  0
 69 71  4  0  0  0
 70 71  4  0  0  0
 72 73  1  0  0  0
 73 74  1  0  0  0
 74 75  2  0  0  0
 74 76  1  0  0  0
 76 77  1  0  0  0
 77 78  1  0  0  0
 77 80  1  0  0  0
 78 79  2  0  0  0
 78 85  1  0  0  0
 80 81  1  0  0  0
 81 82  1  0  0  0
 82 83  2  0  0  0
 82 84  1  0  0  0
 85 86  1  0  0  0
 85 91  1  0  0  0
 86 87  1  0  0  0
 86 89  1  0  0  0
 87 88  2  0  0  0
 87 92  1  0  0  0
 89 90  1  0  0  0
 90 91  1  0  0  0
 92 93  1  0  0  0
 92 98  1  0  0  0
 93 94  1  0  0  0
 93 96  1  0  0  0
 94 95  2  0  0  0
 94 99  1  0  0  0
 96 97  1  0  0  0
 97 98  1  0  0  0
 99100  1  0  0  0
100101  1  0  0  0
100103  1  0  0  0
101102  2  0  0  0
101104  1  0  0  0
  1105  1  0  0  0
  1106  1  0  0  0
  2107  1  0  0  0
  5108  1  0  0  0
  5109  1  0  0  0
  6110  1  0  0  0
  6111  1  0  0  0
  7112  1  0  0  0
  7113  1  0  0  0
  8114  1  0  0  0
  9115  1  0  0  0
 12116  1  0  0  0
 13117  1  0  0  0
 13118  1  0  0  0
 13119  1  0  0  0
 14120  1  0  0  0
 14121  1  0  0  0
 14122  1  0  0  0
 15123  1  0  0  0
 16124  1  0  0  0
 19125  1  0  0  0
 19126  1  0  0  0
 20127  1  0  0  0
 21128  1  0  0  0
 21129  1  0  0  0
 21130  1  0  0  0
 22131  1  0  0  0
 22132  1  0  0  0
 22133  1  0  0  0
 23134  1  0  0  0
 24135  1  0  0  0
 27136  1  0  0  0
 27137  1  0  0  0
 29138  1  0  0  0
 30139  1  0  0  0
 31140  1  0  0  0
 32141  1  0  0  0
 33142  1  0  0  0
 35143  1  0  0  0
 38144  1  0  0  0
 38145  1  0  0  0
 39146  1  0  0  0
 39147  1  0  0  0
 40148  1  0  0  0
 40149  1  0  0  0
 41150  1  0  0  0
 42151  1  0  0  0
 42152  1  0  0  0
 45153  1  0  0  0
 46154  1  0  0  0
 49155  1  0  0  0
 49156  1  0  0  0
 50157  1  0  0  0
 50158  1  0  0  0
 53159  1  0  0  0
 53160  1  0  0  0
 55161  1  0  0  0
 58162  1  0  0  0
 58163  1  0  0  0
 59164  1  0  0  0
 59165  1  0  0  0
 60166  1  0  0  0
 60167  1  0  0  0
 61168  1  0  0  0
 62169  1  0  0  0
 65170  1  0  0  0
 65171  1  0  0  0
 67172  1  0  0  0
 68173  1  0  0  0
 69174  1  0  0  0
 70175  1  0  0  0
 71176  1  0  0  0
 72177  1  0  0  0
 73178  1  0  0  0
 73179  1  0  0  0
 76180  1  0  0  0
 77181  1  0  0  0
 80182  1  0  0  0
 80183  1  0  0  0
 81184  1  0  0  0
 81185  1  0  0  0
 84186  1  0  0  0
 84187  1  0  0  0
 86188  1  0  0  0
 89189  1  0  0  0
 89190  1  0  0  0
 90191  1  0  0  0
 90192  1  0  0  0
 91193  1  0  0  0
 91194  1  0  0  0
 93195  1  0  0  0
 96196  1  0  0  0
 96197  1  0  0  0
 97198  1  0  0  0
 97199  1  0  0  0
 98200  1  0  0  0
 98201  1  0  0  0
 99202  1  0  0  0
100203  1  0  0  0
103204  1  0  0  0
103205  1  0  0  0
103206  1  0  0  0
104207  1  0  0  0
M  END
$$$$
