3unj_ligand
  -I-interpret- 

 37 39  0  0  0  0  0  0  0  0999 V2000
   74.5060   63.8680   64.9580 C   0  0  0  0  0
   73.7440   62.5950   65.1230 C   0  0  0  0  0
   74.3820   64.8040   65.9650 C   0  0  0  0  0
   75.0490   66.0090   65.9010 C   0  0  0  0  0
   75.8620   66.2870   64.8170 C   0  0  0  0  0
   76.0000   65.3520   63.7860 C   0  0  0  0  0
   75.3160   64.1320   63.8530 C   0  0  0  0  0
   76.5070   67.5640   64.8520 N   0  0  0  0  0
   77.5730   67.9790   63.9980 C   0  0  0  0  0
   77.9400   69.2650   63.9980 N   0  0  0  0  0
   78.9360   69.7050   63.2090 C   0  0  0  0  0
   79.5710   68.7840   62.3730 C   0  0  0  0  0
   79.1710   67.4450   62.3910 C   0  0  0  0  0
   78.1770   67.0820   63.2180 N   0  0  0  0  0
   79.7560   66.4340   61.5580 N   0  0  0  0  0
   80.9130   66.6080   60.7340 C   0  0  0  0  0
   82.0750   67.1630   61.2550 C   0  0  0  0  0
   83.2110   67.3280   60.4710 C   0  0  0  0  0
   83.1990   66.9070   59.1460 C   0  0  0  0  0
   82.0380   66.3310   58.6370 C   0  0  0  0  0
   80.8930   66.1780   59.4140 C   0  0  0  0  0
   72.7780   62.5650   65.9450 O   0  0  0  0  0
   74.0540   61.5600   64.4710 O   0  0  0  0  0
   73.7470   64.5871   66.8240 H   0  0  0  0  0
   74.9361   66.7399   66.7017 H   0  0  0  0  0
   76.6393   65.5728   62.9312 H   0  0  0  0  0
   75.4150   63.3985   63.0528 H   0  0  0  0  0
   76.1770   68.2346   65.5461 H   0  0  0  0  0
   79.2394   70.7518   63.2216 H   0  0  0  0  0
   80.3738   69.1075   61.7104 H   0  0  0  0  0
   79.3109   65.5163   61.5526 H   0  0  0  0  0
   82.0964   67.4752   62.2991 H   0  0  0  0  0
   84.1062   67.7849   60.8927 H   0  0  0  0  0
   84.0817   67.0256   58.5176 H   0  0  0  0  0
   82.0253   65.9905   57.6016 H   0  0  0  0  0
   79.9944   65.7275   58.9924 H   0  0  0  0  0
   72.6785   63.4288   66.3518 H   0  0  0  0  0
  1  2  1  0  0  0
  1  3  4  0  0  0
  1  7  4  0  0  0
  2 22  1  0  0  0
  2 23  2  0  0  0
  3  4  4  0  0  0
  4  5  4  0  0  0
  5  6  4  0  0  0
  5  8  1  0  0  0
  6  7  4  0  0  0
  8  9  1  0  0  0
  9 10  4  0  0  0
  9 14  4  0  0  0
 10 11  4  0  0  0
 11 12  4  0  0  0
 12 13  4  0  0  0
 13 14  4  0  0  0
 13 15  1  0  0  0
 15 16  1  0  0  0
 16 17  4  0  0  0
 16 21  4  0  0  0
 17 18  4  0  0  0
 18 19  4  0  0  0
 19 20  4  0  0  0
 20 21  4  0  0  0
  3 24  1  0  0  0
  4 25  1  0  0  0
  6 26  1  0  0  0
  7 27  1  0  0  0
  8 28  1  0  0  0
 11 29  1  0  0  0
 12 30  1  0  0  0
 15 31  1  0  0  0
 17 32  1  0  0  0
 18 33  1  0  0  0
 19 34  1  0  0  0
 20 35  1  0  0  0
 21 36  1  0  0  0
 22 37  1  0  0  0
M  END
$$$$
