3lpf_ligand
  -I-interpret- 

 54 56  0  0  0  0  0  0  0  0999 V2000
  -24.3860    4.2490   -4.1660 N   0  0  0  0  0
  -24.4770    6.6260   -4.1080 N   0  0  0  0  0
  -27.0610    6.4190   -7.9640 N   0  0  0  0  0
  -23.1520    0.3580   -0.2350 C   0  0  0  0  0
  -27.2850   11.6030  -10.3560 C   0  0  0  0  0
  -29.2220    9.5050  -11.1710 C   0  0  0  0  0
  -26.0620    4.9640   -6.4790 O   0  0  0  0  0
  -25.6080    9.9230   -2.7320 O   0  0  0  0  0
  -24.9050    5.4350   -1.8140 S   0  0  0  0  0
  -24.9480    0.6390   -4.0340 C   0  0  0  0  0
  -24.8060    1.9430   -4.5130 C   0  0  0  0  0
  -24.7960    0.3780   -2.6750 C   0  0  0  0  0
  -24.3570    2.7270   -2.2810 C   0  0  0  0  0
  -26.2530    9.9310   -8.7460 C   0  0  0  0  0
  -28.0710    7.9700   -9.5160 C   0  0  0  0  0
  -25.2310    8.3500   -7.1700 C   0  0  0  0  0
  -25.6460    8.8360   -3.6600 C   0  0  0  0  0
  -24.5720    7.8300   -3.2410 C   0  0  0  0  0
  -24.0810    6.7760   -5.5310 C   0  0  0  0  0
  -24.3520    1.1580   -0.4650 O   0  0  0  0  0
  -24.5550    5.4190   -3.5030 C   0  0  0  0  0
  -27.2160   10.2140   -9.7180 C   0  0  0  0  0
  -28.1370    9.2310  -10.1010 C   0  0  0  0  0
  -24.5100    3.0040   -3.6480 C   0  0  0  0  0
  -24.5010    1.4230   -1.7950 C   0  0  0  0  0
  -25.1820    7.0700   -6.5800 C   0  0  0  0  0
  -26.0990    6.1010   -6.9840 C   0  0  0  0  0
  -26.1940    8.6700   -8.1480 C   0  0  0  0  0
  -27.1050    7.6910   -8.5510 C   0  0  0  0  0
  -24.1409    4.3127   -5.1541 H   0  0  0  0  0
  -27.7369    5.7110   -8.2510 H   0  0  0  0  0
  -23.2352   -0.5837   -0.7775 H   0  0  0  0  0
  -22.2784    0.9061   -0.5878 H   0  0  0  0  0
  -23.0499    0.1567    0.8314 H   0  0  0  0  0
  -27.4687   12.3482   -9.5820 H   0  0  0  0  0
  -26.3400   11.8200  -10.8541 H   0  0  0  0  0
  -28.0952   11.6268  -11.0848 H   0  0  0  0  0
  -29.0857    8.8207  -12.0084 H   0  0  0  0  0
  -30.2087    9.3535  -10.7332 H   0  0  0  0  0
  -29.1328   10.5331  -11.5220 H   0  0  0  0  0
  -26.2742   10.5710   -2.9725 H   0  0  0  0  0
  -25.1776   -0.1735   -4.7233 H   0  0  0  0  0
  -24.9276    2.1385   -5.5784 H   0  0  0  0  0
  -24.9068   -0.6388   -2.2982 H   0  0  0  0  0
  -24.1233    3.5369   -1.5899 H   0  0  0  0  0
  -25.5408   10.7018   -8.4515 H   0  0  0  0  0
  -28.7786    7.1964   -9.8142 H   0  0  0  0  0
  -24.5094    9.1072   -6.8634 H   0  0  0  0  0
  -25.4567    9.1940   -4.6720 H   0  0  0  0  0
  -26.6294    8.3660   -3.6540 H   0  0  0  0  0
  -23.6130    8.3441   -3.3056 H   0  0  0  0  0
  -24.8355    7.4819   -2.2422 H   0  0  0  0  0
  -23.6694    5.8075   -5.8150 H   0  0  0  0  0
  -23.4271    7.6478   -5.5535 H   0  0  0  0  0
 21  1  1  0  0  0
  1 24  1  0  0  0
  2 18  1  0  0  0
 19  2  1  0  0  0
  2 21  1  0  0  0
  3 27  1  0  0  0
 29  3  1  0  0  0
 20  4  1  0  0  0
 22  5  1  0  0  0
 23  6  1  0  0  0
 27  7  2  0  0  0
 17  8  1  0  0  0
 21  9  2  0  0  0
 11 10  4  0  0  0
 10 12  4  0  0  0
 24 11  4  0  0  0
 25 12  4  0  0  0
 24 13  4  0  0  0
 13 25  4  0  0  0
 22 14  4  0  0  0
 14 28  4  0  0  0
 23 15  4  0  0  0
 15 29  4  0  0  0
 16 26  2  0  0  0
 28 16  1  0  0  0
 18 17  1  0  0  0
 26 19  1  0  0  0
 25 20  1  0  0  0
 22 23  4  0  0  0
 26 27  1  0  0  0
 28 29  4  0  0  0
  1 30  1  0  0  0
  3 31  1  0  0  0
  4 32  1  0  0  0
  4 33  1  0  0  0
  4 34  1  0  0  0
  5 35  1  0  0  0
  5 36  1  0  0  0
  5 37  1  0  0  0
  6 38  1  0  0  0
  6 39  1  0  0  0
  6 40  1  0  0  0
  8 41  1  0  0  0
 10 42  1  0  0  0
 11 43  1  0  0  0
 12 44  1  0  0  0
 13 45  1  0  0  0
 14 46  1  0  0  0
 15 47  1  0  0  0
 16 48  1  0  0  0
 17 49  1  0  0  0
 17 50  1  0  0  0
 18 51  1  0  0  0
 18 52  1  0  0  0
 19 53  1  0  0  0
 19 54  1  0  0  0
M  END
$$$$
