4del_ligand
  -I-interpret- 

 16 15  0  0  0  0  0  0  0  0999 V2000
    8.7110   41.3500   22.3350 C   0  0  0  0  0
    7.7240   41.5430   21.2300 C   0  0  0  0  0
    9.0290   42.3600   23.1140 N   0  0  0  0  0
    9.9230   42.1490   24.1330 O   0  0  0  0  0
    9.2650   40.1010   22.5080 O   0  0  0  0  0
    8.2230   40.9490   20.0440 O   0  0  0  0  0
    7.9490   40.3910   17.5730 O   0  0  0  0  0
    5.9910   41.0720   18.9180 O   0  0  0  0  0
    7.7510   42.7720   18.3540 O   0  0  0  0  0
    7.4600   41.3110   18.6620 P   0  0  0  0  0
    7.5664   42.6088   21.0648 H   0  0  0  0  0
    6.7778   41.0748   21.5013 H   0  0  0  0  0
    8.6193   43.2820   22.9639 H   0  0  0  0  0
   10.0579   42.9689   24.6137 H   0  0  0  0  0
    5.6883   41.6617   19.6124 H   0  0  0  0  0
    7.4240   43.3203   19.0710 H   0  0  0  0  0
  1  2  1  0  0  0
  1  3  1  0  0  0
  1  5  2  0  0  0
  2  6  1  0  0  0
  3  4  1  0  0  0
  6 10  1  0  0  0
 10  7  2  0  0  0
 10  8  1  0  0  0
 10  9  1  0  0  0
  2 11  1  0  0  0
  2 12  1  0  0  0
  3 13  1  0  0  0
  4 14  1  0  0  0
  8 15  1  0  0  0
  9 16  1  0  0  0
M  END
$$$$
