4ks5_ligand
  -I-interpret- 

 58 59  0  0  0  0  0  0  0  0999 V2000
  -13.2600  -23.4170   12.4910 C   0  0  0  0  0
  -13.9000  -22.0510   12.4150 C   0  0  0  0  0
  -13.3810  -21.2110   11.2480 C   0  0  0  0  0
  -13.6230  -21.3990   13.6420 O   0  0  0  0  0
  -15.3740  -22.2980   12.2200 C   0  0  0  0  0
  -16.2420  -22.5090   13.1470 C   0  0  0  0  0
  -15.9780  -22.3180   11.0600 N   0  0  0  0  0
  -17.1020  -22.5280   11.2600 N   0  0  0  0  0
  -17.3320  -22.6510   12.4390 N   0  0  0  0  0
  -18.6760  -22.9190   12.9420 C   0  0  0  0  0
  -18.7640  -24.4250   13.1890 C   0  0  0  0  0
  -17.8020  -24.8080   14.2660 N   0  0  0  0  0
  -16.7020  -25.5810   14.0300 C   0  0  0  0  0
  -15.8900  -25.9200   14.8690 O   0  0  0  0  0
  -16.4930  -26.0300   12.5990 C   0  0  0  0  0
  -19.6770  -22.4720   12.0670 C   0  0  0  0  0
  -20.9300  -23.0930   11.9230 C   0  0  0  0  0
  -21.9540  -22.5000   11.1910 C   0  0  0  0  0
  -23.0930  -22.5930   11.6350 O   0  0  0  0  0
  -21.7530  -21.8950   10.1190 O   0  0  0  0  0
  -21.2380  -24.3140   12.5200 C   0  0  0  0  0
  -20.2370  -24.8700   13.4880 C   0  0  0  0  0
  -20.4480  -26.3130   13.4050 O   0  0  0  0  0
  -20.3670  -26.9720   14.6960 C   0  0  0  0  0
  -20.0740  -28.4640   14.5520 C   0  0  0  0  0
  -18.8110  -28.7290   13.7360 C   0  0  0  0  0
  -21.6320  -26.7620   15.5030 C   0  0  0  0  0
  -22.8700  -26.8950   14.6170 C   0  0  0  0  0
  -13.6833  -23.9690   13.3302 H   0  0  0  0  0
  -13.4515  -23.9586   11.5646 H   0  0  0  0  0
  -12.1850  -23.3058   12.6328 H   0  0  0  0  0
  -13.5451  -21.7484   10.3140 H   0  0  0  0  0
  -13.9143  -20.2608   11.2205 H   0  0  0  0  0
  -12.3148  -21.0270   11.3803 H   0  0  0  0  0
  -12.6763  -21.2624   13.7239 H   0  0  0  0  0
  -16.1055  -22.5564   14.2274 H   0  0  0  0  0
  -18.8471  -22.3661   13.8657 H   0  0  0  0  0
  -18.4768  -24.9615   12.2847 H   0  0  0  0  0
  -17.9741  -24.4786   15.2159 H   0  0  0  0  0
  -15.5395  -25.6473   12.2350 H   0  0  0  0  0
  -16.4881  -27.1192   12.5584 H   0  0  0  0  0
  -17.3015  -25.6456   11.9772 H   0  0  0  0  0
  -19.4708  -21.5893   11.4617 H   0  0  0  0  0
  -20.8154  -21.9132    9.9135 H   0  0  0  0  0
  -21.2980  -25.0365   11.7061 H   0  0  0  0  0
  -22.1466  -24.1423   13.0972 H   0  0  0  0  0
  -20.3817  -24.4924   14.5002 H   0  0  0  0  0
  -19.5356  -26.5148   15.2325 H   0  0  0  0  0
  -20.9147  -28.9258   14.0343 H   0  0  0  0  0
  -19.9258  -28.8778   15.5494 H   0  0  0  0  0
  -18.9306  -28.3094   12.7371 H   0  0  0  0  0
  -17.9576  -28.2622   14.2278 H   0  0  0  0  0
  -18.6463  -29.8040   13.6625 H   0  0  0  0  0
  -21.6129  -25.7600   15.9317 H   0  0  0  0  0
  -21.6782  -27.5180   16.2868 H   0  0  0  0  0
  -22.8301  -26.1476   13.8246 H   0  0  0  0  0
  -22.8949  -27.8919   14.1770 H   0  0  0  0  0
  -23.7649  -26.7400   15.2197 H   0  0  0  0  0
  1  2  1  0  0  0
  2  3  1  0  0  0
  2  4  1  0  0  0
  2  5  1  0  0  0
  5  6  4  0  0  0
  5  7  4  0  0  0
  6  9  4  0  0  0
  7  8  4  0  0  0
  8  9  4  0  0  0
  9 10  1  0  0  0
 10 11  1  0  0  0
 10 16  1  0  0  0
 11 12  1  0  0  0
 11 22  1  0  0  0
 12 13  1  0  0  0
 13 14  2  0  0  0
 13 15  1  0  0  0
 16 17  2  0  0  0
 17 18  1  0  0  0
 17 21  1  0  0  0
 18 19  2  0  0  0
 18 20  1  0  0  0
 21 22  1  0  0  0
 22 23  1  0  0  0
 23 24  1  0  0  0
 24 25  1  0  0  0
 24 27  1  0  0  0
 25 26  1  0  0  0
 27 28  1  0  0  0
  1 29  1  0  0  0
  1 30  1  0  0  0
  1 31  1  0  0  0
  3 32  1  0  0  0
  3 33  1  0  0  0
  3 34  1  0  0  0
  4 35  1  0  0  0
  6 36  1  0  0  0
 10 37  1  0  0  0
 11 38  1  0  0  0
 12 39  1  0  0  0
 15 40  1  0  0  0
 15 41  1  0  0  0
 15 42  1  0  0  0
 16 43  1  0  0  0
 20 44  1  0  0  0
 21 45  1  0  0  0
 21 46  1  0  0  0
 22 47  1  0  0  0
 24 48  1  0  0  0
 25 49  1  0  0  0
 25 50  1  0  0  0
 26 51  1  0  0  0
 26 52  1  0  0  0
 26 53  1  0  0  0
 27 54  1  0  0  0
 27 55  1  0  0  0
 28 56  1  0  0  0
 28 57  1  0  0  0
 28 58  1  0  0  0
M  END
$$$$
