2w6m_ligand
  -I-interpret- 

 22 23  0  0  0  0  0  0  0  0999 V2000
    0.0340  -19.7960   22.6570 Br  0  0  0  0  0
    1.7520  -20.4620   23.1640 C   0  0  0  0  0
    1.9230  -21.9170   23.3010 C   0  0  0  0  0
    2.7250  -19.6750   23.3700 C   0  0  0  0  0
    3.8380  -20.0480   23.6890 C   0  0  0  0  0
    4.1540  -21.2660   23.8550 C   0  0  0  0  0
    3.1400  -22.3240   23.6600 C   0  0  0  0  0
    3.4680  -23.7410   23.8280 C   0  0  0  0  0
    4.5840  -24.1360   23.5240 O   0  0  0  0  0
    2.5260  -24.7370   24.3420 C   0  0  0  0  0
    2.8320  -26.1340   24.1480 O   0  0  0  0  0
    1.6790  -26.6790   24.8070 C   0  0  0  0  0
    1.4580  -27.9850   24.9210 N   0  0  0  0  0
    0.9820  -25.7120   25.2230 N   0  0  0  0  0
    1.4350  -24.5940   24.9800 C   0  0  0  0  0
    1.1069  -22.6167   23.1205 H   0  0  0  0  0
    2.5544  -18.6046   23.2548 H   0  0  0  0  0
    4.6087  -19.2924   23.8411 H   0  0  0  0  0
    5.1717  -21.5316   24.1410 H   0  0  0  0  0
    2.1243  -28.6510   24.5301 H   0  0  0  0  0
    0.6221  -28.3210   25.3994 H   0  0  0  0  0
    0.9798  -23.6448   25.2627 H   0  0  0  0  0
  1  2  1  0  0  0
  2  3  4  0  0  0
  2  4  4  0  0  0
  3  7  4  0  0  0
  4  5  4  0  0  0
  5  6  4  0  0  0
  6  7  4  0  0  0
  7  8  1  0  0  0
  8  9  2  0  0  0
  8 10  1  0  0  0
 10 11  4  0  0  0
 10 15  4  0  0  0
 11 12  4  0  0  0
 12 13  1  0  0  0
 12 14  4  0  0  0
 14 15  4  0  0  0
  3 16  1  0  0  0
  4 17  1  0  0  0
  5 18  1  0  0  0
  6 19  1  0  0  0
 13 20  1  0  0  0
 13 21  1  0  0  0
 15 22  1  0  0  0
M  END
$$$$
