6cw8_ligand
  -I-interpret- 

 73 74  0  0  0  0  0  0  0  0999 V2000
    4.0570   -3.9410   27.8070 C   0  0  0  0  0
    3.2500   -1.8620   26.7370 C   0  0  0  0  0
   -0.4450   -1.4600   26.3140 C   0  0  0  0  0
   -0.5100   -0.4810   25.3550 C   0  0  0  0  0
    0.6580    0.0480   24.8490 C   0  0  0  0  0
    8.0710   -8.0900   26.2320 C   0  0  0  0  0
    3.4580  -14.3100   22.5890 C   0  0  0  0  0
    3.7290  -13.2950   23.5580 C   0  0  0  0  0
    3.4260  -11.9580   23.3260 C   0  0  0  0  0
    3.7230  -10.9990   24.2630 C   0  0  0  0  0
    4.3000  -11.2840   25.4820 C   0  0  0  0  0
    4.6880  -10.3070   26.5210 C   0  0  0  0  0
    5.6530   -8.0560   27.0870 C   0  0  0  0  0
    4.5980   -6.9710   27.3920 C   0  0  0  0  0
    3.9670   -5.0040   28.9150 C   0  0  0  0  0
    1.9690   -1.3900   26.2650 C   0  0  0  0  0
    0.7800   -1.9140   26.7590 C   0  0  0  0  0
    1.8810   -0.3980   25.2940 C   0  0  0  0  0
    4.5390   -4.2180   30.0610 C   0  0  0  0  0
    6.7850   -7.2610   26.3800 C   0  0  0  0  0
    9.8360   -9.2580   27.6880 C   0  0  0  0  0
    9.4870  -10.7190   28.0890 C   0  0  0  0  0
    8.7340  -11.4230   26.9340 C   0  0  0  0  0
    8.5460  -10.7400   29.3230 C   0  0  0  0  0
   10.7480  -11.5150   28.3860 C   0  0  0  0  0
    4.6270  -12.6350   25.7010 C   0  0  0  0  0
    4.3380  -13.6070   24.7730 C   0  0  0  0  0
    3.5290  -15.6530   22.9980 N   0  0  0  0  0
    5.2000   -9.0680   26.1380 N   0  0  0  0  0
    4.8320   -6.1310   28.5500 N   0  0  0  0  0
    3.1340   -2.8870   27.7850 N   0  0  0  0  0
    8.6280   -8.4340   27.5080 N   0  0  0  0  0
    3.2370  -14.0350   21.4100 O   0  0  0  0  0
    3.2740  -16.5190   21.9940 O   0  0  0  0  0
    4.9450   -3.9940   26.9780 O   0  0  0  0  0
    3.6330   -6.8110   26.6730 O   0  0  0  0  0
    8.5450   -8.4330   25.1760 O   0  0  0  0  0
    4.6230  -10.5920   27.6710 O   0  0  0  0  0
    3.7814   -1.0107   27.1625 H   0  0  0  0  0
    3.7713   -2.3097   25.8909 H   0  0  0  0  0
   -1.3628   -1.8801   26.7253 H   0  0  0  0  0
   -1.4759   -0.1250   24.9967 H   0  0  0  0  0
    0.6121    0.8276   24.0886 H   0  0  0  0  0
    2.9477  -11.6680   22.3905 H   0  0  0  0  0
    3.4907   -9.9596   24.0310 H   0  0  0  0  0
    5.9206   -8.5821   28.0034 H   0  0  0  0  0
    2.9834   -5.4302   29.1125 H   0  0  0  0  0
    0.8159   -2.6998   27.5135 H   0  0  0  0  0
    2.7932    0.0318   24.8801 H   0  0  0  0  0
    4.6437   -4.8683   30.9295 H   0  0  0  0  0
    5.5162   -3.8260   29.7791 H   0  0  0  0  0
    3.8705   -3.3917   30.3027 H   0  0  0  0  0
    6.4383   -6.9916   25.3823 H   0  0  0  0  0
    7.0141   -6.3848   26.9865 H   0  0  0  0  0
   10.3765   -9.2832   26.7418 H   0  0  0  0  0
   10.4339   -8.8181   28.4862 H   0  0  0  0  0
    7.8131  -10.8810   26.7188 H   0  0  0  0  0
    9.3652  -11.4366   26.0455 H   0  0  0  0  0
    8.4954  -12.4453   27.2274 H   0  0  0  0  0
    9.0399  -10.2521   30.1633 H   0  0  0  0  0
    7.6239  -10.2100   29.0842 H   0  0  0  0  0
    8.3156  -11.7726   29.5851 H   0  0  0  0  0
   11.3805  -11.5357   27.4985 H   0  0  0  0  0
   11.2880  -11.0445   29.2077 H   0  0  0  0  0
   10.4763  -12.5333   28.6640 H   0  0  0  0  0
    5.1220  -12.9179   26.6300 H   0  0  0  0  0
    4.5905  -14.6446   24.9917 H   0  0  0  0  0
    3.7495  -15.9422   23.9510 H   0  0  0  0  0
    5.2612   -8.8577   25.1418 H   0  0  0  0  0
    5.6385   -6.3338   29.1406 H   0  0  0  0  0
    2.3937   -2.8316   28.4845 H   0  0  0  0  0
    8.1581   -8.0862   28.3438 H   0  0  0  0  0
    3.3351  -17.4180   22.3251 H   0  0  0  0  0
 15  1  1  0  0  0
  1 31  1  0  0  0
  1 35  2  0  0  0
  2 16  1  0  0  0
 31  2  1  0  0  0
  3  4  4  0  0  0
 17  3  4  0  0  0
  5  4  4  0  0  0
 18  5  4  0  0  0
  6 20  1  0  0  0
 32  6  1  0  0  0
  6 37  2  0  0  0
  8  7  1  0  0  0
  7 28  1  0  0  0
  7 33  2  0  0  0
  9  8  4  0  0  0
  8 27  4  0  0  0
 10  9  4  0  0  0
 11 10  4  0  0  0
 12 11  1  0  0  0
 11 26  4  0  0  0
 29 12  1  0  0  0
 12 38  2  0  0  0
 13 14  1  0  0  0
 20 13  1  0  0  0
 13 29  1  0  0  0
 14 30  1  0  0  0
 14 36  2  0  0  0
 15 19  1  0  0  0
 30 15  1  0  0  0
 16 17  4  0  0  0
 16 18  4  0  0  0
 21 22  1  0  0  0
 21 32  1  0  0  0
 22 23  1  0  0  0
 22 24  1  0  0  0
 22 25  1  0  0  0
 26 27  4  0  0  0
 28 34  1  0  0  0
  2 39  1  0  0  0
  2 40  1  0  0  0
  3 41  1  0  0  0
  4 42  1  0  0  0
  5 43  1  0  0  0
  9 44  1  0  0  0
 10 45  1  0  0  0
 13 46  1  0  0  0
 15 47  1  0  0  0
 17 48  1  0  0  0
 18 49  1  0  0  0
 19 50  1  0  0  0
 19 51  1  0  0  0
 19 52  1  0  0  0
 20 53  1  0  0  0
 20 54  1  0  0  0
 21 55  1  0  0  0
 21 56  1  0  0  0
 23 57  1  0  0  0
 23 58  1  0  0  0
 23 59  1  0  0  0
 24 60  1  0  0  0
 24 61  1  0  0  0
 24 62  1  0  0  0
 25 63  1  0  0  0
 25 64  1  0  0  0
 25 65  1  0  0  0
 26 66  1  0  0  0
 27 67  1  0  0  0
 28 68  1  0  0  0
 29 69  1  0  0  0
 30 70  1  0  0  0
 31 71  1  0  0  0
 32 72  1  0  0  0
 34 73  1  0  0  0
M  END
$$$$
