6c7b_ligand
  -I-interpret- 

 32 33  0  0  0  0  0  0  0  0999 V2000
   33.7700   77.2990   61.9980 C   0  0  0  0  0
   36.4800   79.9570   63.1110 C   0  0  0  0  0
   37.7330   80.1430   63.9140 C   0  0  0  0  0
   30.7700   74.2200   61.7460 C   0  0  0  0  0
   27.8860   73.2070   59.6260 C   0  0  0  0  0
   29.7890   74.2240   60.7650 C   0  0  0  0  0
   29.7920   75.2840   59.8120 C   0  0  0  0  0
   30.7450   76.2930   59.8690 C   0  0  0  0  0
   31.7740   76.3060   60.8740 C   0  0  0  0  0
   31.7720   75.2370   61.8120 C   0  0  0  0  0
   32.7850   75.2260   62.8270 C   0  0  0  0  0
   33.7590   76.2050   62.9330 C   0  0  0  0  0
   34.8600   78.3640   62.0740 C   0  0  0  0  0
   35.6660   78.8660   63.2380 C   0  0  0  0  0
   32.8020   77.3180   60.9920 C   0  0  0  0  0
   28.8360   73.2180   60.7030 O   0  0  0  0  0
   36.6430   80.6110   61.9040 O   0  0  0  0  0
   37.6590   79.6660   65.1970 O   0  0  0  0  0
   38.8560   80.1460   63.4330 O   0  0  0  0  0
   35.1150   78.9080   60.9850 O   0  0  0  0  0
   30.7767   73.4199   62.4862 H   0  0  0  0  0
   27.3032   74.1278   59.6479 H   0  0  0  0  0
   28.4161   73.1335   58.6764 H   0  0  0  0  0
   27.2203   72.3514   59.7392 H   0  0  0  0  0
   29.0357   75.3031   59.0273 H   0  0  0  0  0
   30.7122   77.0961   59.1327 H   0  0  0  0  0
   32.7886   74.4091   63.5487 H   0  0  0  0  0
   34.5119   76.1473   63.7191 H   0  0  0  0  0
   35.6009   78.3531   64.1976 H   0  0  0  0  0
   32.8213   78.1295   60.2645 H   0  0  0  0  0
   37.2493   81.3463   62.0191 H   0  0  0  0  0
   36.7476   79.6980   65.4970 H   0  0  0  0  0
  1 12  4  0  0  0
 13  1  1  0  0  0
  1 15  4  0  0  0
  2  3  1  0  0  0
 14  2  2  0  0  0
  2 17  1  0  0  0
  3 18  1  0  0  0
  3 19  2  0  0  0
  4  6  4  0  0  0
 10  4  4  0  0  0
 16  5  1  0  0  0
  7  6  4  0  0  0
  6 16  1  0  0  0
  8  7  4  0  0  0
  9  8  4  0  0  0
  9 10  4  0  0  0
 15  9  4  0  0  0
 11 10  4  0  0  0
 12 11  4  0  0  0
 13 14  1  0  0  0
 13 20  2  0  0  0
  4 21  1  0  0  0
  5 22  1  0  0  0
  5 23  1  0  0  0
  5 24  1  0  0  0
  7 25  1  0  0  0
  8 26  1  0  0  0
 11 27  1  0  0  0
 12 28  1  0  0  0
 14 29  1  0  0  0
 15 30  1  0  0  0
 17 31  1  0  0  0
 18 32  1  0  0  0
M  END
$$$$
