4jls_ligand
  -I-interpret- 

 39 41  0  0  0  0  0  0  0  0999 V2000
    2.4600  -20.1480  -59.8550 C   0  0  0  0  0
    1.8100  -21.3110  -59.4300 C   0  0  0  0  0
    1.6670  -21.5400  -58.0250 C   0  0  0  0  0
    1.8490  -21.3120  -61.6520 C   0  0  0  0  0
    2.1600  -20.6130  -57.1670 N   0  0  0  0  0
    3.3030  -18.5220  -56.6380 N   0  0  0  0  0
    2.9370  -19.2530  -58.9060 N   0  0  0  0  0
    6.3010  -22.0210  -66.6650 O   0  0  0  0  0
    5.4530  -20.7070  -66.6530 P   0  0  0  0  0
    3.9550  -21.0990  -66.4860 O   0  0  0  0  0
    5.6800  -19.9310  -67.9120 O   0  0  0  0  0
    5.9690  -19.6010  -65.2710 C   0  0  0  0  0
    5.0690  -18.3950  -65.1080 C   0  0  0  0  0
    5.2530  -17.3890  -65.7810 O   0  0  0  0  0
    3.9720  -18.5020  -64.1460 N   0  0  0  0  0
    3.7270  -19.6920  -63.3300 C   0  0  0  0  0
    2.9740  -17.5140  -63.8120 C   0  0  0  0  0
    2.3190  -17.9550  -62.5620 C   0  0  0  0  0
    1.0580  -18.3770  -62.8250 O   0  0  0  0  0
    3.1030  -19.1200  -62.0880 C   0  0  0  0  0
    2.4580  -20.1710  -61.2490 N   0  0  0  0  0
    2.7890  -19.4800  -57.5930 C   0  0  0  0  0
    1.0260  -22.6740  -57.5390 O   0  0  0  0  0
    1.4380  -22.0240  -60.5610 N   0  0  0  0  0
    1.7083  -21.6158  -62.6893 H   0  0  0  0  0
    2.0565  -20.7689  -56.1643 H   0  0  0  0  0
    3.7751  -17.6790  -56.9650 H   0  0  0  0  0
    3.1932  -18.6897  -55.6379 H   0  0  0  0  0
    6.1457  -22.5081  -65.8525 H   0  0  0  0  0
    3.8439  -21.5942  -65.6711 H   0  0  0  0  0
    6.9722  -19.2379  -65.4943 H   0  0  0  0  0
    5.9190  -20.1788  -64.3481 H   0  0  0  0  0
    4.6339  -20.2612  -63.1261 H   0  0  0  0  0
    3.0901  -20.4239  -63.8268 H   0  0  0  0  0
    2.2429  -17.4217  -64.6152 H   0  0  0  0  0
    3.4343  -16.5351  -63.6781 H   0  0  0  0  0
    2.2768  -17.1456  -61.8331 H   0  0  0  0  0
    0.6402  -18.6613  -62.0088 H   0  0  0  0  0
    3.8006  -18.7380  -61.3427 H   0  0  0  0  0
  1  2  4  0  0  0
  1  7  1  0  0  0
 21  1  4  0  0  0
  2  3  1  0  0  0
 24  2  4  0  0  0
  3  5  1  0  0  0
  3 23  2  0  0  0
 21  4  4  0  0  0
  4 24  4  0  0  0
 22  5  1  0  0  0
 22  6  1  0  0  0
  7 22  2  0  0  0
  9  8  1  0  0  0
  9 10  1  0  0  0
  9 11  2  0  0  0
 12  9  1  0  0  0
 13 12  1  0  0  0
 13 14  2  0  0  0
 15 13  1  0  0  0
 16 15  1  0  0  0
 17 15  1  0  0  0
 20 16  1  0  0  0
 18 17  1  0  0  0
 18 19  1  0  0  0
 20 18  1  0  0  0
 20 21  1  0  0  0
  4 25  1  0  0  0
  5 26  1  0  0  0
  6 27  1  0  0  0
  6 28  1  0  0  0
  8 29  1  0  0  0
 10 30  1  0  0  0
 12 31  1  0  0  0
 12 32  1  0  0  0
 16 33  1  0  0  0
 16 34  1  0  0  0
 17 35  1  0  0  0
 17 36  1  0  0  0
 18 37  1  0  0  0
 19 38  1  0  0  0
 20 39  1  0  0  0
M  END
$$$$
