### 
### Created by X-TOOL on Mon Sep 10 21:13:18 2018
### 

@<TRIPOS>MOLECULE
4jls_ligand
   37    39     1     0     0
SMALL
GAST_HUCK


@<TRIPOS>ATOM
      1 C4          2.4600  -20.1480  -59.8550 C.2       1 3ZE         0.1139
      2 C5          1.8100  -21.3110  -59.4300 C.2       1 3ZE         0.0925
      3 C6          1.6670  -21.5400  -58.0250 C.2       1 3ZE         0.2135
      4 C8          1.8490  -21.3120  -61.6520 C.2       1 3ZE         0.0937
      5 N1          2.1600  -20.6130  -57.1670 N.am      1 3ZE        -0.1839
      6 N2          3.3030  -18.5220  -56.6380 N.pl3     1 3ZE        -0.2807
      7 N3          2.9370  -19.2530  -58.9060 N.2       1 3ZE        -0.2765
      8 OAF         6.3010  -22.0210  -66.6650 O.co2     1 3ZE        -0.5606
      9 PAX         5.4530  -20.7070  -66.6530 P.3       1 3ZE         0.0776
     10 OAG         3.9550  -21.0990  -66.4860 O.co2     1 3ZE        -0.5606
     11 OAD         5.6800  -19.9310  -67.9120 O.co2     1 3ZE        -0.5606
     12 CAI         5.9690  -19.6010  -65.2710 C.3       1 3ZE         0.1085
     13 CAO         5.0690  -18.3950  -65.1080 C.2       1 3ZE         0.1952
     14 OAB         5.2530  -17.3890  -65.7810 O.2       1 3ZE        -0.3953
     15 NAV         3.9720  -18.5020  -64.1460 N.am      1 3ZE        -0.2664
     16 CAK         3.7270  -19.6920  -63.3300 C.3       1 3ZE         0.0669
     17 CAJ         2.9740  -17.5140  -63.8120 C.3       1 3ZE         0.0630
     18 CAT         2.3190  -17.9550  -62.5620 C.3       1 3ZE         0.1075
     19 OAE         1.0580  -18.3770  -62.8250 O.3       1 3ZE        -0.3867
     20 CAU         3.1030  -19.1200  -62.0880 C.3       1 3ZE         0.1170
     21 N9          2.4580  -20.1710  -61.2490 N.pl3     1 3ZE        -0.2315
     22 C2          2.7890  -19.4800  -57.5930 C.2       1 3ZE         0.2340
     23 O6          1.0260  -22.6740  -57.5390 O.2       1 3ZE        -0.4091
     24 N7          1.4380  -22.0240  -60.5610 N.2       1 3ZE        -0.3236
     25 H1          1.7084  -21.6156  -62.6884 H         1 3ZE         0.1178
     26 H2          2.0586  -20.7658  -56.1840 H         1 3ZE         0.2515
     27 H3          3.7767  -17.6691  -56.9682 H         1 3ZE         0.1897
     28 H4          3.1952  -18.6931  -55.6280 H         1 3ZE         0.1897
     29 H5          6.9928  -19.2498  -65.4672 H         1 3ZE         0.0692
     30 H6          5.9526  -20.1790  -64.3352 H         1 3ZE         0.0692
     31 H7          4.6671  -20.2135  -63.0972 H         1 3ZE         0.0554
     32 H8          3.0389  -20.3850  -63.8362 H         1 3ZE         0.0554
     33 H9          2.2315  -17.4409  -64.6203 H         1 3ZE         0.0549
     34 H10         3.4502  -16.5339  -63.6617 H         1 3ZE         0.0549
     35 H11         2.3084  -17.1472  -61.8155 H         1 3ZE         0.0645
     36 H12         0.6445  -18.6584  -62.0173 H         1 3ZE         0.2100
     37 H13         3.9095  -18.7132  -61.4602 H         1 3ZE         0.0699
@<TRIPOS>BOND
     1    1    2 2  
     2    1    7 1  
     3   21    1 1  
     4    2    3 1  
     5   24    2 1  
     6    3    5 am 
     7    3   23 2  
     8   21    4 1  
     9    4   24 2  
    10   22    5 am 
    11   22    6 1  
    12    7   22 2  
    13    9    8 ar 
    14    9   10 ar 
    15    9   11 ar 
    16   12    9 1  
    17   13   12 1  
    18   13   14 2  
    19   15   13 am 
    20   16   15 1  
    21   17   15 1  
    22   20   16 1  
    23   18   17 1  
    24   18   19 1  
    25   20   18 1  
    26   20   21 1  
    27    4   25 1  
    28    5   26 1  
    29    6   27 1  
    30    6   28 1  
    31   12   29 1  
    32   12   30 1  
    33   16   31 1  
    34   16   32 1  
    35   17   33 1  
    36   17   34 1  
    37   18   35 1  
    38   19   36 1  
    39   20   37 1  
@<TRIPOS>SUBSTRUCTURE
     1 3ZE         1

