4ap0_ligand
  -I-interpret- 

 62 65  0  0  0  0  0  0  0  0999 V2000
   11.1670    2.5500   31.3440 C   0  0  0  0  0
   12.1990    3.2930   30.7550 C   0  0  0  0  0
   12.0670    4.6730   30.5990 C   0  0  0  0  0
   13.1960    5.5240   29.9680 C   0  0  0  0  0
   10.8970    5.3010   31.0220 C   0  0  0  0  0
    9.8700    4.5640   31.6040 C   0  0  0  0  0
    9.9940    3.1850   31.7530 C   0  0  0  0  0
    8.8530    2.4070   32.4250 C   0  0  0  0  0
    8.7690    2.3920   33.6520 O   0  0  0  0  0
    7.9890    1.7490   31.6630 N   0  0  0  0  0
    6.8710    1.0090   32.2910 C   0  0  0  0  0
    8.0360    1.7540   30.1920 C   0  0  0  0  0
    6.7340    2.3460   29.6480 C   0  0  0  0  0
    6.5130    3.7940   30.1200 C   0  0  0  0  0
    6.7400    2.2740   28.1300 C   0  0  0  0  0
    8.1480    0.3240   29.6630 C   0  0  0  0  0
    7.0810   -0.4940   29.8640 N   0  0  0  0  0
    7.0880   -1.7800   29.4280 C   0  0  0  0  0
    5.9930   -2.6050   29.6570 C   0  0  0  0  0
    5.9940   -3.9240   29.2110 C   0  0  0  0  0
    4.6160   -4.9300   29.4970 Cl  0  0  0  0  0
    7.0930   -4.4370   28.5290 C   0  0  0  0  0
    8.1930   -3.6200   28.2970 C   0  0  0  0  0
    8.1900   -2.3030   28.7450 C   0  0  0  0  0
    9.2970   -1.4960   28.5160 C   0  0  0  0  0
   10.2690   -1.9250   27.9080 O   0  0  0  0  0
    9.2890   -0.1800   28.9720 N   0  0  0  0  0
   10.4590    0.6520   28.6950 C   0  0  0  0  0
   10.1760    1.5640   27.4870 C   0  0  0  0  0
   10.4710    2.9280   27.5720 C   0  0  0  0  0
   10.2300    3.7610   26.4720 C   0  0  0  0  0
    9.6940    3.2260   25.3020 C   0  0  0  0  0
    9.4060    1.8660   25.2020 C   0  0  0  0  0
    9.6620    1.0340   26.3020 C   0  0  0  0  0
   11.2809    1.4749   31.4827 H   0  0  0  0  0
   13.1064    2.7918   30.4182 H   0  0  0  0  0
   14.1016    5.4249   30.5664 H   0  0  0  0  0
   13.3891    5.1745   28.9538 H   0  0  0  0  0
   12.8893    6.5696   29.9411 H   0  0  0  0  0
   10.7854    6.3779   30.8960 H   0  0  0  0  0
    8.9654    5.0679   31.9444 H   0  0  0  0  0
    7.2715    0.2469   32.9595 H   0  0  0  0  0
    6.2513    1.7029   32.8589 H   0  0  0  0  0
    6.2700    0.5344   31.5154 H   0  0  0  0  0
    8.8977    2.3414   29.8749 H   0  0  0  0  0
    5.9057    1.7559   30.0401 H   0  0  0  0  0
    6.4676    3.8169   31.2088 H   0  0  0  0  0
    7.3389    4.4169   29.7763 H   0  0  0  0  0
    5.5766    4.1702   29.7080 H   0  0  0  0  0
    7.5869    2.8413   27.7440 H   0  0  0  0  0
    6.8252    1.2333   27.8172 H   0  0  0  0  0
    5.8121    2.6960   27.7439 H   0  0  0  0  0
    5.1258   -2.2159   30.1905 H   0  0  0  0  0
    7.0912   -5.4696   28.1801 H   0  0  0  0  0
    9.0591   -4.0116   27.7634 H   0  0  0  0  0
   11.3120    0.0114   28.4710 H   0  0  0  0  0
   10.6786    1.2673   29.5676 H   0  0  0  0  0
   10.8869    3.3416   28.4907 H   0  0  0  0  0
   10.4610    4.8246   26.5309 H   0  0  0  0  0
    9.4972    3.8806   24.4530 H   0  0  0  0  0
    8.9882    1.4551   24.2829 H   0  0  0  0  0
    9.4581   -0.0344   26.2311 H   0  0  0  0  0
  1  2  4  0  0  0
  1  7  4  0  0  0
  2  3  4  0  0  0
  3  4  1  0  0  0
  3  5  4  0  0  0
  5  6  4  0  0  0
  6  7  4  0  0  0
  7  8  1  0  0  0
  8  9  2  0  0  0
  8 10  1  0  0  0
 10 11  1  0  0  0
 10 12  1  0  0  0
 12 13  1  0  0  0
 12 16  1  0  0  0
 13 14  1  0  0  0
 13 15  1  0  0  0
 16 17  2  0  0  0
 16 27  1  0  0  0
 17 18  1  0  0  0
 18 19  4  0  0  0
 18 24  4  0  0  0
 19 20  4  0  0  0
 20 21  1  0  0  0
 20 22  4  0  0  0
 22 23  4  0  0  0
 23 24  4  0  0  0
 24 25  1  0  0  0
 25 26  2  0  0  0
 25 27  1  0  0  0
 27 28  1  0  0  0
 28 29  1  0  0  0
 29 30  4  0  0  0
 29 34  4  0  0  0
 30 31  4  0  0  0
 31 32  4  0  0  0
 32 33  4  0  0  0
 33 34  4  0  0  0
  1 35  1  0  0  0
  2 36  1  0  0  0
  4 37  1  0  0  0
  4 38  1  0  0  0
  4 39  1  0  0  0
  5 40  1  0  0  0
  6 41  1  0  0  0
 11 42  1  0  0  0
 11 43  1  0  0  0
 11 44  1  0  0  0
 12 45  1  0  0  0
 13 46  1  0  0  0
 14 47  1  0  0  0
 14 48  1  0  0  0
 14 49  1  0  0  0
 15 50  1  0  0  0
 15 51  1  0  0  0
 15 52  1  0  0  0
 19 53  1  0  0  0
 22 54  1  0  0  0
 23 55  1  0  0  0
 28 56  1  0  0  0
 28 57  1  0  0  0
 30 58  1  0  0  0
 31 59  1  0  0  0
 32 60  1  0  0  0
 33 61  1  0  0  0
 34 62  1  0  0  0
M  END
$$$$
