### 
### Created by X-TOOL on Mon Sep 10 21:12:48 2018
### 

@<TRIPOS>MOLECULE
1i5d_ligand
   59    63     1     0     0
SMALL
GAST_HUCK


@<TRIPOS>ATOM
      1 PG         12.1780   64.5720   12.7620 P.3       1 128         0.1879
      2 O1G        13.1050   64.5400   11.5480 O.co2     1 128        -0.6091
      3 O2G        12.7400   63.7060   13.8820 O.co2     1 128        -0.6091
      4 O3G        11.6130   65.9720   13.2030 O.co2     1 128        -0.6091
      5 PB          9.5060   64.0440   11.1990 P.3       1 128         0.3553
      6 O1B        10.3010   64.6990   10.0500 O.co2     1 128        -0.5652
      7 O2B         8.3090   64.8320   11.7130 O.co2     1 128        -0.5652
      8 O3B        10.6490   63.8520   12.3410 O.3       1 128        -0.1546
      9 PA          7.8640   61.4410   11.0150 P.3       1 128         0.3266
     10 O1A         7.0760   61.9200   12.2900 O.co2     1 128        -0.5692
     11 O2A         6.9540   60.8850    9.9500 O.co2     1 128        -0.5692
     12 O3A         8.7200   62.6840   10.5060 O.3       1 128        -0.1171
     13 O5          9.0710   60.5870   11.7460 O.3       1 128        -0.2441
     14 C5          9.9570   61.1950   12.7960 C.3       1 128         0.1131
     15 C4         11.3010   60.3000   12.7550 C.3       1 128         0.1175
     16 O4         11.6380   59.7580   14.0390 O.3       1 128        -0.3365
     17 C3         11.3720   59.1400   11.9020 C.3       1 128         0.1010
     18 O3         12.5940   59.2620   11.2030 O.3       1 128        -0.4077
     19 C2         11.5850   57.9050   12.8030 C.3       1 128         0.1251
     20 O2         12.4820   56.9460   12.1990 O.3       1 128        -0.4054
     21 C1         12.1220   58.4460   14.1650 C.3       1 128         0.1996
     22 N9         11.3120   57.7780   15.3770 N.pl3     1 128        -0.1920
     23 C8         11.7570   57.6760   16.6650 C.2       1 128         0.1123
     24 N7         10.8420   57.0700   17.4330 N.2       1 128        -0.2958
     25 C5          9.8150   56.7830   16.6290 C.ar      1 128         0.1045
     26 C6          8.5650   56.1390   16.9420 C.ar      1 128         0.1298
     27 N6          8.3290   55.7170   18.1980 N.pl3     1 128        -0.3152
     28 N1          7.6230   55.9430   15.9350 N.ar      1 128        -0.2698
     29 C2          7.9390   56.3930   14.6930 C.ar      1 128         0.0533
     30 N3          9.1090   57.0010   14.4060 N.ar      1 128        -0.2714
     31 C4         10.0840   57.2220   15.3390 C.ar      1 128         0.1613
     32 C1F        13.0430   57.8510   11.1310 C.3       1 128         0.2110
     33 C2F        12.6970   57.1050    9.9280 C.2       1 128         0.2069
     34 C3F        13.6280   56.7380    9.0190 C.2       1 128         0.0587
     35 C4F        14.9570   56.9910    9.1040 C.2       1 128         0.2783
     36 C5F        15.3650   57.6800   10.2260 C.2       1 128         0.0740
     37 C6F        14.4590   58.1310   11.2670 C.3       1 128         0.2630
     38 N2F        11.3460   56.7280    9.6490 N.2       1 128         0.3015
     39 N4F        15.8890   56.6440    8.2310 N.2       1 128         0.3272
     40 N6F        15.0500   58.8120   12.3330 N.2       1 128         0.3140
     41 O2F        10.4150   56.9910   10.3630 O.2       1 128         0.1726
     42 O3F        11.0780   56.1170    8.6390 O.2       1 128         0.1726
     43 O4F        17.0600   56.9080    8.3670 O.2       1 128         0.1744
     44 O5F        15.6130   56.0570    7.2360 O.2       1 128         0.1744
     45 O6F        16.2500   58.9760   12.3220 O.2       1 128         0.1908
     46 O7F        14.4640   59.2620   13.2670 O.2       1 128         0.1908
     47 H1          9.4819   61.1386   13.7865 H         1 128         0.0648
     48 H2         10.1811   62.2448   12.5560 H         1 128         0.0648
     49 H3         12.0995   60.9871   12.4384 H         1 128         0.0650
     50 H4         10.4971   59.0447   11.2422 H         1 128         0.0633
     51 H5         10.6181   57.4076   12.9696 H         1 128         0.0661
     52 H6         13.2116   58.3603   14.2887 H         1 128         0.0995
     53 H7         12.7217   58.0373   17.0181 H         1 128         0.1349
     54 H8          7.4370   55.2559   18.4273 H         1 128         0.1820
     55 H9          9.0404   55.8551   18.9299 H         1 128         0.1820
     56 H10         7.2177   56.2574   13.8952 H         1 128         0.0996
     57 H11        13.2803   56.1922    8.1431 H         1 128         0.1304
     58 H12        16.4260   57.8982   10.3378 H         1 128         0.1572
     59 H13        14.5780   57.1830   11.8121 H         1 128         0.0988
@<TRIPOS>BOND
     1    1    2 ar 
     2    1    3 ar 
     3    1    4 ar 
     4    8    1 1  
     5    5    6 ar 
     6    5    7 ar 
     7    5    8 1  
     8   12    5 1  
     9    9   10 ar 
    10    9   11 ar 
    11    9   12 1  
    12    9   13 1  
    13   13   14 1  
    14   14   15 1  
    15   15   16 1  
    16   15   17 1  
    17   16   21 1  
    18   17   18 1  
    19   17   19 1  
    20   18   32 1  
    21   19   20 1  
    22   19   21 1  
    23   20   32 1  
    24   21   22 1  
    25   22   23 1  
    26   22   31 1  
    27   23   24 2  
    28   24   25 1  
    29   25   26 ar 
    30   25   31 ar 
    31   26   27 1  
    32   26   28 ar 
    33   28   29 ar 
    34   29   30 ar 
    35   30   31 ar 
    36   32   33 1  
    37   32   37 1  
    38   33   34 2  
    39   33   38 1  
    40   34   35 1  
    41   35   36 2  
    42   35   39 1  
    43   36   37 1  
    44   37   40 1  
    45   38   41 2  
    46   38   42 2  
    47   39   43 2  
    48   39   44 2  
    49   40   45 2  
    50   40   46 2  
    51   14   47 1  
    52   14   48 1  
    53   15   49 1  
    54   17   50 1  
    55   19   51 1  
    56   21   52 1  
    57   23   53 1  
    58   27   54 1  
    59   27   55 1  
    60   29   56 1  
    61   34   57 1  
    62   36   58 1  
    63   37   59 1  
@<TRIPOS>SUBSTRUCTURE
     1 128         1

