5gvp_ligand
  -I-interpret- 

 61 64  0  0  0  0  0  0  0  0999 V2000
   11.2680   18.4600   94.6770 O   0  0  0  0  0
   11.3230   17.3840   94.0280 C   0  0  0  0  0
   10.8630   17.2720   92.8650 O   0  0  0  0  0
   11.9560   16.1890   94.7190 C   0  0  0  0  0
   12.5410   15.1240   93.7720 C   0  0  0  0  0
   14.0180   15.3170   93.5500 C   0  0  0  0  0
   14.8700   15.3110   94.6350 C   0  0  0  0  0
   14.5220   15.4900   92.2670 C   0  0  0  0  0
   15.8760   15.6640   92.0840 C   0  0  0  0  0
   16.7290   15.6650   93.1790 C   0  0  0  0  0
   16.2280   15.4820   94.4600 C   0  0  0  0  0
   17.1470   15.4870   95.6150 C   0  0  0  0  0
   16.8200   16.2350   96.7300 C   0  0  0  0  0
   17.6760   16.2800   97.8240 C   0  0  0  0  0
   17.3100   17.1170   99.0390 C   0  0  0  0  0
   18.1790   17.0660  100.0440 F   0  0  0  0  0
   17.1460   18.3820   98.6760 F   0  0  0  0  0
   16.1390   16.6780   99.4760 F   0  0  0  0  0
   18.8740   15.5560   97.8010 C   0  0  0  0  0
   18.3270   14.7410   95.5900 C   0  0  0  0  0
   19.2360   14.7710   96.6690 C   0  0  0  0  0
   20.5250   13.9500   96.6620 C   0  0  0  0  0
   21.7380   14.6430   97.3360 C   0  0  0  0  0
   23.0470   13.8420   97.2830 C   0  0  0  0  0
   22.0270   16.0770   96.8510 C   0  0  0  0  0
   20.2320   12.6770   97.4800 C   0  0  0  0  0
   19.7380   12.8490   98.6390 C   0  0  0  0  0
   19.2850   13.0070   99.6990 N   0  0  0  0  0
   20.5310   11.4320   97.0390 C   0  0  0  0  0
   20.3250   10.3230   97.7300 N   0  0  0  0  0
   20.9250   13.5930   95.2640 C   0  0  0  0  0
   21.1390   14.3570   93.9990 C   0  0  0  0  0
   21.0180   15.8440   93.7570 C   0  0  0  0  0
   21.4740   13.4370   93.0720 N   0  0  0  0  0
   21.4940   12.1020   93.5400 N   0  0  0  0  0
   21.1750   12.2200   94.8280 C   0  0  0  0  0
   21.0940   11.2010   95.7340 O   0  0  0  0  0
   11.6729   18.3340   95.5383 H   0  0  0  0  0
   11.1665   15.7018   95.2912 H   0  0  0  0  0
   12.7859   16.5721   95.3128 H   0  0  0  0  0
   12.0374   15.2103   92.8092 H   0  0  0  0  0
   12.3895   14.1444   94.2254 H   0  0  0  0  0
   14.4674   15.1701   95.6381 H   0  0  0  0  0
   13.8492   15.4880   91.4094 H   0  0  0  0  0
   16.2774   15.8008   91.0799 H   0  0  0  0  0
   17.7992   15.8105   93.0317 H   0  0  0  0  0
   15.8843   16.7936   96.7516 H   0  0  0  0  0
   19.5402   15.5936   98.6629 H   0  0  0  0  0
   18.5504   14.1234   94.7201 H   0  0  0  0  0
   21.3976   14.6931   98.3703 H   0  0  0  0  0
   22.9079   12.8870   97.7897 H   0  0  0  0  0
   23.3221   13.6663   96.2430 H   0  0  0  0  0
   23.8370   14.4061   97.7788 H   0  0  0  0  0
   22.2322   16.0627   95.7806 H   0  0  0  0  0
   21.1598   16.7074   97.0477 H   0  0  0  0  0
   22.8927   16.4715   97.3829 H   0  0  0  0  0
   19.9144   10.3719   98.6624 H   0  0  0  0  0
   20.5767    9.4189   97.3304 H   0  0  0  0  0
   20.0018   16.1662   93.9839 H   0  0  0  0  0
   21.7207   16.3738   94.4001 H   0  0  0  0  0
   21.2446   16.0605   92.7130 H   0  0  0  0  0
  1  2  1  0  0  0
  2  3  2  0  0  0
  2  4  1  0  0  0
  4  5  1  0  0  0
  5  6  1  0  0  0
  6  7  4  0  0  0
  6  8  4  0  0  0
  7 11  4  0  0  0
  8  9  4  0  0  0
  9 10  4  0  0  0
 10 11  4  0  0  0
 11 12  1  0  0  0
 12 13  4  0  0  0
 12 20  4  0  0  0
 13 14  4  0  0  0
 14 15  1  0  0  0
 14 19  4  0  0  0
 15 16  1  0  0  0
 15 17  1  0  0  0
 15 18  1  0  0  0
 19 21  4  0  0  0
 20 21  4  0  0  0
 21 22  1  0  0  0
 22 23  1  0  0  0
 22 26  1  0  0  0
 22 31  1  0  0  0
 23 24  1  0  0  0
 23 25  1  0  0  0
 26 27  1  0  0  0
 26 29  2  0  0  0
 27 28  3  0  0  0
 29 30  1  0  0  0
 29 37  1  0  0  0
 31 32  4  0  0  0
 31 36  4  0  0  0
 32 33  1  0  0  0
 32 34  4  0  0  0
 34 35  4  0  0  0
 35 36  4  0  0  0
 36 37  1  0  0  0
  1 38  1  0  0  0
  4 39  1  0  0  0
  4 40  1  0  0  0
  5 41  1  0  0  0
  5 42  1  0  0  0
  7 43  1  0  0  0
  8 44  1  0  0  0
  9 45  1  0  0  0
 10 46  1  0  0  0
 13 47  1  0  0  0
 19 48  1  0  0  0
 20 49  1  0  0  0
 23 50  1  0  0  0
 24 51  1  0  0  0
 24 52  1  0  0  0
 24 53  1  0  0  0
 25 54  1  0  0  0
 25 55  1  0  0  0
 25 56  1  0  0  0
 30 57  1  0  0  0
 30 58  1  0  0  0
 33 59  1  0  0  0
 33 60  1  0  0  0
 33 61  1  0  0  0
M  END
$$$$
