4bdc_ligand
  -I-interpret- 

 30 32  0  0  0  0  0  0  0  0999 V2000
  -39.9990   31.4590    4.5050 C   0  0  0  0  0
  -37.0330   35.1300    5.8150 N   0  0  0  0  0
  -41.8420   33.2030    2.1980 O   0  0  0  0  0
  -39.1900   32.1820    5.5390 C   0  0  0  0  0
  -37.0670   34.2340    8.4890 N   0  0  0  0  0
  -40.8920   30.6750    4.8320 O   0  0  0  0  0
  -38.4920   33.3220    5.1970 C   0  0  0  0  0
  -39.7050   31.7190    3.2250 N   0  0  0  0  0
  -37.7670   34.0320    6.1830 C   0  0  0  0  0
  -36.3470   35.7250    6.7780 C   0  0  0  0  0
  -36.3720   35.2900    8.0990 C   0  0  0  0  0
  -37.7740   33.5740    7.5150 C   0  0  0  0  0
  -38.4890   32.3970    7.8300 C   0  0  0  0  0
  -39.1730   31.7210    6.8610 C   0  0  0  0  0
  -40.4970   31.1780    2.1400 C   0  0  0  0  0
  -41.2460   32.2440    1.4300 C   0  0  0  0  0
  -42.4430   34.0710    1.3270 C   0  0  0  0  0
  -42.2470   33.6840    0.0770 C   0  0  0  0  0
  -41.4750   32.5000    0.1350 C   0  0  0  0  0
  -38.4991   33.6760    4.1661 H   0  0  0  0  0
  -38.9040   32.3123    3.0088 H   0  0  0  0  0
  -35.7369   36.5922    6.5253 H   0  0  0  0  0
  -35.7961   35.8411    8.8424 H   0  0  0  0  0
  -38.4946   32.0257    8.8548 H   0  0  0  0  0
  -39.7131   30.8103    7.1199 H   0  0  0  0  0
  -41.2141   30.4700    2.5554 H   0  0  0  0  0
  -39.8257   30.6956    1.4295 H   0  0  0  0  0
  -43.0047   34.9574    1.6219 H   0  0  0  0  0
  -42.6099   34.1810   -0.8227 H   0  0  0  0  0
  -41.1315   31.9080   -0.7133 H   0  0  0  0  0
  1  4  1  0  0  0
  1  6  2  0  0  0
  8  1  1  0  0  0
  9  2  4  0  0  0
  2 10  4  0  0  0
 16  3  4  0  0  0
  3 17  4  0  0  0
  4  7  4  0  0  0
  4 14  4  0  0  0
  5 11  4  0  0  0
 12  5  4  0  0  0
  7  9  4  0  0  0
 15  8  1  0  0  0
  9 12  4  0  0  0
 10 11  4  0  0  0
 13 12  4  0  0  0
 14 13  4  0  0  0
 15 16  1  0  0  0
 16 19  4  0  0  0
 17 18  4  0  0  0
 18 19  4  0  0  0
  7 20  1  0  0  0
  8 21  1  0  0  0
 10 22  1  0  0  0
 11 23  1  0  0  0
 13 24  1  0  0  0
 14 25  1  0  0  0
 15 26  1  0  0  0
 15 27  1  0  0  0
 17 28  1  0  0  0
 18 29  1  0  0  0
 19 30  1  0  0  0
M  END
$$$$
