5er5_ligand
  -I-interpret- 

 44 47  0  0  0  0  0  0  0  0999 V2000
   -0.7740    9.4650   15.2390 C   0  0  0  0  0
   -1.5870   10.0120   16.2200 C   0  0  0  0  0
   -2.3100    9.1980   17.0630 C   0  0  0  0  0
   -2.2400    7.8050   16.9260 C   0  0  0  0  0
   -1.3430    5.8920   15.7910 N   0  0  0  0  0
   -0.5770    5.2850   14.8630 C   0  0  0  0  0
    0.9780    5.4250   12.9860 C   0  0  0  0  0
    1.7440    6.2160   12.1170 C   0  0  0  0  0
    1.7050    7.6020   12.2180 C   0  0  0  0  0
    0.9190    8.2350   13.1870 C   0  0  0  0  0
    0.1880    6.0500   13.9600 C   0  0  0  0  0
    0.1470    7.4810   14.0650 C   0  0  0  0  0
   -0.6860    8.0720   15.0840 C   0  0  0  0  0
   -1.4210    7.2200   15.9310 C   0  0  0  0  0
   -0.5250    3.8700   14.7270 C   0  0  0  0  0
    0.4820    3.1170   15.3430 C   0  0  0  0  0
    0.5110    1.7310   15.1710 C   0  0  0  0  0
   -0.4480    1.1010   14.3900 C   0  0  0  0  0
   -1.4450    1.8420   13.7700 C   0  0  0  0  0
   -1.4810    3.2340   13.9320 C   0  0  0  0  0
   -2.1040    5.0410   16.6940 C   0  0  0  0  0
   -1.6180    5.1570   18.1170 C   0  0  0  0  0
   -3.1470    9.7810   18.0850 N   0  0  0  0  0
    2.5620    5.6040   11.1000 N   0  0  0  0  0
   -0.1996   10.1202   14.5841 H   0  0  0  0  0
   -1.6543   11.0949   16.3247 H   0  0  0  0  0
   -2.8213    7.1667   17.5914 H   0  0  0  0  0
    0.9971    4.3382   12.9047 H   0  0  0  0  0
    2.2970    8.2060   11.5304 H   0  0  0  0  0
    0.9115    9.3229   13.2543 H   0  0  0  0  0
    1.2390    3.6095   15.9533 H   0  0  0  0  0
    1.2909    1.1412   15.6527 H   0  0  0  0  0
   -0.4182    0.0189   14.2628 H   0  0  0  0  0
   -2.1974    1.3430   13.1592 H   0  0  0  0  0
   -2.2554    3.8202   13.4373 H   0  0  0  0  0
   -1.9817    4.0063   16.3738 H   0  0  0  0  0
   -3.1474    5.3546   16.6620 H   0  0  0  0  0
   -0.5706    4.8596   18.1672 H   0  0  0  0  0
   -1.7203    6.1893   18.4515 H   0  0  0  0  0
   -2.2131    4.5056   18.7571 H   0  0  0  0  0
   -3.2023   10.7949   18.1819 H   0  0  0  0  0
   -3.6830    9.1790   18.7100 H   0  0  0  0  0
    2.5868    4.5884   11.0082 H   0  0  0  0  0
    3.1160    6.1865   10.4722 H   0  0  0  0  0
  2  1  4  0  0  0
  1 13  4  0  0  0
  3  2  4  0  0  0
  4  3  4  0  0  0
  3 23  1  0  0  0
 14  4  4  0  0  0
  6  5  4  0  0  0
  5 14  4  0  0  0
  5 21  1  0  0  0
 11  6  4  0  0  0
  6 15  1  0  0  0
  7  8  4  0  0  0
  7 11  4  0  0  0
  8  9  4  0  0  0
  8 24  1  0  0  0
  9 10  4  0  0  0
 10 12  4  0  0  0
 11 12  4  0  0  0
 12 13  4  0  0  0
 13 14  4  0  0  0
 15 16  4  0  0  0
 15 20  4  0  0  0
 16 17  4  0  0  0
 17 18  4  0  0  0
 18 19  4  0  0  0
 19 20  4  0  0  0
 21 22  1  0  0  0
  1 25  1  0  0  0
  2 26  1  0  0  0
  4 27  1  0  0  0
  7 28  1  0  0  0
  9 29  1  0  0  0
 10 30  1  0  0  0
 16 31  1  0  0  0
 17 32  1  0  0  0
 18 33  1  0  0  0
 19 34  1  0  0  0
 20 35  1  0  0  0
 21 36  1  0  0  0
 21 37  1  0  0  0
 22 38  1  0  0  0
 22 39  1  0  0  0
 22 40  1  0  0  0
 23 41  1  0  0  0
 23 42  1  0  0  0
 24 43  1  0  0  0
 24 44  1  0  0  0
M  END
$$$$
