5np8_ligand
  -I-interpret- 

 39 41  0  0  0  0  0  0  0  0999 V2000
    4.2670    7.5360   29.3440 C   0  0  0  0  0
    4.0320    8.8910   29.1410 C   0  0  0  0  0
    3.8050    9.3630   27.8900 C   0  0  0  0  0
    3.4690   11.2300   27.6110 Br  0  0  0  0  0
    3.8790    8.4490   26.7990 C   0  0  0  0  0
    4.1740    7.1190   26.9890 C   0  0  0  0  0
    4.3590    6.6410   28.2810 C   0  0  0  0  0
    4.6400    5.2780   28.5610 C   0  0  0  0  0
    4.8040    4.2160   27.7230 C   0  0  0  0  0
    4.8370    4.8190   29.8310 N   0  0  0  0  0
    5.0670    3.5920   29.8740 N   0  0  0  0  0
    5.3310    2.6850   30.9610 C   0  0  0  0  0
    5.3410    3.1950   32.4240 C   0  0  0  0  0
    5.0590    3.1310   28.5090 C   0  0  0  0  0
    5.2930    1.8150   28.2980 N   0  0  0  0  0
    5.5310    0.9440   29.3310 C   0  0  0  0  0
    5.7690   -0.5520   29.0450 C   0  0  0  0  0
    5.5800    1.3340   30.6850 C   0  0  0  0  0
    5.8460    0.2510   31.7780 C   0  0  0  0  0
    7.1180    0.3780   32.6710 C   0  0  0  0  0
    8.4320    0.7770   31.9490 C   0  0  0  0  0
    8.7620    0.1090   30.9380 O   0  0  0  0  0
    9.0880    1.7360   32.4490 O   0  0  0  0  0
    4.3823    7.1642   30.3621 H   0  0  0  0  0
    4.0302    9.5756   29.9892 H   0  0  0  0  0
    3.6971    8.8133   25.7879 H   0  0  0  0  0
    4.2618    6.4470   26.1353 H   0  0  0  0  0
    4.7431    4.2308   26.6348 H   0  0  0  0  0
    6.1067    3.9628   32.5345 H   0  0  0  0  0
    4.3653    3.6154   32.6676 H   0  0  0  0  0
    5.5580    2.3643   33.0955 H   0  0  0  0  0
    4.8938   -0.9691   28.5469 H   0  0  0  0  0
    6.6421   -0.6633   28.4020 H   0  0  0  0  0
    5.9389   -1.0777   29.9846 H   0  0  0  0  0
    5.9813   -0.6790   31.2259 H   0  0  0  0  0
    5.0073    0.3363   32.4689 H   0  0  0  0  0
    7.2926   -0.6126   33.0910 H   0  0  0  0  0
    6.9094    1.1770   33.3824 H   0  0  0  0  0
    8.6211    2.0763   33.2157 H   0  0  0  0  0
  1  2  4  0  0  0
  1  7  4  0  0  0
  2  3  4  0  0  0
  3  4  1  0  0  0
  3  5  4  0  0  0
  5  6  4  0  0  0
  6  7  4  0  0  0
  7  8  1  0  0  0
  8  9  4  0  0  0
  8 10  4  0  0  0
  9 14  4  0  0  0
 10 11  4  0  0  0
 11 12  4  0  0  0
 11 14  4  0  0  0
 12 13  1  0  0  0
 12 18  4  0  0  0
 14 15  4  0  0  0
 15 16  4  0  0  0
 16 17  1  0  0  0
 16 18  4  0  0  0
 18 19  1  0  0  0
 19 20  1  0  0  0
 20 21  1  0  0  0
 21 22  2  0  0  0
 21 23  1  0  0  0
  1 24  1  0  0  0
  2 25  1  0  0  0
  5 26  1  0  0  0
  6 27  1  0  0  0
  9 28  1  0  0  0
 13 29  1  0  0  0
 13 30  1  0  0  0
 13 31  1  0  0  0
 17 32  1  0  0  0
 17 33  1  0  0  0
 17 34  1  0  0  0
 19 35  1  0  0  0
 19 36  1  0  0  0
 20 37  1  0  0  0
 20 38  1  0  0  0
 23 39  1  0  0  0
M  END
$$$$
