6rj2_ligand
  -I-interpret- 

 52 54  0  0  0  0  0  0  0  0999 V2000
   23.3900   -7.6630    0.4120 C   0  0  0  0  0
   25.0070   -8.6900    3.2310 C   0  0  0  0  0
   21.2720   -6.6320    1.8930 C   0  0  0  0  0
   22.5900   -6.6570   -0.1170 C   0  0  0  0  0
   22.2020  -10.9520    2.2830 C   0  0  0  0  0
   19.5040  -12.2370    4.3830 C   0  0  0  0  0
   20.9260  -13.7040    1.4690 C   0  0  0  0  0
   16.7450  -13.2760    6.7300 C   0  0  0  0  0
   16.8040  -12.2750    7.6880 C   0  0  0  0  0
   17.7480  -11.2600    7.5750 C   0  0  0  0  0
   22.4520   -3.0820   -0.0860 C   0  0  0  0  0
   23.1450   -8.1340    1.6950 C   0  0  0  0  0
   23.9670   -9.2630    2.2690 C   0  0  0  0  0
   22.0700   -7.6280    2.4210 C   0  0  0  0  0
   22.9990  -10.1090    2.9760 N   0  0  0  0  0
   21.5230   -6.1540    0.6180 C   0  0  0  0  0
   22.3240  -11.0650    1.0690 O   0  0  0  0  0
   21.1530  -11.7010    2.9970 C   0  0  0  0  0
   20.5660  -12.8850    2.6340 N   0  0  0  0  0
   19.6380  -13.1770    3.4720 N   0  0  0  0  0
   20.4630  -11.2440    4.1080 C   0  0  0  0  0
   18.5540  -12.2480    5.5230 C   0  0  0  0  0
   17.6170  -13.2760    5.6510 C   0  0  0  0  0
   18.6300  -11.2570    6.5070 C   0  0  0  0  0
   20.5130   -4.8650   -0.0360 S   0  0  0  0  0
   19.7080   -5.4300   -1.0620 O   0  0  0  0  0
   19.9740   -4.1980    1.1090 O   0  0  0  0  0
   21.5570   -3.8200   -0.7790 N   0  0  0  0  0
   22.5120   -3.1350    1.1330 O   0  0  0  0  0
   23.3770   -2.1690   -0.8530 C   0  0  0  0  0
   24.2061   -8.0804   -0.1778 H   0  0  0  0  0
   25.6573   -8.0007    2.6925 H   0  0  0  0  0
   24.5008   -8.1591    4.0372 H   0  0  0  0  0
   25.6021   -9.5030    3.6470 H   0  0  0  0  0
   20.4477   -6.2238    2.4778 H   0  0  0  0  0
   22.8000   -6.2615   -1.1108 H   0  0  0  0  0
   20.7869  -13.1202    0.5591 H   0  0  0  0  0
   21.9690  -14.0100    1.5500 H   0  0  0  0  0
   20.2883  -14.5874    1.4365 H   0  0  0  0  0
   16.0057  -14.0712    6.8258 H   0  0  0  0  0
   16.1108  -12.2838    8.5291 H   0  0  0  0  0
   17.7936  -10.4696    8.3242 H   0  0  0  0  0
   24.5095   -9.8287    1.5115 H   0  0  0  0  0
   21.8563   -8.0214    3.4148 H   0  0  0  0  0
   22.9275  -10.0608    3.9923 H   0  0  0  0  0
   20.6275  -10.3143    4.6527 H   0  0  0  0  0
   17.5713  -14.0726    4.9084 H   0  0  0  0  0
   19.3881  -10.4773    6.4330 H   0  0  0  0  0
   21.5243   -3.7294   -1.7944 H   0  0  0  0  0
   23.2123   -1.1387   -0.5375 H   0  0  0  0  0
   24.4110   -2.4506   -0.6536 H   0  0  0  0  0
   23.1735   -2.2606   -1.9199 H   0  0  0  0  0
  4  1  4  0  0  0
  1 12  4  0  0  0
 13  2  1  0  0  0
  3 14  4  0  0  0
 16  3  4  0  0  0
 16  4  4  0  0  0
 15  5  1  0  0  0
  5 17  2  0  0  0
  5 18  1  0  0  0
  6 20  4  0  0  0
 21  6  4  0  0  0
  6 22  1  0  0  0
 19  7  1  0  0  0
  8  9  4  0  0  0
 23  8  4  0  0  0
 10  9  4  0  0  0
 24 10  4  0  0  0
 28 11  1  0  0  0
 11 29  2  0  0  0
 11 30  1  0  0  0
 12 13  1  0  0  0
 14 12  4  0  0  0
 13 15  1  0  0  0
 25 16  1  0  0  0
 18 19  4  0  0  0
 18 21  4  0  0  0
 19 20  4  0  0  0
 22 23  4  0  0  0
 22 24  4  0  0  0
 25 26  2  0  0  0
 25 27  2  0  0  0
 25 28  1  0  0  0
  1 31  1  0  0  0
  2 32  1  0  0  0
  2 33  1  0  0  0
  2 34  1  0  0  0
  3 35  1  0  0  0
  4 36  1  0  0  0
  7 37  1  0  0  0
  7 38  1  0  0  0
  7 39  1  0  0  0
  8 40  1  0  0  0
  9 41  1  0  0  0
 10 42  1  0  0  0
 13 43  1  0  0  0
 14 44  1  0  0  0
 15 45  1  0  0  0
 21 46  1  0  0  0
 23 47  1  0  0  0
 24 48  1  0  0  0
 28 49  1  0  0  0
 30 50  1  0  0  0
 30 51  1  0  0  0
 30 52  1  0  0  0
M  END
$$$$
