2cli_ligand
  -I-interpret- 

 33 33  0  0  0  0  0  0  0  0999 V2000
   50.8670   23.3970   15.0090 C   0  0  0  0  0
   49.6770   23.3090   15.8670 C   0  0  0  0  0
   48.9080   24.5840   15.9470 C   0  0  0  0  0
   49.2410   25.7730   15.3120 C   0  0  0  0  0
   50.4920   25.7890   14.4320 C   0  0  0  0  0
   51.2740   24.6020   14.3160 C   0  0  0  0  0
   51.7890   22.3450   14.7630 O   0  0  0  0  0
   51.3560   20.9420   14.5680 C   0  0  0  0  0
   52.3740   20.2670   14.0460 F   0  0  0  0  0
   50.3800   20.8300   13.6300 F   0  0  0  0  0
   50.9450   20.3080   15.6980 F   0  0  0  0  0
   48.1940   27.2170   15.5520 S   0  0  0  0  0
   48.7980   28.5920   14.7060 N   0  0  0  0  0
   48.9810   28.4750   13.2410 C   0  0  0  0  0
   47.8140   28.9640   12.5750 C   0  0  0  0  0
   47.7940   28.4390   11.2590 O   0  0  0  0  0
   48.0480   29.4660   10.0210 P   0  0  0  0  0
   49.2120   30.3470   10.3130 O   0  0  0  0  0
   48.2890   28.6460    8.8260 O   0  0  0  0  0
   46.8070   30.2620    9.8870 O   0  0  0  0  0
   48.0870   27.4380   17.0120 O   0  0  0  0  0
   46.8790   26.9040   14.9320 O   0  0  0  0  0
   49.3851   22.4003   16.3935 H   0  0  0  0  0
   48.0051   24.5825   16.5576 H   0  0  0  0  0
   50.7819   26.6955   13.9007 H   0  0  0  0  0
   52.1774   24.6016   13.7062 H   0  0  0  0  0
   49.0218   29.4571   15.1978 H   0  0  0  0  0
   49.1392   27.4294   12.9767 H   0  0  0  0  0
   49.8471   29.0617   12.9348 H   0  0  0  0  0
   47.8342   30.0533   12.5407 H   0  0  0  0  0
   46.9196   28.6513   13.1139 H   0  0  0  0  0
   49.0274   30.8700   11.0966 H   0  0  0  0  0
   46.6769   30.7858   10.6809 H   0  0  0  0  0
  1  2  4  0  0  0
  1  6  4  0  0  0
  1  7  1  0  0  0
  2  3  4  0  0  0
  3  4  4  0  0  0
  4  5  4  0  0  0
  4 12  1  0  0  0
  5  6  4  0  0  0
  7  8  1  0  0  0
  8  9  1  0  0  0
  8 10  1  0  0  0
  8 11  1  0  0  0
 12 13  1  0  0  0
 12 21  2  0  0  0
 12 22  2  0  0  0
 13 14  1  0  0  0
 14 15  1  0  0  0
 15 16  1  0  0  0
 16 17  1  0  0  0
 17 18  1  0  0  0
 17 19  2  0  0  0
 17 20  1  0  0  0
  2 23  1  0  0  0
  3 24  1  0  0  0
  5 25  1  0  0  0
  6 26  1  0  0  0
 13 27  1  0  0  0
 14 28  1  0  0  0
 14 29  1  0  0  0
 15 30  1  0  0  0
 15 31  1  0  0  0
 18 32  1  0  0  0
 20 33  1  0  0  0
M  END
$$$$
