4zyx_ligand
  -I-interpret- 

 53 55  0  0  0  0  0  0  0  0999 V2000
  -22.2790   16.8580   23.7540 N   0  0  0  0  0
  -21.8590   15.8350   24.5000 C   0  0  0  0  0
  -22.5880   14.7100   24.6020 N   0  0  0  0  0
  -23.7620   14.5570   23.9400 C   0  0  0  0  0
  -24.0280   17.6570   22.2890 N   0  0  0  0  0
  -25.1800   17.1520   21.8050 C   0  0  0  0  0
  -25.3520   15.8760   22.3360 C   0  0  0  0  0
  -24.2280   15.6150   23.1520 C   0  0  0  0  0
  -23.4390   16.7750   23.0760 C   0  0  0  0  0
  -24.3660   13.4880   24.0790 O   0  0  0  0  0
  -20.6280   15.9230   25.2190 N   0  0  0  0  0
  -22.9640   17.0150   16.6820 C   0  0  0  0  0
  -21.7310   16.6910   16.2040 C   0  0  0  0  0
  -21.6620   14.9930   16.3340 S   0  0  0  0  0
  -23.2090   14.7070   17.0020 C   0  0  0  0  0
  -23.7810   15.9380   17.1130 C   0  0  0  0  0
  -20.7030   17.5860   15.7160 C   0  0  0  0  0
  -19.7160   17.1050   15.1820 O   0  0  0  0  0
  -20.8320   19.0060   15.8880 N   0  0  0  0  0
  -19.8830   19.8710   15.4580 C   0  0  0  0  0
  -20.4570   20.9590   14.7560 C   0  0  0  0  0
  -21.6910   20.5560   14.0280 C   0  0  0  0  0
  -22.3480   21.7740   13.4650 C   0  0  0  0  0
  -22.2020   22.8960   14.0290 O   0  0  0  0  0
  -23.0500   21.6740   12.4240 O   0  0  0  0  0
  -19.1570   20.4110   16.5460 C   0  0  0  0  0
  -17.9670   20.7880   16.3710 O   0  0  0  0  0
  -19.6770   20.5400   17.6910 O   0  0  0  0  0
  -26.1060   17.8780   20.8880 C   0  0  0  0  0
  -26.2840   17.0920   19.6230 C   0  0  0  0  0
  -24.9750   16.9510   18.9350 C   0  0  0  0  0
  -25.1440   16.1660   17.6680 C   0  0  0  0  0
  -21.7180   17.7080   23.6970 H   0  0  0  0  0
  -26.1931   15.2064   22.1565 H   0  0  0  0  0
  -20.3173   15.1413   25.7959 H   0  0  0  0  0
  -23.3060   18.0488   16.7311 H   0  0  0  0  0
  -23.6439   13.7467   17.2793 H   0  0  0  0  0
  -21.6643   19.3744   16.3484 H   0  0  0  0  0
  -19.2239   19.3031   14.8014 H   0  0  0  0  0
  -19.7306   21.3186   14.0272 H   0  0  0  0  0
  -20.7214   21.7319   15.4777 H   0  0  0  0  0
  -22.3741   20.0557   14.7144 H   0  0  0  0  0
  -21.4323   19.8726   13.2192 H   0  0  0  0  0
  -21.6420   22.7939   14.8020 H   0  0  0  0  0
  -20.5790   20.2121   17.6703 H   0  0  0  0  0
  -25.6862   18.8553   20.6500 H   0  0  0  0  0
  -27.0731   18.0023   21.3752 H   0  0  0  0  0
  -26.9827   17.6129   18.9684 H   0  0  0  0  0
  -26.6751   16.1033   19.8631 H   0  0  0  0  0
  -24.2793   16.4279   19.5911 H   0  0  0  0  0
  -24.5874   17.9410   18.6947 H   0  0  0  0  0
  -25.6440   15.2178   17.8652 H   0  0  0  0  0
  -25.7644   16.7107   16.9563 H   0  0  0  0  0
  1  2  1  0  0  0
  9  1  1  0  0  0
  3  2  4  0  0  0
  2 11  2  0  0  0
  4  3  1  0  0  0
  8  4  1  0  0  0
  4 10  2  0  0  0
  6  5  4  0  0  0
  5  9  4  0  0  0
  6  7  4  0  0  0
 29  6  1  0  0  0
  7  8  4  0  0  0
  8  9  4  0  0  0
 12 13  4  0  0  0
 16 12  4  0  0  0
 14 13  4  0  0  0
 13 17  1  0  0  0
 15 14  4  0  0  0
 16 15  4  0  0  0
 32 16  1  0  0  0
 17 18  2  0  0  0
 17 19  1  0  0  0
 19 20  1  0  0  0
 20 21  1  0  0  0
 20 26  1  0  0  0
 21 22  1  0  0  0
 22 23  1  0  0  0
 23 24  1  0  0  0
 23 25  2  0  0  0
 26 27  2  0  0  0
 26 28  1  0  0  0
 30 29  1  0  0  0
 31 30  1  0  0  0
 31 32  1  0  0  0
  1 33  1  0  0  0
  7 34  1  0  0  0
 11 35  1  0  0  0
 12 36  1  0  0  0
 15 37  1  0  0  0
 19 38  1  0  0  0
 20 39  1  0  0  0
 21 40  1  0  0  0
 21 41  1  0  0  0
 22 42  1  0  0  0
 22 43  1  0  0  0
 24 44  1  0  0  0
 28 45  1  0  0  0
 29 46  1  0  0  0
 29 47  1  0  0  0
 30 48  1  0  0  0
 30 49  1  0  0  0
 31 50  1  0  0  0
 31 51  1  0  0  0
 32 52  1  0  0  0
 32 53  1  0  0  0
M  END
$$$$
