4i7d_ligand
  -I-interpret- 

250251  0  0  0  0  0  0  0  0999 V2000
   -6.6060   30.3030   74.7810 C   0  0  0  0  0
   -6.2930   31.3170   74.1770 O   0  0  0  0  0
   -6.8080   30.3230   76.2790 C   0  0  0  0  0
   -6.7840   29.1410   74.1390 N   0  0  0  0  0
   -7.2100   27.9070   74.7870 C   0  0  0  0  0
   -6.4440   26.6800   74.2850 C   0  0  0  0  0
   -6.2580   26.5030   73.0750 O   0  0  0  0  0
   -8.7100   27.6970   74.5700 C   0  0  0  0  0
   -9.5730   28.7880   75.1870 C   0  0  0  0  0
  -11.0540   28.5000   75.0160 C   0  0  0  0  0
  -11.9100   29.4650   75.8240 C   0  0  0  0  0
  -13.2800   28.9310   76.0580 N   0  3  0  0  0
   -6.0120   25.8420   75.2300 N   0  0  0  0  0
   -5.3680   24.5580   74.9350 C   0  0  0  0  0
   -6.3520   23.6330   74.2190 C   0  0  0  0  0
   -7.3790   23.2630   74.7880 O   0  0  0  0  0
   -4.8860   23.9120   76.2380 C   0  0  0  0  0
   -4.0550   22.6310   76.1710 C   0  0  0  0  0
   -2.8430   22.8090   75.2730 C   0  0  0  0  0
   -3.6160   22.2380   77.5740 C   0  0  0  0  0
   -6.0430   23.2780   72.9720 N   0  0  0  0  0
   -6.9550   22.5000   72.1270 C   0  0  0  0  0
   -6.2830   21.2820   71.4990 C   0  0  0  0  0
   -5.5090   21.4260   70.5490 O   0  0  0  0  0
   -7.5460   23.3740   71.0090 C   0  0  0  0  0
   -8.6110   24.3480   71.4790 C   0  0  0  0  0
   -9.2310   25.1300   70.3300 C   0  0  0  0  0
  -10.0930   26.2020   70.8350 N   0  0  0  0  0
  -11.3720   26.0640   71.1830 C   0  0  0  0  0
  -11.9940   24.8960   71.0740 N   0  0  0  0  0
  -12.0390   27.1140   71.6480 N   0  0  0  0  0
   -6.5790   20.0780   72.0200 N   0  0  0  0  0
   -6.2270   18.8810   71.2560 C   0  0  0  0  0
   -6.9990   18.8360   69.9420 C   0  0  0  0  0
   -8.1570   19.2490   69.8900 O   0  0  0  0  0
   -6.6420   17.7200   72.1790 C   0  0  0  0  0
   -7.5470   18.3220   73.1970 C   0  0  0  0  0
   -7.0930   19.7390   73.3570 C   0  0  0  0  0
   -6.3430   18.3610   68.8920 N   0  0  0  0  0
   -6.9350   18.2930   67.5640 C   0  0  0  0  0
   -7.2130   16.8370   67.2080 C   0  0  0  0  0
   -6.3140   16.0050   67.2650 O   0  0  0  0  0
   -5.9880   18.8860   66.5060 C   0  0  0  0  0
   -6.6510   18.8860   65.1340 C   0  0  0  0  0
   -5.5660   20.2920   66.9090 C   0  0  0  0  0
   -8.4590   16.5430   66.8470 N   0  0  0  0  0
   -8.8510   15.2040   66.4080 C   0  0  0  0  0
   -9.1240   15.2170   64.9090 C   0  0  0  0  0
   -9.9740   15.9710   64.4230 O   0  0  0  0  0
  -10.0810   14.7290   67.1660 C   0  0  0  0  0
   -8.3880   14.3860   64.1830 N   0  0  0  0  0
   -8.6030   14.2020   62.7570 C   0  0  0  0  0
   -9.7070   13.1620   62.5850 C   0  0  0  0  0
   -9.5340   11.9970   62.9410 O   0  0  0  0  0
   -7.3080   13.7350   62.0950 C   0  0  0  0  0
   -7.2320   13.9880   60.6020 C   0  0  0  0  0
   -5.5300   13.9580   60.0030 S   0  0  0  0  0
   -4.8610   15.4160   60.8040 C   0  0  0  0  0
  -10.8510   13.6010   62.0690 N   0  0  0  0  0
  -12.0040   12.7320   61.8980 C   0  0  0  0  0
  -12.2150   12.4160   60.4250 C   0  0  0  0  0
  -12.2940   13.3210   59.5890 O   0  0  0  0  0
  -13.2840   13.3800   62.4500 C   0  0  0  0  0
  -14.4420   12.3980   62.3690 C   0  0  0  0  0
  -13.0650   13.8470   63.8830 C   0  0  0  0  0
  -12.3070   11.1260   60.1220 N   0  0  0  0  0
  -12.5330   10.6530   58.7650 C   0  0  0  0  0
  -14.0260   10.6050   58.4800 C   0  0  0  0  0
  -14.8120   10.2870   59.3640 O   0  0  0  0  0
  -11.9320    9.2550   58.5820 C   0  0  0  0  0
  -10.4310    9.1640   58.8380 C   0  0  0  0  0
   -9.6040    9.9470   57.8240 C   0  0  0  0  0
   -9.7890    9.4650   56.4550 N   0  0  0  0  0
   -9.0970    9.8880   55.3990 C   0  0  0  0  0
   -8.1510   10.8150   55.5300 N   0  0  0  0  0
   -9.3510    9.3760   54.1990 N   0  0  0  0  0
  -14.4240   10.9160   57.2390 N   0  0  0  0  0
  -15.8440   10.9280   56.8970 C   0  0  0  0  0
  -16.4760    9.5370   56.8480 C   0  0  0  0  0
  -15.7760    8.5430   56.7050 O   0  0  0  0  0
  -15.8680   11.5700   55.5040 C   0  0  0  0  0
  -14.5230   11.2990   54.9360 C   0  0  0  0  0
  -13.5740   11.3020   56.0970 C   0  0  0  0  0
  -19.6790    8.5270   55.8740 C   0  0  0  0  0
  -17.8010    9.5090   56.9580 N   0  0  0  0  0
  -20.3670    9.5470   55.9170 O   0  0  0  0  0
  -18.6060    8.2940   56.9030 C   0  0  0  0  0
  -19.2770    8.1010   58.2640 C   0  0  0  0  0
  -18.7650    7.1240   60.5820 C   0  0  0  0  0
  -19.9860    7.8420   61.1750 C   0  0  0  0  0
  -18.7830    6.8970   59.0620 C   0  0  0  0  0
  -20.7440    7.0610   62.1440 N   0  0  0  0  0
  -21.5860    6.7150   65.4850 C   0  0  0  0  0
  -19.1900    7.0430   63.7710 O   0  0  0  0  0
  -21.2150    5.9170   64.2500 C   0  0  0  0  0
  -20.2950    6.7290   63.3600 C   0  0  0  0  0
  -19.8390    7.5960   54.9380 N   0  0  0  0  0
  -20.9060    7.6820   53.9370 C   0  0  0  0  0
  -22.0830    6.8070   54.3580 C   0  0  0  0  0
  -21.8870    5.6740   54.7980 O   0  0  0  0  0
  -20.4150    7.2250   52.5510 C   0  0  0  0  0
  -21.5380    7.3170   51.5250 C   0  0  0  0  0
  -19.2160    8.0540   52.1140 C   0  0  0  0  0
  -23.2980    7.3360   54.2280 N   0  0  0  0  0
  -24.5120    6.5600   54.4970 C   0  0  0  0  0
  -24.8710    5.7150   53.2790 C   0  0  0  0  0
  -25.9138    5.0079   53.2657 O   0  0  0  0  0
  -25.6820    7.4790   54.8530 C   0  0  0  0  0
  -25.4860    8.2660   56.1350 C   0  0  0  0  0
  -26.7830    8.9260   56.5660 C   0  0  0  0  0
  -26.5640    9.9330   57.5990 N   0  0  0  0  0
  -27.5200   10.6850   58.1400 C   0  0  0  0  0
  -28.7850   10.5540   57.7600 N   0  0  0  0  0
  -27.2060   11.5760   59.0720 N   0  0  0  0  0
  -24.1140    5.7242   52.2718 O   0  0  0  0  0
   -5.8833   30.6343   76.7649 H   0  0  0  0  0
   -7.6045   31.0243   76.5276 H   0  0  0  0  0
   -7.0813   29.3247   76.6208 H   0  0  0  0  0
   -6.6106   29.1183   73.1341 H   0  0  0  0  0
   -6.9918   28.0138   75.8496 H   0  0  0  0  0
   -8.9810   26.7559   75.0486 H   0  0  0  0  0
   -8.8894   27.7070   73.4949 H   0  0  0  0  0
   -9.3468   29.7287   74.6849 H   0  0  0  0  0
   -9.3542   28.8355   76.2538 H   0  0  0  0  0
  -11.2507   27.4875   75.3685 H   0  0  0  0  0
  -11.3075   28.6147   73.9621 H   0  0  0  0  0
  -11.9974   30.3956   75.2632 H   0  0  0  0  0
  -11.4326   29.6164   76.7921 H   0  0  0  0  0
  -13.8186   29.6060   76.6009 H   0  0  0  0  0
  -13.7388   28.7706   75.1613 H   0  0  0  0  0
  -13.2178   28.0519   76.5715 H   0  0  0  0  0
   -6.1361   26.1083   76.2068 H   0  0  0  0  0
   -4.5103   24.7268   74.2839 H   0  0  0  0  0
   -5.7979   23.6265   76.7624 H   0  0  0  0  0
   -4.2238   24.6515   76.6883 H   0  0  0  0  0
   -4.6715   21.8392   75.7455 H   0  0  0  0  0
   -3.1729   23.0633   74.2657 H   0  0  0  0  0
   -2.2167   23.6105   75.6648 H   0  0  0  0  0
   -2.2727   21.8805   75.2463 H   0  0  0  0  0
   -3.0153   23.0398   78.0033 H   0  0  0  0  0
   -4.4959   22.0693   78.1948 H   0  0  0  0  0
   -3.0235   21.3244   77.5254 H   0  0  0  0  0
   -5.1390   23.5577   72.5914 H   0  0  0  0  0
   -7.7486   22.1475   72.7858 H   0  0  0  0  0
   -8.0178   22.7029   70.2912 H   0  0  0  0  0
   -6.7285   23.9653   70.5965 H   0  0  0  0  0
   -8.1405   25.0606   72.1564 H   0  0  0  0  0
   -9.4023   23.7747   71.9621 H   0  0  0  0  0
   -9.8326   24.4502   69.7266 H   0  0  0  0  0
   -8.4322   25.5725   69.7348 H   0  0  0  0  0
   -9.6802   27.1301   70.9278 H   0  0  0  0  0
  -11.4923   24.0823   70.7182 H   0  0  0  0  0
  -13.0182   27.0179   71.9168 H   0  0  0  0  0
  -11.5721   28.0165   71.7363 H   0  0  0  0  0
   -5.1715   18.8448   70.9863 H   0  0  0  0  0
   -5.7749   17.2511   72.6441 H   0  0  0  0  0
   -7.1404   16.9266   71.6220 H   0  0  0  0  0
   -7.4981   17.7803   74.1416 H   0  0  0  0  0
   -8.5890   18.2722   72.8809 H   0  0  0  0  0
   -7.8934   20.4038   73.6817 H   0  0  0  0  0
   -6.3425   19.8553   74.1389 H   0  0  0  0  0
   -5.3865   18.0305   69.0199 H   0  0  0  0  0
   -7.8602   18.8692   67.5736 H   0  0  0  0  0
   -5.0947   18.2643   66.4460 H   0  0  0  0  0
   -6.9004   17.8630   64.8524 H   0  0  0  0  0
   -7.5603   19.4859   65.1713 H   0  0  0  0  0
   -5.9649   19.3092   64.4003 H   0  0  0  0  0
   -6.4494   20.9249   66.9935 H   0  0  0  0  0
   -5.0513   20.2543   67.8691 H   0  0  0  0  0
   -4.8962   20.7000   66.1520 H   0  0  0  0  0
   -9.1662   17.2774   66.8774 H   0  0  0  0  0
   -8.0359   14.5114   66.6177 H   0  0  0  0  0
   -9.8600   14.7002   68.2330 H   0  0  0  0  0
  -10.9069   15.4165   66.9831 H   0  0  0  0  0
  -10.3545   13.7311   66.8232 H   0  0  0  0  0
   -7.6454   13.8577   64.6411 H   0  0  0  0  0
   -8.8994   15.1382   62.2839 H   0  0  0  0  0
   -7.2506   12.6558   62.2370 H   0  0  0  0  0
   -6.4960   14.2991   62.5539 H   0  0  0  0  0
   -7.6489   14.9746   60.4000 H   0  0  0  0  0
   -7.7885   13.2014   60.0924 H   0  0  0  0  0
   -5.4207   16.2945   60.4828 H   0  0  0  0  0
   -4.9446   15.3056   61.8852 H   0  0  0  0  0
   -3.8125   15.5311   60.5292 H   0  0  0  0  0
  -10.9220   14.5779   61.7842 H   0  0  0  0  0
  -11.8026   11.8158   62.4530 H   0  0  0  0  0
  -13.5303   14.2520   61.8442 H   0  0  0  0  0
  -14.6035   12.1136   61.3292 H   0  0  0  0  0
  -14.2064   11.5111   62.9572 H   0  0  0  0  0
  -15.3433   12.8678   62.7627 H   0  0  0  0  0
  -12.8011   12.9924   64.5060 H   0  0  0  0  0
  -12.2570   14.5783   63.9060 H   0  0  0  0  0
  -13.9807   14.3034   64.2590 H   0  0  0  0  0
  -12.2155   10.4395   60.8708 H   0  0  0  0  0
  -12.0506   11.3400   58.0697 H   0  0  0  0  0
  -12.0924    8.9759   57.5406 H   0  0  0  0  0
  -12.4167    8.6049   59.3103 H   0  0  0  0  0
  -10.1443    8.1152   58.7607 H   0  0  0  0  0
  -10.2362    9.5881   59.8231 H   0  0  0  0  0
   -8.5523    9.8253   58.0833 H   0  0  0  0  0
   -9.9267   10.9875   57.8598 H   0  0  0  0  0
  -10.5011    8.7518   56.2979 H   0  0  0  0  0
   -7.6268   11.1277   54.7128 H   0  0  0  0  0
   -7.9502   11.2127   56.4476 H   0  0  0  0  0
  -10.0726    8.6632   54.0910 H   0  0  0  0  0
  -16.4236   11.4613   57.6505 H   0  0  0  0  0
  -16.0789   12.6382   55.5539 H   0  0  0  0  0
  -16.6614   11.1569   54.8812 H   0  0  0  0  0
  -14.2469   12.0534   54.1993 H   0  0  0  0  0
  -14.5016   10.3435   54.4119 H   0  0  0  0  0
  -12.7352   10.6212   55.9522 H   0  0  0  0  0
  -13.0948   12.2703   56.2419 H   0  0  0  0  0
  -18.2866   10.3963   57.0896 H   0  0  0  0  0
  -17.9994    7.4225   56.6566 H   0  0  0  0  0
  -20.3374    7.9374   58.0717 H   0  0  0  0  0
  -19.0475    8.9867   58.8564 H   0  0  0  0  0
  -18.7434    6.1339   61.0373 H   0  0  0  0  0
  -17.9071    7.7654   60.7837 H   0  0  0  0  0
  -20.6599    8.0572   60.3457 H   0  0  0  0  0
  -19.6118    8.7207   61.7004 H   0  0  0  0  0
  -17.7570    6.7001   58.7510 H   0  0  0  0  0
  -19.4690    6.0732   58.8649 H   0  0  0  0  0
  -21.6773    6.7471   61.8781 H   0  0  0  0  0
  -20.6816    6.9656   66.0393 H   0  0  0  0  0
  -22.0952    7.6308   65.1848 H   0  0  0  0  0
  -22.2469    6.1201   66.1154 H   0  0  0  0  0
  -22.1220    5.6721   63.6973 H   0  0  0  0  0
  -20.7029    5.0044   64.5550 H   0  0  0  0  0
  -19.2015    6.8001   54.9161 H   0  0  0  0  0
  -21.2154    8.7251   53.8710 H   0  0  0  0  0
  -20.1053    6.1823   52.6207 H   0  0  0  0  0
  -22.3649    6.6781   51.8350 H   0  0  0  0  0
  -21.8811    8.3492   51.4554 H   0  0  0  0  0
  -21.1684    6.9893   50.5533 H   0  0  0  0  0
  -19.5019    9.1045   52.0617 H   0  0  0  0  0
  -18.4086    7.9313   52.8359 H   0  0  0  0  0
  -18.8818    7.7178   51.1325 H   0  0  0  0  0
  -23.3864    8.3084   53.9330 H   0  0  0  0  0
  -24.3169    5.9063   55.3472 H   0  0  0  0  0
  -26.3784    5.1092   54.0996 H   0  0  0  0  0
  -26.5574    6.8452   54.9951 H   0  0  0  0  0
  -25.7811    8.2021   54.0434 H   0  0  0  0  0
  -24.7385    9.0401   55.9614 H   0  0  0  0  0
  -25.1612    7.5834   56.9202 H   0  0  0  0  0
  -27.4394    8.1566   56.9725 H   0  0  0  0  0
  -27.2216    9.4172   55.6974 H   0  0  0  0  0
  -25.6093   10.0707   57.9306 H   0  0  0  0  0
  -29.5077   11.1359   58.1837 H   0  0  0  0  0
  -29.0344    9.8714   57.0443 H   0  0  0  0  0
  -26.2364   11.6819   59.3703 H   0  0  0  0  0
  1  2  2  0  0  0
  1  3  1  0  0  0
  4  1  1  0  0  0
  5  4  1  0  0  0
  6  5  1  0  0  0
  5  8  1  0  0  0
  6  7  2  0  0  0
 13  6  1  0  0  0
  8  9  1  0  0  0
  9 10  1  0  0  0
 10 11  1  0  0  0
 11 12  1  0  0  0
 14 13  1  0  0  0
 15 14  1  0  0  0
 14 17  1  0  0  0
 15 16  2  0  0  0
 21 15  1  0  0  0
 17 18  1  0  0  0
 18 19  1  0  0  0
 18 20  1  0  0  0
 22 21  1  0  0  0
 23 22  1  0  0  0
 22 25  1  0  0  0
 23 24  2  0  0  0
 32 23  1  0  0  0
 25 26  1  0  0  0
 26 27  1  0  0  0
 27 28  1  0  0  0
 28 29  1  0  0  0
 29 30  2  0  0  0
 29 31  1  0  0  0
 33 32  1  0  0  0
 32 38  1  0  0  0
 34 33  1  0  0  0
 33 36  1  0  0  0
 34 35  2  0  0  0
 39 34  1  0  0  0
 36 37  1  0  0  0
 37 38  1  0  0  0
 40 39  1  0  0  0
 41 40  1  0  0  0
 40 43  1  0  0  0
 41 42  2  0  0  0
 46 41  1  0  0  0
 43 44  1  0  0  0
 43 45  1  0  0  0
 47 46  1  0  0  0
 48 47  1  0  0  0
 47 50  1  0  0  0
 48 49  2  0  0  0
 51 48  1  0  0  0
 52 51  1  0  0  0
 53 52  1  0  0  0
 52 55  1  0  0  0
 53 54  2  0  0  0
 59 53  1  0  0  0
 55 56  1  0  0  0
 56 57  1  0  0  0
 57 58  1  0  0  0
 60 59  1  0  0  0
 61 60  1  0  0  0
 60 63  1  0  0  0
 61 62  2  0  0  0
 66 61  1  0  0  0
 63 64  1  0  0  0
 63 65  1  0  0  0
 67 66  1  0  0  0
 68 67  1  0  0  0
 67 70  1  0  0  0
 68 69  2  0  0  0
 77 68  1  0  0  0
 70 71  1  0  0  0
 71 72  1  0  0  0
 72 73  1  0  0  0
 73 74  1  0  0  0
 74 75  1  0  0  0
 74 76  2  0  0  0
 78 77  1  0  0  0
 77 83  1  0  0  0
 79 78  1  0  0  0
 78 81  1  0  0  0
 79 80  2  0  0  0
 85 79  1  0  0  0
 81 82  1  0  0  0
 82 83  1  0  0  0
 84 86  2  0  0  0
 87 84  1  0  0  0
 84 97  1  0  0  0
 87 85  1  0  0  0
 88 87  1  0  0  0
 91 88  1  0  0  0
 90 89  1  0  0  0
 89 91  1  0  0  0
 92 90  1  0  0  0
 96 92  1  0  0  0
 95 93  1  0  0  0
 96 94  2  0  0  0
 95 96  1  0  0  0
 97 98  1  0  0  0
 98 99  1  0  0  0
 98101  1  0  0  0
 99100  2  0  0  0
 99104  1  0  0  0
101102  1  0  0  0
101103  1  0  0  0
104105  1  0  0  0
105106  1  0  0  0
105108  1  0  0  0
106107  1  0  0  0
108109  1  0  0  0
109110  1  0  0  0
110111  1  0  0  0
111112  1  0  0  0
112113  1  0  0  0
112114  2  0  0  0
106115  2  0  0  0
  3116  1  0  0  0
  3117  1  0  0  0
  3118  1  0  0  0
  4119  1  0  0  0
  5120  1  0  0  0
  8121  1  0  0  0
  8122  1  0  0  0
  9123  1  0  0  0
  9124  1  0  0  0
 10125  1  0  0  0
 10126  1  0  0  0
 11127  1  0  0  0
 11128  1  0  0  0
 12129  1  0  0  0
 12130  1  0  0  0
 12131  1  0  0  0
 13132  1  0  0  0
 14133  1  0  0  0
 17134  1  0  0  0
 17135  1  0  0  0
 18136  1  0  0  0
 19137  1  0  0  0
 19138  1  0  0  0
 19139  1  0  0  0
 20140  1  0  0  0
 20141  1  0  0  0
 20142  1  0  0  0
 21143  1  0  0  0
 22144  1  0  0  0
 25145  1  0  0  0
 25146  1  0  0  0
 26147  1  0  0  0
 26148  1  0  0  0
 27149  1  0  0  0
 27150  1  0  0  0
 28151  1  0  0  0
 30152  1  0  0  0
 31153  1  0  0  0
 31154  1  0  0  0
 33155  1  0  0  0
 36156  1  0  0  0
 36157  1  0  0  0
 37158  1  0  0  0
 37159  1  0  0  0
 38160  1  0  0  0
 38161  1  0  0  0
 39162  1  0  0  0
 40163  1  0  0  0
 43164  1  0  0  0
 44165  1  0  0  0
 44166  1  0  0  0
 44167  1  0  0  0
 45168  1  0  0  0
 45169  1  0  0  0
 45170  1  0  0  0
 46171  1  0  0  0
 47172  1  0  0  0
 50173  1  0  0  0
 50174  1  0  0  0
 50175  1  0  0  0
 51176  1  0  0  0
 52177  1  0  0  0
 55178  1  0  0  0
 55179  1  0  0  0
 56180  1  0  0  0
 56181  1  0  0  0
 58182  1  0  0  0
 58183  1  0  0  0
 58184  1  0  0  0
 59185  1  0  0  0
 60186  1  0  0  0
 63187  1  0  0  0
 64188  1  0  0  0
 64189  1  0  0  0
 64190  1  0  0  0
 65191  1  0  0  0
 65192  1  0  0  0
 65193  1  0  0  0
 66194  1  0  0  0
 67195  1  0  0  0
 70196  1  0  0  0
 70197  1  0  0  0
 71198  1  0  0  0
 71199  1  0  0  0
 72200  1  0  0  0
 72201  1  0  0  0
 73202  1  0  0  0
 75203  1  0  0  0
 75204  1  0  0  0
 76205  1  0  0  0
 78206  1  0  0  0
 81207  1  0  0  0
 81208  1  0  0  0
 82209  1  0  0  0
 82210  1  0  0  0
 83211  1  0  0  0
 83212  1  0  0  0
 85213  1  0  0  0
 87214  1  0  0  0
 88215  1  0  0  0
 88216  1  0  0  0
 89217  1  0  0  0
 89218  1  0  0  0
 90219  1  0  0  0
 90220  1  0  0  0
 91221  1  0  0  0
 91222  1  0  0  0
 92223  1  0  0  0
 93224  1  0  0  0
 93225  1  0  0  0
 93226  1  0  0  0
 95227  1  0  0  0
 95228  1  0  0  0
 97229  1  0  0  0
 98230  1  0  0  0
101231  1  0  0  0
102232  1  0  0  0
102233  1  0  0  0
102234  1  0  0  0
103235  1  0  0  0
103236  1  0  0  0
103237  1  0  0  0
104238  1  0  0  0
105239  1  0  0  0
107240  1  0  0  0
108241  1  0  0  0
108242  1  0  0  0
109243  1  0  0  0
109244  1  0  0  0
110245  1  0  0  0
110246  1  0  0  0
111247  1  0  0  0
113248  1  0  0  0
113249  1  0  0  0
114250  1  0  0  0
M  END
$$$$
