### 
### Created by X-TOOL on Mon Sep 10 21:13:13 2018
### 

@<TRIPOS>MOLECULE
4i7d_ligand
  252   253     1     0     0
SMALL
GAST_HUCK


@<TRIPOS>ATOM
      1 C          -6.6060   30.3030   74.7810 C.2       1 ACE         0.1751
      2 O          -6.2930   31.3170   74.1770 O.2       1 ACE        -0.3972
      3 CH3        -6.8080   30.3230   76.2790 C.3       1 ACE         0.0258
      4 N          -6.7840   29.1410   74.1390 N.am      1 LYS        -0.2658
      5 CA         -7.2100   27.9070   74.7870 C.3       1 LYS         0.1309
      6 C          -6.4440   26.6800   74.2850 C.2       1 LYS         0.2039
      7 O          -6.2580   26.5030   73.0750 O.2       1 LYS        -0.3944
      8 CB         -8.7100   27.6970   74.5700 C.3       1 LYS        -0.0122
      9 CG         -9.5730   28.7880   75.1870 C.3       1 LYS        -0.0440
     10 CD        -11.0540   28.5000   75.0160 C.3       1 LYS        -0.0124
     11 CE        -11.9100   29.4650   75.8240 C.3       1 LYS        -0.0354
     12 NZ        -13.2800   28.9310   76.0580 N.4       1 LYS         0.2185
     13 N          -6.0120   25.8420   75.2300 N.am      1 LEU        -0.2637
     14 CA         -5.3680   24.5580   74.9350 C.3       1 LEU         0.1312
     15 C          -6.3520   23.6330   74.2190 C.2       1 LEU         0.2039
     16 O          -7.3790   23.2630   74.7880 O.2       1 LEU        -0.3944
     17 CB         -4.8860   23.9120   76.2380 C.3       1 LEU        -0.0101
     18 CG         -4.0550   22.6310   76.1710 C.3       1 LEU        -0.0425
     19 CD1        -2.8430   22.8090   75.2730 C.3       1 LEU        -0.0625
     20 CD2        -3.6160   22.2380   77.5740 C.3       1 LEU        -0.0625
     21 N          -6.0430   23.2780   72.9720 N.am      1 ARG        -0.2637
     22 CA         -6.9550   22.5000   72.1270 C.3       1 ARG         0.1313
     23 C          -6.2830   21.2820   71.4990 C.2       1 ARG         0.2064
     24 O          -5.5090   21.4260   70.5490 O.2       1 ARG        -0.3942
     25 CB         -7.5460   23.3740   71.0090 C.3       1 ARG        -0.0092
     26 CG         -8.6110   24.3480   71.4790 C.3       1 ARG        -0.0156
     27 CD         -9.2310   25.1300   70.3300 C.3       1 ARG         0.0627
     28 NE        -10.0930   26.2020   70.8350 N.pl3     1 ARG        -0.2723
     29 CZ        -11.3720   26.0640   71.1830 C.cat     1 ARG         0.2882
     30 NH1       -11.9940   24.8960   71.0740 N.pl3     1 ARG        -0.2849
     31 NH2       -12.0390   27.1140   71.6480 N.pl3     1 ARG        -0.2849
     32 N          -6.5790   20.0780   72.0200 N.am      1 PRO        -0.2498
     33 CA         -6.2270   18.8810   71.2560 C.3       1 PRO         0.1338
     34 C          -6.9990   18.8360   69.9420 C.2       1 PRO         0.2041
     35 O          -8.1570   19.2490   69.8900 O.2       1 PRO        -0.3944
     36 CB         -6.6420   17.7200   72.1790 C.3       1 PRO        -0.0104
     37 CG         -7.5470   18.3220   73.1970 C.3       1 PRO        -0.0281
     38 CD         -7.0930   19.7390   73.3570 C.3       1 PRO         0.0369
     39 N          -6.3430   18.3610   68.8920 N.am      1 VAL        -0.2635
     40 CA         -6.9350   18.2930   67.5640 C.3       1 VAL         0.1332
     41 C          -7.2130   16.8370   67.2080 C.2       1 VAL         0.2041
     42 O          -6.3140   16.0050   67.2650 O.2       1 VAL        -0.3944
     43 CB         -5.9880   18.8860   66.5060 C.3       1 VAL        -0.0063
     44 CG1        -6.6510   18.8860   65.1340 C.3       1 VAL        -0.0584
     45 CG2        -5.5660   20.2920   66.9090 C.3       1 VAL        -0.0584
     46 N          -8.4590   16.5430   66.8470 N.am      1 ALA        -0.2640
     47 CA         -8.8510   15.2040   66.4080 C.3       1 ALA         0.1282
     48 C          -9.1240   15.2170   64.9090 C.2       1 ALA         0.2036
     49 O          -9.9740   15.9710   64.4230 O.2       1 ALA        -0.3944
     50 CB        -10.0810   14.7290   67.1660 C.3       1 ALA        -0.0244
     51 N          -8.3880   14.3860   64.1830 N.am      1 MET        -0.2637
     52 CA         -8.6030   14.2020   62.7570 C.3       1 MET         0.1317
     53 C          -9.7070   13.1620   62.5850 C.2       1 MET         0.2039
     54 O          -9.5340   11.9970   62.9410 O.2       1 MET        -0.3944
     55 CB         -7.3080   13.7350   62.0950 C.3       1 MET        -0.0034
     56 CG         -7.2320   13.9880   60.6020 C.3       1 MET        -0.0024
     57 SD         -5.5300   13.9580   60.0030 S.3       1 MET        -0.1639
     58 CE         -4.8610   15.4160   60.8040 C.3       1 MET        -0.0181
     59 N         -10.8510   13.6010   62.0690 N.am      1 VAL        -0.2635
     60 CA        -12.0040   12.7320   61.8980 C.3       1 VAL         0.1332
     61 C         -12.2150   12.4160   60.4250 C.2       1 VAL         0.2041
     62 O         -12.2940   13.3210   59.5890 O.2       1 VAL        -0.3944
     63 CB        -13.2840   13.3800   62.4500 C.3       1 VAL        -0.0063
     64 CG1       -14.4420   12.3980   62.3690 C.3       1 VAL        -0.0584
     65 CG2       -13.0650   13.8470   63.8830 C.3       1 VAL        -0.0584
     66 N         -12.3070   11.1260   60.1220 N.am      1 ARG        -0.2637
     67 CA        -12.5330   10.6530   58.7650 C.3       1 ARG         0.1313
     68 C         -14.0260   10.6050   58.4800 C.2       1 ARG         0.2064
     69 O         -14.8120   10.2870   59.3640 O.2       1 ARG        -0.3942
     70 CB        -11.9320    9.2550   58.5820 C.3       1 ARG        -0.0092
     71 CG        -10.4310    9.1640   58.8380 C.3       1 ARG        -0.0156
     72 CD         -9.6040    9.9470   57.8240 C.3       1 ARG         0.0627
     73 NE         -9.7890    9.4650   56.4550 N.pl3     1 ARG        -0.2723
     74 CZ         -9.0970    9.8880   55.3990 C.cat     1 ARG         0.2882
     75 NH1        -8.1510   10.8150   55.5300 N.pl3     1 ARG        -0.2849
     76 NH2        -9.3510    9.3760   54.1990 N.pl3     1 ARG        -0.2849
     77 N         -14.4240   10.9160   57.2390 N.am      1 PRO        -0.2498
     78 CA        -15.8440   10.9280   56.8970 C.3       1 PRO         0.1338
     79 C         -16.4760    9.5370   56.8480 C.2       1 PRO         0.2041
     80 O         -15.7760    8.5430   56.7050 O.2       1 PRO        -0.3944
     81 CB        -15.8680   11.5700   55.5040 C.3       1 PRO        -0.0104
     82 CG        -14.5230   11.2990   54.9360 C.3       1 PRO        -0.0281
     83 CD        -13.5740   11.3020   56.0970 C.3       1 PRO         0.0369
     84 C         -19.6790    8.5270   55.8740 C.2       1 PRK         0.2039
     85 N         -17.8010    9.5090   56.9580 N.am      1 PRK        -0.2637
     86 O         -20.3670    9.5470   55.9170 O.2       1 PRK        -0.3944
     87 CA        -18.6060    8.2940   56.9030 C.3       1 PRK         0.1310
     88 CB        -19.2770    8.1010   58.2640 C.3       1 PRK        -0.0123
     89 CD        -18.7650    7.1240   60.5820 C.3       1 PRK        -0.0325
     90 CE        -19.9860    7.8420   61.1750 C.3       1 PRK         0.0309
     91 CG        -18.7830    6.8970   59.0620 C.3       1 PRK        -0.0470
     92 NZ        -20.7440    7.0610   62.1440 N.am      1 PRK        -0.2870
     93 CAA       -21.5860    6.7150   65.4850 C.3       1 PRK        -0.0482
     94 OAD       -19.1900    7.0430   63.7710 O.2       1 PRK        -0.3971
     95 CAF       -21.2150    5.9170   64.2500 C.3       1 PRK         0.0344
     96 CAL       -20.2950    6.7290   63.3600 C.2       1 PRK         0.1757
     97 N         -19.8390    7.5960   54.9380 N.am      1 VAL        -0.2635
     98 CA        -20.9060    7.6820   53.9370 C.3       1 VAL         0.1332
     99 C         -22.0830    6.8070   54.3580 C.2       1 VAL         0.2036
    100 O         -21.8870    5.6740   54.7980 O.2       1 VAL        -0.3944
    101 CB        -20.4150    7.2250   52.5510 C.3       1 VAL        -0.0063
    102 CG1       -21.5380    7.3170   51.5250 C.3       1 VAL        -0.0584
    103 CG2       -19.2160    8.0540   52.1140 C.3       1 VAL        -0.0584
    104 N         -23.2980    7.3360   54.2280 N.am      1 ARG        -0.2695
    105 CA        -24.5120    6.5600   54.4970 C.3       1 ARG         0.0945
    106 C         -24.8710    5.7150   53.2790 C.2       1 ARG         0.0601
    107 O         -25.9138    5.0079   53.2657 O.co2     1 ARG        -0.5666
    108 CB        -25.6820    7.4790   54.8530 C.3       1 ARG        -0.0148
    109 CG        -25.4860    8.2660   56.1350 C.3       1 ARG        -0.0162
    110 CD        -26.7830    8.9260   56.5660 C.3       1 ARG         0.0627
    111 NE        -26.5640    9.9330   57.5990 N.pl3     1 ARG        -0.2723
    112 CZ        -27.5200   10.6850   58.1400 C.cat     1 ARG         0.2882
    113 NH1       -28.7850   10.5540   57.7600 N.pl3     1 ARG        -0.2849
    114 NH2       -27.2060   11.5760   59.0720 N.pl3     1 ARG        -0.2849
    115 O         -24.1140    5.7242   52.2718 O.co2     1 ARG        -0.5666
    116 H1         -7.0839   29.3160   76.6252 H         1 ACE         0.0467
    117 H2         -7.6117   31.0304   76.5312 H         1 ACE         0.0467
    118 H3         -5.8754   30.6370   76.7706 H         1 ACE         0.0467
    119 H4         -6.6140   29.1188   73.1538 H         1 LYS         0.1882
    120 H5         -7.0221   28.0079   75.8661 H         1 LYS         0.0800
    121 H6         -8.9947   26.7335   75.0178 H         1 LYS         0.0312
    122 H7         -8.9045   27.6701   73.4877 H         1 LYS         0.0312
    123 H8         -9.3381   29.7459   74.6999 H         1 LYS         0.0269
    124 H9         -9.3455   28.8572   76.2610 H         1 LYS         0.0269
    125 H10       -11.2591   27.4732   75.3529 H         1 LYS         0.0317
    126 H11       -11.3157   28.5960   73.9519 H         1 LYS         0.0317
    127 H12       -11.9879   30.4155   75.2759 H         1 LYS         0.0813
    128 H13       -11.4263   29.6408   76.7961 H         1 LYS         0.0813
    129 H14       -13.8132   29.5973   76.5945 H         1 LYS         0.1994
    130 H15       -13.2199   28.0622   76.5655 H         1 LYS         0.1994
    131 H16       -13.7345   28.7721   75.1724 H         1 LYS         0.1994
    132 H17        -6.1337   26.1031   76.1876 H         1 LEU         0.1883
    133 H18        -4.5016   24.7329   74.2803 H         1 LEU         0.0800
    134 H19        -5.7817   23.6834   76.8342 H         1 LEU         0.0315
    135 H20        -4.2776   24.6629   76.7634 H         1 LEU         0.0315
    136 H21        -4.6811   21.8271   75.7566 H         1 LEU         0.0298
    137 H22        -2.2666   21.8725   75.2452 H         1 LEU         0.0232
    138 H23        -2.2100   23.6176   75.6673 H         1 LEU         0.0232
    139 H24        -3.1746   23.0657   74.2561 H         1 LEU         0.0232
    140 H25        -4.5020   22.1123   78.2137 H         1 LEU         0.0232
    141 H26        -2.9717   23.0261   77.9909 H         1 LEU         0.0232
    142 H27        -3.0571   21.2915   77.5317 H         1 LEU         0.0232
    143 H28        -5.1567   23.5522   72.5988 H         1 ARG         0.1883
    144 H29        -7.7790   22.1449   72.7634 H         1 ARG         0.0800
    145 H30        -7.9934   22.7117   70.2532 H         1 ARG         0.0313
    146 H31        -6.7279   23.9508   70.5529 H         1 ARG         0.0313
    147 H32        -8.1537   25.0584   72.1834 H         1 ARG         0.0301
    148 H33        -9.4045   23.7837   71.9907 H         1 ARG         0.0301
    149 H34        -9.8307   24.4466   69.7109 H         1 ARG         0.0689
    150 H35        -8.4290   25.5699   69.7190 H         1 ARG         0.0689
    151 H36        -9.6761   27.1392   70.9287 H         1 ARG         0.2642
    152 H37       -12.9831   24.8116   71.3488 H         1 ARG         0.2615
    153 H38       -11.4874   24.0743   70.7147 H         1 ARG         0.2615
    154 H39       -11.5675   28.0254   71.7372 H         1 ARG         0.2615
    155 H40       -13.0278   27.0170   71.9195 H         1 ARG         0.2615
    156 H41        -5.1471   18.8502   71.0491 H         1 PRO         0.0802
    157 H42        -5.7580   17.2797   72.6635 H         1 PRO         0.0313
    158 H43        -7.1708   16.9440   71.6061 H         1 PRO         0.0313
    159 H44        -7.4627   17.7824   74.1518 H         1 PRO         0.0287
    160 H45        -8.5900   18.2907   72.8490 H         1 PRO         0.0287
    161 H46        -7.9323   20.3935   73.6350 H         1 PRO         0.0524
    162 H47        -6.3006   19.8164   74.1160 H         1 PRO         0.0524
    163 H48        -5.4053   18.0370   69.0174 H         1 VAL         0.1883
    164 H49        -7.8785   18.8585   67.5622 H         1 VAL         0.0802
    165 H50        -5.0876   18.2564   66.4534 H         1 VAL         0.0343
    166 H51        -5.9595   19.3129   64.3926 H         1 VAL         0.0234
    167 H52        -7.5689   19.4911   65.1703 H         1 VAL         0.0234
    168 H53        -6.9032   17.8540   64.8486 H         1 VAL         0.0234
    169 H54        -5.0915   20.2622   67.9009 H         1 VAL         0.0234
    170 H55        -6.4510   20.9442   66.9454 H         1 VAL         0.0234
    171 H56        -4.8505   20.6855   66.1720 H         1 VAL         0.0234
    172 H57        -9.1523   17.2630   66.8768 H         1 ALA         0.1883
    173 H58        -8.0233   14.5087   66.6117 H         1 ALA         0.0797
    174 H59       -10.3581   13.7219   66.8210 H         1 ALA         0.0277
    175 H60       -10.9153   15.4220   66.9822 H         1 ALA         0.0277
    176 H61        -9.8593   14.6995   68.2430 H         1 ALA         0.0277
    177 H62        -7.6600   13.8681   64.6321 H         1 MET         0.1883
    178 H63        -8.9183   15.1527   62.3022 H         1 MET         0.0800
    179 H64        -7.2075   12.6528   62.2645 H         1 MET         0.0320
    180 H65        -6.4692   14.2607   62.5746 H         1 MET         0.0320
    181 H66        -7.6683   14.9742   60.3853 H         1 MET         0.0378
    182 H67        -7.8072   13.2096   60.0792 H         1 MET         0.0378
    183 H68        -3.8028   15.5333   60.5274 H         1 MET         0.0340
    184 H69        -4.9447   15.3058   61.8953 H         1 MET         0.0340
    185 H70        -5.4250   16.3034   60.4807 H         1 MET         0.0340
    186 H71       -10.9206   14.5587   61.7898 H         1 VAL         0.1883
    187 H72       -11.8178   11.7947   62.4428 H         1 VAL         0.0802
    188 H73       -13.5273   14.2571   61.8324 H         1 VAL         0.0343
    189 H74       -15.3523   12.8710   62.7661 H         1 VAL         0.0234
    190 H75       -14.2055   11.5024   62.9623 H         1 VAL         0.0234
    191 H76       -14.6060   12.1102   61.3201 H         1 VAL         0.0234
    192 H77       -12.2236   14.5549   63.9134 H         1 VAL         0.0234
    193 H78       -12.8378   12.9799   64.5206 H         1 VAL         0.0234
    194 H79       -13.9753   14.3436   64.2500 H         1 VAL         0.0234
    195 H80       -12.2173   10.4530   60.8562 H         1 ARG         0.1883
    196 H81       -12.0523   11.3461   58.0589 H         1 ARG         0.0800
    197 H82       -12.1225    8.9336   57.5474 H         1 ARG         0.0313
    198 H83       -12.4396    8.5708   59.2778 H         1 ARG         0.0313
    199 H84       -10.1313    8.1066   58.7926 H         1 ARG         0.0301
    200 H85       -10.2221    9.5616   59.8421 H         1 ARG         0.0301
    201 H86        -8.5406    9.8539   58.0896 H         1 ARG         0.0689
    202 H87        -9.9018   11.0050   57.8682 H         1 ARG         0.0689
    203 H88       -10.5081    8.7448   56.2963 H         1 ARG         0.2642
    204 H89        -7.6235   11.1328   54.7044 H         1 ARG         0.2615
    205 H90        -7.9464   11.2146   56.4570 H         1 ARG         0.2615
    206 H91       -10.0816    8.6582   54.0895 H         1 ARG         0.2615
    207 H92        -8.8173    9.6970   53.3786 H         1 ARG         0.2615
    208 H93       -16.4004   11.5431   57.6195 H         1 PRO         0.0802
    209 H94       -16.0451   12.6530   55.5798 H         1 PRO         0.0313
    210 H95       -16.6507   11.1132   54.8806 H         1 PRO         0.0313
    211 H96       -14.2475   12.0833   54.2156 H         1 PRO         0.0287
    212 H97       -14.5102   10.3199   54.4349 H         1 PRO         0.0287
    213 H98       -12.7649   10.5724   55.9450 H         1 PRO         0.0524
    214 H99       -13.1421   12.3022   56.2489 H         1 PRO         0.0524
    215 H100      -18.2771   10.3789   57.0870 H         1 PRK         0.1883
    216 H101      -17.9897    7.4208   56.6429 H         1 PRK         0.0800
    217 H102      -20.3576    7.9799   58.0976 H         1 PRK         0.0312
    218 H103      -19.0974    9.0051   58.8643 H         1 PRK         0.0312
    219 H104      -18.6859    6.1400   61.0673 H         1 PRK         0.0285
    220 H105      -17.8743    7.7235   60.8212 H         1 PRK         0.0285
    221 H106      -20.6606    8.1092   60.3483 H         1 PRK         0.0520
    222 H107      -19.6356    8.7581   61.6731 H         1 PRK         0.0520
    223 H108      -17.7598    6.6604   58.7348 H         1 PRK         0.0268
    224 H109      -19.4433    6.0439   58.8468 H         1 PRK         0.0268
    225 H110      -21.6590    6.7532   61.8833 H         1 PRK         0.1850
    226 H111      -22.2531    6.1157   66.1221 H         1 PRK         0.0254
    227 H112      -22.1001    7.6395   65.1834 H         1 PRK         0.0254
    228 H113      -20.6741    6.9686   66.0454 H         1 PRK         0.0254
    229 H114      -22.1290    5.6634   63.6929 H         1 PRK         0.0500
    230 H115      -20.7029    4.9924   64.5549 H         1 PRK         0.0500
    231 H116      -19.2140    6.8157   54.9166 H         1 VAL         0.1883
    232 H117      -21.2403    8.7277   53.8682 H         1 VAL         0.0802
    233 H118      -20.1003    6.1736   52.6245 H         1 VAL         0.0343
    234 H119      -21.1662    6.9865   50.5439 H         1 VAL         0.0234
    235 H120      -21.8852    8.3583   51.4537 H         1 VAL         0.0234
    236 H121      -22.3732    6.6725   51.8367 H         1 VAL         0.0234
    237 H122      -18.4195    7.9727   52.8683 H         1 VAL         0.0234
    238 H123      -19.5165    9.1070   52.0102 H         1 VAL         0.0234
    239 H124      -18.8452    7.6815   51.1477 H         1 VAL         0.0234
    240 H125      -23.3846    8.2893   53.9388 H         1 ARG         0.1875
    241 H126      -24.3191    5.8911   55.3487 H         1 ARG         0.0726
    242 H127      -26.5854    6.8610   54.9622 H         1 ARG         0.0307
    243 H128      -25.8235    8.1928   54.0281 H         1 ARG         0.0307
    244 H129      -24.7244    9.0421   55.9689 H         1 ARG         0.0301
    245 H130      -25.1474    7.5839   56.9287 H         1 ARG         0.0301
    246 H131      -27.4610    8.1544   56.9596 H         1 ARG         0.0689
    247 H132      -27.2444    9.4081   55.6916 H         1 ARG         0.0689
    248 H133      -25.5999   10.0721   57.9338 H         1 ARG         0.2642
    249 H134      -29.5146   11.1424   58.1870 H         1 ARG         0.2615
    250 H135      -29.0371    9.8639   57.0381 H         1 ARG         0.2615
    251 H136      -26.2267   11.6837   59.3724 H         1 ARG         0.2615
    252 H137      -27.9416   12.1598   59.4950 H         1 ARG         0.2615
@<TRIPOS>BOND
     1    1    2 2  
     2    1    3 1  
     3    4    1 am 
     4    5    4 1  
     5    6    5 1  
     6    5    8 1  
     7    6    7 2  
     8   13    6 am 
     9    8    9 1  
    10    9   10 1  
    11   10   11 1  
    12   11   12 1  
    13   14   13 1  
    14   15   14 1  
    15   14   17 1  
    16   15   16 2  
    17   21   15 am 
    18   17   18 1  
    19   18   19 1  
    20   18   20 1  
    21   22   21 1  
    22   23   22 1  
    23   22   25 1  
    24   23   24 2  
    25   32   23 am 
    26   25   26 1  
    27   26   27 1  
    28   27   28 1  
    29   28   29 ar 
    30   29   30 ar 
    31   29   31 ar 
    32   33   32 1  
    33   32   38 1  
    34   34   33 1  
    35   33   36 1  
    36   34   35 2  
    37   39   34 am 
    38   36   37 1  
    39   37   38 1  
    40   40   39 1  
    41   41   40 1  
    42   40   43 1  
    43   41   42 2  
    44   46   41 am 
    45   43   44 1  
    46   43   45 1  
    47   47   46 1  
    48   48   47 1  
    49   47   50 1  
    50   48   49 2  
    51   51   48 am 
    52   52   51 1  
    53   53   52 1  
    54   52   55 1  
    55   53   54 2  
    56   59   53 am 
    57   55   56 1  
    58   56   57 1  
    59   57   58 1  
    60   60   59 1  
    61   61   60 1  
    62   60   63 1  
    63   61   62 2  
    64   66   61 am 
    65   63   64 1  
    66   63   65 1  
    67   67   66 1  
    68   68   67 1  
    69   67   70 1  
    70   68   69 2  
    71   77   68 am 
    72   70   71 1  
    73   71   72 1  
    74   72   73 1  
    75   73   74 ar 
    76   74   75 ar 
    77   74   76 ar 
    78   78   77 1  
    79   77   83 1  
    80   79   78 1  
    81   78   81 1  
    82   79   80 2  
    83   85   79 am 
    84   81   82 1  
    85   82   83 1  
    86   84   86 2  
    87   87   84 1  
    88   84   97 am 
    89   87   85 1  
    90   88   87 1  
    91   91   88 1  
    92   90   89 1  
    93   89   91 1  
    94   92   90 1  
    95   96   92 am 
    96   95   93 1  
    97   96   94 2  
    98   95   96 1  
    99   97   98 1  
   100   98   99 1  
   101   98  101 1  
   102   99  100 2  
   103   99  104 am 
   104  101  102 1  
   105  101  103 1  
   106  104  105 1  
   107  105  106 1  
   108  105  108 1  
   109  106  107 ar 
   110  108  109 1  
   111  109  110 1  
   112  110  111 1  
   113  111  112 ar 
   114  112  113 ar 
   115  112  114 ar 
   116  106  115 ar 
   117    3  116 1  
   118    3  117 1  
   119    3  118 1  
   120    4  119 1  
   121    5  120 1  
   122    8  121 1  
   123    8  122 1  
   124    9  123 1  
   125    9  124 1  
   126   10  125 1  
   127   10  126 1  
   128   11  127 1  
   129   11  128 1  
   130   12  129 1  
   131   12  130 1  
   132   12  131 1  
   133   13  132 1  
   134   14  133 1  
   135   17  134 1  
   136   17  135 1  
   137   18  136 1  
   138   19  137 1  
   139   19  138 1  
   140   19  139 1  
   141   20  140 1  
   142   20  141 1  
   143   20  142 1  
   144   21  143 1  
   145   22  144 1  
   146   25  145 1  
   147   25  146 1  
   148   26  147 1  
   149   26  148 1  
   150   27  149 1  
   151   27  150 1  
   152   28  151 1  
   153   30  152 1  
   154   30  153 1  
   155   31  154 1  
   156   31  155 1  
   157   33  156 1  
   158   36  157 1  
   159   36  158 1  
   160   37  159 1  
   161   37  160 1  
   162   38  161 1  
   163   38  162 1  
   164   39  163 1  
   165   40  164 1  
   166   43  165 1  
   167   44  166 1  
   168   44  167 1  
   169   44  168 1  
   170   45  169 1  
   171   45  170 1  
   172   45  171 1  
   173   46  172 1  
   174   47  173 1  
   175   50  174 1  
   176   50  175 1  
   177   50  176 1  
   178   51  177 1  
   179   52  178 1  
   180   55  179 1  
   181   55  180 1  
   182   56  181 1  
   183   56  182 1  
   184   58  183 1  
   185   58  184 1  
   186   58  185 1  
   187   59  186 1  
   188   60  187 1  
   189   63  188 1  
   190   64  189 1  
   191   64  190 1  
   192   64  191 1  
   193   65  192 1  
   194   65  193 1  
   195   65  194 1  
   196   66  195 1  
   197   67  196 1  
   198   70  197 1  
   199   70  198 1  
   200   71  199 1  
   201   71  200 1  
   202   72  201 1  
   203   72  202 1  
   204   73  203 1  
   205   75  204 1  
   206   75  205 1  
   207   76  206 1  
   208   76  207 1  
   209   78  208 1  
   210   81  209 1  
   211   81  210 1  
   212   82  211 1  
   213   82  212 1  
   214   83  213 1  
   215   83  214 1  
   216   85  215 1  
   217   87  216 1  
   218   88  217 1  
   219   88  218 1  
   220   89  219 1  
   221   89  220 1  
   222   90  221 1  
   223   90  222 1  
   224   91  223 1  
   225   91  224 1  
   226   92  225 1  
   227   93  226 1  
   228   93  227 1  
   229   93  228 1  
   230   95  229 1  
   231   95  230 1  
   232   97  231 1  
   233   98  232 1  
   234  101  233 1  
   235  102  234 1  
   236  102  235 1  
   237  102  236 1  
   238  103  237 1  
   239  103  238 1  
   240  103  239 1  
   241  104  240 1  
   242  105  241 1  
   243  108  242 1  
   244  108  243 1  
   245  109  244 1  
   246  109  245 1  
   247  110  246 1  
   248  110  247 1  
   249  111  248 1  
   250  113  249 1  
   251  113  250 1  
   252  114  251 1  
   253  114  252 1  
@<TRIPOS>SUBSTRUCTURE
     1 ACE         1

