4msc_ligand
  -I-interpret- 

 36 39  0  0  0  0  0  0  0  0999 V2000
    4.2690   19.7590   36.9560 C   0  0  0  0  0
    4.3040   20.3580   35.7010 C   0  0  0  0  0
    3.7140   19.7150   34.6130 C   0  0  0  0  0
    3.0790   18.4810   34.7750 C   0  0  0  0  0
    3.0410   17.8860   36.0320 C   0  0  0  0  0
    2.4320   16.6470   36.2190 C   0  0  0  0  0
    2.4150   16.0710   37.4890 C   0  0  0  0  0
    3.0100   16.7390   38.5600 C   0  0  0  0  0
    3.0010   16.1450   39.9560 C   0  0  0  0  0
    3.0050   14.6890   39.9410 O   0  0  0  0  0
    3.4690   13.8600   40.8810 C   0  0  0  0  0
    3.5130   14.2210   42.2260 C   0  0  0  0  0
    3.9970   13.3430   43.2000 C   0  0  0  0  0
    4.0380   13.7210   44.5060 N   0  0  0  0  0
    4.5060   12.8730   45.4630 C   0  0  0  0  0
    4.9600   11.6060   45.1040 C   0  0  0  0  0
    4.9270   11.2020   43.7830 C   0  0  0  0  0
    4.4450   12.0810   42.8280 C   0  0  0  0  0
    4.4030   11.7170   41.4840 C   0  0  0  0  0
    3.9150   12.6010   40.5290 C   0  0  0  0  0
    3.5980   17.9320   38.3440 N   0  0  0  0  0
    3.6310   18.5220   37.1230 C   0  0  0  0  0
    4.7371   20.2509   37.8086 H   0  0  0  0  0
    4.7899   21.3247   35.5686 H   0  0  0  0  0
    3.7486   20.1793   33.6275 H   0  0  0  0  0
    2.6158   17.9870   33.9209 H   0  0  0  0  0
    1.9712   16.1305   35.3770 H   0  0  0  0  0
    1.9389   15.1029   37.6444 H   0  0  0  0  0
    2.0902   16.4742   40.4562 H   0  0  0  0  0
    3.9023   16.4790   40.4700 H   0  0  0  0  0
    3.1626   15.2089   42.5250 H   0  0  0  0  0
    4.5253   13.1848   46.5073 H   0  0  0  0  0
    5.3430   10.9302   45.8686 H   0  0  0  0  0
    5.2743   10.2089   43.4978 H   0  0  0  0  0
    4.7555   10.7316   41.1791 H   0  0  0  0  0
    3.8837   12.2952   39.4832 H   0  0  0  0  0
  1  2  4  0  0  0
  1 22  4  0  0  0
  2  3  4  0  0  0
  3  4  4  0  0  0
  4  5  4  0  0  0
  5  6  4  0  0  0
  5 22  4  0  0  0
  6  7  4  0  0  0
  7  8  4  0  0  0
  8  9  1  0  0  0
  8 21  4  0  0  0
  9 10  1  0  0  0
 10 11  1  0  0  0
 11 12  4  0  0  0
 11 20  4  0  0  0
 12 13  4  0  0  0
 13 14  4  0  0  0
 13 18  4  0  0  0
 14 15  4  0  0  0
 15 16  4  0  0  0
 16 17  4  0  0  0
 17 18  4  0  0  0
 18 19  4  0  0  0
 19 20  4  0  0  0
 21 22  4  0  0  0
  1 23  1  0  0  0
  2 24  1  0  0  0
  3 25  1  0  0  0
  4 26  1  0  0  0
  6 27  1  0  0  0
  7 28  1  0  0  0
  9 29  1  0  0  0
  9 30  1  0  0  0
 12 31  1  0  0  0
 15 32  1  0  0  0
 16 33  1  0  0  0
 17 34  1  0  0  0
 19 35  1  0  0  0
 20 36  1  0  0  0
M  END
$$$$
