3gpj_ligand
  -I-interpret- 

 78 78  0  0  0  0  0  0  0  0999 V2000
   58.4080 -134.7200   34.8370 C   0  0  0  0  0
   53.4990 -133.8200   34.3290 C   0  0  0  0  0
   55.3630 -132.4710   35.4030 C   0  0  0  0  0
   55.0120 -133.3770   34.2130 C   0  0  0  0  0
   56.2100 -135.3210   31.8640 O   0  0  0  0  0
   55.7490 -135.5250   32.9990 C   0  0  0  0  0
   56.0320 -134.5800   34.1770 C   0  0  0  0  0
   54.9720 -136.5980   33.2820 O   0  0  0  0  0
   57.4300 -134.1120   34.0690 N   0  0  0  0  0
   59.7200 -134.3110   34.7640 N   0  0  0  0  0
   60.8080 -134.9370   35.5740 C   0  0  0  0  0
   60.5250 -134.8150   37.0350 C   0  0  0  0  0
   60.8820 -135.8770   37.8310 N   0  0  0  0  0
   60.6490 -135.7740   39.2640 C   0  0  0  0  0
   59.5800 -136.8200   39.6980 C   0  0  0  0  0
   59.7260 -138.1980   38.9890 C   0  0  0  0  0
   59.1640 -139.3720   39.8620 C   0  0  0  0  0
   60.0440 -139.6580   41.1190 C   0  0  0  0  0
   59.6160 -138.8720   42.2730 N   0  0  0  0  0
   60.4430 -138.2200   43.1580 C   0  0  0  0  0
   59.9300 -137.6070   44.0900 O   0  0  0  0  0
   61.9730 -138.1960   43.0930 C   0  0  0  0  0
   62.5990 -136.8320   43.5280 C   0  0  0  0  0
   63.0540 -136.0130   42.2840 C   0  0  0  0  0
   63.6390 -134.6080   42.6930 C   0  0  0  0  0
   64.5510 -133.9970   41.5790 C   0  0  0  0  0
   62.5150 -133.5430   43.0590 C   0  0  0  0  0
   61.9030 -135.8630   41.3920 N   0  0  0  0  0
   61.9610 -135.9930   40.0240 C   0  0  0  0  0
   63.0060 -136.2540   39.3870 O   0  0  0  0  0
   60.0110 -133.8050   37.4520 O   0  0  0  0  0
   62.2350 -134.3470   35.3170 C   0  0  0  0  0
   62.5940 -134.5310   33.8330 C   0  0  0  0  0
   62.3010 -132.8450   35.6530 C   0  0  0  0  0
   58.0780 -135.6310   35.5820 O   0  0  0  0  0
   53.2364 -134.4397   33.4716 H   0  0  0  0  0
   53.3580 -134.3898   35.2475 H   0  0  0  0  0
   52.8630 -132.9350   34.3477 H   0  0  0  0  0
   55.2937 -133.0444   36.3274 H   0  0  0  0  0
   56.3785 -132.0934   35.2834 H   0  0  0  0  0
   54.6650 -131.6346   35.4395 H   0  0  0  0  0
   55.1067 -132.8544   33.2611 H   0  0  0  0  0
   55.8996 -135.1144   35.1177 H   0  0  0  0  0
   54.7195 -136.5736   34.2079 H   0  0  0  0  0
   57.6712 -133.3497   33.4357 H   0  0  0  0  0
   59.9596 -133.5485   34.1303 H   0  0  0  0  0
   60.8154 -135.9781   35.2512 H   0  0  0  0  0
   61.2995 -136.7158   37.4279 H   0  0  0  0  0
   60.2773 -134.7769   39.5002 H   0  0  0  0  0
   58.6033 -136.4177   39.4289 H   0  0  0  0  0
   59.7062 -136.9895   40.7673 H   0  0  0  0  0
   60.7865 -138.3806   38.8154 H   0  0  0  0  0
   59.1586 -138.1639   38.0589 H   0  0  0  0  0
   59.1534 -140.2722   39.2475 H   0  0  0  0  0
   58.1692 -139.0885   40.2058 H   0  0  0  0  0
   61.0736 -139.3881   40.8842 H   0  0  0  0  0
   59.9484 -140.7143   41.3702 H   0  0  0  0  0
   58.6120 -138.7999   42.4379 H   0  0  0  0  0
   62.2578 -138.3691   42.0552 H   0  0  0  0  0
   62.3404 -138.9574   43.7811 H   0  0  0  0  0
   63.4670 -137.0277   44.1576 H   0  0  0  0  0
   61.8492 -136.2581   44.0725 H   0  0  0  0  0
   63.8573 -136.5447   41.7740 H   0  0  0  0  0
   64.2331 -134.8104   43.5842 H   0  0  0  0  0
   65.3878 -134.6687   41.3873 H   0  0  0  0  0
   63.9701 -133.8684   40.6657 H   0  0  0  0  0
   64.9285 -133.0296   41.9103 H   0  0  0  0  0
   61.8654 -133.3914   42.1969 H   0  0  0  0  0
   61.9262 -133.9121   43.8988 H   0  0  0  0  0
   62.9861 -132.5985   43.3312 H   0  0  0  0  0
   60.9989 -135.6480   41.8125 H   0  0  0  0  0
   62.9374 -134.8759   35.9612 H   0  0  0  0  0
   62.5853 -135.5929   33.5874 H   0  0  0  0  0
   61.8631 -134.0081   33.2162 H   0  0  0  0  0
   63.5871 -134.1220   33.6473 H   0  0  0  0  0
   61.5885 -132.3032   35.0310 H   0  0  0  0  0
   62.0530 -132.6979   36.7042 H   0  0  0  0  0
   63.3080 -132.4749   35.4607 H   0  0  0  0  0
  9  1  1  0  0  0
  1 10  1  0  0  0
  1 35  2  0  0  0
  4  2  1  0  0  0
  4  3  1  0  0  0
  7  4  1  0  0  0
  6  5  2  0  0  0
  7  6  1  0  0  0
  6  8  1  0  0  0
  7  9  1  0  0  0
 10 11  1  0  0  0
 11 12  1  0  0  0
 11 32  1  0  0  0
 12 13  1  0  0  0
 12 31  2  0  0  0
 13 14  1  0  0  0
 14 15  1  0  0  0
 14 29  1  0  0  0
 15 16  1  0  0  0
 16 17  1  0  0  0
 17 18  1  0  0  0
 18 19  1  0  0  0
 19 20  1  0  0  0
 20 21  2  0  0  0
 20 22  1  0  0  0
 22 23  1  0  0  0
 23 24  1  0  0  0
 24 25  1  0  0  0
 24 28  1  0  0  0
 25 26  1  0  0  0
 25 27  1  0  0  0
 28 29  1  0  0  0
 29 30  2  0  0  0
 32 33  1  0  0  0
 32 34  1  0  0  0
  2 36  1  0  0  0
  2 37  1  0  0  0
  2 38  1  0  0  0
  3 39  1  0  0  0
  3 40  1  0  0  0
  3 41  1  0  0  0
  4 42  1  0  0  0
  7 43  1  0  0  0
  8 44  1  0  0  0
  9 45  1  0  0  0
 10 46  1  0  0  0
 11 47  1  0  0  0
 13 48  1  0  0  0
 14 49  1  0  0  0
 15 50  1  0  0  0
 15 51  1  0  0  0
 16 52  1  0  0  0
 16 53  1  0  0  0
 17 54  1  0  0  0
 17 55  1  0  0  0
 18 56  1  0  0  0
 18 57  1  0  0  0
 19 58  1  0  0  0
 22 59  1  0  0  0
 22 60  1  0  0  0
 23 61  1  0  0  0
 23 62  1  0  0  0
 24 63  1  0  0  0
 25 64  1  0  0  0
 26 65  1  0  0  0
 26 66  1  0  0  0
 26 67  1  0  0  0
 27 68  1  0  0  0
 27 69  1  0  0  0
 27 70  1  0  0  0
 28 71  1  0  0  0
 32 72  1  0  0  0
 33 73  1  0  0  0
 33 74  1  0  0  0
 33 75  1  0  0  0
 34 76  1  0  0  0
 34 77  1  0  0  0
 34 78  1  0  0  0
M  END
$$$$
