5j6s_ligand
  -I-interpret- 

 40 41  0  0  0  0  0  0  0  0999 V2000
   93.8560    4.0980   66.2730 O   0  0  0  0  0
   92.7990    3.6320   66.6860 C   0  0  0  0  0
   91.4710    4.2280   66.2540 C   0  0  0  0  0
   91.6180    4.9220   64.9330 C   0  0  0  0  0
   91.8250    4.2750   63.9290 O   0  0  0  0  0
   90.3580    3.1830   66.0930 C   0  0  0  0  0
   89.0110    3.6370   66.6390 C   0  0  0  0  0
   88.7300    4.9710   66.8790 C   0  0  0  0  0
   87.4830    5.3380   67.3880 C   0  0  0  0  0
   88.0130    2.6990   66.9020 C   0  0  0  0  0
   86.7610    3.0600   67.4120 C   0  0  0  0  0
   86.4900    4.3980   67.6580 C   0  0  0  0  0
   85.2920    4.7810   68.1540 F   0  0  0  0  0
   92.7970    2.6520   67.4900 N   0  0  0  0  0
   93.9720    1.9410   68.0020 C   0  0  0  0  0
   93.4890    0.8130   68.8780 C   0  0  0  0  0
   94.3490    0.2370   69.8020 C   0  0  0  0  0
   93.8770   -0.7940   70.6080 C   0  0  0  0  0
   92.5520   -1.2300   70.4960 C   0  0  0  0  0
   91.6900   -0.6410   69.5740 C   0  0  0  0  0
   92.1660    0.3800   68.7640 C   0  0  0  0  0
   91.5450    6.2430   64.8820 N   0  0  0  0  0
   91.7590    6.8770   63.6530 O   0  0  0  0  0
   91.1904    4.9195   67.0485 H   0  0  0  0  0
   90.6569    2.2983   66.6552 H   0  0  0  0  0
   90.2331    3.0007   65.0256 H   0  0  0  0  0
   89.4808    5.7333   66.6710 H   0  0  0  0  0
   87.2798    6.3915   67.5801 H   0  0  0  0  0
   88.2156    1.6466   66.7031 H   0  0  0  0  0
   86.0074    2.2987   67.6136 H   0  0  0  0  0
   91.8863    2.3254   67.8131 H   0  0  0  0  0
   94.6025    2.6201   68.5760 H   0  0  0  0  0
   94.5645    1.5487   67.1755 H   0  0  0  0  0
   95.3773    0.5865   69.8948 H   0  0  0  0  0
   94.5431   -1.2649   71.3309 H   0  0  0  0  0
   92.1919   -2.0364   71.1349 H   0  0  0  0  0
   90.6566   -0.9773   69.4900 H   0  0  0  0  0
   91.5039    0.8467   68.0347 H   0  0  0  0  0
   91.3374    6.7864   65.7198 H   0  0  0  0  0
   91.6757    7.8268   63.7654 H   0  0  0  0  0
  1  2  2  0  0  0
  2  3  1  0  0  0
  2 14  1  0  0  0
  3  4  1  0  0  0
  3  6  1  0  0  0
  4  5  2  0  0  0
  4 22  1  0  0  0
  6  7  1  0  0  0
  7  8  4  0  0  0
  7 10  4  0  0  0
  8  9  4  0  0  0
  9 12  4  0  0  0
 10 11  4  0  0  0
 11 12  4  0  0  0
 12 13  1  0  0  0
 14 15  1  0  0  0
 15 16  1  0  0  0
 16 17  4  0  0  0
 16 21  4  0  0  0
 17 18  4  0  0  0
 18 19  4  0  0  0
 19 20  4  0  0  0
 20 21  4  0  0  0
 22 23  1  0  0  0
  3 24  1  0  0  0
  6 25  1  0  0  0
  6 26  1  0  0  0
  8 27  1  0  0  0
  9 28  1  0  0  0
 10 29  1  0  0  0
 11 30  1  0  0  0
 14 31  1  0  0  0
 15 32  1  0  0  0
 15 33  1  0  0  0
 17 34  1  0  0  0
 18 35  1  0  0  0
 19 36  1  0  0  0
 20 37  1  0  0  0
 21 38  1  0  0  0
 22 39  1  0  0  0
 23 40  1  0  0  0
M  END
$$$$
