3n4c_ligand
  -I-interpret- 

 62 65  0  0  0  0  0  0  0  0999 V2000
   13.6730    3.4240   24.0180 C   0  0  0  0  0
   12.8210    4.3700   24.5960 C   0  0  0  0  0
   12.2610    3.7230   25.6710 N   0  0  0  0  0
   12.7650    2.4590   25.7160 C   0  0  0  0  0
   13.6140    2.2470   24.7390 N   0  0  0  0  0
   14.1510    8.8270   20.5330 C   0  0  0  0  0
   13.2910    9.8250   21.0080 C   0  0  0  0  0
   12.4790    9.5590   22.1130 C   0  0  0  0  0
   12.5200    8.3090   22.7440 C   0  0  0  0  0
   13.3690    7.2870   22.2930 C   0  0  0  0  0
   14.1790    7.5730   21.1800 C   0  0  0  0  0
   13.4240    5.9620   22.9480 C   0  0  0  0  0
   12.6710    5.6600   24.0830 C   0  0  0  0  0
   14.3940    3.8080   22.8810 C   0  0  0  0  0
   14.2600    5.0670   22.3630 N   0  0  0  0  0
   11.3060    4.2760   26.5980 C   0  0  0  0  0
   13.3180   11.0120   20.3310 O   0  0  0  0  0
   12.7680   12.1630   20.9720 C   0  0  0  0  0
   12.3560   13.1570   19.8880 C   0  0  0  0  0
   13.5840   13.7180   19.1660 C   0  0  0  0  0
   14.3620   14.6580   19.9870 N   0  3  0  0  0
   15.0400    9.0830   19.3410 C   0  0  0  0  0
   15.9630   10.0620   19.5580 F   0  0  0  0  0
   14.3500    9.4480   18.2240 F   0  0  0  0  0
   15.7650    7.9870   18.9690 F   0  0  0  0  0
   15.3300    2.9480   22.1480 C   0  0  0  0  0
   15.4680    1.6710   22.3090 N   0  0  0  0  0
   16.5060   15.9570   20.2430 C   0  0  0  0  0
   15.7870   17.2420   20.3250 N   0  3  0  0  0
   14.4460   17.0070   20.8910 C   0  0  0  0  0
   13.6550   15.9540   20.0830 C   0  0  0  0  0
   15.7180   14.8940   19.4420 C   0  0  0  0  0
   16.5310   18.2000   21.1380 C   0  0  0  0  0
   12.4969    1.7174   26.4685 H   0  0  0  0  0
   11.8072   10.3312   22.4878 H   0  0  0  0  0
   11.8775    8.1261   23.6053 H   0  0  0  0  0
   14.8506    6.8010   20.8045 H   0  0  0  0  0
   12.0039    6.3891   24.5429 H   0  0  0  0  0
   11.7422    5.1439   27.0926 H   0  0  0  0  0
   10.4090    4.5773   26.0570 H   0  0  0  0  0
   11.0471    3.5236   27.3430 H   0  0  0  0  0
   13.5071   12.6138   21.6343 H   0  0  0  0  0
   11.9030   11.8816   21.5727 H   0  0  0  0  0
   11.8169   13.9813   20.3549 H   0  0  0  0  0
   11.7268   12.6427   19.1616 H   0  0  0  0  0
   13.2314   14.2604   18.2888 H   0  0  0  0  0
   14.2343   12.8783   18.9207 H   0  0  0  0  0
   14.4593   14.2337   20.9094 H   0  0  0  0  0
   15.9649    3.4265   21.4024 H   0  0  0  0  0
   14.8959    1.1787   22.9951 H   0  0  0  0  0
   16.6453   15.5820   21.2569 H   0  0  0  0  0
   17.4534   16.1314   19.7329 H   0  0  0  0  0
   15.6945   17.6380   19.3896 H   0  0  0  0  0
   13.8934   17.9461   20.8611 H   0  0  0  0  0
   14.5652   16.6370   21.9093 H   0  0  0  0  0
   12.7083   15.7815   20.5950 H   0  0  0  0  0
   13.5227   16.3386   19.0717 H   0  0  0  0  0
   15.6096   15.2572   18.4200 H   0  0  0  0  0
   16.2695   13.9555   19.4982 H   0  0  0  0  0
   16.6555   17.8009   22.1446 H   0  0  0  0  0
   17.5098   18.3717   20.6902 H   0  0  0  0  0
   15.9811   19.1400   21.1839 H   0  0  0  0  0
  2  1  4  0  0  0
  1  5  4  0  0  0
 14  1  4  0  0  0
  2  3  4  0  0  0
 13  2  4  0  0  0
  3  4  4  0  0  0
  3 16  1  0  0  0
  5  4  4  0  0  0
  7  6  4  0  0  0
  6 11  4  0  0  0
  6 22  1  0  0  0
  7  8  4  0  0  0
 17  7  1  0  0  0
  8  9  4  0  0  0
  9 10  4  0  0  0
 11 10  4  0  0  0
 10 12  1  0  0  0
 12 13  4  0  0  0
 12 15  4  0  0  0
 15 14  4  0  0  0
 14 26  1  0  0  0
 18 17  1  0  0  0
 19 18  1  0  0  0
 20 19  1  0  0  0
 21 20  1  0  0  0
 21 31  1  0  0  0
 32 21  1  0  0  0
 22 23  1  0  0  0
 22 24  1  0  0  0
 22 25  1  0  0  0
 26 27  2  0  0  0
 28 29  1  0  0  0
 28 32  1  0  0  0
 29 30  1  0  0  0
 29 33  1  0  0  0
 30 31  1  0  0  0
  4 34  1  0  0  0
  8 35  1  0  0  0
  9 36  1  0  0  0
 11 37  1  0  0  0
 13 38  1  0  0  0
 16 39  1  0  0  0
 16 40  1  0  0  0
 16 41  1  0  0  0
 18 42  1  0  0  0
 18 43  1  0  0  0
 19 44  1  0  0  0
 19 45  1  0  0  0
 20 46  1  0  0  0
 20 47  1  0  0  0
 21 48  1  0  0  0
 26 49  1  0  0  0
 27 50  1  0  0  0
 28 51  1  0  0  0
 28 52  1  0  0  0
 29 53  1  0  0  0
 30 54  1  0  0  0
 30 55  1  0  0  0
 31 56  1  0  0  0
 31 57  1  0  0  0
 32 58  1  0  0  0
 32 59  1  0  0  0
 33 60  1  0  0  0
 33 61  1  0  0  0
 33 62  1  0  0  0
M  END
$$$$
