### 
### Created by X-TOOL on Mon Sep 10 21:13:08 2018
### 

@<TRIPOS>MOLECULE
3n4c_ligand
   60    63     1     0     0
SMALL
GAST_HUCK


@<TRIPOS>ATOM
      1 C1         13.6730    3.4240   24.0180 C.ar      1 EF3         0.0782
      2 C2         12.8210    4.3700   24.5960 C.ar      1 EF3         0.1112
      3 N3         12.2610    3.7230   25.6710 N.pl3     1 EF3        -0.2289
      4 C4         12.7650    2.4590   25.7160 C.2       1 EF3         0.1139
      5 N5         13.6140    2.2470   24.7390 N.2       1 EF3        -0.2903
      6 C6         14.1510    8.8270   20.5330 C.ar      1 EF3         0.0784
      7 C7         13.2910    9.8250   21.0080 C.ar      1 EF3         0.1340
      8 C8         12.4790    9.5590   22.1130 C.ar      1 EF3         0.0031
      9 C9         12.5200    8.3090   22.7440 C.ar      1 EF3        -0.0314
     10 C10        13.3690    7.2870   22.2930 C.ar      1 EF3         0.0136
     11 C11        14.1790    7.5730   21.1800 C.ar      1 EF3        -0.0296
     12 C12        13.4240    5.9620   22.9480 C.ar      1 EF3         0.0469
     13 C13        12.6710    5.6600   24.0830 C.ar      1 EF3        -0.0002
     14 C14        14.3940    3.8080   22.8810 C.ar      1 EF3         0.0798
     15 N15        14.2600    5.0670   22.3630 N.ar      1 EF3        -0.2925
     16 C16        11.3060    4.2760   26.5980 C.3       1 EF3         0.0492
     17 O17        13.3180   11.0120   20.3310 O.3       1 EF3        -0.2902
     18 C18        12.7680   12.1630   20.9720 C.3       1 EF3         0.0792
     19 C19        12.3560   13.1570   19.8880 C.3       1 EF3        -0.0418
     20 C20        13.5840   13.7180   19.1660 C.3       1 EF3        -0.1106
     21 N21        14.3620   14.6580   19.9870 N.4       1 EF3         0.4002
     22 C22        15.0400    9.0830   19.3410 C.3       1 EF3         0.3681
     23 F23        15.9630   10.0620   19.5580 F         1 EF3        -0.2312
     24 F24        14.3500    9.4480   18.2240 F         1 EF3        -0.2312
     25 F25        15.7650    7.9870   18.9690 F         1 EF3        -0.2312
     26 C26        15.3300    2.9480   22.1480 C.2       1 EF3         0.0292
     27 N27        15.4680    1.6710   22.3090 N.2       1 EF3        -0.3453
     28 C28        16.5060   15.9570   20.2430 C.3       1 EF3        -0.1326
     29 N29        15.7870   17.2420   20.3250 N.4       1 EF3         0.3980
     30 C30        14.4460   17.0070   20.8910 C.3       1 EF3        -0.1326
     31 C31        13.6550   15.9540   20.0830 C.3       1 EF3        -0.1322
     32 C32        15.7180   14.8940   19.4420 C.3       1 EF3        -0.1322
     33 C33        16.5310   18.2000   21.1380 C.3       1 EF3        -0.1258
     34 H          12.4969    1.7174   26.4685 H         1 EF3         0.1401
     35 H          11.8072   10.3312   22.4878 H         1 EF3         0.0635
     36 H          11.8775    8.1261   23.6053 H         1 EF3         0.0842
     37 H          14.8506    6.8010   20.8045 H         1 EF3         0.0814
     38 H          12.0039    6.3891   24.5429 H         1 EF3         0.0697
     39 H          10.3904    3.6852   26.5701 H         1 EF3         0.0576
     40 H          11.7237    4.2537   27.6045 H         1 EF3         0.0576
     41 H          11.0842    5.3058   26.3180 H         1 EF3         0.0576
     42 H          13.5071   12.6138   21.6343 H         1 EF3         0.0636
     43 H          11.9030   11.8816   21.5727 H         1 EF3         0.0636
     44 H          11.8169   13.9813   20.3549 H         1 EF3         0.0273
     45 H          11.7268   12.6427   19.1616 H         1 EF3         0.0273
     46 H          13.2314   14.2604   18.2888 H         1 EF3         0.0018
     47 H          14.2343   12.8783   18.9207 H         1 EF3         0.0018
     48 H          15.9649    3.4265   21.4024 H         1 EF3         0.1108
     49 H          14.8959    1.1787   22.9951 H         1 EF3         0.1273
     50 H          16.6453   15.5820   21.2569 H         1 EF3        -0.0003
     51 H          17.4534   16.1314   19.7329 H         1 EF3        -0.0003
     52 H          13.8934   17.9461   20.8611 H         1 EF3        -0.0003
     53 H          14.5652   16.6370   21.9093 H         1 EF3        -0.0003
     54 H          12.7083   15.7815   20.5950 H         1 EF3        -0.0003
     55 H          13.5227   16.3386   19.0717 H         1 EF3        -0.0003
     56 H          15.6096   15.2572   18.4200 H         1 EF3        -0.0003
     57 H          16.2695   13.9555   19.4982 H         1 EF3        -0.0003
     58 H          16.6555   17.8009   22.1446 H         1 EF3        -0.0019
     59 H          17.5098   18.3717   20.6902 H         1 EF3        -0.0019
     60 H          15.9811   19.1400   21.1839 H         1 EF3        -0.0019
@<TRIPOS>BOND
     1    2    1 ar 
     2    1    5 1  
     3   14    1 ar 
     4    2    3 1  
     5   13    2 ar 
     6    3    4 1  
     7    3   16 1  
     8    5    4 2  
     9    7    6 ar 
    10    6   11 ar 
    11    6   22 1  
    12    7    8 ar 
    13   17    7 1  
    14    8    9 ar 
    15    9   10 ar 
    16   11   10 ar 
    17   10   12 1  
    18   12   13 ar 
    19   12   15 ar 
    20   15   14 ar 
    21   14   26 1  
    22   18   17 1  
    23   19   18 1  
    24   20   19 1  
    25   21   20 1  
    26   21   31 1  
    27   32   21 1  
    28   22   23 1  
    29   22   24 1  
    30   22   25 1  
    31   26   27 2  
    32   28   29 1  
    33   28   32 1  
    34   29   30 1  
    35   29   33 1  
    36   30   31 1  
    37    4   34 1  
    38    8   35 1  
    39    9   36 1  
    40   11   37 1  
    41   13   38 1  
    42   16   39 1  
    43   16   40 1  
    44   16   41 1  
    45   18   42 1  
    46   18   43 1  
    47   19   44 1  
    48   19   45 1  
    49   20   46 1  
    50   20   47 1  
    51   26   48 1  
    52   27   49 1  
    53   28   50 1  
    54   28   51 1  
    55   30   52 1  
    56   30   53 1  
    57   31   54 1  
    58   31   55 1  
    59   32   56 1  
    60   32   57 1  
    61   33   58 1  
    62   33   59 1  
    63   33   60 1  
@<TRIPOS>SUBSTRUCTURE
     1 EF3         1

