2ww0_ligand
  -I-interpret- 

 28 29  0  0  0  0  0  0  0  0999 V2000
   45.4520   21.7970  101.7070 C   0  0  0  0  0
   46.2560   21.0420  102.5920 O   0  0  0  0  0
   46.3180   22.8660  101.0210 C   0  0  0  0  0
   45.6960   23.4080   99.7660 N   0  3  0  0  0
   44.8190   22.5630   98.9280 C   0  0  0  0  0
   43.9610   21.6330   99.7790 C   0  0  0  0  0
   44.8410   20.8380  100.7140 C   0  0  0  0  0
   45.1090   24.6990  100.1320 C   0  0  0  0  0
   46.2820   25.2570  100.9330 C   0  0  0  0  0
   45.8820   26.4490  101.6080 O   0  0  0  0  0
   46.4970   24.1120  101.9220 C   0  0  0  0  0
   45.4540   24.1320  102.9010 O   0  0  0  0  0
   44.6521   22.3182  102.2330 H   0  0  0  0  0
   46.6584   21.6287  103.2365 H   0  0  0  0  0
   47.2569   22.3536  100.8111 H   0  0  0  0  0
   46.4546   23.4748   99.0875 H   0  0  0  0  0
   45.4458   21.9546   98.2760 H   0  0  0  0  0
   44.1589   23.2131   98.3538 H   0  0  0  0  0
   43.4162   20.9491   99.1282 H   0  0  0  0  0
   43.2573   22.2259  100.3633 H   0  0  0  0  0
   44.2524   20.0819  101.2336 H   0  0  0  0  0
   45.6236   20.3279  100.1523 H   0  0  0  0  0
   44.1621   24.6446  100.6692 H   0  0  0  0  0
   44.7812   25.3156   99.2951 H   0  0  0  0  0
   47.1648   25.5288  100.3544 H   0  0  0  0  0
   46.6234   26.7953  102.1099 H   0  0  0  0  0
   47.4502   24.1523  102.4491 H   0  0  0  0  0
   45.5871   23.4134  103.5235 H   0  0  0  0  0
  1  2  1  0  0  0
  1  3  1  0  0  0
  1  7  1  0  0  0
  3  4  1  0  0  0
  3 11  1  0  0  0
  4  5  1  0  0  0
  4  8  1  0  0  0
  5  6  1  0  0  0
  6  7  1  0  0  0
  8  9  1  0  0  0
  9 10  1  0  0  0
  9 11  1  0  0  0
 11 12  1  0  0  0
  1 13  1  0  0  0
  2 14  1  0  0  0
  3 15  1  0  0  0
  4 16  1  0  0  0
  5 17  1  0  0  0
  5 18  1  0  0  0
  6 19  1  0  0  0
  6 20  1  0  0  0
  7 21  1  0  0  0
  7 22  1  0  0  0
  8 23  1  0  0  0
  8 24  1  0  0  0
  9 25  1  0  0  0
 10 26  1  0  0  0
 11 27  1  0  0  0
 12 28  1  0  0  0
M  END
$$$$
