4m1j_ligand
  -I-interpret- 

 45 44  0  0  0  0  0  0  0  0999 V2000
   24.5940   38.3170   11.2330 C   0  0  0  0  0
   24.0640   37.0960   10.5330 C   0  0  0  0  0
   24.7120   35.8390   11.0180 C   0  0  0  0  0
   24.3270   34.6200   10.2180 C   0  0  0  0  0
   25.1900   33.4150   10.5240 C   0  0  0  0  0
   24.6050   32.1420    9.9710 C   0  0  0  0  0
   25.4680   30.8940   10.0040 C   0  0  0  0  0
   26.0310   30.6110    8.6140 C   0  0  0  0  0
   25.5750   29.3390    7.9710 C   0  0  0  0  0
   25.6970   29.3980    6.4880 C   0  0  0  0  0
   25.9450   28.0290    6.0020 C   0  0  0  0  0
   24.8210   27.5600    5.1390 C   0  0  0  0  0
   25.3200   27.4180    3.7350 C   0  0  0  0  0
   24.6010   26.2340    3.0010 B   0  0  0  0  0
   23.1470   26.1140    3.1200 O   0  0  0  0  0
   24.9850   26.0920    1.5770 O   0  0  0  0  0
   24.4066   38.2307   12.3033 H   0  0  0  0  0
   25.6664   38.3989   11.0560 H   0  0  0  0  0
   24.0918   39.2033   10.8452 H   0  0  0  0  0
   24.2760   37.1972    9.4686 H   0  0  0  0  0
   22.9954   37.0263   10.7364 H   0  0  0  0  0
   24.3845   35.6753   12.0447 H   0  0  0  0  0
   25.7903   35.9673   10.9232 H   0  0  0  0  0
   24.4556   34.8611    9.1628 H   0  0  0  0  0
   23.2986   34.3657   10.4746 H   0  0  0  0  0
   25.2600   33.3139   11.6070 H   0  0  0  0  0
   26.1649   33.5695   10.0615 H   0  0  0  0  0
   24.4213   32.3409    8.9152 H   0  0  0  0  0
   23.7455   31.9182   10.6029 H   0  0  0  0  0
   24.8612   30.0470   10.3241 H   0  0  0  0  0
   26.2925   31.0468   10.7003 H   0  0  0  0  0
   27.1112   30.5255    8.7318 H   0  0  0  0  0
   25.6850   31.4209    7.9718 H   0  0  0  0  0
   24.5263   29.1828    8.2237 H   0  0  0  0  0
   26.2023   28.5255    8.3354 H   0  0  0  0  0
   26.5175   30.0559    6.2015 H   0  0  0  0  0
   24.7823   29.7959    6.0484 H   0  0  0  0  0
   26.0309   27.3621    6.8599 H   0  0  0  0  0
   26.8633   28.0259    5.4149 H   0  0  0  0  0
   24.0045   28.2815    5.1703 H   0  0  0  0  0
   24.4533   26.5995    5.4999 H   0  0  0  0  0
   26.3904   27.2140    3.7630 H   0  0  0  0  0
   25.1129   28.3419    3.1949 H   0  0  0  0  0
   22.8484   25.3491    2.6226 H   0  0  0  0  0
   24.5103   25.3523    1.1910 H   0  0  0  0  0
  1  2  1  0  0  0
  2  3  1  0  0  0
  3  4  1  0  0  0
  4  5  1  0  0  0
  5  6  1  0  0  0
  6  7  1  0  0  0
  7  8  1  0  0  0
  8  9  1  0  0  0
  9 10  1  0  0  0
 10 11  1  0  0  0
 11 12  1  0  0  0
 12 13  1  0  0  0
 13 14  1  0  0  0
 14 15  1  0  0  0
 14 16  1  0  0  0
  1 17  1  0  0  0
  1 18  1  0  0  0
  1 19  1  0  0  0
  2 20  1  0  0  0
  2 21  1  0  0  0
  3 22  1  0  0  0
  3 23  1  0  0  0
  4 24  1  0  0  0
  4 25  1  0  0  0
  5 26  1  0  0  0
  5 27  1  0  0  0
  6 28  1  0  0  0
  6 29  1  0  0  0
  7 30  1  0  0  0
  7 31  1  0  0  0
  8 32  1  0  0  0
  8 33  1  0  0  0
  9 34  1  0  0  0
  9 35  1  0  0  0
 10 36  1  0  0  0
 10 37  1  0  0  0
 11 38  1  0  0  0
 11 39  1  0  0  0
 12 40  1  0  0  0
 12 41  1  0  0  0
 13 42  1  0  0  0
 13 43  1  0  0  0
 15 44  1  0  0  0
 16 45  1  0  0  0
M  END
$$$$
