### 
### Created by X-TOOL on Mon Sep 10 21:13:12 2018
### 

@<TRIPOS>MOLECULE
4m1j_ligand
   45    44     1     0     0
SMALL
GAST_HUCK


@<TRIPOS>ATOM
      1 C1         24.5940   38.3170   11.2330 C.3       1 B0S        -0.0653
      2 C2         24.0640   37.0960   10.5330 C.3       1 B0S        -0.0559
      3 C3         24.7120   35.8390   11.0180 C.3       1 B0S        -0.0533
      4 C4         24.3270   34.6200   10.2180 C.3       1 B0S        -0.0531
      5 C5         25.1900   33.4150   10.5240 C.3       1 B0S        -0.0531
      6 C6         24.6050   32.1420    9.9710 C.3       1 B0S        -0.0531
      7 C7         25.4680   30.8940   10.0040 C.3       1 B0S        -0.0531
      8 C8         26.0310   30.6110    8.6140 C.3       1 B0S        -0.0531
      9 C9         25.5750   29.3390    7.9710 C.3       1 B0S        -0.0531
     10 C10        25.6970   29.3980    6.4880 C.3       1 B0S        -0.0554
     11 C11        25.9450   28.0290    6.0020 C.3       1 B0S        -0.0803
     12 C12        24.8210   27.5600    5.1390 C.3       1 B0S        -0.1827
     13 C13        25.3200   27.4180    3.7350 C.3       1 B0S        -0.3457
     14 B1         24.6010   26.2340    3.0010 B         1 B0S         3.0000
     15 O2         23.1470   26.1140    3.1200 O.3       1 B0S        -0.8710
     16 O3         24.9850   26.0920    1.5770 O.3       1 B0S        -0.8710
     17 H1         24.0879   39.2122   10.8425 H         1 B0S         0.0230
     18 H2         25.6763   38.4008   11.0552 H         1 B0S         0.0230
     19 H3         24.4055   38.2312   12.3133 H         1 B0S         0.0230
     20 H4         24.2516   37.1973    9.4539 H         1 B0S         0.0263
     21 H5         22.9808   37.0276   10.7120 H         1 B0S         0.0263
     22 H6         24.4172   35.6762   12.0652 H         1 B0S         0.0265
     23 H7         25.8033   35.9641   10.9595 H         1 B0S         0.0265
     24 H8         24.4237   34.8578    9.1484 H         1 B0S         0.0265
     25 H9         23.2805   34.3682   10.4446 H         1 B0S         0.0265
     26 H10        25.2863   33.3159   11.6153 H         1 B0S         0.0265
     27 H11        26.1847   33.5697   10.0807 H         1 B0S         0.0265
     28 H12        24.3420   32.3313    8.9198 H         1 B0S         0.0265
     29 H13        23.6916   31.9245   10.5441 H         1 B0S         0.0265
     30 H14        24.8588   30.0385   10.3312 H         1 B0S         0.0265
     31 H15        26.2984   31.0440   10.7096 H         1 B0S         0.0265
     32 H16        27.1273   30.5732    8.6956 H         1 B0S         0.0265
     33 H17        25.7407   31.4439    7.9567 H         1 B0S         0.0265
     34 H18        24.5218   29.1633    8.2355 H         1 B0S         0.0265
     35 H19        26.1909   28.5087    8.3467 H         1 B0S         0.0265
     36 H20        26.5354   30.0524    6.2072 H         1 B0S         0.0265
     37 H21        24.7656   29.7873    6.0510 H         1 B0S         0.0265
     38 H22        26.0439   27.3529    6.8640 H         1 B0S         0.0241
     39 H23        26.8770   28.0172    5.4179 H         1 B0S         0.0241
     40 H24        24.0014   28.2931    5.1680 H         1 B0S        -0.0084
     41 H25        24.4564   26.5878    5.5022 H         1 B0S        -0.0084
     42 H27        26.3857   27.6877    3.6956 H         1 B0S        -0.2101
     43 H28        24.7482   28.0853    3.0734 H         1 B0S        -0.2101
     44 H30        22.7309   26.7968    2.6068 H         1 B0S        -0.1290
     45 H31        25.9283   26.1693    1.4953 H         1 B0S        -0.1290
@<TRIPOS>BOND
     1    1    2 1  
     2    2    3 1  
     3    3    4 1  
     4    4    5 1  
     5    5    6 1  
     6    6    7 1  
     7    7    8 1  
     8    8    9 1  
     9    9   10 1  
    10   10   11 1  
    11   11   12 1  
    12   12   13 1  
    13   13   14 1  
    14   14   15 1  
    15   14   16 1  
    16    1   17 1  
    17    1   18 1  
    18    1   19 1  
    19    2   20 1  
    20    2   21 1  
    21    3   22 1  
    22    3   23 1  
    23    4   24 1  
    24    4   25 1  
    25    5   26 1  
    26    5   27 1  
    27    6   28 1  
    28    6   29 1  
    29    7   30 1  
    30    7   31 1  
    31    8   32 1  
    32    8   33 1  
    33    9   34 1  
    34    9   35 1  
    35   10   36 1  
    36   10   37 1  
    37   11   38 1  
    38   11   39 1  
    39   12   40 1  
    40   12   41 1  
    41   13   42 1  
    42   13   43 1  
    43   15   44 1  
    44   16   45 1  
@<TRIPOS>SUBSTRUCTURE
     1 B0S         1

