1b51_ligand
  -I-interpret- 

 59 58  0  0  0  0  0  0  0  0999 V2000
    6.8910   16.4790   15.0950 N   0  3  0  0  0
    6.3900   17.7900   14.5770 C   0  0  0  0  0
    5.1740   18.2680   15.3430 C   0  0  0  0  0
    4.4150   17.4750   15.8880 O   0  0  0  0  0
    6.1120   17.7260   13.0640 C   0  0  0  0  0
    5.2320   16.5440   12.6860 C   0  0  0  0  0
    5.1210   16.4580   11.1480 C   0  0  0  0  0
    6.3950   15.8780   10.5460 C   0  0  0  0  0
    6.5490   14.4230   10.8820 N   0  3  0  0  0
    5.0030   19.5780   15.4000 N   0  0  0  0  0
    3.9490   20.2090   16.1900 C   0  0  0  0  0
    2.6020   20.2310   15.5050 C   0  0  0  0  0
    2.5430   20.5580   14.3230 O   0  0  0  0  0
    4.4210   21.6540   16.4120 C   0  0  0  0  0
    3.8300   22.1840   17.5950 O   0  0  0  0  0
    1.4950   19.9330   16.2360 N   0  0  0  0  0
    0.2360   19.8690   15.5110 C   0  0  0  0  0
   -0.8680   20.6600   16.2440 C   0  0  0  0  0
   -0.7500   20.9240   17.4390 O   0  0  0  0  0
   -0.3000   18.4420   15.3170 C   0  0  0  0  0
   -1.3690   18.4670   14.1820 C   0  0  0  0  0
   -1.9810   17.1150   13.9430 C   0  0  0  0  0
   -2.9390   17.0470   12.7500 C   0  0  0  0  0
   -3.7030   18.3150   12.6290 N   0  3  0  0  0
   -1.8020   21.0200   15.5080 O   0  0  0  0  0
    7.7076   16.1913   14.5557 H   0  0  0  0  0
    7.1485   16.5787   16.0769 H   0  0  0  0  0
    6.1573   15.7762   15.0043 H   0  0  0  0  0
    7.1801   18.5238   14.7362 H   0  0  0  0  0
    7.0666   17.6139   12.5500 H   0  0  0  0  0
    5.5911   18.6397   12.7777 H   0  0  0  0  0
    4.2392   16.6774   13.1156 H   0  0  0  0  0
    5.6727   15.6244   13.0710 H   0  0  0  0  0
    4.9687   17.4611   10.7497 H   0  0  0  0  0
    4.2836   15.8091   10.8915 H   0  0  0  0  0
    7.2480   16.4192   10.9555 H   0  0  0  0  0
    6.3415   15.9784    9.4619 H   0  0  0  0  0
    7.4094   14.0681   10.4646 H   0  0  0  0  0
    6.5901   14.3117   11.8951 H   0  0  0  0  0
    5.7518   13.9040   10.5138 H   0  0  0  0  0
    5.6361   20.1751   14.8680 H   0  0  0  0  0
    3.8001   19.6429   17.1095 H   0  0  0  0  0
    4.1232   22.2633   15.5587 H   0  0  0  0  0
    5.5058   21.6644   16.5177 H   0  0  0  0  0
    4.1307   23.0864   17.7250 H   0  0  0  0  0
    1.5450   19.7632   17.2405 H   0  0  0  0  0
    0.4645   20.2976   14.5352 H   0  0  0  0  0
   -0.7483   18.0831   16.2434 H   0  0  0  0  0
    0.5154   17.7712   15.0463 H   0  0  0  0  0
   -0.8772   18.7825   13.2618 H   0  0  0  0  0
   -2.1642   19.1494   14.4821 H   0  0  0  0  0
   -2.5629   16.8690   14.8312 H   0  0  0  0  0
   -1.1610   16.4290   13.7305 H   0  0  0  0  0
   -3.6374   16.2239   12.9011 H   0  0  0  0  0
   -2.3617   16.8912   11.8386 H   0  0  0  0  0
   -4.3357   18.2545   11.8313 H   0  0  0  0  0
   -4.2421   18.4684   13.4812 H   0  0  0  0  0
   -3.0540   19.0898   12.4917 H   0  0  0  0  0
   -1.6570   20.6829   14.6209 H   0  0  0  0  0
  2  1  1  0  0  0
  2  5  1  0  0  0
  3  2  1  0  0  0
  3  4  2  0  0  0
  5  6  1  0  0  0
  6  7  1  0  0  0
  7  8  1  0  0  0
  8  9  1  0  0  0
 11 10  1  0  0  0
 11 14  1  0  0  0
 12 11  1  0  0  0
 12 13  2  0  0  0
 14 15  1  0  0  0
 10  3  1  0  0  0
 16 17  1  0  0  0
 17 20  1  0  0  0
 17 18  1  0  0  0
 18 19  2  0  0  0
 18 25  1  0  0  0
 20 21  1  0  0  0
 21 22  1  0  0  0
 22 23  1  0  0  0
 23 24  1  0  0  0
 12 16  1  0  0  0
  1 26  1  0  0  0
  1 27  1  0  0  0
  1 28  1  0  0  0
  2 29  1  0  0  0
  5 30  1  0  0  0
  5 31  1  0  0  0
  6 32  1  0  0  0
  6 33  1  0  0  0
  7 34  1  0  0  0
  7 35  1  0  0  0
  8 36  1  0  0  0
  8 37  1  0  0  0
  9 38  1  0  0  0
  9 39  1  0  0  0
  9 40  1  0  0  0
 10 41  1  0  0  0
 11 42  1  0  0  0
 14 43  1  0  0  0
 14 44  1  0  0  0
 15 45  1  0  0  0
 16 46  1  0  0  0
 17 47  1  0  0  0
 20 48  1  0  0  0
 20 49  1  0  0  0
 21 50  1  0  0  0
 21 51  1  0  0  0
 22 52  1  0  0  0
 22 53  1  0  0  0
 23 54  1  0  0  0
 23 55  1  0  0  0
 24 56  1  0  0  0
 24 57  1  0  0  0
 24 58  1  0  0  0
 25 59  1  0  0  0
M  END
$$$$
