### 
### Created by X-TOOL on Mon Sep 10 21:13:33 2018
### 

@<TRIPOS>MOLECULE
5tv1_ligand
   42    42     1     0     0
SMALL
GAST_HUCK


@<TRIPOS>ATOM
      1 C1         49.0630   72.2690   68.8010 C.3       1 IHP         0.1556
      2 C2         48.8700   73.1470   67.5730 C.3       1 IHP         0.1556
      3 C3         47.7970   74.1970   67.8580 C.3       1 IHP         0.1556
      4 C4         48.1240   74.9900   69.1270 C.3       1 IHP         0.1556
      5 C5         48.2190   73.9830   70.2740 C.3       1 IHP         0.1556
      6 C6         49.4760   73.1910   69.9400 C.3       1 IHP         0.1556
      7 O11        50.0120   71.2310   68.5710 O.3       1 IHP        -0.2668
      8 P1         49.5940   69.7230   68.9510 P.3       1 IHP         0.2013
      9 O21        50.3250   69.4390   70.2430 O.co2     1 IHP        -0.5537
     10 O31        48.0950   69.8320   69.0980 O.co2     1 IHP        -0.5537
     11 O41        50.0580   68.9210   67.7570 O.co2     1 IHP        -0.5537
     12 O12        50.0950   73.8150   67.2780 O.3       1 IHP        -0.2668
     13 P2         50.9740   73.3330   66.0240 P.3       1 IHP         0.2013
     14 O22        50.6130   74.2950   64.9210 O.co2     1 IHP        -0.5537
     15 O32        52.3980   73.4740   66.5110 O.co2     1 IHP        -0.5537
     16 O42        50.4820   71.9170   65.8080 O.co2     1 IHP        -0.5537
     17 O13        47.6760   75.0670   66.7400 O.3       1 IHP        -0.2668
     18 P3         46.2190   75.3860   66.1410 P.3       1 IHP         0.2013
     19 O23        45.2810   75.1110   67.2950 O.co2     1 IHP        -0.5537
     20 O33        46.3270   76.8360   65.7220 O.co2     1 IHP        -0.5537
     21 O43        46.0910   74.3990   65.0060 O.co2     1 IHP        -0.5537
     22 O14        47.1820   76.0390   69.3640 O.3       1 IHP        -0.2668
     23 P4         47.6490   77.5870   69.3540 P.3       1 IHP         0.2013
     24 O24        48.8310   77.6360   70.3010 O.co2     1 IHP        -0.5537
     25 O34        46.4210   78.3220   69.8440 O.co2     1 IHP        -0.5537
     26 O44        47.9990   77.8650   67.9100 O.co2     1 IHP        -0.5537
     27 O15        48.2090   74.5400   71.5960 O.3       1 IHP        -0.2668
     28 P5         47.1380   73.9930   72.6870 P.3       1 IHP         0.2013
     29 O25        46.0920   75.0810   72.7760 O.co2     1 IHP        -0.5537
     30 O35        47.9420   73.8220   73.9550 O.co2     1 IHP        -0.5537
     31 O45        46.6280   72.6970   72.1000 O.co2     1 IHP        -0.5537
     32 O16        50.0370   72.5100   71.0580 O.3       1 IHP        -0.2668
     33 P6         51.3190   73.1910   71.7650 P.3       1 IHP         0.2013
     34 O26        52.5180   72.5600   71.0970 O.co2     1 IHP        -0.5537
     35 O36        51.1870   74.6690   71.4570 O.co2     1 IHP        -0.5537
     36 O46        51.1200   72.8070   73.2150 O.co2     1 IHP        -0.5537
     37 H1         48.1029   71.7968   69.0565 H         1 IHP         0.0710
     38 H2         48.5665   72.5264   66.7170 H         1 IHP         0.0710
     39 H3         46.8362   73.6833   68.0093 H         1 IHP         0.0710
     40 H4         49.1102   75.4604   69.0002 H         1 IHP         0.0710
     41 H5         47.3516   73.3090   70.2167 H         1 IHP         0.0710
     42 H6         50.2436   73.8865   69.5698 H         1 IHP         0.0710
@<TRIPOS>BOND
     1    1    2 1  
     2    1    6 1  
     3    1    7 1  
     4    2    3 1  
     5    2   12 1  
     6    3    4 1  
     7    3   17 1  
     8    4    5 1  
     9    4   22 1  
    10    5    6 1  
    11    5   27 1  
    12    6   32 1  
    13    7    8 1  
    14    8    9 ar 
    15    8   10 ar 
    16    8   11 ar 
    17   12   13 1  
    18   13   14 ar 
    19   13   15 ar 
    20   13   16 ar 
    21   17   18 1  
    22   18   19 ar 
    23   18   20 ar 
    24   18   21 ar 
    25   22   23 1  
    26   23   24 ar 
    27   23   25 ar 
    28   23   26 ar 
    29   27   28 1  
    30   28   29 ar 
    31   28   30 ar 
    32   28   31 ar 
    33   32   33 1  
    34   33   34 ar 
    35   33   35 ar 
    36   33   36 ar 
    37    1   37 1  
    38    2   38 1  
    39    3   39 1  
    40    4   40 1  
    41    5   41 1  
    42    6   42 1  
@<TRIPOS>SUBSTRUCTURE
     1 IHP         1

