5tv1_ligand
  -I-interpret- 

 54 54  0  0  0  0  0  0  0  0999 V2000
   49.0630   72.2690   68.8010 C   0  0  0  0  0
   48.8700   73.1470   67.5730 C   0  0  0  0  0
   47.7970   74.1970   67.8580 C   0  0  0  0  0
   48.1240   74.9900   69.1270 C   0  0  0  0  0
   48.2190   73.9830   70.2740 C   0  0  0  0  0
   49.4760   73.1910   69.9400 C   0  0  0  0  0
   50.0120   71.2310   68.5710 O   0  0  0  0  0
   49.5940   69.7230   68.9510 P   0  0  0  0  0
   50.3250   69.4390   70.2430 O   0  0  0  0  0
   48.0950   69.8320   69.0980 O   0  0  0  0  0
   50.0580   68.9210   67.7570 O   0  0  0  0  0
   50.0950   73.8150   67.2780 O   0  0  0  0  0
   50.9740   73.3330   66.0240 P   0  0  0  0  0
   50.6130   74.2950   64.9210 O   0  0  0  0  0
   52.3980   73.4740   66.5110 O   0  0  0  0  0
   50.4820   71.9170   65.8080 O   0  0  0  0  0
   47.6760   75.0670   66.7400 O   0  0  0  0  0
   46.2190   75.3860   66.1410 P   0  0  0  0  0
   45.2810   75.1110   67.2950 O   0  0  0  0  0
   46.3270   76.8360   65.7220 O   0  0  0  0  0
   46.0910   74.3990   65.0060 O   0  0  0  0  0
   47.1820   76.0390   69.3640 O   0  0  0  0  0
   47.6490   77.5870   69.3540 P   0  0  0  0  0
   48.8310   77.6360   70.3010 O   0  0  0  0  0
   46.4210   78.3220   69.8440 O   0  0  0  0  0
   47.9990   77.8650   67.9100 O   0  0  0  0  0
   48.2090   74.5400   71.5960 O   0  0  0  0  0
   47.1380   73.9930   72.6870 P   0  0  0  0  0
   46.0920   75.0810   72.7760 O   0  0  0  0  0
   47.9420   73.8220   73.9550 O   0  0  0  0  0
   46.6280   72.6970   72.1000 O   0  0  0  0  0
   50.0370   72.5100   71.0580 O   0  0  0  0  0
   51.3190   73.1910   71.7650 P   0  0  0  0  0
   52.5180   72.5600   71.0970 O   0  0  0  0  0
   51.1870   74.6690   71.4570 O   0  0  0  0  0
   51.1200   72.8070   73.2150 O   0  0  0  0  0
   48.1378   71.7505   69.0524 H   0  0  0  0  0
   48.5660   72.5267   66.7298 H   0  0  0  0  0
   46.8461   73.6904   68.0233 H   0  0  0  0  0
   49.0764   75.5101   69.0244 H   0  0  0  0  0
   47.3257   73.3610   70.3305 H   0  0  0  0  0
   50.2939   73.8469   69.6418 H   0  0  0  0  0
   51.2678   69.3840   70.0705 H   0  0  0  0  0
   51.0176   68.9021   67.7390 H   0  0  0  0  0
   52.5609   72.8356   67.2093 H   0  0  0  0  0
   50.7507   71.3695   66.5494 H   0  0  0  0  0
   45.4138   75.7720   67.9784 H   0  0  0  0  0
   46.4043   77.3887   66.5031 H   0  0  0  0  0
   48.5319   77.4505   71.1942 H   0  0  0  0  0
   46.2610   78.0979   70.7637 H   0  0  0  0  0
   45.6192   75.1378   71.9424 H   0  0  0  0  0
   46.1293   72.8832   71.3011 H   0  0  0  0  0
   50.4130   75.0199   71.9035 H   0  0  0  0  0
   50.3407   73.2503   73.5582 H   0  0  0  0  0
  1  2  1  0  0  0
  1  6  1  0  0  0
  1  7  1  0  0  0
  2  3  1  0  0  0
  2 12  1  0  0  0
  3  4  1  0  0  0
  3 17  1  0  0  0
  4  5  1  0  0  0
  4 22  1  0  0  0
  5  6  1  0  0  0
  5 27  1  0  0  0
  6 32  1  0  0  0
  7  8  1  0  0  0
  8  9  1  0  0  0
  8 10  2  0  0  0
  8 11  1  0  0  0
 12 13  1  0  0  0
 13 14  2  0  0  0
 13 15  1  0  0  0
 13 16  1  0  0  0
 17 18  1  0  0  0
 18 19  1  0  0  0
 18 20  1  0  0  0
 18 21  2  0  0  0
 22 23  1  0  0  0
 23 24  1  0  0  0
 23 25  1  0  0  0
 23 26  2  0  0  0
 27 28  1  0  0  0
 28 29  1  0  0  0
 28 30  2  0  0  0
 28 31  1  0  0  0
 32 33  1  0  0  0
 33 34  2  0  0  0
 33 35  1  0  0  0
 33 36  1  0  0  0
  1 37  1  0  0  0
  2 38  1  0  0  0
  3 39  1  0  0  0
  4 40  1  0  0  0
  5 41  1  0  0  0
  6 42  1  0  0  0
  9 43  1  0  0  0
 11 44  1  0  0  0
 15 45  1  0  0  0
 16 46  1  0  0  0
 19 47  1  0  0  0
 20 48  1  0  0  0
 24 49  1  0  0  0
 25 50  1  0  0  0
 29 51  1  0  0  0
 31 52  1  0  0  0
 35 53  1  0  0  0
 36 54  1  0  0  0
M  END
$$$$
