### 
### Created by X-TOOL on Mon Sep 10 21:13:34 2018
### 

@<TRIPOS>MOLECULE
5nz2_ligand
   40    41     1     0     0
SMALL
GAST_HUCK


@<TRIPOS>ATOM
      1 O4          5.4780    7.4080   37.2150 O.2       1 DUP        -0.4124
      2 C4          5.7640    8.5440   37.6440 C.2       1 DUP         0.1822
      3 C5          6.1530    8.7030   38.9670 C.2       1 DUP         0.0062
      4 C6          6.4790    9.9720   39.4400 C.2       1 DUP         0.0590
      5 N3          5.6940    9.6080   36.8350 N.am      1 DUP        -0.1865
      6 C2          6.0010   10.8410   37.2720 C.2       1 DUP         0.3327
      7 O2          5.9150   11.7930   36.4640 O.2       1 DUP        -0.3815
      8 N1          6.4130   11.0390   38.6200 N.am      1 DUP        -0.1618
      9 C1'         6.7500   12.3760   39.1400 C.3       1 DUP         0.1800
     10 C2'         5.6380   12.8700   40.0550 C.3       1 DUP         0.0316
     11 C3'         6.2770   13.0750   41.4120 C.3       1 DUP         0.0890
     12 O3'         5.8700   14.3070   42.0110 O.3       1 DUP        -0.3889
     13 O4'         7.9540   12.3480   39.9160 O.3       1 DUP        -0.3386
     14 C4'         7.7720   13.0620   41.1420 C.3       1 DUP         0.1166
     15 C5'         8.5720   12.4360   42.2760 C.3       1 DUP         0.1132
     16 O5'         8.1520   11.1000   42.5330 O.3       1 DUP        -0.2529
     17 PA          9.0990   10.1410   43.4070 P.3       1 DUP         0.2362
     18 O1A         8.4390    8.8320   43.6130 O.co2     1 DUP        -0.6036
     19 O2A         9.4170   10.8340   44.8280 O.co2     1 DUP        -0.6036
     20 N3A        10.5820    9.9270   42.5130 N.am      1 DUP        -0.1581
     21 PB         12.1220   10.1150   43.3010 P.3       1 DUP         0.2871
     22 O1B        13.0400    9.0680   42.7980 O.co2     1 DUP        -0.5685
     23 O2B        11.9350    9.9620   44.8920 O.co2     1 DUP        -0.5685
     24 O3B        12.7260   11.5650   42.9380 O.3       1 DUP        -0.1659
     25 PG         12.5360   12.8850   43.8490 P.3       1 DUP         0.2047
     26 O2G        11.9320   13.8800   42.8870 O.co2     1 DUP        -0.5893
     27 O1G        11.6200   12.5070   44.9920 O.co2     1 DUP        -0.5893
     28 O3G        13.9510   13.2100   44.2600 O.co2     1 DUP        -0.5893
     29 H1          6.2030    7.8412   39.6309 H         1 DUP         0.0258
     30 H2          6.7882   10.1021   40.4760 H         1 DUP         0.1178
     31 H3          5.4072    9.4827   35.8853 H         1 DUP         0.2259
     32 H4          6.8735   13.0685   38.2944 H         1 DUP         0.0970
     33 H5          4.8348   12.1212   40.1196 H         1 DUP         0.0345
     34 H6          5.2261   13.8181   39.6790 H         1 DUP         0.0345
     35 H7          6.0061   12.2480   42.0848 H         1 DUP         0.0622
     36 H8          6.2900   14.4000   42.8581 H         1 DUP         0.2099
     37 H9          8.1204   14.0973   41.0131 H         1 DUP         0.0650
     38 H10         8.4317   13.0366   43.1868 H         1 DUP         0.0651
     39 H11         9.6371   12.4296   42.0014 H         1 DUP         0.0651
     40 H12        10.5467    9.6947   41.5410 H         1 DUP         0.2175
@<TRIPOS>BOND
     1    1    2 2  
     2    2    3 1  
     3    2    5 am 
     4    3    4 2  
     5    4    8 1  
     6    5    6 am 
     7    6    7 2  
     8    6    8 am 
     9    8    9 1  
    10    9   10 1  
    11    9   13 1  
    12   10   11 1  
    13   11   12 1  
    14   11   14 1  
    15   13   14 1  
    16   14   15 1  
    17   15   16 1  
    18   16   17 1  
    19   17   18 ar 
    20   17   19 ar 
    21   17   20 am 
    22   20   21 1  
    23   21   22 ar 
    24   21   23 ar 
    25   21   24 1  
    26   24   25 1  
    27   25   26 ar 
    28   25   27 ar 
    29   25   28 ar 
    30    3   29 1  
    31    4   30 1  
    32    5   31 1  
    33    9   32 1  
    34   10   33 1  
    35   10   34 1  
    36   11   35 1  
    37   12   36 1  
    38   14   37 1  
    39   15   38 1  
    40   15   39 1  
    41   20   40 1  
@<TRIPOS>SUBSTRUCTURE
     1 DUP         1

