5nz2_ligand
  -I-interpret- 

 44 45  0  0  0  0  0  0  0  0999 V2000
    5.4780    7.4080   37.2150 O   0  0  0  0  0
    5.7640    8.5440   37.6440 C   0  0  0  0  0
    6.1530    8.7030   38.9670 C   0  0  0  0  0
    6.4790    9.9720   39.4400 C   0  0  0  0  0
    5.6940    9.6080   36.8350 N   0  0  0  0  0
    6.0010   10.8410   37.2720 C   0  0  0  0  0
    5.9150   11.7930   36.4640 O   0  0  0  0  0
    6.4130   11.0390   38.6200 N   0  0  0  0  0
    6.7500   12.3760   39.1400 C   0  0  0  0  0
    5.6380   12.8700   40.0550 C   0  0  0  0  0
    6.2770   13.0750   41.4120 C   0  0  0  0  0
    5.8700   14.3070   42.0110 O   0  0  0  0  0
    7.9540   12.3480   39.9160 O   0  0  0  0  0
    7.7720   13.0620   41.1420 C   0  0  0  0  0
    8.5720   12.4360   42.2760 C   0  0  0  0  0
    8.1520   11.1000   42.5330 O   0  0  0  0  0
    9.0990   10.1410   43.4070 P   0  0  0  0  0
    8.4390    8.8320   43.6130 O   0  0  0  0  0
    9.4170   10.8340   44.8280 O   0  0  0  0  0
   10.5820    9.9270   42.5130 N   0  0  0  0  0
   12.1220   10.1150   43.3010 P   0  0  0  0  0
   13.0400    9.0680   42.7980 O   0  0  0  0  0
   11.9350    9.9620   44.8920 O   0  0  0  0  0
   12.7260   11.5650   42.9380 O   0  0  0  0  0
   12.5360   12.8850   43.8490 P   0  0  0  0  0
   11.9320   13.8800   42.8870 O   0  0  0  0  0
   11.6200   12.5070   44.9920 O   0  0  0  0  0
   13.9510   13.2100   44.2600 O   0  0  0  0  0
    6.2030    7.8404   39.6315 H   0  0  0  0  0
    6.7885   10.1022   40.4770 H   0  0  0  0  0
    5.4014    9.4802   35.8663 H   0  0  0  0  0
    6.8794   13.0323   38.2794 H   0  0  0  0  0
    4.8204   12.1511   40.1074 H   0  0  0  0  0
    5.1994   13.7950   39.6806 H   0  0  0  0  0
    5.9781   12.3005   42.1184 H   0  0  0  0  0
    6.2944   14.4009   42.8669 H   0  0  0  0  0
    8.1470   14.0828   41.0679 H   0  0  0  0  0
    8.4148   13.0276   43.1779 H   0  0  0  0  0
    9.6235   12.4190   41.9893 H   0  0  0  0  0
    9.8443   11.6810   44.6812 H   0  0  0  0  0
   10.5460    9.6900   41.5216 H   0  0  0  0  0
   11.3389   10.6440   45.2101 H   0  0  0  0  0
   11.0362   13.6110   42.6707 H   0  0  0  0  0
   10.7439   12.3163   44.6489 H   0  0  0  0  0
  1  2  2  0  0  0
  2  3  1  0  0  0
  2  5  1  0  0  0
  3  4  2  0  0  0
  4  8  1  0  0  0
  5  6  1  0  0  0
  6  7  2  0  0  0
  6  8  1  0  0  0
  8  9  1  0  0  0
  9 10  1  0  0  0
  9 13  1  0  0  0
 10 11  1  0  0  0
 11 12  1  0  0  0
 11 14  1  0  0  0
 13 14  1  0  0  0
 14 15  1  0  0  0
 15 16  1  0  0  0
 16 17  1  0  0  0
 17 18  2  0  0  0
 17 19  1  0  0  0
 17 20  1  0  0  0
 20 21  1  0  0  0
 21 22  2  0  0  0
 21 23  1  0  0  0
 21 24  1  0  0  0
 24 25  1  0  0  0
 25 26  1  0  0  0
 25 27  1  0  0  0
 25 28  2  0  0  0
  3 29  1  0  0  0
  4 30  1  0  0  0
  5 31  1  0  0  0
  9 32  1  0  0  0
 10 33  1  0  0  0
 10 34  1  0  0  0
 11 35  1  0  0  0
 12 36  1  0  0  0
 14 37  1  0  0  0
 15 38  1  0  0  0
 15 39  1  0  0  0
 19 40  1  0  0  0
 20 41  1  0  0  0
 23 42  1  0  0  0
 26 43  1  0  0  0
 27 44  1  0  0  0
M  END
$$$$
