5nra_ligand
  -I-interpret- 

 55 57  0  0  0  0  0  0  0  0999 V2000
   89.7760   38.3680   21.9620 Br  0  0  0  0  0
   90.7210   36.7200   22.3200 C   0  0  0  0  0
   91.8710   36.4440   21.5210 C   0  0  0  0  0
   92.5680   35.2800   21.7500 C   0  0  0  0  0
   92.1430   34.4070   22.7520 C   0  0  0  0  0
   90.9970   34.6880   23.5580 C   0  0  0  0  0
   90.2930   35.8600   23.3320 C   0  0  0  0  0
   92.9130   33.1340   23.0050 C   0  0  0  0  0
   94.3670   33.3640   23.5060 C   0  0  0  0  0
   95.0140   32.1450   24.0770 N   0  3  0  0  0
   94.2600   31.7280   25.2300 C   0  0  0  0  0
   94.0930   32.7210   26.3880 C   0  0  0  0  0
   93.0950   32.2230   27.4090 C   0  0  0  0  0
   95.4650   32.9080   27.0410 C   0  0  0  0  0
   95.0240   31.0370   23.0850 C   0  0  0  0  0
   95.6560   31.4460   21.8050 C   0  0  0  0  0
   95.5420   30.3280   20.7950 C   0  0  0  0  0
   96.1330   29.1110   21.3260 N   0  0  0  0  0
   95.6370   28.7100   22.6300 C   0  0  0  0  0
   95.7070   29.8340   23.6310 C   0  0  0  0  0
   96.2420   28.0910   20.3930 C   0  0  0  0  0
   96.8700   28.2200   19.1960 N   0  0  0  0  0
   96.7580   27.0040   18.6110 C   0  0  0  0  0
   97.3090   26.6890   17.3200 N   0  0  0  0  0
   96.0900   26.1820   19.4250 N   0  0  0  0  0
   95.7700   26.8550   20.5270 N   0  0  0  0  0
   92.1903   37.1406   20.7458 H   0  0  0  0  0
   93.4474   35.0412   21.1519 H   0  0  0  0  0
   90.6823   33.9930   24.3365 H   0  0  0  0  0
   89.4190   36.1061   23.9351 H   0  0  0  0  0
   92.9781   32.6013   22.0563 H   0  0  0  0  0
   92.3848   32.5860   23.7853 H   0  0  0  0  0
   94.3206   34.1076   24.3016 H   0  0  0  0  0
   94.9604   33.6712   22.6449 H   0  0  0  0  0
   95.9773   32.3665   24.3287 H   0  0  0  0  0
   94.8170   30.8900   25.6490 H   0  0  0  0  0
   93.2506   31.5449   24.8616 H   0  0  0  0  0
   93.7110   33.6668   26.0037 H   0  0  0  0  0
   92.1254   32.0855   26.9304 H   0  0  0  0  0
   93.4383   31.2723   27.8170 H   0  0  0  0  0
   93.0045   32.9534   28.2130 H   0  0  0  0  0
   95.8231   31.9478   27.4124 H   0  0  0  0  0
   96.1666   33.2984   26.3038 H   0  0  0  0  0
   95.3787   33.6104   27.8700 H   0  0  0  0  0
   93.9831   30.7862   22.8809 H   0  0  0  0  0
   96.7090   31.6677   21.9786 H   0  0  0  0  0
   95.1491   32.3310   21.4204 H   0  0  0  0  0
   96.0696   30.6137   19.8850 H   0  0  0  0  0
   94.4890   30.1485   20.5782 H   0  0  0  0  0
   96.2576   27.8909   22.9935 H   0  0  0  0  0
   94.5933   28.4148   22.5215 H   0  0  0  0  0
   95.2140   29.5268   24.5533 H   0  0  0  0  0
   96.7512   30.0726   23.8330 H   0  0  0  0  0
   97.8164   27.4009   16.7945 H   0  0  0  0  0
   97.1923   25.7537   16.9301 H   0  0  0  0  0
  1  2  1  0  0  0
  2  3  4  0  0  0
  2  7  4  0  0  0
  3  4  4  0  0  0
  4  5  4  0  0  0
  5  6  4  0  0  0
  5  8  1  0  0  0
  6  7  4  0  0  0
  8  9  1  0  0  0
  9 10  1  0  0  0
 10 11  1  0  0  0
 10 15  1  0  0  0
 11 12  1  0  0  0
 12 13  1  0  0  0
 12 14  1  0  0  0
 15 16  1  0  0  0
 15 20  1  0  0  0
 16 17  1  0  0  0
 17 18  1  0  0  0
 18 19  1  0  0  0
 18 21  1  0  0  0
 19 20  1  0  0  0
 21 22  4  0  0  0
 21 26  4  0  0  0
 22 23  4  0  0  0
 23 24  1  0  0  0
 23 25  4  0  0  0
 25 26  4  0  0  0
  3 27  1  0  0  0
  4 28  1  0  0  0
  6 29  1  0  0  0
  7 30  1  0  0  0
  8 31  1  0  0  0
  8 32  1  0  0  0
  9 33  1  0  0  0
  9 34  1  0  0  0
 10 35  1  0  0  0
 11 36  1  0  0  0
 11 37  1  0  0  0
 12 38  1  0  0  0
 13 39  1  0  0  0
 13 40  1  0  0  0
 13 41  1  0  0  0
 14 42  1  0  0  0
 14 43  1  0  0  0
 14 44  1  0  0  0
 15 45  1  0  0  0
 16 46  1  0  0  0
 16 47  1  0  0  0
 17 48  1  0  0  0
 17 49  1  0  0  0
 19 50  1  0  0  0
 19 51  1  0  0  0
 20 52  1  0  0  0
 20 53  1  0  0  0
 24 54  1  0  0  0
 24 55  1  0  0  0
M  END
$$$$
