5g61_ligand
  -I-interpret- 

108112  0  0  0  0  0  0  0  0999 V2000
  154.7620   -5.0910  132.8010 C   0  0  0  0  0
  155.1600   -6.4440  132.2060 C   0  0  0  0  0
  154.8900   -7.5050  133.1930 C   0  0  0  0  0
  155.5080   -8.7560  132.7280 C   0  0  0  0  0
  155.5340   -8.9580  131.2760 C   0  0  0  0  0
  154.7130   -8.0400  130.4510 C   0  0  0  0  0
  154.3060   -6.7680  131.0800 O   0  0  0  0  0
  153.5870   -8.8650  130.0070 O   0  0  0  0  0
  152.3840   -8.1360  130.1310 C   0  0  0  0  0
  152.1810   -7.6110  131.2160 C   0  0  0  0  0
  150.9920   -6.7850  130.8260 C   0  0  0  0  0
  151.3230   -6.2180  129.4500 C   0  0  0  0  0
  152.3430   -6.8940  129.1340 O   0  0  0  0  0
  151.6690   -4.7360  129.5980 C   0  0  0  0  0
  151.7330   -4.0510  128.3610 O   0  0  0  0  0
  150.7600   -5.7900  131.7680 O   0  0  0  0  0
  151.7390   -8.6120  132.0620 O   0  0  0  0  0
  151.2440   -9.1180  129.8630 C   0  0  0  0  0
  151.3310  -10.3370  130.6210 O   0  0  0  0  0
  150.0110  -10.8770  130.7320 C   0  0  0  0  0
  149.9630  -12.0840  131.6710 C   0  0  0  0  0
  149.6960  -11.6080  132.8100 C   0  0  0  0  0
  148.6880  -10.4750  132.3860 C   0  0  0  0  0
  149.1860   -9.8770  131.4120 O   0  0  0  0  0
  148.3040   -9.5740  133.5400 C   0  0  0  0  0
  149.3800   -8.7210  133.7700 O   0  0  0  0  0
  149.0380  -12.5170  133.6450 O   0  0  0  0  0
  151.1280  -12.7920  131.6250 O   0  0  0  0  0
  149.5360  -11.0690  129.3840 C   0  0  0  0  0
  148.2390  -11.6740  129.3180 O   0  0  0  0  0
  147.2580  -11.2380  128.3380 C   0  0  0  0  0
  145.8920  -12.0060  128.6590 C   0  0  0  0  0
  145.2420  -11.0880  129.6680 C   0  0  0  0  0
  145.4910   -9.9190  129.1170 C   0  0  0  0  0
  146.9360  -10.0190  128.4170 O   0  0  0  0  0
  145.5130   -8.8390  130.1870 C   0  0  0  0  0
  146.0230   -7.7230  129.5710 O   0  0  0  0  0
  143.8920  -11.3260  129.9230 O   0  0  0  0  0
  146.1450  -13.2270  129.2050 O   0  0  0  0  0
  147.7560  -11.4920  126.9150 C   0  0  0  0  0
  148.1530  -12.8760  126.7720 O   0  0  0  0  0
  148.0130  -13.3980  125.4030 C   0  0  0  0  0
  148.0400  -14.9930  125.4380 C   0  0  0  0  0
  146.6370  -15.3080  125.7960 C   0  0  0  0  0
  145.9670  -14.4660  124.9770 C   0  0  0  0  0
  146.8970  -13.1690  124.8680 O   0  0  0  0  0
  144.6050  -14.1130  125.4770 C   0  0  0  0  0
  143.9630  -13.2270  124.6210 O   0  0  0  0  0
  146.4160  -16.6440  125.4870 O   0  0  0  0  0
  148.9950  -15.4940  126.3060 O   0  0  0  0  0
  149.0840  -12.8230  124.5260 C   0  0  0  0  0
  150.3810  -13.0940  124.9210 O   0  0  0  0  0
  155.1350  -10.2800  130.9490 O   0  0  0  0  0
  155.0410   -9.8870  133.3730 O   0  0  0  0  0
  153.5420   -7.6310  133.0700 O   0  0  0  0  0
  154.6810   -4.1410  131.7210 O   0  0  0  0  0
  155.5012   -4.7681  133.5341 H   0  0  0  0  0
  153.8007   -5.1692  133.3088 H   0  0  0  0  0
  156.2099   -6.3836  131.9195 H   0  0  0  0  0
  155.2530   -7.2960  134.1993 H   0  0  0  0  0
  156.5478   -8.6087  133.0200 H   0  0  0  0  0
  156.5739   -8.7452  131.0281 H   0  0  0  0  0
  155.3088   -7.6503  129.6257 H   0  0  0  0  0
  153.0107   -7.0830  131.6860 H   0  0  0  0  0
  150.0732   -7.3702  130.7874 H   0  0  0  0  0
  150.5213   -6.2793  128.7141 H   0  0  0  0  0
  152.6532   -4.6718  130.0620 H   0  0  0  0  0
  150.8821   -4.2713  130.1921 H   0  0  0  0  0
  151.9528   -3.1297  128.5177 H   0  0  0  0  0
  149.9966   -5.2717  131.5030 H   0  0  0  0  0
  151.5663   -8.2420  132.9308 H   0  0  0  0  0
  151.2923   -9.3891  128.8084 H   0  0  0  0  0
  150.3167   -8.6233  130.1520 H   0  0  0  0  0
  149.2041  -12.8121  131.3846 H   0  0  0  0  0
  150.5788  -11.3064  133.3737 H   0  0  0  0  0
  147.7342  -10.9063  132.0821 H   0  0  0  0  0
  148.0830  -10.1627  134.4303 H   0  0  0  0  0
  147.4061   -9.0043  133.3006 H   0  0  0  0  0
  149.1703   -8.1326  134.4990 H   0  0  0  0  0
  148.8618  -12.1017  134.4924 H   0  0  0  0  0
  151.0696  -13.5413  132.2223 H   0  0  0  0  0
  150.2357  -11.7366  128.8812 H   0  0  0  0  0
  149.4640  -10.0862  128.9181 H   0  0  0  0  0
  145.2755  -12.1988  127.7810 H   0  0  0  0  0
  145.6321  -11.2110  130.6783 H   0  0  0  0  0
  144.7226   -9.6640  128.3871 H   0  0  0  0  0
  146.1203   -9.1361  131.0420 H   0  0  0  0  0
  144.5166   -8.6537  130.5881 H   0  0  0  0  0
  146.0619   -7.0003  130.2017 H   0  0  0  0  0
  143.5741  -10.6949  130.5728 H   0  0  0  0  0
  145.3146  -13.6717  129.3903 H   0  0  0  0  0
  148.6132  -10.8494  126.7140 H   0  0  0  0  0
  146.9548  -11.2730  126.2092 H   0  0  0  0  0
  148.3427  -15.4629  124.5022 H   0  0  0  0  0
  146.3516  -15.1843  126.8407 H   0  0  0  0  0
  145.7846  -14.9362  124.0107 H   0  0  0  0  0
  144.7075  -13.6379  126.4527 H   0  0  0  0  0
  144.0120  -15.0256  125.5380 H   0  0  0  0  0
  143.0927  -13.0207  124.9697 H   0  0  0  0  0
  145.5117  -16.8773  125.7092 H   0  0  0  0  0
  148.9693  -16.4535  126.2891 H   0  0  0  0  0
  148.9673  -11.7398  124.5608 H   0  0  0  0  0
  148.9570  -13.2744  123.5420 H   0  0  0  0  0
  150.9938  -12.6882  124.3035 H   0  0  0  0  0
  155.6479  -10.9051  131.4665 H   0  0  0  0  0
  155.0323   -9.7330  134.3205 H   0  0  0  0  0
  153.1177   -6.8234  133.3688 H   0  0  0  0  0
  154.4321   -3.2820  132.0699 H   0  0  0  0  0
  1  2  1  0  0  0
  1 56  1  0  0  0
  2  3  1  0  0  0
  2  7  1  0  0  0
  3  4  1  0  0  0
  3 55  1  0  0  0
  4  5  1  0  0  0
  4 54  1  0  0  0
  5  6  1  0  0  0
  5 53  1  0  0  0
  6  7  1  0  0  0
  6  8  1  0  0  0
  8  9  1  0  0  0
  9 10  1  0  0  0
  9 13  1  0  0  0
  9 18  1  0  0  0
 10 11  1  0  0  0
 10 17  1  0  0  0
 11 12  1  0  0  0
 11 16  1  0  0  0
 12 13  1  0  0  0
 12 14  1  0  0  0
 14 15  1  0  0  0
 18 19  1  0  0  0
 19 20  1  0  0  0
 20 21  1  0  0  0
 20 24  1  0  0  0
 20 29  1  0  0  0
 21 22  1  0  0  0
 21 28  1  0  0  0
 22 23  1  0  0  0
 22 27  1  0  0  0
 23 24  1  0  0  0
 23 25  1  0  0  0
 25 26  1  0  0  0
 29 30  1  0  0  0
 30 31  1  0  0  0
 31 32  1  0  0  0
 31 35  1  0  0  0
 31 40  1  0  0  0
 32 33  1  0  0  0
 32 39  1  0  0  0
 33 34  1  0  0  0
 33 38  1  0  0  0
 34 35  1  0  0  0
 34 36  1  0  0  0
 36 37  1  0  0  0
 40 41  1  0  0  0
 41 42  1  0  0  0
 42 43  1  0  0  0
 42 46  1  0  0  0
 42 51  1  0  0  0
 43 44  1  0  0  0
 43 50  1  0  0  0
 44 45  1  0  0  0
 44 49  1  0  0  0
 45 46  1  0  0  0
 45 47  1  0  0  0
 47 48  1  0  0  0
 51 52  1  0  0  0
  1 57  1  0  0  0
  1 58  1  0  0  0
  2 59  1  0  0  0
  3 60  1  0  0  0
  4 61  1  0  0  0
  5 62  1  0  0  0
  6 63  1  0  0  0
 10 64  1  0  0  0
 11 65  1  0  0  0
 12 66  1  0  0  0
 14 67  1  0  0  0
 14 68  1  0  0  0
 15 69  1  0  0  0
 16 70  1  0  0  0
 17 71  1  0  0  0
 18 72  1  0  0  0
 18 73  1  0  0  0
 21 74  1  0  0  0
 22 75  1  0  0  0
 23 76  1  0  0  0
 25 77  1  0  0  0
 25 78  1  0  0  0
 26 79  1  0  0  0
 27 80  1  0  0  0
 28 81  1  0  0  0
 29 82  1  0  0  0
 29 83  1  0  0  0
 32 84  1  0  0  0
 33 85  1  0  0  0
 34 86  1  0  0  0
 36 87  1  0  0  0
 36 88  1  0  0  0
 37 89  1  0  0  0
 38 90  1  0  0  0
 39 91  1  0  0  0
 40 92  1  0  0  0
 40 93  1  0  0  0
 43 94  1  0  0  0
 44 95  1  0  0  0
 45 96  1  0  0  0
 47 97  1  0  0  0
 47 98  1  0  0  0
 48 99  1  0  0  0
 49100  1  0  0  0
 50101  1  0  0  0
 51102  1  0  0  0
 51103  1  0  0  0
 52104  1  0  0  0
 53105  1  0  0  0
 54106  1  0  0  0
 55107  1  0  0  0
 56108  1  0  0  0
M  END
$$$$
