1jld_ligand
  -I-interpret- 

 99101  0  0  0  0  0  0  0  0999 V2000
   51.4700   25.4350    9.3670 O   0  0  0  0  0
   50.5590   24.7130    8.9000 C   0  0  0  0  0
   48.1710   24.2520    8.6240 N   0  0  0  0  0
   49.1780   25.0630    9.0140 C   0  0  0  0  0
   48.7950   26.2640    9.6010 C   0  0  0  0  0
   47.4710   26.5910    9.7860 C   0  0  0  0  0
   46.4930   25.6790    9.4010 C   0  0  0  0  0
   45.1340   25.9660    9.6050 C   0  0  0  0  0
   44.1780   25.0330    9.2070 C   0  0  0  0  0
   44.5670   23.8590    8.5830 C   0  0  0  0  0
   45.9120   23.5790    8.4230 C   0  0  0  0  0
   46.8650   24.4980    8.8280 C   0  0  0  0  0
   50.8130   23.5560    8.2440 N   0  0  0  0  0
   52.0030   22.8000    7.8570 C   0  0  0  0  0
   51.9010   22.5860    6.3820 C   0  0  0  0  0
   51.5660   21.5230    5.8780 O   0  0  0  0  0
   52.2940   21.5030    8.6990 C   0  0  0  0  0
   52.2630   21.7830   10.0830 O   0  0  0  0  0
   53.6660   20.9320    8.4200 C   0  0  0  0  0
   53.0020   23.2400    1.9740 C   0  0  0  0  0
   52.1260   23.6900    5.6800 N   0  0  0  0  0
   51.9530   23.7360    4.2490 C   0  0  0  0  0
   51.4800   25.1470    3.9090 C   0  0  0  0  0
   50.2000   25.4940    4.6090 C   0  0  0  0  0
   49.0140   24.8240    4.3060 C   0  0  0  0  0
   50.1550   26.4840    5.5930 C   0  0  0  0  0
   47.8180   25.1670    4.9520 C   0  0  0  0  0
   48.9750   26.8020    6.2710 C   0  0  0  0  0
   47.7900   26.1530    5.9400 C   0  0  0  0  0
   53.1780   23.2420    3.4810 C   0  0  0  0  0
   54.2820   24.0700    3.7580 O   0  0  0  0  0
   53.8160   22.1940    1.3720 N   0  0  0  0  0
   53.3310   21.0160    1.0390 C   0  0  0  0  0
   52.1730   20.6780    1.2170 O   0  0  0  0  0
   54.3530   20.0750    0.4120 C   0  0  0  0  0
   55.0150   19.0140    1.3740 C   0  0  0  0  0
   54.1180   17.8190    1.6870 C   0  0  0  0  0
   56.2290   18.4800    0.6270 C   0  0  0  0  0
   55.3950   19.6960    2.6770 C   0  0  0  0  0
   53.7680   19.5300   -0.9070 C   0  0  0  0  0
   53.5070   20.6100   -1.9390 C   0  0  0  0  0
   54.4620   21.3520   -2.5570 O   0  0  0  0  0
   52.2540   20.8780   -2.3260 N   0  0  0  0  0
   51.9150   21.8640   -3.3120 C   0  0  0  0  0
   51.3430   21.1730   -4.5400 C   0  0  0  0  0
   52.0920   19.8800   -4.9720 C   0  0  0  0  0
   50.8200   22.7680   -2.7800 C   0  0  0  0  0
   51.1740   23.6170   -1.5270 C   0  0  0  0  0
   49.5644   26.9656    9.9234 H   0  0  0  0  0
   47.1931   27.5484   10.2267 H   0  0  0  0  0
   44.8308   26.9050   10.0680 H   0  0  0  0  0
   43.1208   25.2278    9.3874 H   0  0  0  0  0
   43.8156   23.1582    8.2193 H   0  0  0  0  0
   46.2220   22.6337    7.9775 H   0  0  0  0  0
   49.9550   23.0939    7.9430 H   0  0  0  0  0
   52.8961   23.3769    8.0972 H   0  0  0  0  0
   51.5205   20.7909    8.4116 H   0  0  0  0  0
   52.4429   20.9786   10.5752 H   0  0  0  0  0
   53.7426   20.6733    7.3639 H   0  0  0  0  0
   54.4245   21.6739    8.6696 H   0  0  0  0  0
   53.8165   20.0386    9.0261 H   0  0  0  0  0
   53.3141   24.2063    1.5779 H   0  0  0  0  0
   51.9539   23.0555    1.7383 H   0  0  0  0  0
   52.4308   24.5322    6.1681 H   0  0  0  0  0
   51.1927   23.0288    3.9174 H   0  0  0  0  0
   51.3057   25.1984    2.8343 H   0  0  0  0  0
   52.2470   25.8508    4.2322 H   0  0  0  0  0
   49.0175   24.0280    3.5614 H   0  0  0  0  0
   51.0683   27.0253    5.8398 H   0  0  0  0  0
   46.8951   24.6556    4.6785 H   0  0  0  0  0
   48.9832   27.5568    7.0573 H   0  0  0  0  0
   46.8573   26.4094    6.4425 H   0  0  0  0  0
   53.3286   22.2146    3.8126 H   0  0  0  0  0
   54.4288   24.0991    4.7063 H   0  0  0  0  0
   54.8039   22.3816    1.2009 H   0  0  0  0  0
   55.2462   20.6538    0.1768 H   0  0  0  0  0
   53.2052   18.1681    2.1697 H   0  0  0  0  0
   53.8661   17.3029    0.7606 H   0  0  0  0  0
   54.6445   17.1358    2.3535 H   0  0  0  0  0
   55.9061   18.0210   -0.3074 H   0  0  0  0  0
   56.9124   19.3016    0.4125 H   0  0  0  0  0
   56.7348   17.7363    1.2428 H   0  0  0  0  0
   56.1029   20.4992    2.4722 H   0  0  0  0  0
   54.5006   20.1085    3.1440 H   0  0  0  0  0
   55.8532   18.9680    3.3465 H   0  0  0  0  0
   52.8129   19.0593   -0.6741 H   0  0  0  0  0
   54.4973   18.8393   -1.3303 H   0  0  0  0  0
   51.4953   20.3502   -1.8946 H   0  0  0  0  0
   52.8135   22.4324   -3.5522 H   0  0  0  0  0
   51.4276   21.8780   -5.3670 H   0  0  0  0  0
   50.3236   20.8788   -4.2905 H   0  0  0  0  0
   53.1293   20.1225   -5.2028 H   0  0  0  0  0
   52.0593   19.1541   -4.1595 H   0  0  0  0  0
   51.6104   19.4606   -5.8553 H   0  0  0  0  0
   50.0036   22.1109   -2.4801 H   0  0  0  0  0
   50.6010   23.4795   -3.5762 H   0  0  0  0  0
   51.4416   22.9540   -0.7042 H   0  0  0  0  0
   52.0159   24.2697   -1.7580 H   0  0  0  0  0
   50.3119   24.2206   -1.2432 H   0  0  0  0  0
  2  1  2  0  0  0
  2  4  1  0  0  0
  4  3  4  0  0  0
  4  5  4  0  0  0
  5  6  4  0  0  0
  6  7  4  0  0  0
 12  7  4  0  0  0
  7  8  4  0  0  0
  8  9  4  0  0  0
 10  9  4  0  0  0
 11 10  4  0  0  0
 12 11  4  0  0  0
  3 12  4  0  0  0
 15 14  1  0  0  0
 14 17  1  0  0  0
 14 13  1  0  0  0
 17 18  1  0  0  0
 17 19  1  0  0  0
 15 16  2  0  0  0
 30 20  1  0  0  0
 30 31  1  0  0  0
 22 30  1  0  0  0
 22 23  1  0  0  0
 21 22  1  0  0  0
 23 24  1  0  0  0
 24 26  4  0  0  0
 24 25  4  0  0  0
 25 27  4  0  0  0
 27 29  4  0  0  0
 28 29  4  0  0  0
 26 28  4  0  0  0
 32 33  1  0  0  0
 33 35  1  0  0  0
 33 34  2  0  0  0
 35 40  1  0  0  0
 35 36  1  0  0  0
 36 39  1  0  0  0
 36 38  1  0  0  0
 36 37  1  0  0  0
 40 41  1  0  0  0
 41 43  1  0  0  0
 41 42  2  0  0  0
 43 44  1  0  0  0
 44 47  1  0  0  0
 44 45  1  0  0  0
 45 46  1  0  0  0
 47 48  1  0  0  0
 13  2  1  0  0  0
 20 32  1  0  0  0
 21 15  1  0  0  0
  5 49  1  0  0  0
  6 50  1  0  0  0
  8 51  1  0  0  0
  9 52  1  0  0  0
 10 53  1  0  0  0
 11 54  1  0  0  0
 13 55  1  0  0  0
 14 56  1  0  0  0
 17 57  1  0  0  0
 18 58  1  0  0  0
 19 59  1  0  0  0
 19 60  1  0  0  0
 19 61  1  0  0  0
 20 62  1  0  0  0
 20 63  1  0  0  0
 21 64  1  0  0  0
 22 65  1  0  0  0
 23 66  1  0  0  0
 23 67  1  0  0  0
 25 68  1  0  0  0
 26 69  1  0  0  0
 27 70  1  0  0  0
 28 71  1  0  0  0
 29 72  1  0  0  0
 30 73  1  0  0  0
 31 74  1  0  0  0
 32 75  1  0  0  0
 35 76  1  0  0  0
 37 77  1  0  0  0
 37 78  1  0  0  0
 37 79  1  0  0  0
 38 80  1  0  0  0
 38 81  1  0  0  0
 38 82  1  0  0  0
 39 83  1  0  0  0
 39 84  1  0  0  0
 39 85  1  0  0  0
 40 86  1  0  0  0
 40 87  1  0  0  0
 43 88  1  0  0  0
 44 89  1  0  0  0
 45 90  1  0  0  0
 45 91  1  0  0  0
 46 92  1  0  0  0
 46 93  1  0  0  0
 46 94  1  0  0  0
 47 95  1  0  0  0
 47 96  1  0  0  0
 48 97  1  0  0  0
 48 98  1  0  0  0
 48 99  1  0  0  0
M  END
$$$$
