4xsx_ligand
  -I-interpret- 

 31 32  0  0  0  0  0  0  0  0999 V2000
   35.6830  -96.3770   -5.5350 C   0  0  0  0  0
   35.4390  -97.4410   -4.7190 C   0  0  0  0  0
   35.2670  -98.6900   -5.2410 C   0  0  0  0  0
   35.3160  -98.9600   -6.5730 C   0  0  0  0  0
   35.5710  -97.8780   -7.3980 C   0  0  0  0  0
   35.7450  -96.6110   -6.8810 C   0  0  0  0  0
   35.1480 -100.2340   -7.0930 N   0  0  0  0  0
   34.4340 -100.6770   -8.1830 C   0  0  0  0  0
   33.6400  -99.7990   -9.0870 C   0  0  0  0  0
   32.5680  -99.0700   -8.6230 C   0  0  0  0  0
   31.8480  -98.2690   -9.4700 C   0  0  0  0  0
   32.1590  -98.1660  -10.8120 C   0  0  0  0  0
   33.2300  -98.8970  -11.2880 C   0  0  0  0  0
   33.9670  -99.7080  -10.4400 C   0  0  0  0  0
   30.7050  -97.5020   -8.9210 C   0  0  0  0  0
   29.5500  -97.8290   -9.4410 F   0  0  0  0  0
   30.7990  -96.2270   -9.1790 F   0  0  0  0  0
   30.5470  -97.5880   -7.6440 F   0  0  0  0  0
   34.2550 -101.8560   -8.7020 N   0  0  0  0  0
   34.8270 -102.8910   -8.1390 O   0  0  0  0  0
   35.8237  -95.3752   -5.1292 H   0  0  0  0  0
   35.3808  -97.2931   -3.6407 H   0  0  0  0  0
   35.0804  -99.5152   -4.5538 H   0  0  0  0  0
   35.6354  -98.0299   -8.4754 H   0  0  0  0  0
   35.9358  -95.7793   -7.5592 H   0  0  0  0  0
   35.6368 -100.9681   -6.5805 H   0  0  0  0  0
   32.2893  -99.1307   -7.5710 H   0  0  0  0  0
   31.5765  -97.5269  -11.4756 H   0  0  0  0  0
   33.4984  -98.8352  -12.3426 H   0  0  0  0  0
   34.8083 -100.2789  -10.8330 H   0  0  0  0  0
   34.6046 -103.6849   -8.6308 H   0  0  0  0  0
  1  2  4  0  0  0
  1  6  4  0  0  0
  2  3  4  0  0  0
  3  4  4  0  0  0
  4  5  4  0  0  0
  4  7  1  0  0  0
  5  6  4  0  0  0
  7  8  1  0  0  0
  8  9  1  0  0  0
  8 19  2  0  0  0
  9 10  4  0  0  0
  9 14  4  0  0  0
 10 11  4  0  0  0
 11 12  4  0  0  0
 11 15  1  0  0  0
 12 13  4  0  0  0
 13 14  4  0  0  0
 15 16  1  0  0  0
 15 17  1  0  0  0
 15 18  1  0  0  0
 19 20  1  0  0  0
  1 21  1  0  0  0
  2 22  1  0  0  0
  3 23  1  0  0  0
  5 24  1  0  0  0
  6 25  1  0  0  0
  7 26  1  0  0  0
 10 27  1  0  0  0
 12 28  1  0  0  0
 13 29  1  0  0  0
 14 30  1  0  0  0
 20 31  1  0  0  0
M  END
$$$$
