3qto_ligand
  -I-interpret- 

 55 57  0  0  0  0  0  0  0  0999 V2000
   16.2450  -16.0150   22.9050 N   0  3  0  0  0
   17.5270  -15.3320   22.9680 C   0  0  0  0  0
   17.3150  -13.9460   22.4080 C   0  0  0  0  0
   16.4100  -13.2450   22.8480 O   0  0  0  0  0
   17.9810  -15.3150   24.4320 C   0  0  0  0  0
   19.3940  -14.7950   24.5660 C   0  0  0  0  0
   19.6390  -13.7000   25.3810 C   0  0  0  0  0
   20.4430  -15.4020   23.8780 C   0  0  0  0  0
   20.9260  -13.2020   25.5000 C   0  0  0  0  0
   21.7350  -14.9070   24.0050 C   0  0  0  0  0
   21.9760  -13.8030   24.8140 C   0  0  0  0  0
   18.1100  -13.5150   21.4340 N   0  0  0  0  0
   17.9050  -12.1760   20.8580 C   0  0  0  0  0
   16.5020  -12.0120   20.3250 C   0  0  0  0  0
   15.9740  -12.8780   19.6250 O   0  0  0  0  0
   18.9370  -12.0970   19.7400 C   0  0  0  0  0
   19.9880  -13.1470   20.0810 C   0  0  0  0  0
   19.2240  -14.2400   20.8090 C   0  0  0  0  0
   14.4710  -10.6000   20.2420 C   0  0  0  0  0
   13.4610  -11.2050   21.1990 C   0  0  0  0  0
   12.8040  -10.4460   22.1600 C   0  0  0  0  0
   11.2320  -10.1850   24.0120 C   0  0  0  0  0
   11.6370  -12.3130   22.9410 C   0  0  0  0  0
   12.2650  -13.1190   22.0010 C   0  0  0  0  0
   13.1920  -12.5690   21.1300 C   0  0  0  0  0
   15.8480  -10.9030   20.6690 N   0  0  0  0  0
   11.9160  -11.0010   22.9970 N   0  0  0  0  0
   15.9212  -16.0392   21.9381 H   0  0  0  0  0
   16.3513  -16.9678   23.2532 H   0  0  0  0  0
   15.5664  -15.5154   23.4797 H   0  0  0  0  0
   18.3065  -15.8252   22.3873 H   0  0  0  0  0
   17.9499  -16.3348   24.8157 H   0  0  0  0  0
   17.3161  -14.6581   24.9927 H   0  0  0  0  0
   18.8200  -13.2320   25.9271 H   0  0  0  0  0
   20.2499  -16.2648   23.2405 H   0  0  0  0  0
   21.1166  -12.3358   26.1337 H   0  0  0  0  0
   22.5575  -15.3834   23.4715 H   0  0  0  0  0
   22.9874  -13.4083   24.9108 H   0  0  0  0  0
   18.0244  -11.3820   21.5952 H   0  0  0  0  0
   19.3751  -11.1013   19.6704 H   0  0  0  0  0
   18.4857  -12.2853   18.7658 H   0  0  0  0  0
   20.7890  -12.7346   20.6946 H   0  0  0  0  0
   20.4867  -13.5261   19.1890 H   0  0  0  0  0
   18.8866  -15.0324   20.1409 H   0  0  0  0  0
   19.8400  -14.7698   21.5356 H   0  0  0  0  0
   14.3380   -9.5182   20.2303 H   0  0  0  0  0
   14.3108  -11.0230   19.2503 H   0  0  0  0  0
   13.0147   -9.3792   22.2346 H   0  0  0  0  0
   11.9717   -9.7407   24.6780 H   0  0  0  0  0
   10.6641   -9.3957   23.5195 H   0  0  0  0  0
   10.5552  -10.8161   24.5880 H   0  0  0  0  0
   10.9163  -12.7461   23.6346 H   0  0  0  0  0
   12.0294  -14.1819   21.9482 H   0  0  0  0  0
   13.7039  -13.1964   20.4003 H   0  0  0  0  0
   16.3280  -10.2256   21.2615 H   0  0  0  0  0
  2  1  1  0  0  0
  3  2  1  0  0  0
  2  5  1  0  0  0
  3  4  2  0  0  0
 12  3  1  0  0  0
  5  6  1  0  0  0
  6  7  4  0  0  0
  6  8  4  0  0  0
  7  9  4  0  0  0
  8 10  4  0  0  0
  9 11  4  0  0  0
 10 11  4  0  0  0
 13 12  1  0  0  0
 12 18  1  0  0  0
 14 13  1  0  0  0
 13 16  1  0  0  0
 14 15  2  0  0  0
 26 14  1  0  0  0
 16 17  1  0  0  0
 17 18  1  0  0  0
 20 19  1  0  0  0
 19 26  1  0  0  0
 21 20  4  0  0  0
 20 25  4  0  0  0
 27 21  4  0  0  0
 27 22  1  0  0  0
 23 24  4  0  0  0
 23 27  4  0  0  0
 24 25  4  0  0  0
  1 28  1  0  0  0
  1 29  1  0  0  0
  1 30  1  0  0  0
  2 31  1  0  0  0
  5 32  1  0  0  0
  5 33  1  0  0  0
  7 34  1  0  0  0
  8 35  1  0  0  0
  9 36  1  0  0  0
 10 37  1  0  0  0
 11 38  1  0  0  0
 13 39  1  0  0  0
 16 40  1  0  0  0
 16 41  1  0  0  0
 17 42  1  0  0  0
 17 43  1  0  0  0
 18 44  1  0  0  0
 18 45  1  0  0  0
 19 46  1  0  0  0
 19 47  1  0  0  0
 21 48  1  0  0  0
 22 49  1  0  0  0
 22 50  1  0  0  0
 22 51  1  0  0  0
 23 52  1  0  0  0
 24 53  1  0  0  0
 25 54  1  0  0  0
 26 55  1  0  0  0
M  END
$$$$
