4tw9_ligand
  -I-interpret- 

 45 49  0  0  0  0  0  0  0  0999 V2000
   11.4700  -14.9890    6.4300 N   0  0  0  0  0
   11.9310  -16.5580    8.7410 C   0  0  0  0  0
   12.7060  -16.4920    5.2440 O   0  0  0  0  0
    7.6000  -11.1040    4.2710 N   0  0  0  0  0
   12.3420  -16.9920    9.9970 C   0  0  0  0  0
    6.3030   -9.2050    3.6300 N   0  0  0  0  0
   14.5550  -17.4060    9.1420 C   0  0  0  0  0
   13.6550  -17.4180   10.1960 C   0  0  0  0  0
    1.6560   -5.4150    5.9020 F   0  0  0  0  0
    2.9710   -5.0880    5.8030 C   0  0  0  0  0
    3.2140   -3.7920    6.1190 F   0  0  0  0  0
    3.4970   -5.3870    4.4950 O   0  0  0  0  0
    4.2520   -6.4800    4.7020 C   0  0  0  0  0
    4.8950   -7.2400    3.7560 C   0  0  0  0  0
    3.6330   -5.9020    6.7620 O   0  0  0  0  0
    4.3220   -6.7840    6.0370 C   0  0  0  0  0
    5.0350   -7.8410    6.5620 C   0  0  0  0  0
    5.6760   -8.5980    5.6230 C   0  0  0  0  0
    5.5920   -8.3090    4.2840 C   0  0  0  0  0
    6.4120   -9.6900    5.8230 N   0  0  0  0  0
    6.7840  -10.0280    4.5780 C   0  0  0  0  0
    8.2210  -11.8440    5.2490 C   0  0  0  0  0
    7.9920  -11.6190    6.4360 O   0  0  0  0  0
    9.2270  -12.8570    4.8630 C   0  0  0  0  0
    9.6280  -13.2800    3.5810 C   0  0  0  0  0
   10.7860  -14.4060    3.7690 S   0  0  0  0  0
    9.8810  -13.4540    5.8560 N   0  0  0  0  0
   10.7790  -14.3370    5.4010 C   0  0  0  0  0
   12.3520  -16.0410    6.3280 C   0  0  0  0  0
   12.8300  -16.5460    7.6560 C   0  0  0  0  0
   14.1580  -16.9650    7.8830 C   0  0  0  0  0
   15.0910  -16.9770    6.8870 O   0  0  0  0  0
   15.7570  -15.7790    6.5400 C   0  0  0  0  0
   16.1750  -15.7980    5.2220 F   0  0  0  0  0
   14.8570  -14.8020    6.7040 F   0  0  0  0  0
   16.7350  -15.5200    7.4500 F   0  0  0  0  0
   11.2982  -14.6407    7.3732 H   0  0  0  0  0
   10.9038  -16.2240    8.5947 H   0  0  0  0  0
    7.7441  -11.3542    3.2927 H   0  0  0  0  0
   11.6362  -16.9992   10.8276 H   0  0  0  0  0
   15.5792  -17.7438    9.2999 H   0  0  0  0  0
   13.9735  -17.7604   11.1806 H   0  0  0  0  0
    4.8587   -7.0202    2.6890 H   0  0  0  0  0
    5.0828   -8.0533    7.6301 H   0  0  0  0  0
    9.2327  -12.9174    2.6321 H   0  0  0  0  0
  1 28  1  0  0  0
 29  1  1  0  0  0
  2  5  4  0  0  0
 30  2  4  0  0  0
 29  3  2  0  0  0
  4 21  1  0  0  0
 22  4  1  0  0  0
  5  8  4  0  0  0
  6 19  4  0  0  0
 21  6  4  0  0  0
  8  7  4  0  0  0
  7 31  4  0  0  0
 10  9  1  0  0  0
 10 11  1  0  0  0
 12 10  1  0  0  0
 15 10  1  0  0  0
 13 12  1  0  0  0
 14 13  4  0  0  0
 16 13  4  0  0  0
 19 14  4  0  0  0
 16 15  1  0  0  0
 17 16  4  0  0  0
 18 17  4  0  0  0
 18 19  4  0  0  0
 20 18  4  0  0  0
 21 20  4  0  0  0
 22 23  2  0  0  0
 24 22  1  0  0  0
 24 25  4  0  0  0
 27 24  4  0  0  0
 26 25  4  0  0  0
 28 26  4  0  0  0
 28 27  4  0  0  0
 29 30  1  0  0  0
 30 31  4  0  0  0
 31 32  1  0  0  0
 32 33  1  0  0  0
 33 34  1  0  0  0
 33 35  1  0  0  0
 33 36  1  0  0  0
  1 37  1  0  0  0
  2 38  1  0  0  0
  4 39  1  0  0  0
  5 40  1  0  0  0
  7 41  1  0  0  0
  8 42  1  0  0  0
 14 43  1  0  0  0
 17 44  1  0  0  0
 25 45  1  0  0  0
M  END
$$$$
