5kgx_ligand
  -I-interpret- 

 56 59  0  0  0  0  0  0  0  0999 V2000
   12.6940  -46.0840  -13.7920 C   0  0  0  0  0
    9.7580  -46.5560  -15.8530 C   0  0  0  0  0
    8.7100  -44.6050  -16.7570 C   0  0  0  0  0
    7.9950  -42.8380  -15.2800 C   0  0  0  0  0
    7.5670  -41.6800  -12.7130 C   0  0  0  0  0
    8.3300  -42.9820  -12.7460 C   0  0  0  0  0
    8.4640  -43.5600  -14.1850 C   0  0  0  0  0
    9.1540  -47.7400  -16.2880 C   0  0  0  0  0
    7.5440  -49.3770  -17.0540 C   0  0  0  0  0
    9.8560  -49.9910  -16.7360 C   0  0  0  0  0
   12.5910  -48.7840  -15.8530 C   0  0  0  0  0
   11.3080  -48.1050  -15.9400 N   0  0  0  0  0
   11.0960  -46.8300  -15.6500 C   0  0  0  0  0
   12.1160  -45.7930  -15.1810 C   0  0  0  0  0
   13.1580  -45.7650  -16.1200 O   0  0  0  0  0
   13.0000  -45.1860  -17.4000 C   0  0  0  0  0
   12.1040  -43.9480  -17.4510 C   0  0  0  0  0
   14.3810  -44.7190  -17.8550 C   0  0  0  0  0
   12.5220  -46.2350  -18.4060 C   0  0  0  0  0
   13.9190  -45.9070  -13.5660 O   0  0  0  0  0
   11.9450  -46.4910  -12.8620 O   0  0  0  0  0
    9.1640  -45.3270  -15.6600 C   0  0  0  0  0
    8.1250  -43.3640  -16.5670 C   0  0  0  0  0
    7.3910  -41.5510  -15.1200 O   0  0  0  0  0
    7.7350  -40.8740  -13.9650 C   0  0  0  0  0
    9.0550  -44.8060  -14.3740 C   0  0  0  0  0
    7.8420  -48.0790  -16.6540 C   0  0  0  0  0
    8.5540  -50.3310  -17.0910 C   0  0  0  0  0
   10.1570  -48.6800  -16.3280 C   0  0  0  0  0
    8.8138  -45.0133  -17.7623 H   0  0  0  0  0
    7.9526  -41.0890  -11.8823 H   0  0  0  0  0
    6.5082  -41.9171  -12.6092 H   0  0  0  0  0
    7.7834  -43.7068  -12.1427 H   0  0  0  0  0
    9.3337  -42.7926  -12.3655 H   0  0  0  0  0
    6.5257  -49.6443  -17.3365 H   0  0  0  0  0
   10.6441  -50.7430  -16.7744 H   0  0  0  0  0
   13.3048  -48.2957  -16.5164 H   0  0  0  0  0
   12.9562  -48.7379  -14.8270 H   0  0  0  0  0
   12.4703  -49.8256  -16.1506 H   0  0  0  0  0
   11.6044  -44.8338  -15.1022 H   0  0  0  0  0
   11.1046  -44.2098  -17.1036 H   0  0  0  0  0
   12.5215  -43.1722  -16.8092 H   0  0  0  0  0
   12.0495  -43.5825  -18.4765 H   0  0  0  0  0
   14.7672  -43.9865  -17.1462 H   0  0  0  0  0
   15.0557  -45.5739  -17.8999 H   0  0  0  0  0
   14.3023  -44.2644  -18.8426 H   0  0  0  0  0
   13.2561  -47.0383  -18.4678 H   0  0  0  0  0
   11.5645  -46.6404  -18.0790 H   0  0  0  0  0
   12.4060  -45.7709  -19.3854 H   0  0  0  0  0
   11.0467  -46.5754  -13.1899 H   0  0  0  0  0
    7.7649  -42.7961  -17.4249 H   0  0  0  0  0
    8.7910  -40.6158  -14.0440 H   0  0  0  0  0
    7.0725  -40.0121  -13.8860 H   0  0  0  0  0
    9.4301  -45.3702  -13.5201 H   0  0  0  0  0
    7.0562  -47.3242  -16.6246 H   0  0  0  0  0
    8.3251  -51.3510  -17.3997 H   0  0  0  0  0
 14  1  1  0  0  0
  1 20  2  0  0  0
  1 21  1  0  0  0
  2  8  4  0  0  0
 13  2  4  0  0  0
  2 22  1  0  0  0
 22  3  4  0  0  0
  3 23  4  0  0  0
  4  7  4  0  0  0
 23  4  4  0  0  0
  4 24  1  0  0  0
  6  5  1  0  0  0
  5 25  1  0  0  0
  7  6  1  0  0  0
  7 26  4  0  0  0
  8 27  4  0  0  0
 29  8  4  0  0  0
 27  9  4  0  0  0
 28  9  4  0  0  0
 10 28  4  0  0  0
 29 10  4  0  0  0
 12 11  1  0  0  0
 13 12  4  0  0  0
 12 29  4  0  0  0
 13 14  1  0  0  0
 14 15  1  0  0  0
 15 16  1  0  0  0
 16 17  1  0  0  0
 16 18  1  0  0  0
 16 19  1  0  0  0
 22 26  4  0  0  0
 24 25  1  0  0  0
  3 30  1  0  0  0
  5 31  1  0  0  0
  5 32  1  0  0  0
  6 33  1  0  0  0
  6 34  1  0  0  0
  9 35  1  0  0  0
 10 36  1  0  0  0
 11 37  1  0  0  0
 11 38  1  0  0  0
 11 39  1  0  0  0
 14 40  1  0  0  0
 17 41  1  0  0  0
 17 42  1  0  0  0
 17 43  1  0  0  0
 18 44  1  0  0  0
 18 45  1  0  0  0
 18 46  1  0  0  0
 19 47  1  0  0  0
 19 48  1  0  0  0
 19 49  1  0  0  0
 21 50  1  0  0  0
 23 51  1  0  0  0
 25 52  1  0  0  0
 25 53  1  0  0  0
 26 54  1  0  0  0
 27 55  1  0  0  0
 28 56  1  0  0  0
M  END
$$$$
