6k4t_ligand
  -I-interpret- 

 16 16  0  0  0  0  0  0  0  0999 V2000
    6.3970   -6.4510   -6.9590 S   0  0  0  0  0
    8.2440   -3.8410   -6.1750 C   0  0  0  0  0
    8.8060   -5.0000   -6.8970 C   0  0  0  0  0
    8.7370   -7.2100   -8.0120 C   0  0  0  0  0
    8.9490   -2.8350   -6.0880 O   0  0  0  0  0
   10.7970   -5.9760   -7.8840 C   0  0  0  0  0
    7.0510   -3.8570   -5.6480 O   0  0  0  0  0
    8.0710   -6.1930   -7.3190 C   0  0  0  0  0
   10.1740   -4.9520   -7.1940 C   0  0  0  0  0
   10.0970   -7.1000   -8.3000 C   0  0  0  0  0
    6.0098   -7.6164   -7.4698 H   0  0  0  0  0
    8.1877   -8.0963   -8.3296 H   0  0  0  0  0
   11.8613   -5.8986   -8.1060 H   0  0  0  0  0
    6.6434   -4.7114   -5.8074 H   0  0  0  0  0
   10.7596   -4.0899   -6.8748 H   0  0  0  0  0
   10.6072   -7.8919   -8.8484 H   0  0  0  0  0
  8  1  1  0  0  0
  3  2  1  0  0  0
  2  5  2  0  0  0
  2  7  1  0  0  0
  3  8  4  0  0  0
  3  9  4  0  0  0
  8  4  4  0  0  0
  4 10  4  0  0  0
  9  6  4  0  0  0
  6 10  4  0  0  0
  1 11  1  0  0  0
  4 12  1  0  0  0
  6 13  1  0  0  0
  7 14  1  0  0  0
  9 15  1  0  0  0
 10 16  1  0  0  0
M  END
$$$$
