6nzh_ligand
  -I-interpret- 

 47 49  0  0  0  0  0  0  0  0999 V2000
   15.2690   -4.3980   27.3380 C   0  0  0  0  0
   15.8130   -1.7470   26.5520 C   0  0  0  0  0
    7.7060   -4.6810   32.1810 C   0  0  0  0  0
    7.2220   -3.7990   31.1000 C   0  0  0  0  0
    8.3660   -3.3470   31.9690 C   0  0  0  0  0
   14.1220   -6.4660   26.9440 C   0  0  0  0  0
   15.0600   -5.5260   26.5540 C   0  0  0  0  0
   14.3770   -1.1490   30.8360 C   0  0  0  0  0
   13.5300   -0.5440   31.7610 C   0  0  0  0  0
   12.2780   -0.9290   31.9930 N   0  0  0  0  0
   11.7900   -1.9310   31.2640 C   0  0  0  0  0
   12.5340   -2.5910   30.2840 C   0  0  0  0  0
   13.8760   -2.2490   30.1000 C   0  0  0  0  0
   15.7180   -0.5580   30.5200 C   0  0  0  0  0
   16.2920    0.2180   31.4380 N   0  0  0  0  0
   17.3140    1.1890   31.0910 C   0  0  0  0  0
   16.2480   -0.7970   29.4440 O   0  0  0  0  0
   14.7470   -3.0280   29.2910 N   0  0  0  0  0
   10.5070   -2.2830   31.7000 N   0  0  0  0  0
   14.5290   -4.1930   28.5210 C   0  0  0  0  0
   13.6220   -5.1840   28.9140 C   0  0  0  0  0
   13.4110   -6.2980   28.1140 C   0  0  0  0  0
    9.7530   -3.3470   31.3470 C   0  0  0  0  0
   10.1340   -4.2440   30.5850 O   0  0  0  0  0
   16.5810   -3.2870   26.8690 S   0  0  0  0  0
   17.4490   -3.1350   28.0020 O   0  0  0  0  0
   17.1500   -3.7640   25.6430 O   0  0  0  0  0
   15.2370   -1.4430   27.4260 H   0  0  0  0  0
   16.5765   -0.9985   26.3401 H   0  0  0  0  0
   15.1488   -1.8436   25.6931 H   0  0  0  0  0
    8.0024   -5.7223   32.3075 H   0  0  0  0  0
    7.2883   -5.2580   33.0061 H   0  0  0  0  0
    6.2733   -3.4055   30.7349 H   0  0  0  0  0
    6.9855   -3.8686   30.0383 H   0  0  0  0  0
    8.5760   -2.4756   32.5892 H   0  0  0  0  0
   13.9441   -7.3440   26.3231 H   0  0  0  0  0
   15.6315   -5.6697   25.6371 H   0  0  0  0  0
   13.9180    0.2996   32.3319 H   0  0  0  0  0
   12.0730   -3.3643   29.6695 H   0  0  0  0  0
   16.0053    0.1274   32.4127 H   0  0  0  0  0
   18.1625    0.6756   30.6386 H   0  0  0  0  0
   16.9038    1.9091   30.3830 H   0  0  0  0  0
   17.6404    1.7087   31.9918 H   0  0  0  0  0
   15.7063   -2.6827   29.2605 H   0  0  0  0  0
   10.0832   -1.6489   32.3773 H   0  0  0  0  0
   13.0787   -5.0801   29.8532 H   0  0  0  0  0
   12.6772   -7.0466   28.4127 H   0  0  0  0  0
  1  7  4  0  0  0
 20  1  4  0  0  0
  1 25  1  0  0  0
 25  2  1  0  0  0
  4  3  1  0  0  0
  5  3  1  0  0  0
  5  4  1  0  0  0
 23  5  1  0  0  0
  7  6  4  0  0  0
  6 22  4  0  0  0
  9  8  4  0  0  0
 13  8  4  0  0  0
  8 14  1  0  0  0
 10  9  4  0  0  0
 11 10  4  0  0  0
 11 12  4  0  0  0
 19 11  1  0  0  0
 12 13  4  0  0  0
 13 18  1  0  0  0
 14 15  1  0  0  0
 14 17  2  0  0  0
 15 16  1  0  0  0
 18 20  1  0  0  0
 19 23  1  0  0  0
 20 21  4  0  0  0
 21 22  4  0  0  0
 23 24  2  0  0  0
 25 26  2  0  0  0
 25 27  2  0  0  0
  2 28  1  0  0  0
  2 29  1  0  0  0
  2 30  1  0  0  0
  3 31  1  0  0  0
  3 32  1  0  0  0
  4 33  1  0  0  0
  4 34  1  0  0  0
  5 35  1  0  0  0
  6 36  1  0  0  0
  7 37  1  0  0  0
  9 38  1  0  0  0
 12 39  1  0  0  0
 15 40  1  0  0  0
 16 41  1  0  0  0
 16 42  1  0  0  0
 16 43  1  0  0  0
 18 44  1  0  0  0
 19 45  1  0  0  0
 21 46  1  0  0  0
 22 47  1  0  0  0
M  END
$$$$
