1vr1_ligand
  -I-interpret- 

174176  0  0  0  0  0  0  0  0999 V2000
    5.3570  -13.2390    2.0960 N   0  3  0  0  0
    5.1930  -12.1460    1.0910 C   0  0  0  0  0
    6.4890  -11.3480    0.9920 C   0  0  0  0  0
    7.6330  -11.8020    0.9640 O   0  0  0  0  0
    3.9990  -11.2600    1.4250 C   0  0  0  0  0
    3.6490  -10.1420    0.4690 C   0  0  0  0  0
    4.2640  -10.0650   -0.6190 O   0  0  0  0  0
    2.7780   -9.3110    0.8020 O   0  0  0  0  0
    6.3280  -10.0640    0.9800 N   0  0  0  0  0
    7.0800   -8.8860    0.8630 C   0  0  0  0  0
    6.9430   -8.4100   -0.5920 C   0  0  0  0  0
    7.4370   -9.0200   -1.5270 O   0  0  0  0  0
    8.5250   -8.8210    1.3320 C   0  0  0  0  0
    8.5540   -8.8620    2.8400 C   0  0  0  0  0
    8.1040   -7.7850    3.5900 C   0  0  0  0  0
    9.0010  -10.0030    3.4760 C   0  0  0  0  0
    8.1200   -7.8450    4.9670 C   0  0  0  0  0
    9.0030  -10.0670    4.8660 C   0  0  0  0  0
    8.5560   -8.9860    5.6050 C   0  0  0  0  0
    6.0860   -7.3910   -0.6850 N   0  0  0  0  0
    5.8790   -6.7850   -2.0070 C   0  0  0  0  0
    7.2280   -6.1830   -2.3490 C   0  0  0  0  0
    7.9370   -5.7550   -1.4380 O   0  0  0  0  0
    4.7350   -5.8030   -1.9480 C   0  0  0  0  0
    4.7050   -4.7540   -3.0290 C   0  0  0  0  0
    3.4790   -3.8670   -2.9160 C   0  0  0  0  0
    2.8390   -3.8500   -1.8430 O   0  0  0  0  0
    3.2020   -3.2040   -3.9410 O   0  0  0  0  0
    7.6210   -6.2550   -3.6080 N   0  0  0  0  0
    8.9130   -5.7170   -4.0220 C   0  0  0  0  0
    8.9240   -4.2100   -3.8310 C   0  0  0  0  0
    7.8790   -3.5620   -3.9440 O   0  0  0  0  0
    9.1690   -6.0700   -5.4960 C   0  0  0  0  0
   10.6190   -6.4660   -5.7660 C   0  0  0  0  0
   11.0280   -7.7610   -5.0890 C   0  0  0  0  0
   10.1360   -8.5180   -4.6470 O   0  0  0  0  0
   12.2290   -8.0840   -4.9600 O   0  0  0  0  0
   10.0790   -3.6500   -3.5580 N   0  0  0  0  0
   10.2810   -2.2180   -3.4120 C   0  0  0  0  0
   10.9790   -1.7320   -4.6780 C   0  0  0  0  0
   11.6940   -2.5170   -5.2950 O   0  0  0  0  0
   11.1360   -1.9160   -2.1660 C   0  0  0  0  0
   12.5700   -2.4170   -2.2920 C   0  0  0  0  0
   10.4590   -2.5130   -0.9290 C   0  0  0  0  0
   13.3810   -2.3160   -1.0200 C   0  0  0  0  0
   10.7910   -0.4860   -5.0700 N   0  0  0  0  0
   11.4020    0.0900   -6.2460 C   0  0  0  0  0
   12.8910   -0.1830   -6.3230 C   0  0  0  0  0
   13.5760   -0.2370   -5.3040 O   0  0  0  0  0
   11.1220    1.5860   -6.1180 C   0  0  0  0  0
    9.8180    1.6200   -5.3780 C   0  0  0  0  0
    9.9310    0.5060   -4.3590 C   0  0  0  0  0
   13.3960   -0.3340   -7.5540 N   0  0  0  0  0
   14.7800   -0.6710   -7.8090 C   0  0  0  0  0
   15.8340    0.3730   -7.4730 C   0  0  0  0  0
   16.9230    0.0540   -7.2360 O   0  0  0  0  0
   15.0270   -0.9600   -9.2970 C   0  0  0  0  0
   15.8250   -2.1950   -9.6330 C   0  0  0  0  0
   17.1820   -2.3890   -9.0070 C   0  0  0  0  0
   18.1050   -1.5940   -9.2840 O   0  0  0  0  0
   17.3720   -3.3510   -8.2280 O   0  0  0  0  0
   15.4580    1.6500   -7.5670 N   0  0  0  0  0
   16.2660    2.6720   -6.8860 C   0  0  0  0  0
   16.8380    2.4670   -5.5070 C   0  0  0  0  0
   17.8140    2.9290   -5.1490 O   0  0  0  0  0
   15.7030    4.0560   -7.2340 C   0  0  0  0  0
   15.7140    5.0600   -6.0880 C   0  0  0  0  0
   14.3380    5.6520   -5.8340 C   0  0  0  0  0
   13.3460    4.9000   -6.0060 O   0  0  0  0  0
   14.2360    6.8400   -5.4540 O   0  0  0  0  0
   16.0430    1.6050   -4.6250 N   0  0  0  0  0
   16.5880    1.4220   -3.2720 C   0  0  0  0  0
   17.5560    0.2370   -3.2500 C   0  0  0  0  0
   18.3010    0.0410   -2.2790 O   0  0  0  0  0
   15.3990    1.1730   -2.2550 C   0  0  0  0  0
   14.6090    2.4810   -2.3420 C   0  0  0  0  0
   15.2680    3.7070   -2.1840 C   0  0  0  0  0
   13.2290    2.4550   -2.5790 C   0  0  0  0  0
   14.5480    4.9050   -2.2620 C   0  0  0  0  0
   12.5090    3.6530   -2.6580 C   0  0  0  0  0
   13.1680    4.8780   -2.5000 C   0  0  0  0  0
   12.4690    6.0420   -2.5760 O   0  0  0  0  0
   17.4380   -0.4850   -4.0980 N   0  0  0  0  0
   18.2610   -1.3920   -4.8990 C   0  0  0  0  0
   17.9140   -2.8430   -4.5740 C   0  0  0  0  0
   16.7330   -3.2010   -4.4480 O   0  0  0  0  0
   19.7390   -1.1300   -4.6260 C   0  0  0  0  0
   20.2610    0.0590   -5.4280 C   0  0  0  0  0
   21.2470    0.9260   -4.6480 C   0  0  0  0  0
   20.9860   -0.3570   -6.7090 C   0  0  0  0  0
   18.8386   -3.6871   -4.4320 O   0  0  0  0  0
    6.1623  -13.8124    1.8446 H   0  0  0  0  0
    5.5035  -12.8311    3.0193 H   0  0  0  0  0
    4.5168  -13.8172    2.1079 H   0  0  0  0  0
    4.9854  -12.5859    0.1155 H   0  0  0  0  0
    4.2603  -10.7665    2.3611 H   0  0  0  0  0
    3.1360  -11.9257    1.4170 H   0  0  0  0  0
    4.8867  -10.7926   -0.6855 H   0  0  0  0  0
    5.3399   -9.8363    1.0909 H   0  0  0  0  0
    6.6410   -8.2274    1.6125 H   0  0  0  0  0
    8.9845   -7.8972    0.9804 H   0  0  0  0  0
    9.0804   -9.6686    0.9304 H   0  0  0  0  0
    7.7369   -6.8892    3.0891 H   0  0  0  0  0
    9.3519  -10.8525    2.8901 H   0  0  0  0  0
    7.7870   -6.9880    5.5526 H   0  0  0  0  0
    9.3557  -10.9661    5.3712 H   0  0  0  0  0
    8.5487   -9.0370    6.6938 H   0  0  0  0  0
    5.5904   -7.0439    0.1362 H   0  0  0  0  0
    5.5802   -7.4821   -2.7899 H   0  0  0  0  0
    4.8417   -5.2665   -1.0052 H   0  0  0  0  0
    3.8235   -6.3890   -2.0661 H   0  0  0  0  0
    4.6770   -5.2573   -3.9954 H   0  0  0  0  0
    5.5920   -4.1289   -2.9258 H   0  0  0  0  0
    3.8457   -3.3941   -4.6273 H   0  0  0  0  0
    7.0132   -6.6926   -4.3004 H   0  0  0  0  0
    9.7032   -6.1543   -3.4117 H   0  0  0  0  0
    8.9471   -5.1864   -6.0944 H   0  0  0  0  0
    8.5375   -6.9213   -5.7501 H   0  0  0  0  0
   11.2544   -5.6740   -5.3698 H   0  0  0  0  0
   10.7247   -6.6105   -6.8412 H   0  0  0  0  0
    9.2746   -8.1323   -4.8226 H   0  0  0  0  0
   10.8882   -4.2597   -3.4405 H   0  0  0  0  0
    9.3286   -1.7049   -3.2790 H   0  0  0  0  0
   11.2025   -0.8325   -2.0672 H   0  0  0  0  0
   13.0631   -1.7916   -3.0362 H   0  0  0  0  0
   12.5177   -3.4735   -2.5549 H   0  0  0  0  0
    9.4699   -2.0710   -0.8088 H   0  0  0  0  0
   10.3637   -3.5917   -1.0536 H   0  0  0  0  0
   11.0632   -2.2998   -0.0472 H   0  0  0  0  0
   13.4342   -1.2735   -0.7064 H   0  0  0  0  0
   12.9043   -2.9079   -0.2387 H   0  0  0  0  0
   14.3872   -2.6941   -1.2011 H   0  0  0  0  0
   10.9959   -0.3427   -7.1603 H   0  0  0  0  0
   11.0751    2.0921   -7.0823 H   0  0  0  0  0
   11.9169    2.1228   -5.6002 H   0  0  0  0  0
    8.9666    1.4796   -6.0440 H   0  0  0  0  0
    9.6403    2.5872   -4.9078 H   0  0  0  0  0
   10.3500    0.8344   -3.4078 H   0  0  0  0  0
    8.9655    0.0998   -4.0575 H   0  0  0  0  0
   12.7739   -0.2050   -8.3520 H   0  0  0  0  0
   14.8998   -1.5244   -7.1416 H   0  0  0  0  0
   15.6108   -0.1185   -9.6701 H   0  0  0  0  0
   14.0418   -1.1141   -9.7372 H   0  0  0  0  0
   16.0204   -2.1177  -10.7026 H   0  0  0  0  0
   15.2248   -3.0245   -9.2590 H   0  0  0  0  0
   16.5576   -3.8505   -8.1336 H   0  0  0  0  0
   14.6282    1.9112   -8.0996 H   0  0  0  0  0
   17.2639    2.5402   -7.3041 H   0  0  0  0  0
   14.6602    3.9106   -7.5160 H   0  0  0  0  0
   16.3379    4.4665   -8.0191 H   0  0  0  0  0
   16.3900    5.8726   -6.3542 H   0  0  0  0  0
   16.0331    4.5410   -5.1842 H   0  0  0  0  0
   13.6473    4.0362   -6.2970 H   0  0  0  0  0
   15.1747    1.1644   -4.9288 H   0  0  0  0  0
   17.1317    2.3199   -2.9782 H   0  0  0  0  0
   15.7412    0.9473   -1.2450 H   0  0  0  0  0
   14.8014    0.2959   -2.5033 H   0  0  0  0  0
   16.3422    3.7282   -2.0002 H   0  0  0  0  0
   12.7153    1.5016   -2.7020 H   0  0  0  0  0
   15.0612    5.8585   -2.1376 H   0  0  0  0  0
   11.4349    3.6320   -2.8426 H   0  0  0  0  0
   11.5436    5.8480   -2.7422 H   0  0  0  0  0
   16.4655   -0.5212   -4.4036 H   0  0  0  0  0
   18.0596   -1.2134   -5.9552 H   0  0  0  0  0
   20.3038   -2.0152   -4.9185 H   0  0  0  0  0
   19.8574   -0.9068   -3.5657 H   0  0  0  0  0
   19.3563    0.6213   -5.6592 H   0  0  0  0  0
   20.7573    1.3191   -3.7571 H   0  0  0  0  0
   22.1066    0.3230   -4.3556 H   0  0  0  0  0
   21.5783    1.7525   -5.2766 H   0  0  0  0  0
   21.8391   -0.9858   -6.4543 H   0  0  0  0  0
   20.3008   -0.9136   -7.3484 H   0  0  0  0  0
   21.3329    0.5330   -7.2340 H   0  0  0  0  0
   19.6866   -3.2557   -4.5598 H   0  0  0  0  0
  1  2  1  0  0  0
  2  3  1  0  0  0
  2  5  1  0  0  0
  3  4  2  0  0  0
  3  9  1  0  0  0
  5  6  1  0  0  0
  6  7  1  0  0  0
  6  8  2  0  0  0
  9 10  1  0  0  0
 10 11  1  0  0  0
 10 13  1  0  0  0
 11 12  2  0  0  0
 11 20  1  0  0  0
 13 14  1  0  0  0
 14 15  4  0  0  0
 14 16  4  0  0  0
 15 17  4  0  0  0
 16 18  4  0  0  0
 17 19  4  0  0  0
 18 19  4  0  0  0
 20 21  1  0  0  0
 21 22  1  0  0  0
 21 24  1  0  0  0
 22 23  2  0  0  0
 22 29  1  0  0  0
 24 25  1  0  0  0
 25 26  1  0  0  0
 26 27  2  0  0  0
 26 28  1  0  0  0
 29 30  1  0  0  0
 30 31  1  0  0  0
 30 33  1  0  0  0
 31 32  2  0  0  0
 31 38  1  0  0  0
 33 34  1  0  0  0
 34 35  1  0  0  0
 35 36  1  0  0  0
 35 37  2  0  0  0
 38 39  1  0  0  0
 39 40  1  0  0  0
 39 42  1  0  0  0
 40 41  2  0  0  0
 40 46  1  0  0  0
 42 43  1  0  0  0
 42 44  1  0  0  0
 43 45  1  0  0  0
 46 47  1  0  0  0
 46 52  1  0  0  0
 47 48  1  0  0  0
 47 50  1  0  0  0
 48 49  2  0  0  0
 48 53  1  0  0  0
 50 51  1  0  0  0
 51 52  1  0  0  0
 53 54  1  0  0  0
 54 55  1  0  0  0
 54 57  1  0  0  0
 55 56  2  0  0  0
 55 62  1  0  0  0
 57 58  1  0  0  0
 58 59  1  0  0  0
 59 60  2  0  0  0
 59 61  1  0  0  0
 62 63  1  0  0  0
 63 64  1  0  0  0
 63 66  1  0  0  0
 64 65  2  0  0  0
 64 71  1  0  0  0
 66 67  1  0  0  0
 67 68  1  0  0  0
 68 69  1  0  0  0
 68 70  2  0  0  0
 71 72  1  0  0  0
 72 73  1  0  0  0
 72 75  1  0  0  0
 73 74  2  0  0  0
 73 83  1  0  0  0
 75 76  1  0  0  0
 76 77  4  0  0  0
 76 78  4  0  0  0
 77 79  4  0  0  0
 78 80  4  0  0  0
 79 81  4  0  0  0
 80 81  4  0  0  0
 81 82  1  0  0  0
 83 84  1  0  0  0
 84 85  1  0  0  0
 84 87  1  0  0  0
 85 86  2  0  0  0
 87 88  1  0  0  0
 88 89  1  0  0  0
 88 90  1  0  0  0
 85 91  1  0  0  0
  1 92  1  0  0  0
  1 93  1  0  0  0
  1 94  1  0  0  0
  2 95  1  0  0  0
  5 96  1  0  0  0
  5 97  1  0  0  0
  7 98  1  0  0  0
  9 99  1  0  0  0
 10100  1  0  0  0
 13101  1  0  0  0
 13102  1  0  0  0
 15103  1  0  0  0
 16104  1  0  0  0
 17105  1  0  0  0
 18106  1  0  0  0
 19107  1  0  0  0
 20108  1  0  0  0
 21109  1  0  0  0
 24110  1  0  0  0
 24111  1  0  0  0
 25112  1  0  0  0
 25113  1  0  0  0
 28114  1  0  0  0
 29115  1  0  0  0
 30116  1  0  0  0
 33117  1  0  0  0
 33118  1  0  0  0
 34119  1  0  0  0
 34120  1  0  0  0
 36121  1  0  0  0
 38122  1  0  0  0
 39123  1  0  0  0
 42124  1  0  0  0
 43125  1  0  0  0
 43126  1  0  0  0
 44127  1  0  0  0
 44128  1  0  0  0
 44129  1  0  0  0
 45130  1  0  0  0
 45131  1  0  0  0
 45132  1  0  0  0
 47133  1  0  0  0
 50134  1  0  0  0
 50135  1  0  0  0
 51136  1  0  0  0
 51137  1  0  0  0
 52138  1  0  0  0
 52139  1  0  0  0
 53140  1  0  0  0
 54141  1  0  0  0
 57142  1  0  0  0
 57143  1  0  0  0
 58144  1  0  0  0
 58145  1  0  0  0
 61146  1  0  0  0
 62147  1  0  0  0
 63148  1  0  0  0
 66149  1  0  0  0
 66150  1  0  0  0
 67151  1  0  0  0
 67152  1  0  0  0
 69153  1  0  0  0
 71154  1  0  0  0
 72155  1  0  0  0
 75156  1  0  0  0
 75157  1  0  0  0
 77158  1  0  0  0
 78159  1  0  0  0
 79160  1  0  0  0
 80161  1  0  0  0
 82162  1  0  0  0
 83163  1  0  0  0
 84164  1  0  0  0
 87165  1  0  0  0
 87166  1  0  0  0
 88167  1  0  0  0
 89168  1  0  0  0
 89169  1  0  0  0
 89170  1  0  0  0
 90171  1  0  0  0
 90172  1  0  0  0
 90173  1  0  0  0
 91174  1  0  0  0
M  END
$$$$
