### 
### Created by X-TOOL on Mon Sep 10 21:12:47 2018
### 

@<TRIPOS>MOLECULE
1vr1_ligand
  168   170     1     0     0
SMALL
GAST_HUCK


@<TRIPOS>ATOM
      1 N           5.3570  -13.2390    2.0960 N.4       1 ASP         0.2391
      2 CA          5.1930  -12.1460    1.0910 C.3       1 ASP         0.0765
      3 C           6.4890  -11.3480    0.9920 C.2       1 ASP         0.2285
      4 O           7.6330  -11.8020    0.9640 O.2       1 ASP        -0.3906
      5 CB          3.9990  -11.2600    1.4250 C.3       1 ASP         0.0607
      6 CG          3.6490  -10.1420    0.4690 C.2       1 ASP         0.0425
      7 OD1         4.2640  -10.0650   -0.6190 O.co2     1 ASP        -0.5686
      8 OD2         2.7780   -9.3110    0.8020 O.co2     1 ASP        -0.5686
      9 N           6.3280  -10.0640    0.9800 N.am      1 PHE        -0.2591
     10 CA          7.0800   -8.8860    0.8630 C.3       1 PHE         0.1406
     11 C           6.9430   -8.4100   -0.5920 C.2       1 PHE         0.2060
     12 O           7.4370   -9.0200   -1.5270 O.2       1 PHE        -0.3942
     13 CB          8.5250   -8.8210    1.3320 C.3       1 PHE         0.0214
     14 CG          8.5540   -8.8620    2.8400 C.ar      1 PHE        -0.0386
     15 CD1         8.1040   -7.7850    3.5900 C.ar      1 PHE        -0.0601
     16 CD2         9.0010  -10.0030    3.4760 C.ar      1 PHE        -0.0601
     17 CE1         8.1200   -7.8450    4.9670 C.ar      1 PHE        -0.0686
     18 CE2         9.0030  -10.0670    4.8660 C.ar      1 PHE        -0.0686
     19 CZ          8.5560   -8.9860    5.6050 C.ar      1 PHE        -0.0687
     20 N           6.0860   -7.3910   -0.6850 N.am      1 GLU        -0.2635
     21 CA          5.8790   -6.7850   -2.0070 C.3       1 GLU         0.1325
     22 C           7.2280   -6.1830   -2.3490 C.2       1 GLU         0.2040
     23 O           7.9370   -5.7550   -1.4380 O.2       1 GLU        -0.3944
     24 CB          4.7350   -5.8030   -1.9480 C.3       1 GLU        -0.0008
     25 CG          4.7050   -4.7540   -3.0290 C.3       1 GLU         0.0044
     26 CD          3.4790   -3.8670   -2.9160 C.2       1 GLU         0.0350
     27 OE1         2.8390   -3.8500   -1.8430 O.co2     1 GLU        -0.5690
     28 OE2         3.2020   -3.2040   -3.9410 O.co2     1 GLU        -0.5690
     29 N           7.6210   -6.2550   -3.6080 N.am      1 GLU        -0.2636
     30 CA          8.9130   -5.7170   -4.0220 C.3       1 GLU         0.1325
     31 C           8.9240   -4.2100   -3.8310 C.2       1 GLU         0.2040
     32 O           7.8790   -3.5620   -3.9440 O.2       1 GLU        -0.3944
     33 CB          9.1690   -6.0700   -5.4960 C.3       1 GLU        -0.0008
     34 CG         10.6190   -6.4660   -5.7660 C.3       1 GLU         0.0044
     35 CD         11.0280   -7.7610   -5.0890 C.2       1 GLU         0.0350
     36 OE1        10.1360   -8.5180   -4.6470 O.co2     1 GLU        -0.5690
     37 OE2        12.2290   -8.0840   -4.9600 O.co2     1 GLU        -0.5690
     38 N          10.0790   -3.6500   -3.5580 N.am      1 ILE        -0.2635
     39 CA         10.2810   -2.2180   -3.4120 C.3       1 ILE         0.1337
     40 C          10.9790   -1.7320   -4.6780 C.2       1 ILE         0.2067
     41 O          11.6940   -2.5170   -5.2950 O.2       1 ILE        -0.3942
     42 CB         11.1360   -1.9160   -2.1660 C.3       1 ILE        -0.0037
     43 CG1        12.5700   -2.4170   -2.2920 C.3       1 ILE        -0.0491
     44 CG2        10.4590   -2.5130   -0.9290 C.3       1 ILE        -0.0582
     45 CD1        13.3810   -2.3160   -1.0200 C.3       1 ILE        -0.0648
     46 N          10.7910   -0.4860   -5.0700 N.am      1 PRO        -0.2498
     47 CA         11.4020    0.0900   -6.2460 C.3       1 PRO         0.1338
     48 C          12.8910   -0.1830   -6.3230 C.2       1 PRO         0.2041
     49 O          13.5760   -0.2370   -5.3040 O.2       1 PRO        -0.3944
     50 CB         11.1220    1.5860   -6.1180 C.3       1 PRO        -0.0104
     51 CG          9.8180    1.6200   -5.3780 C.3       1 PRO        -0.0281
     52 CD          9.9310    0.5060   -4.3590 C.3       1 PRO         0.0369
     53 N          13.3960   -0.3340   -7.5540 N.am      1 GLU        -0.2636
     54 CA         14.7800   -0.6710   -7.8090 C.3       1 GLU         0.1325
     55 C          15.8340    0.3730   -7.4730 C.2       1 GLU         0.2040
     56 O          16.9230    0.0540   -7.2360 O.2       1 GLU        -0.3944
     57 CB         15.0270   -0.9600   -9.2970 C.3       1 GLU        -0.0008
     58 CG         15.8250   -2.1950   -9.6330 C.3       1 GLU         0.0044
     59 CD         17.1820   -2.3890   -9.0070 C.2       1 GLU         0.0350
     60 OE1        18.1050   -1.5940   -9.2840 O.co2     1 GLU        -0.5690
     61 OE2        17.3720   -3.3510   -8.2280 O.co2     1 GLU        -0.5690
     62 N          15.4580    1.6500   -7.5670 N.am      1 GLU        -0.2636
     63 CA         16.2660    2.6720   -6.8860 C.3       1 GLU         0.1325
     64 C          16.8380    2.4670   -5.5070 C.2       1 GLU         0.2041
     65 O          17.8140    2.9290   -5.1490 O.2       1 GLU        -0.3944
     66 CB         15.7030    4.0560   -7.2340 C.3       1 GLU        -0.0008
     67 CG         15.7140    5.0600   -6.0880 C.3       1 GLU         0.0044
     68 CD         14.3380    5.6520   -5.8340 C.2       1 GLU         0.0350
     69 OE1        13.3460    4.9000   -6.0060 O.co2     1 GLU        -0.5690
     70 OE2        14.2360    6.8400   -5.4540 O.co2     1 GLU        -0.5690
     71 N          16.0430    1.6050   -4.6250 N.am      1 TYS        -0.2621
     72 CA         16.5880    1.4220   -3.2720 C.3       1 TYS         0.1390
     73 C          17.5560    0.2370   -3.2500 C.2       1 TYS         0.2052
     74 O          18.3010    0.0410   -2.2790 O.2       1 TYS        -0.3943
     75 CB         15.3990    1.1730   -2.2550 C.3       1 TYS         0.0163
     76 CG         14.6090    2.4810   -2.3420 C.ar      1 TYS        -0.0493
     77 CD1        15.2680    3.7070   -2.1840 C.ar      1 TYS        -0.0685
     78 CD2        13.2290    2.4550   -2.5790 C.ar      1 TYS        -0.0685
     79 CE1        14.5480    4.9050   -2.2620 C.ar      1 TYS        -0.0398
     80 CE2        12.5090    3.6530   -2.6580 C.ar      1 TYS        -0.0398
     81 CZ         13.1680    4.8780   -2.5000 C.ar      1 TYS         0.0805
     82 OH         12.4690    6.0420   -2.5760 O.3       1 TYS        -0.3376
     83 N          17.4380   -0.4850   -4.0980 N.am      1 LEU        -0.2693
     84 CA         18.2610   -1.3920   -4.8990 C.3       1 LEU         0.0946
     85 C          17.9140   -2.8430   -4.5740 C.2       1 LEU         0.0601
     86 O          16.7330   -3.2010   -4.4480 O.co2     1 LEU        -0.5666
     87 CB         19.7390   -1.1300   -4.6260 C.3       1 LEU        -0.0156
     88 CG         20.2610    0.0590   -5.4280 C.3       1 LEU        -0.0431
     89 CD1        21.2470    0.9260   -4.6480 C.3       1 LEU        -0.0625
     90 CD2        20.9860   -0.3570   -6.7090 C.3       1 LEU        -0.0625
     91 O1         18.8386   -3.6871   -4.4320 O.co2     1 LEU        -0.5666
     92 H1          4.5005  -13.7665    2.1615 H         1 ASP         0.2016
     93 H2          5.5747  -12.8388    2.9952 H         1 ASP         0.2016
     94 H3          6.1063  -13.8493    1.8095 H         1 ASP         0.2016
     95 H4          5.0019  -12.6073    0.1109 H         1 ASP         0.1117
     96 H5          4.1974  -10.8011    2.4048 H         1 ASP         0.0512
     97 H6          3.1178  -11.9143    1.4982 H         1 ASP         0.0512
     98 H7          5.3593   -9.8408    1.0887 H         1 PHE         0.1886
     99 H8          6.5582   -8.1509    1.4933 H         1 PHE         0.0823
    100 H9          8.9855   -7.8863    0.9796 H         1 PHE         0.0474
    101 H10         9.0826   -9.6793    0.9289 H         1 PHE         0.0474
    102 H11         7.7389   -6.8941    3.0918 H         1 PHE         0.0557
    103 H12         9.3499  -10.8478    2.8933 H         1 PHE         0.0557
    104 H13         7.7889   -6.9928    5.5493 H         1 PHE         0.0599
    105 H14         9.3537  -10.9612    5.3685 H         1 PHE         0.0599
    106 H15         8.5488   -9.0367    6.6878 H         1 PHE         0.0559
    107 H16         5.6001   -7.0508    0.1201 H         1 GLU         0.1883
    108 H17         5.6283   -7.5586   -2.7478 H         1 GLU         0.0801
    109 H18         4.7862   -5.2853   -0.9788 H         1 GLU         0.0330
    110 H19         3.7975   -6.3752   -2.0090 H         1 GLU         0.0330
    111 H20         4.6952   -5.2526   -4.0095 H         1 GLU         0.0433
    112 H21         5.6062   -4.1290   -2.9444 H         1 GLU         0.0433
    113 H22         7.0251   -6.6840   -4.2868 H         1 GLU         0.1883
    114 H23         9.7055   -6.1629   -3.4031 H         1 GLU         0.0801
    115 H24         8.9226   -5.1948   -6.1150 H         1 GLU         0.0330
    116 H25         8.5172   -6.9112   -5.7744 H         1 GLU         0.0330
    117 H26        11.2737   -5.6606   -5.4016 H         1 GLU         0.0433
    118 H27        10.7516   -6.5835   -6.8516 H         1 GLU         0.0433
    119 H28        10.8723   -4.2478   -3.4428 H         1 ILE         0.1883
    120 H29         9.3084   -1.7147   -3.3090 H         1 ILE         0.0803
    121 H30        11.1765   -0.8237   -2.0428 H         1 ILE         0.0345
    122 H31        13.0744   -1.8245   -3.0695 H         1 ILE         0.0267
    123 H32        12.5398   -3.4732   -2.5977 H         1 ILE         0.0267
    124 H33         9.4273   -2.1380   -0.8588 H         1 ILE         0.0235
    125 H34        11.0177   -2.2200   -0.0279 H         1 ILE         0.0235
    126 H35        10.4457   -3.6098   -1.0117 H         1 ILE         0.0235
    127 H36        14.3967   -2.6973   -1.2015 H         1 ILE         0.0230
    128 H37        12.9009   -2.9130   -0.2306 H         1 ILE         0.0230
    129 H38        13.4355   -1.2643   -0.7024 H         1 ILE         0.0230
    130 H39        10.9244   -0.3110   -7.1521 H         1 PRO         0.0802
    131 H40        11.0280    2.0572   -7.1075 H         1 PRO         0.0313
    132 H41        11.9150    2.0896   -5.5458 H         1 PRO         0.0313
    133 H42         8.9773    1.4363   -6.0631 H         1 PRO         0.0287
    134 H43         9.6792    2.5905   -4.8792 H         1 PRO         0.0287
    135 H44        10.4104    0.8588   -3.4340 H         1 PRO         0.0524
    136 H45         8.9445    0.0810   -4.1218 H         1 PRO         0.0524
    137 H46        12.7861   -0.2075   -8.3363 H         1 GLU         0.1883
    138 H47        14.9956   -1.5755   -7.2214 H         1 GLU         0.0801
    139 H48        15.5609   -0.0955   -9.7185 H         1 GLU         0.0330
    140 H49        14.0451   -1.0573   -9.7833 H         1 GLU         0.0330
    141 H50        15.9715   -2.1957  -10.7232 H         1 GLU         0.0433
    142 H51        15.2118   -3.0616   -9.3448 H         1 GLU         0.0433
    143 H52        14.6445    1.9061   -8.0892 H         1 GLU         0.1883
    144 H53        17.1940    2.6425   -7.4759 H         1 GLU         0.0801
    145 H54        14.6621    3.9279   -7.5659 H         1 GLU         0.0330
    146 H55        16.3021    4.4713   -8.0578 H         1 GLU         0.0330
    147 H56        16.4102    5.8745   -6.3366 H         1 GLU         0.0433
    148 H57        16.0556    4.5517   -5.1743 H         1 GLU         0.0433
    149 H58        15.1917    1.1731   -4.9228 H         1 TYS         0.1885
    150 H59        17.1303    2.3321   -2.9761 H         1 TYS         0.0821
    151 H60        15.7766    1.0038   -1.2358 H         1 TYS         0.0453
    152 H61        14.7836    0.3156   -2.5652 H         1 TYS         0.0453
    153 H62        16.3363    3.7281   -2.0012 H         1 TYS         0.0530
    154 H63        12.7181    1.5068   -2.7013 H         1 TYS         0.0530
    155 H64        15.0584    5.8533   -2.1382 H         1 TYS         0.0525
    156 H65        11.4409    3.6321   -2.8416 H         1 TYS         0.0525
    157 H66        11.7995    6.0526   -1.9021 H         1 TYS         0.2458
    158 H67        16.4846   -0.5205   -4.3976 H         1 LEU         0.1875
    159 H68        18.0583   -1.2089   -5.9645 H         1 LEU         0.0726
    160 H69        20.3160   -2.0254   -4.9003 H         1 LEU         0.0308
    161 H70        19.8718   -0.9223   -3.5540 H         1 LEU         0.0308
    162 H71        19.3916    0.6753   -5.7004 H         1 LEU         0.0297
    163 H72        21.5821    1.7606   -5.2814 H         1 LEU         0.0232
    164 H73        22.1151    0.3186   -4.3523 H         1 LEU         0.0232
    165 H74        20.7540    1.3234   -3.7486 H         1 LEU         0.0232
    166 H75        20.3219   -0.9883   -7.3176 H         1 LEU         0.0232
    167 H76        21.8932   -0.9225   -6.4498 H         1 LEU         0.0232
    168 H77        21.2642    0.5405   -7.2809 H         1 LEU         0.0232
@<TRIPOS>BOND
     1    1    2 1  
     2    2    3 1  
     3    2    5 1  
     4    3    4 2  
     5    3    9 am 
     6    5    6 1  
     7    6    7 ar 
     8    6    8 ar 
     9    9   10 1  
    10   10   11 1  
    11   10   13 1  
    12   11   12 2  
    13   11   20 am 
    14   13   14 1  
    15   14   15 ar 
    16   14   16 ar 
    17   15   17 ar 
    18   16   18 ar 
    19   17   19 ar 
    20   18   19 ar 
    21   20   21 1  
    22   21   22 1  
    23   21   24 1  
    24   22   23 2  
    25   22   29 am 
    26   24   25 1  
    27   25   26 1  
    28   26   27 ar 
    29   26   28 ar 
    30   29   30 1  
    31   30   31 1  
    32   30   33 1  
    33   31   32 2  
    34   31   38 am 
    35   33   34 1  
    36   34   35 1  
    37   35   36 ar 
    38   35   37 ar 
    39   38   39 1  
    40   39   40 1  
    41   39   42 1  
    42   40   41 2  
    43   40   46 am 
    44   42   43 1  
    45   42   44 1  
    46   43   45 1  
    47   46   47 1  
    48   46   52 1  
    49   47   48 1  
    50   47   50 1  
    51   48   49 2  
    52   48   53 am 
    53   50   51 1  
    54   51   52 1  
    55   53   54 1  
    56   54   55 1  
    57   54   57 1  
    58   55   56 2  
    59   55   62 am 
    60   57   58 1  
    61   58   59 1  
    62   59   60 ar 
    63   59   61 ar 
    64   62   63 1  
    65   63   64 1  
    66   63   66 1  
    67   64   65 2  
    68   64   71 am 
    69   66   67 1  
    70   67   68 1  
    71   68   69 ar 
    72   68   70 ar 
    73   71   72 1  
    74   72   73 1  
    75   72   75 1  
    76   73   74 2  
    77   73   83 am 
    78   75   76 1  
    79   76   77 ar 
    80   76   78 ar 
    81   77   79 ar 
    82   78   80 ar 
    83   79   81 ar 
    84   80   81 ar 
    85   81   82 1  
    86   83   84 1  
    87   84   85 1  
    88   84   87 1  
    89   85   86 ar 
    90   87   88 1  
    91   88   89 1  
    92   88   90 1  
    93   85   91 ar 
    94    1   92 1  
    95    1   93 1  
    96    1   94 1  
    97    2   95 1  
    98    5   96 1  
    99    5   97 1  
   100    9   98 1  
   101   10   99 1  
   102   13  100 1  
   103   13  101 1  
   104   15  102 1  
   105   16  103 1  
   106   17  104 1  
   107   18  105 1  
   108   19  106 1  
   109   20  107 1  
   110   21  108 1  
   111   24  109 1  
   112   24  110 1  
   113   25  111 1  
   114   25  112 1  
   115   29  113 1  
   116   30  114 1  
   117   33  115 1  
   118   33  116 1  
   119   34  117 1  
   120   34  118 1  
   121   38  119 1  
   122   39  120 1  
   123   42  121 1  
   124   43  122 1  
   125   43  123 1  
   126   44  124 1  
   127   44  125 1  
   128   44  126 1  
   129   45  127 1  
   130   45  128 1  
   131   45  129 1  
   132   47  130 1  
   133   50  131 1  
   134   50  132 1  
   135   51  133 1  
   136   51  134 1  
   137   52  135 1  
   138   52  136 1  
   139   53  137 1  
   140   54  138 1  
   141   57  139 1  
   142   57  140 1  
   143   58  141 1  
   144   58  142 1  
   145   62  143 1  
   146   63  144 1  
   147   66  145 1  
   148   66  146 1  
   149   67  147 1  
   150   67  148 1  
   151   71  149 1  
   152   72  150 1  
   153   75  151 1  
   154   75  152 1  
   155   77  153 1  
   156   78  154 1  
   157   79  155 1  
   158   80  156 1  
   159   82  157 1  
   160   83  158 1  
   161   84  159 1  
   162   87  160 1  
   163   87  161 1  
   164   88  162 1  
   165   89  163 1  
   166   89  164 1  
   167   89  165 1  
   168   90  166 1  
   169   90  167 1  
   170   90  168 1  
@<TRIPOS>SUBSTRUCTURE
     1 ASP         1

