4yo8_ligand
  -I-interpret- 

 43 44  0  0  0  0  0  0  0  0999 V2000
   -5.5250   17.3280  -24.3980 C   0  0  0  0  0
   -6.7760   18.0880  -24.7460 N   0  3  0  0  0
   -6.6580   19.3520  -23.9770 C   0  0  0  0  0
   -7.4880   19.3940  -22.6990 C   0  0  0  0  0
   -8.0980   20.8050  -22.5740 C   0  0  0  0  0
   -8.6290   21.8200  -20.3270 C   0  0  0  0  0
   -9.6050   21.8550  -19.1700 C   0  0  0  0  0
   -6.8010   18.1470  -26.2190 C   0  0  0  0  0
   -6.6810   19.4910  -26.8960 C   0  0  0  0  0
   -5.6870   20.5540  -26.7670 C   0  0  0  0  0
   -4.5850   20.6290  -26.0240 N   0  0  0  0  0
   -7.5600   19.9960  -27.8490 C   0  0  0  0  0
   -7.1930   21.2350  -28.2650 N   0  0  0  0  0
   -6.0880   21.6320  -27.6620 C   0  0  0  0  0
   -5.2110   22.8110  -27.6940 C   0  0  0  0  0
   -5.4650   23.8670  -28.4830 N   0  0  0  0  0
   -4.1270   22.7880  -26.9030 N   0  0  0  0  0
   -3.8320   21.7450  -26.1220 C   0  0  0  0  0
   -5.4990   17.2130  -22.9950 O   0  0  0  0  0
   -9.1480   20.9530  -21.4670 C   0  0  0  0  0
   -4.6397   17.8497  -24.7615 H   0  0  0  0  0
   -5.5242   16.3448  -24.8685 H   0  0  0  0  0
   -7.6829   17.6959  -24.4927 H   0  0  0  0  0
   -7.0227   20.1524  -24.6208 H   0  0  0  0  0
   -5.6132   19.4498  -23.6823 H   0  0  0  0  0
   -6.8604   19.1768  -21.8347 H   0  0  0  0  0
   -8.2780   18.6440  -22.7379 H   0  0  0  0  0
   -8.5997   21.0186  -23.5178 H   0  0  0  0  0
   -7.2808   21.4834  -22.3290 H   0  0  0  0  0
   -7.6880   21.3990  -19.9730 H   0  0  0  0  0
   -8.4961   22.8362  -20.6982 H   0  0  0  0  0
  -10.5561   22.2642  -19.5109 H   0  0  0  0  0
   -9.7572   20.8433  -18.7940 H   0  0  0  0  0
   -9.2019   22.4826  -18.3752 H   0  0  0  0  0
   -7.7871   17.7768  -26.4995 H   0  0  0  0  0
   -5.9200   17.5904  -26.5387 H   0  0  0  0  0
   -8.4362   19.4620  -28.2167 H   0  0  0  0  0
   -6.2882   23.8673  -29.0853 H   0  0  0  0  0
   -4.8348   24.6690  -28.4802 H   0  0  0  0  0
   -2.9224   21.7988  -25.5239 H   0  0  0  0  0
   -4.7121   16.7316  -22.7290 H   0  0  0  0  0
   -9.3801   19.9634  -21.0734 H   0  0  0  0  0
  -10.0339   21.4275  -21.8892 H   0  0  0  0  0
  2  1  1  0  0  0
  1 19  1  0  0  0
  3  2  1  0  0  0
  2  8  1  0  0  0
  4  3  1  0  0  0
  5  4  1  0  0  0
 20  5  1  0  0  0
  6  7  1  0  0  0
  6 20  1  0  0  0
  8  9  1  0  0  0
  9 10  4  0  0  0
  9 12  4  0  0  0
 10 11  4  0  0  0
 10 14  4  0  0  0
 11 18  4  0  0  0
 12 13  4  0  0  0
 13 14  4  0  0  0
 14 15  4  0  0  0
 15 16  1  0  0  0
 15 17  4  0  0  0
 17 18  4  0  0  0
  1 21  1  0  0  0
  1 22  1  0  0  0
  2 23  1  0  0  0
  3 24  1  0  0  0
  3 25  1  0  0  0
  4 26  1  0  0  0
  4 27  1  0  0  0
  5 28  1  0  0  0
  5 29  1  0  0  0
  6 30  1  0  0  0
  6 31  1  0  0  0
  7 32  1  0  0  0
  7 33  1  0  0  0
  7 34  1  0  0  0
  8 35  1  0  0  0
  8 36  1  0  0  0
 12 37  1  0  0  0
 16 38  1  0  0  0
 16 39  1  0  0  0
 18 40  1  0  0  0
 19 41  1  0  0  0
 20 42  1  0  0  0
 20 43  1  0  0  0
M  END
$$$$
