4nrc_ligand
  -I-interpret- 

 22 23  0  0  0  0  0  0  0  0999 V2000
  -24.7950  -11.5230    0.6430 C   0  0  0  0  0
  -25.9850  -10.7100    0.5590 N   0  0  0  0  0
  -25.8010   -9.2690    0.7590 C   0  0  0  0  0
  -26.9580   -8.3780    0.6470 C   0  0  0  0  0
  -28.3330   -8.8660    0.4190 C   0  0  0  0  0
  -29.2340   -7.7510    0.3340 C   0  0  0  0  0
  -28.4730   -6.4560    0.4910 C   0  0  0  0  0
  -26.8860   -6.7520    0.6870 S   0  0  0  0  0
  -30.5770   -7.9360    0.1470 O   0  0  0  0  0
  -31.0640   -9.2180   -0.0200 C   0  0  0  0  0
  -30.2270  -10.4050    0.4610 C   0  0  0  0  0
  -28.7830  -10.2480    0.3350 O   0  0  0  0  0
  -24.7190   -8.7390    0.9710 O   0  0  0  0  0
  -24.0828  -11.2020   -0.1172 H   0  0  0  0  0
  -24.3488  -11.4107    1.6311 H   0  0  0  0  0
  -25.0580  -12.5679    0.4783 H   0  0  0  0  0
  -26.9021  -11.1151    0.3711 H   0  0  0  0  0
  -28.9236   -5.4636    0.4752 H   0  0  0  0  0
  -31.1386   -9.3491   -1.0995 H   0  0  0  0  0
  -31.9700   -9.2527    0.5851 H   0  0  0  0  0
  -30.5026  -11.2530   -0.1660 H   0  0  0  0  0
  -30.4347  -10.5200    1.5248 H   0  0  0  0  0
  1  2  1  0  0  0
  2  3  1  0  0  0
  3  4  1  0  0  0
  3 13  2  0  0  0
  4  5  4  0  0  0
  4  8  4  0  0  0
  5  6  4  0  0  0
  5 12  1  0  0  0
  6  7  4  0  0  0
  6  9  1  0  0  0
  7  8  4  0  0  0
  9 10  1  0  0  0
 10 11  1  0  0  0
 11 12  1  0  0  0
  1 14  1  0  0  0
  1 15  1  0  0  0
  1 16  1  0  0  0
  2 17  1  0  0  0
  7 18  1  0  0  0
 10 19  1  0  0  0
 10 20  1  0  0  0
 11 21  1  0  0  0
 11 22  1  0  0  0
M  END
$$$$
