3cpb_ligand
  -I-interpret- 

 53 55  0  0  0  0  0  0  0  0999 V2000
   15.3430   41.1850   33.3450 C   0  0  0  0  0
   14.1250   41.7170   34.0900 C   0  0  0  0  0
   13.4890   40.4450   34.6370 C   0  0  0  0  0
   13.5520   39.5050   33.4370 C   0  0  0  0  0
   14.8210   39.9180   32.6670 C   0  0  0  0  0
   15.8800   38.8240   32.7780 C   0  0  0  0  0
   16.2110   38.3040   31.3820 C   0  0  0  0  0
   16.7000   36.9160   31.4470 N   0  0  0  0  0
   15.8810   35.8790   31.6190 C   0  0  0  0  0
   14.6640   35.9970   31.7310 O   0  0  0  0  0
   16.5210   34.4790   31.6580 C   0  0  0  0  0
   15.7170   33.3890   31.3290 C   0  0  0  0  0
   17.8580   34.2630   31.9990 C   0  0  0  0  0
   18.3700   32.9630   32.0060 C   0  0  0  0  0
   17.5560   31.8750   31.6800 C   0  0  0  0  0
   18.1530   30.4630   31.7000 C   0  0  0  0  0
   16.2160   32.0940   31.3490 C   0  0  0  0  0
   15.2590   30.9740   30.9490 C   0  0  0  0  0
   14.9920   30.8290   29.7590 O   0  0  0  0  0
   14.7630   30.2180   31.9330 N   0  0  0  0  0
   13.9060   29.2000   31.7200 C   0  0  0  0  0
   13.4990   28.8210   30.4370 C   0  0  0  0  0
   12.6090   27.7660   30.2850 C   0  0  0  0  0
   12.1450   27.1090   31.4220 C   0  0  0  0  0
   11.2970   26.0930   31.2940 N   0  0  0  0  0
   12.5470   27.4910   32.6470 N   0  0  0  0  0
   13.3940   28.4980   32.8140 C   0  0  0  0  0
   16.1851   40.9874   34.0082 H   0  0  0  0  0
   15.7444   41.9053   32.6322 H   0  0  0  0  0
   13.4519   42.2900   33.4523 H   0  0  0  0  0
   14.3817   42.4345   34.8694 H   0  0  0  0  0
   12.4755   40.5985   35.0077 H   0  0  0  0  0
   14.0025   40.0532   35.5150 H   0  0  0  0  0
   12.6602   39.5858   32.8155 H   0  0  0  0  0
   13.5910   38.4604   33.7459 H   0  0  0  0  0
   14.6013   40.0800   31.6117 H   0  0  0  0  0
   15.5001   38.0076   33.3923 H   0  0  0  0  0
   16.7796   39.2307   33.2401 H   0  0  0  0  0
   16.9885   38.9319   30.9468 H   0  0  0  0  0
   15.3081   38.3317   30.7720 H   0  0  0  0  0
   17.7011   36.7425   31.3572 H   0  0  0  0  0
   14.6766   33.5568   31.0507 H   0  0  0  0  0
   18.4994   35.1052   32.2586 H   0  0  0  0  0
   19.4147   32.7959   32.2683 H   0  0  0  0  0
   18.9780   30.4086   30.9897 H   0  0  0  0  0
   18.5191   30.2389   32.7019 H   0  0  0  0  0
   17.3848   29.7412   31.4226 H   0  0  0  0  0
   15.0467   30.4212   32.8914 H   0  0  0  0  0
   13.8777   29.3500   29.5624 H   0  0  0  0  0
   12.2792   27.4574   29.2930 H   0  0  0  0  0
   10.9899   25.7988   30.3669 H   0  0  0  0  0
   10.9536   25.6078   32.1229 H   0  0  0  0  0
   13.6957   28.7827   33.8220 H   0  0  0  0  0
  1  2  1  0  0  0
  1  5  1  0  0  0
  2  3  1  0  0  0
  3  4  1  0  0  0
  4  5  1  0  0  0
  5  6  1  0  0  0
  6  7  1  0  0  0
  7  8  1  0  0  0
  8  9  1  0  0  0
  9 10  2  0  0  0
  9 11  1  0  0  0
 11 12  4  0  0  0
 11 13  4  0  0  0
 12 17  4  0  0  0
 13 14  4  0  0  0
 14 15  4  0  0  0
 15 16  1  0  0  0
 15 17  4  0  0  0
 17 18  1  0  0  0
 18 19  2  0  0  0
 18 20  1  0  0  0
 20 21  1  0  0  0
 21 22  4  0  0  0
 21 27  4  0  0  0
 22 23  4  0  0  0
 23 24  4  0  0  0
 24 25  1  0  0  0
 24 26  4  0  0  0
 26 27  4  0  0  0
  1 28  1  0  0  0
  1 29  1  0  0  0
  2 30  1  0  0  0
  2 31  1  0  0  0
  3 32  1  0  0  0
  3 33  1  0  0  0
  4 34  1  0  0  0
  4 35  1  0  0  0
  5 36  1  0  0  0
  6 37  1  0  0  0
  6 38  1  0  0  0
  7 39  1  0  0  0
  7 40  1  0  0  0
  8 41  1  0  0  0
 12 42  1  0  0  0
 13 43  1  0  0  0
 14 44  1  0  0  0
 16 45  1  0  0  0
 16 46  1  0  0  0
 16 47  1  0  0  0
 20 48  1  0  0  0
 22 49  1  0  0  0
 23 50  1  0  0  0
 25 51  1  0  0  0
 25 52  1  0  0  0
 27 53  1  0  0  0
M  END
$$$$
