4xj0_ligand
  -I-interpret- 

 53 56  0  0  0  0  0  0  0  0999 V2000
  -14.7300  -36.6540  -19.8010 C   0  0  0  0  0
  -13.9410  -35.8310  -20.5970 C   0  0  0  0  0
  -13.0400  -36.3920  -21.4980 C   0  0  0  0  0
  -12.2920  -35.4440  -22.4140 C   0  0  0  0  0
  -14.2550  -36.0750  -25.5030 C   0  0  0  0  0
  -14.6020  -33.7440  -24.8880 C   0  0  0  0  0
  -17.1120  -33.5500  -28.5050 C   0  0  0  0  0
  -16.6190  -35.7980  -28.8410 C   0  0  0  0  0
  -16.8070  -39.3560  -30.0970 C   0  0  0  0  0
  -12.9610  -37.7870  -21.6250 C   0  0  0  0  0
  -13.7410  -38.6140  -20.8250 C   0  0  0  0  0
  -14.6200  -38.0330  -19.9200 C   0  0  0  0  0
  -10.8720  -35.8900  -22.7740 C   0  0  0  0  0
  -10.1260  -35.9080  -21.5620 O   0  0  0  0  0
  -13.1550  -35.1720  -23.5850 N   0  0  0  0  0
  -13.4290  -36.2120  -24.4480 C   0  0  0  0  0
  -14.8770  -34.8200  -25.7460 C   0  0  0  0  0
  -13.7300  -33.9420  -23.7800 C   0  0  0  0  0
  -13.5050  -32.9990  -23.0320 O   0  0  0  0  0
  -15.7600  -34.7210  -26.9410 C   0  0  0  0  0
  -16.3940  -33.5250  -27.3170 C   0  0  0  0  0
  -17.2180  -34.6740  -29.2200 N   0  0  0  0  0
  -15.9020  -35.8090  -27.7250 N   0  0  0  0  0
  -16.7100  -36.9340  -29.6460 N   0  0  0  0  0
  -16.1110  -38.2330  -29.2960 C   0  0  0  0  0
  -16.1020  -40.7150  -29.9030 C   0  0  0  0  0
  -14.6690  -40.6150  -30.0410 O   0  0  0  0  0
  -14.0010  -39.6170  -29.2470 C   0  0  0  0  0
  -14.5940  -38.2350  -29.5780 C   0  0  0  0  0
  -15.5990  -36.1360  -18.9040 F   0  0  0  0  0
  -15.6240  -39.0120  -18.9170 Cl  0  0  0  0  0
  -14.0278  -34.7475  -20.5156 H   0  0  0  0  0
  -12.1024  -34.5138  -21.8784 H   0  0  0  0  0
  -14.4450  -36.9197  -26.1652 H   0  0  0  0  0
  -15.0511  -32.7673  -25.0679 H   0  0  0  0  0
  -17.5961  -32.6400  -28.8595 H   0  0  0  0  0
  -16.7698  -39.0973  -31.1552 H   0  0  0  0  0
  -17.8332  -39.4471  -29.7409 H   0  0  0  0  0
  -12.2827  -38.2258  -22.3567 H   0  0  0  0  0
  -13.6642  -39.6982  -20.9064 H   0  0  0  0  0
  -10.4228  -35.2071  -23.4951 H   0  0  0  0  0
  -10.8818  -36.8766  -23.2374 H   0  0  0  0  0
   -9.2252  -36.1841  -21.7461 H   0  0  0  0  0
  -12.9602  -37.1798  -24.2700 H   0  0  0  0  0
  -16.3257  -32.6239  -26.7075 H   0  0  0  0  0
  -17.2200  -36.8606  -30.5263 H   0  0  0  0  0
  -16.2540  -38.4078  -28.2297 H   0  0  0  0  0
  -16.4682  -41.3977  -30.6697 H   0  0  0  0  0
  -16.3203  -41.0677  -28.8950 H   0  0  0  0  0
  -12.9341  -39.6227  -29.4703 H   0  0  0  0  0
  -14.1423  -39.8340  -28.1882 H   0  0  0  0  0
  -14.1121  -37.4792  -28.9578 H   0  0  0  0  0
  -14.4240  -38.0139  -30.6317 H   0  0  0  0  0
  2  1  4  0  0  0
  1 12  4  0  0  0
  1 30  1  0  0  0
  3  2  4  0  0  0
  4  3  1  0  0  0
  3 10  4  0  0  0
  4 13  1  0  0  0
 15  4  1  0  0  0
  5 16  2  0  0  0
 17  5  1  0  0  0
 17  6  2  0  0  0
  6 18  1  0  0  0
  7 21  4  0  0  0
 22  7  4  0  0  0
  8 22  4  0  0  0
  8 23  4  0  0  0
 24  8  1  0  0  0
 25  9  1  0  0  0
  9 26  1  0  0  0
 10 11  4  0  0  0
 11 12  4  0  0  0
 12 31  1  0  0  0
 13 14  1  0  0  0
 16 15  1  0  0  0
 18 15  1  0  0  0
 20 17  1  0  0  0
 18 19  2  0  0  0
 20 21  4  0  0  0
 23 20  4  0  0  0
 24 25  1  0  0  0
 25 29  1  0  0  0
 26 27  1  0  0  0
 27 28  1  0  0  0
 28 29  1  0  0  0
  2 32  1  0  0  0
  4 33  1  0  0  0
  5 34  1  0  0  0
  6 35  1  0  0  0
  7 36  1  0  0  0
  9 37  1  0  0  0
  9 38  1  0  0  0
 10 39  1  0  0  0
 11 40  1  0  0  0
 13 41  1  0  0  0
 13 42  1  0  0  0
 14 43  1  0  0  0
 16 44  1  0  0  0
 21 45  1  0  0  0
 24 46  1  0  0  0
 25 47  1  0  0  0
 26 48  1  0  0  0
 26 49  1  0  0  0
 28 50  1  0  0  0
 28 51  1  0  0  0
 29 52  1  0  0  0
 29 53  1  0  0  0
M  END
$$$$
