4gr3_ligand
  -I-interpret- 

 77 79  0  0  0  0  0  0  0  0999 V2000
    9.7030   26.3050    4.6990 O   0  0  0  0  0
    6.3090   22.4290    5.7260 N   0  0  0  0  0
    7.4530   22.7090    5.1200 O   0  0  0  0  0
    8.8210   26.5950    3.8510 C   0  0  0  0  0
    8.4300   25.6130    2.7890 C   0  0  0  0  0
    8.5310   24.2150    3.3760 C   0  0  0  0  0
    6.0270   24.1220    4.2670 C   0  0  0  0  0
    5.4020   23.3020    5.2260 C   0  0  0  0  0
    3.9750   23.2550    5.6560 C   0  0  0  0  0
    2.9750   23.9760    5.0150 C   0  0  0  0  0
    1.6490   23.8750    5.4480 C   0  0  0  0  0
    1.3220   23.0290    6.5080 C   0  0  0  0  0
    2.3230   22.2950    7.1370 C   0  0  0  0  0
    3.6430   22.3990    6.7020 C   0  0  0  0  0
    7.3640   23.7230    4.2110 C   0  0  0  0  0
    9.4750   25.7820    1.6790 C   0  0  0  0  0
    9.1250   24.9510    0.1040 P   0  0  0  0  0
    9.4710   23.4720    0.1530 O   0  0  0  0  0
    7.7220   25.2760   -0.3540 O   0  0  0  0  0
   10.1890   25.6630   -1.0960 C   0  0  0  0  0
    9.6850   26.1500   -2.3010 C   0  0  0  0  0
   10.5550   26.7050   -3.2410 C   0  0  0  0  0
   11.9240   26.7560   -2.9870 C   0  0  0  0  0
   13.1200   27.5090   -4.2600 Br  0  0  0  0  0
   12.4260   26.2610   -1.7860 C   0  0  0  0  0
   11.5530   25.7160   -0.8490 C   0  0  0  0  0
    8.1910   27.7610    3.8330 N   0  0  0  0  0
    8.6000   28.8420    4.7180 C   0  0  0  0  0
    7.8140   28.8760    6.0230 C   0  0  0  0  0
    6.6560   28.4640    6.0900 O   0  0  0  0  0
    8.5050   30.1880    3.9900 C   0  0  0  0  0
    9.4130   30.2920    2.7720 C   0  0  0  0  0
    9.3730   31.6630    2.1320 C   0  0  0  0  0
    8.6490   31.8310    1.1280 O   0  0  0  0  0
   10.0700   32.5700    2.6320 O   0  0  0  0  0
    8.4610   29.3690    7.0710 N   0  0  0  0  0
    7.7900   29.5890    8.3360 C   0  0  0  0  0
    6.6770   30.6270    8.1600 C   0  0  0  0  0
    5.5210   30.3800    8.5170 O   0  0  0  0  0
    8.8050   30.0620    9.3670 C   0  0  0  0  0
    8.2900   30.1150   10.7830 C   0  0  0  0  0
    9.4240   30.0860   11.7770 C   0  0  0  0  0
   10.1280   31.1130   11.9030 O   0  0  0  0  0
    9.6300   29.0260   12.4060 O   0  0  0  0  0
    7.0260   31.7790    7.5960 N   0  0  0  0  0
    7.4175   25.7680    2.4162 H   0  0  0  0  0
    9.3862   24.2404    4.0514 H   0  0  0  0  0
    8.5868   23.5404    2.5217 H   0  0  0  0  0
    5.5586   24.9138    3.6824 H   0  0  0  0  0
    3.2245   24.6216    4.1730 H   0  0  0  0  0
    0.8701   24.4580    4.9566 H   0  0  0  0  0
    0.2879   22.9434    6.8417 H   0  0  0  0  0
    2.0745   21.6382    7.9706 H   0  0  0  0  0
    4.4203   21.8061    7.1841 H   0  0  0  0  0
   10.3936   25.3347    2.0587 H   0  0  0  0  0
    9.5092   26.8485    1.4565 H   0  0  0  0  0
   10.3766   23.3662    0.4534 H   0  0  0  0  0
    8.6162   26.0976   -2.5083 H   0  0  0  0  0
   10.1617   27.1001   -4.1776 H   0  0  0  0  0
   13.4959   26.3001   -1.5811 H   0  0  0  0  0
   11.9458   25.3262    0.0901 H   0  0  0  0  0
    7.4106   27.9025    3.1916 H   0  0  0  0  0
    9.6378   28.6515    4.9916 H   0  0  0  0  0
    8.8143   30.9610    4.6935 H   0  0  0  0  0
    7.4783   30.2974    3.6408 H   0  0  0  0  0
    9.0691   29.5671    2.0342 H   0  0  0  0  0
   10.4357   30.1040    3.0989 H   0  0  0  0  0
    8.2035   31.0078    0.9147 H   0  0  0  0  0
    9.4512   29.5979    6.9844 H   0  0  0  0  0
    7.3409   28.6580    8.6818 H   0  0  0  0  0
    9.0835   31.0796    9.0932 H   0  0  0  0  0
    9.6257   29.3448    9.3554 H   0  0  0  0  0
    7.6543   29.2464   10.9548 H   0  0  0  0  0
    7.7338   31.0429   10.9165 H   0  0  0  0  0
    9.7905   31.8035   11.3278 H   0  0  0  0  0
    6.3255   32.5042    7.4419 H   0  0  0  0  0
    7.9943   31.9377    7.3174 H   0  0  0  0  0
  4  1  2  0  0  0
  3  2  4  0  0  0
  2  8  4  0  0  0
 15  3  4  0  0  0
  5  4  1  0  0  0
  4 27  1  0  0  0
  6  5  1  0  0  0
  5 16  1  0  0  0
  6 15  1  0  0  0
  8  7  4  0  0  0
  7 15  4  0  0  0
  8  9  1  0  0  0
  9 10  4  0  0  0
  9 14  4  0  0  0
 10 11  4  0  0  0
 11 12  4  0  0  0
 12 13  4  0  0  0
 13 14  4  0  0  0
 16 17  1  0  0  0
 17 18  1  0  0  0
 17 19  2  0  0  0
 17 20  1  0  0  0
 20 21  4  0  0  0
 20 26  4  0  0  0
 21 22  4  0  0  0
 22 23  4  0  0  0
 23 24  1  0  0  0
 23 25  4  0  0  0
 25 26  4  0  0  0
 27 28  1  0  0  0
 28 29  1  0  0  0
 28 31  1  0  0  0
 29 30  2  0  0  0
 29 36  1  0  0  0
 31 32  1  0  0  0
 32 33  1  0  0  0
 33 34  1  0  0  0
 33 35  2  0  0  0
 36 37  1  0  0  0
 37 38  1  0  0  0
 37 40  1  0  0  0
 38 39  2  0  0  0
 38 45  1  0  0  0
 40 41  1  0  0  0
 41 42  1  0  0  0
 42 43  1  0  0  0
 42 44  2  0  0  0
  5 46  1  0  0  0
  6 47  1  0  0  0
  6 48  1  0  0  0
  7 49  1  0  0  0
 10 50  1  0  0  0
 11 51  1  0  0  0
 12 52  1  0  0  0
 13 53  1  0  0  0
 14 54  1  0  0  0
 16 55  1  0  0  0
 16 56  1  0  0  0
 18 57  1  0  0  0
 21 58  1  0  0  0
 22 59  1  0  0  0
 25 60  1  0  0  0
 26 61  1  0  0  0
 27 62  1  0  0  0
 28 63  1  0  0  0
 31 64  1  0  0  0
 31 65  1  0  0  0
 32 66  1  0  0  0
 32 67  1  0  0  0
 34 68  1  0  0  0
 36 69  1  0  0  0
 37 70  1  0  0  0
 40 71  1  0  0  0
 40 72  1  0  0  0
 41 73  1  0  0  0
 41 74  1  0  0  0
 43 75  1  0  0  0
 45 76  1  0  0  0
 45 77  1  0  0  0
M  END
$$$$
