3vbg_ligand
  -I-interpret- 

 41 44  0  0  0  0  0  0  0  0999 V2000
   12.0190  -19.0310   -9.1740 C   0  0  0  0  0
   15.0810  -20.6420   -8.0750 C   0  0  0  0  0
   13.7130  -20.3840   -7.9660 C   0  0  0  0  0
   13.2850  -19.4680   -8.9050 C   0  0  0  0  0
   12.7210  -21.0890   -7.1140 C   0  0  0  0  0
   14.4200  -22.6130   -5.9770 N   0  0  0  0  0
   14.1740  -23.6380   -5.0920 C   0  0  0  0  0
   12.2320  -22.9430   -5.4300 C   0  0  0  0  0
   10.8690  -23.9770   -2.0650 C   0  0  0  0  0
   10.7240  -23.5790   -0.7520 C   0  0  0  0  0
   11.8700  -23.5750    0.0790 C   0  0  0  0  0
   13.2800  -24.3720   -1.6260 C   0  0  0  0  0
   11.8960  -18.1090  -10.1930 C   0  0  0  0  0
   12.9730  -17.6410  -10.9100 C   0  0  0  0  0
   14.2410  -18.1060  -10.6510 C   0  0  0  0  0
   15.4990  -19.7780   -9.1020 N   0  0  0  0  0
   14.4120  -19.0630   -9.6260 C   0  0  0  0  0
   13.1380  -22.1670   -6.2060 C   0  0  0  0  0
   12.9360  -23.8540   -4.7720 N   0  0  0  0  0
   15.0220  -24.4110   -4.4920 O   0  0  0  0  0
   10.9580  -22.7770   -5.4090 O   0  0  0  0  0
   12.4970  -24.8600   -3.8320 C   0  0  0  0  0
   12.1730  -24.3640   -2.4600 C   0  0  0  0  0
   13.1060  -23.9430   -0.3350 C   0  0  0  0  0
   14.1440  -23.9120    0.4990 F   0  0  0  0  0
   11.8140  -23.2230    1.3370 F   0  0  0  0  0
   15.4030  -17.5490  -11.4700 C   0  0  0  0  0
   12.6070  -16.3850  -12.1640 Cl  0  0  0  0  0
   11.1549  -19.3904   -8.6152 H   0  0  0  0  0
   15.6822  -21.3464   -7.5000 H   0  0  0  0  0
   11.6703  -20.8031   -7.1629 H   0  0  0  0  0
   15.3051  -22.2775   -6.3571 H   0  0  0  0  0
   10.0283  -23.9927   -2.7586 H   0  0  0  0  0
    9.7516  -23.2753   -0.3643 H   0  0  0  0  0
   14.2537  -24.7071   -1.9833 H   0  0  0  0  0
   10.9025  -17.7352  -10.4408 H   0  0  0  0  0
   13.3240  -25.5613   -3.7204 H   0  0  0  0  0
   11.5752  -25.2793   -4.2353 H   0  0  0  0  0
   15.2375  -17.7636  -12.5258 H   0  0  0  0  0
   15.4658  -16.4708  -11.3226 H   0  0  0  0  0
   16.3323  -18.0163  -11.1443 H   0  0  0  0  0
  4  1  4  0  0  0
  1 13  4  0  0  0
  3  2  4  0  0  0
  2 16  4  0  0  0
  3  4  4  0  0  0
  5  3  1  0  0  0
  4 17  4  0  0  0
 18  5  2  0  0  0
  7  6  1  0  0  0
 18  6  1  0  0  0
 19  7  1  0  0  0
  7 20  2  0  0  0
  8 18  1  0  0  0
 19  8  1  0  0  0
  8 21  2  0  0  0
  9 10  4  0  0  0
 23  9  4  0  0  0
 10 11  4  0  0  0
 24 11  4  0  0  0
 11 26  1  0  0  0
 23 12  4  0  0  0
 12 24  4  0  0  0
 13 14  4  0  0  0
 15 14  4  0  0  0
 14 28  1  0  0  0
 17 15  4  0  0  0
 15 27  1  0  0  0
 17 16  4  0  0  0
 22 19  1  0  0  0
 22 23  1  0  0  0
 24 25  1  0  0  0
  1 29  1  0  0  0
  2 30  1  0  0  0
  5 31  1  0  0  0
  6 32  1  0  0  0
  9 33  1  0  0  0
 10 34  1  0  0  0
 12 35  1  0  0  0
 13 36  1  0  0  0
 22 37  1  0  0  0
 22 38  1  0  0  0
 27 39  1  0  0  0
 27 40  1  0  0  0
 27 41  1  0  0  0
M  END
$$$$
