3u81_ligand
  -I-interpret- 

 47 49  0  0  0  0  0  0  0  0999 V2000
  -10.4680  -11.2790   15.7000 N   0  3  0  0  0
  -11.0360  -10.3730   14.6820 C   0  0  0  0  0
  -12.3690   -9.7400   15.1090 C   0  0  0  0  0
  -13.4020  -10.7470   15.5390 C   0  0  0  0  0
  -14.9850   -9.9040   15.7020 S   0  0  0  0  0
  -10.0190   -9.2890   14.3760 C   0  0  0  0  0
   -9.1370   -9.0000   15.1970 O   0  0  0  0  0
  -10.1590   -8.7140   13.2960 O   0  0  0  0  0
  -15.9120  -11.1900   16.5110 C   0  0  0  0  0
  -16.2530  -12.3740   15.5940 C   0  0  0  0  0
  -16.6740  -13.4540   16.4250 O   0  0  0  0  0
  -17.3410  -12.1260   14.5500 C   0  0  0  0  0
  -16.9300  -12.3690   13.2170 O   0  0  0  0  0
  -18.4430  -13.1170   15.0210 C   0  0  0  0  0
  -19.2770  -13.6460   13.9760 O   0  0  0  0  0
  -17.6590  -14.1940   15.7210 C   0  0  0  0  0
  -18.4020  -14.9730   16.7120 N   0  0  0  0  0
  -19.2800  -14.4600   17.6290 C   0  0  0  0  0
  -19.6960  -15.4220   18.4940 N   0  0  0  0  0
  -19.0390  -16.5660   18.0760 C   0  0  0  0  0
  -19.0320  -17.9020   18.5580 C   0  0  0  0  0
  -19.7970  -18.2710   19.6210 N   0  0  0  0  0
  -18.2590  -18.7820   17.9360 N   0  0  0  0  0
  -17.5390  -18.4040   16.8640 C   0  0  0  0  0
  -17.4590  -17.1710   16.3320 N   0  0  0  0  0
  -18.2330  -16.2800   16.9540 C   0  0  0  0  0
  -11.1429  -12.0131   15.9146 H   0  0  0  0  0
   -9.6108  -11.6983   15.3399 H   0  0  0  0  0
  -10.2593  -10.7493   16.5463 H   0  0  0  0  0
  -11.2529  -10.9673   13.7944 H   0  0  0  0  0
  -12.7699   -9.2077   14.2464 H   0  0  0  0  0
  -12.1660   -9.0940   15.9632 H   0  0  0  0  0
  -13.1159  -11.1906   16.4927 H   0  0  0  0  0
  -13.4780  -11.5428   14.7980 H   0  0  0  0  0
   -9.2143   -9.5733   15.9631 H   0  0  0  0  0
  -16.8536  -10.7534   16.8440 H   0  0  0  0  0
  -15.2961  -11.5739   17.3243 H   0  0  0  0  0
  -15.3478  -12.5768   15.0216 H   0  0  0  0  0
  -17.6561  -11.0836   14.5021 H   0  0  0  0  0
  -17.6615  -12.1931   12.6207 H   0  0  0  0  0
  -19.1734  -12.6152   15.6557 H   0  0  0  0  0
  -19.9241  -14.2443   14.3566 H   0  0  0  0  0
  -17.3129  -14.9231   14.9884 H   0  0  0  0  0
  -19.6022  -13.4192   17.6609 H   0  0  0  0  0
  -20.3892  -17.5832   20.0864 H   0  0  0  0  0
  -19.7783  -19.2355   19.9524 H   0  0  0  0  0
  -16.9562  -19.1829   16.3723 H   0  0  0  0  0
  1  2  1  0  0  0
  2  3  1  0  0  0
  2  6  1  0  0  0
  3  4  1  0  0  0
  4  5  1  0  0  0
  5  9  1  0  0  0
  6  7  1  0  0  0
  6  8  2  0  0  0
  9 10  1  0  0  0
 10 11  1  0  0  0
 10 12  1  0  0  0
 11 16  1  0  0  0
 12 13  1  0  0  0
 12 14  1  0  0  0
 14 15  1  0  0  0
 14 16  1  0  0  0
 16 17  1  0  0  0
 17 18  4  0  0  0
 17 26  4  0  0  0
 18 19  4  0  0  0
 19 20  4  0  0  0
 20 21  4  0  0  0
 20 26  4  0  0  0
 21 22  1  0  0  0
 21 23  4  0  0  0
 23 24  4  0  0  0
 24 25  4  0  0  0
 25 26  4  0  0  0
  1 27  1  0  0  0
  1 28  1  0  0  0
  1 29  1  0  0  0
  2 30  1  0  0  0
  3 31  1  0  0  0
  3 32  1  0  0  0
  4 33  1  0  0  0
  4 34  1  0  0  0
  7 35  1  0  0  0
  9 36  1  0  0  0
  9 37  1  0  0  0
 10 38  1  0  0  0
 12 39  1  0  0  0
 13 40  1  0  0  0
 14 41  1  0  0  0
 15 42  1  0  0  0
 16 43  1  0  0  0
 18 44  1  0  0  0
 22 45  1  0  0  0
 22 46  1  0  0  0
 24 47  1  0  0  0
M  END
$$$$
