### 
### Created by X-TOOL on Mon Sep 10 21:13:31 2018
### 

@<TRIPOS>MOLECULE
5n7x_ligand
  190   194     1     0     0
SMALL
GAST_HUCK


@<TRIPOS>ATOM
      1 N        -103.6030 -124.2010  -31.6160 N.4       1 GLU         0.2380
      2 CA       -102.1970 -124.7100  -31.4950 C.3       1 GLU         0.0665
      3 C        -101.5410 -124.2400  -30.1920 C.2       1 GLU         0.2269
      4 O        -101.7330 -123.1020  -29.7660 O.2       1 GLU        -0.3907
      5 CB       -101.3490 -124.2730  -32.6950 C.3       1 GLU         0.0194
      6 CG       -100.0030 -124.9780  -32.7830 C.3       1 GLU         0.0075
      7 CD        -99.1710 -124.5350  -33.9740 C.2       1 GLU         0.0351
      8 OE1       -99.6840 -123.7780  -34.8230 O.co2     1 GLU        -0.5690
      9 OE2       -97.9930 -124.9500  -34.0620 O.co2     1 GLU        -0.5690
     10 N        -100.7610 -125.1330  -29.5880 N.am      1 TRP        -0.2599
     11 CA       -100.1760 -124.9140  -28.2690 C.3       1 TRP         0.1353
     12 C         -99.1400 -123.7970  -28.3060 C.2       1 TRP         0.2052
     13 O         -98.2220 -123.8210  -29.1350 O.2       1 TRP        -0.3942
     14 CB        -99.5190 -126.1900  -27.7380 C.3       1 TRP         0.0042
     15 CG        -99.0030 -126.0940  -26.3150 C.2       1 TRP        -0.0418
     16 CD1       -99.7420 -126.1430  -25.1670 C.2       1 TRP         0.0167
     17 CD2       -97.6350 -125.9440  -25.9010 C.ar      1 TRP        -0.0214
     18 NE1       -98.9200 -126.0330  -24.0580 N.pl3     1 TRP        -0.2890
     19 CE2       -97.6250 -125.9160  -24.4810 C.ar      1 TRP         0.0603
     20 CE3       -96.4150 -125.8500  -26.5850 C.ar      1 TRP        -0.0747
     21 CZ2       -96.4460 -125.7870  -23.7420 C.ar      1 TRP        -0.0443
     22 CZ3       -95.2470 -125.7190  -25.8440 C.ar      1 TRP        -0.0792
     23 CH2       -95.2680 -125.6860  -24.4500 C.ar      1 TRP        -0.0768
     24 N         -99.3180 -122.8330  -27.4060 N.am      1 VAL        -0.2634
     25 CA        -98.3460 -121.7610  -27.1940 C.3       1 VAL         0.1333
     26 C         -97.6840 -121.9400  -25.8300 C.2       1 VAL         0.2042
     27 O         -98.3430 -122.0910  -24.8140 O.2       1 VAL        -0.3944
     28 CB        -98.9860 -120.3660  -27.2910 C.3       1 VAL        -0.0063
     29 CG1       -97.9340 -119.2760  -27.1080 C.3       1 VAL        -0.0584
     30 CG2       -99.6860 -120.1920  -28.6510 C.3       1 VAL        -0.0584
     31 N         -96.3540 -121.9580  -25.8260 N.am      1 HIS        -0.2625
     32 CA        -95.5780 -122.1540  -24.6190 C.3       1 HIS         0.1371
     33 C         -95.9660 -121.0650  -23.5790 C.2       1 HIS         0.2079
     34 O         -96.2290 -119.9180  -23.9680 O.2       1 HIS        -0.3940
     35 CB        -94.1040 -122.1120  -24.9920 C.3       1 HIS         0.0145
     36 CG        -93.1750 -122.3000  -23.8620 C.2       1 HIS        -0.0027
     37 ND1       -92.9480 -121.3240  -22.9120 N.2       1 HIS        -0.3252
     38 CD2       -92.4520 -123.3720  -23.4800 C.2       1 HIS         0.0291
     39 CE1       -92.0960 -121.7830  -22.0180 C.2       1 HIS         0.0907
     40 NE2       -91.7780 -123.0310  -22.3360 N.pl3     1 HIS        -0.2752
     41 N         -95.9780 -121.4130  -22.2880 N.am      1 PRO        -0.2497
     42 CA        -96.4270 -120.4130  -21.2820 C.3       1 PRO         0.1338
     43 C         -95.7180 -119.0690  -21.2460 C.2       1 PRO         0.2041
     44 O         -96.3130 -118.0740  -20.8480 O.2       1 PRO        -0.3944
     45 CB        -96.2880 -121.1520  -19.9580 C.3       1 PRO        -0.0104
     46 CG        -95.4550 -122.3360  -20.2150 C.3       1 PRO        -0.0281
     47 CD        -95.7280 -122.7190  -21.6440 C.3       1 PRO         0.0369
     48 N         -94.4450 -119.0100  -21.6100 N.am      1 GLN        -0.2636
     49 CA        -93.7390 -117.7510  -21.6670 C.3       1 GLN         0.1330
     50 C         -94.4650 -116.7150  -22.5420 C.2       1 GLN         0.2042
     51 O         -94.3960 -115.5190  -22.2710 O.2       1 GLN        -0.3944
     52 CB        -92.3190 -117.9990  -22.2010 C.3       1 GLN         0.0045
     53 CG        -91.4340 -116.7620  -22.2270 C.3       1 GLN         0.0412
     54 CD        -90.0320 -117.0960  -22.6410 C.2       1 GLN         0.1737
     55 OE1       -89.5780 -118.2300  -22.4670 O.2       1 GLN        -0.3973
     56 NE2       -89.3370 -116.1150  -23.1670 N.am      1 GLN        -0.3009
     57 N         -95.1570 -117.1820  -23.5740 N.am      1 PHE        -0.2619
     58 CA        -95.6830 -116.3490  -24.6480 C.3       1 PHE         0.1404
     59 C         -97.2070 -116.3270  -24.7370 C.2       1 PHE         0.2060
     60 O         -97.7470 -115.5170  -25.4970 O.2       1 PHE        -0.3942
     61 CB        -95.1010 -116.7890  -25.9840 C.3       1 PHE         0.0214
     62 CG        -93.6540 -117.0680  -25.9100 C.ar      1 PHE        -0.0386
     63 CD1       -92.7160 -116.0510  -25.9560 C.ar      1 PHE        -0.0601
     64 CD2       -93.2120 -118.3720  -25.7510 C.ar      1 PHE        -0.0601
     65 CE1       -91.3550 -116.3340  -25.9170 C.ar      1 PHE        -0.0686
     66 CE2       -91.8560 -118.6470  -25.6810 C.ar      1 PHE        -0.0686
     67 CZ        -90.9620 -117.6320  -25.7520 C.ar      1 PHE        -0.0687
     68 N         -97.8830 -117.2190  -24.0250 N.am      1 GLU        -0.2635
     69 CA        -99.3330 -117.3710  -24.1580 C.3       1 GLU         0.1325
     70 C        -100.0110 -116.0330  -23.8810 C.2       1 GLU         0.2040
     71 O         -99.5510 -115.2160  -23.0400 O.2       1 GLU        -0.3944
     72 CB        -99.8560 -118.4330  -23.1870 C.3       1 GLU        -0.0008
     73 CG        -99.6300 -118.1000  -21.7270 C.3       1 GLU         0.0044
     74 CD       -100.0730 -119.1900  -20.7880 C.2       1 GLU         0.0350
     75 OE1      -100.6130 -120.2400  -21.2800 O.co2     1 GLU        -0.5690
     76 OE2       -99.8550 -118.9760  -19.5600 O.co2     1 GLU        -0.5690
     77 N        -101.1020 -115.8050  -24.6080 N.am      1 GLN        -0.2636
     78 CA       -101.8300 -114.5470  -24.5580 C.3       1 GLN         0.1330
     79 C        -103.2460 -114.7830  -24.0590 C.2       1 GLN         0.2040
     80 O        -103.7550 -115.9040  -24.1020 O.2       1 GLN        -0.3944
     81 CB       -101.8890 -113.9270  -25.9640 C.3       1 GLN         0.0045
     82 CG       -100.5540 -113.4860  -26.5500 C.3       1 GLN         0.0412
     83 CD        -99.8750 -112.3870  -25.7690 C.2       1 GLN         0.1737
     84 OE1      -100.3470 -111.2520  -25.7220 O.2       1 GLN        -0.3973
     85 NE2       -98.7340 -112.7140  -25.1760 N.am      1 GLN        -0.3009
     86 N        -103.8580 -113.7160  -23.5600 N.am      1 LYS        -0.2637
     87 CA       -105.3080 -113.7040  -23.2580 C.3       1 LYS         0.1309
     88 C        -106.1050 -113.9180  -24.5500 C.2       1 LYS         0.2033
     89 O        -105.7280 -113.3870  -25.5930 O.2       1 LYS        -0.3944
     90 CB       -105.7330 -112.3770  -22.6290 C.3       1 LYS        -0.0122
     91 CG       -105.4060 -112.2270  -21.1510 C.3       1 LYS        -0.0440
     92 CD       -106.1320 -111.0250  -20.5560 C.3       1 LYS        -0.0124
     93 CE       -106.0540 -110.9900  -19.0350 C.3       1 LYS        -0.0354
     94 NZ       -104.7210 -110.5420  -18.5540 N.4       1 LYS         0.2185
     95 N        -107.1950 -114.6820  -24.4760 N.am      1 ALA        -0.2698
     96 CA       -108.0580 -114.9340  -25.6530 C.3       1 ALA         0.0916
     97 C        -108.9200 -113.7130  -25.9950 C.2       1 ALA         0.0598
     98 O        -108.7130 -112.6230  -25.4470 O.co2     1 ALA        -0.5666
     99 CB       -108.9400 -116.1620  -25.4320 C.3       1 ALA        -0.0300
    100 OXT      -109.8350 -113.8010  -26.8240 O.co2     1 ALA        -0.5666
    101 H1       -104.0050 -124.5268  -32.4811 H         1 GLU         0.2015
    102 H2       -103.5974 -123.1931  -31.6067 H         1 GLU         0.2015
    103 H3       -104.1513 -124.5412  -30.8416 H         1 GLU         0.2015
    104 H4       -102.2346 -125.8093  -31.4824 H         1 GLU         0.1099
    105 H5       -101.1694 -123.1905  -32.6174 H         1 GLU         0.0363
    106 H6       -101.9133 -124.4861  -33.6149 H         1 GLU         0.0363
    107 H7       -100.1802 -126.0606  -32.8640 H         1 GLU         0.0434
    108 H8        -99.4372 -124.7668  -31.8637 H         1 GLU         0.0434
    109 H9       -100.5668 -125.9933  -30.0593 H         1 TRP         0.1886
    110 H10      -100.9821 -124.6219  -27.5799 H         1 TRP         0.0815
    111 H11       -98.6710 -126.4368  -28.3937 H         1 TRP         0.0397
    112 H12      -100.2620 -127.0001  -27.7788 H         1 TRP         0.0397
    113 H13      -100.8248 -126.2530  -25.1293 H         1 TRP         0.0795
    114 H14       -99.2325 -126.0384  -23.0766 H         1 TRP         0.2216
    115 H15       -96.3835 -125.8789  -27.6682 H         1 TRP         0.0540
    116 H16       -96.4575 -125.7672  -22.6582 H         1 TRP         0.0541
    117 H17       -94.2976 -125.6406  -26.3613 H         1 TRP         0.0510
    118 H18       -94.3344 -125.5782  -23.9098 H         1 TRP         0.0530
    119 H19      -100.1505 -122.8420  -26.8520 H         1 VAL         0.1883
    120 H20       -97.5735 -121.8375  -27.9734 H         1 VAL         0.0802
    121 H21       -99.7363 -120.2687  -26.4925 H         1 VAL         0.0343
    122 H22       -98.4128 -118.2884  -27.1810 H         1 VAL         0.0234
    123 H23       -97.1677 -119.3707  -27.8915 H         1 VAL         0.0234
    124 H24       -97.4631 -119.3830  -26.1197 H         1 VAL         0.0234
    125 H25      -100.4429 -120.9801  -28.7773 H         1 VAL         0.0234
    126 H26       -98.9423 -120.2652  -29.4582 H         1 VAL         0.0234
    127 H27      -100.1730 -119.2065  -28.6893 H         1 VAL         0.0234
    128 H28       -95.8701 -121.8310  -26.6919 H         1 HIS         0.1885
    129 H29       -95.8067 -123.1419  -24.1927 H         1 HIS         0.0817
    130 H30       -93.8941 -121.1334  -25.4484 H         1 HIS         0.0420
    131 H31       -93.9141 -122.9079  -25.7272 H         1 HIS         0.0420
    132 H32       -92.4109 -124.3343  -23.9881 H         1 HIS         0.0729
    133 H33       -91.7159 -121.2298  -21.1604 H         1 HIS         0.1199
    134 H34       -91.1338 -123.6405  -21.8121 H         1 HIS         0.2361
    135 H35       -97.4897 -120.1991  -21.4685 H         1 PRO         0.0802
    136 H36       -97.2783 -121.4589  -19.5903 H         1 PRO         0.0313
    137 H37       -95.8045 -120.5041  -19.2121 H         1 PRO         0.0313
    138 H38       -95.7340 -123.1564  -19.5374 H         1 PRO         0.0287
    139 H39       -94.3907 -122.0938  -20.0789 H         1 PRO         0.0287
    140 H40       -94.8590 -123.2227  -22.0926 H         1 PRO         0.0524
    141 H41       -96.6094 -123.3730  -21.7179 H         1 PRO         0.0524
    142 H42       -93.9640 -119.8533  -21.8498 H         1 GLN         0.1883
    143 H43       -93.6677 -117.3468  -20.6465 H         1 GLN         0.0801
    144 H44       -92.3998 -118.3861  -23.2275 H         1 GLN         0.0337
    145 H45       -91.8375 -118.7534  -21.5615 H         1 GLN         0.0337
    146 H46       -91.4129 -116.3167  -21.2214 H         1 GLN         0.0504
    147 H47       -91.8539 -116.0374  -22.9402 H         1 GLN         0.0504
    148 H48       -88.3952 -116.2726  -23.4638 H         1 GLN         0.1814
    149 H49       -89.7492 -115.2099  -23.2710 H         1 GLN         0.1814
    150 H50       -95.3280 -118.1663  -23.6172 H         1 PHE         0.1885
    151 H51       -95.3516 -115.3185  -24.4526 H         1 PHE         0.0823
    152 H52       -95.2681 -115.9898  -26.7211 H         1 PHE         0.0474
    153 H53       -95.6194 -117.7028  -26.3100 H         1 PHE         0.0474
    154 H54       -93.0466 -115.0208  -26.0233 H         1 PHE         0.0557
    155 H55       -93.9307 -119.1805  -25.6811 H         1 PHE         0.0557
    156 H56       -90.6217 -115.5417  -26.0154 H         1 PHE         0.0599
    157 H57       -91.5123 -119.6691  -25.5700 H         1 PHE         0.0599
    158 H58       -89.9041 -117.8560  -25.6757 H         1 PHE         0.0559
    159 H59       -97.3893 -117.8029  -23.3806 H         1 GLU         0.1883
    160 H60       -99.5657 -117.6853  -25.1861 H         1 GLU         0.0801
    161 H61       -99.3475 -119.3832  -23.4074 H         1 GLU         0.0330
    162 H62      -100.9374 -118.5491  -23.3515 H         1 GLU         0.0330
    163 H63      -100.1910 -117.1847  -21.4875 H         1 GLU         0.0433
    164 H64       -98.5555 -117.9225  -21.5724 H         1 GLU         0.0433
    165 H65      -101.4348 -116.5281  -25.2133 H         1 GLN         0.1883
    166 H66      -101.3135 -113.8564  -23.8752 H         1 GLN         0.0801
    167 H67      -102.5448 -113.0451  -25.9169 H         1 GLN         0.0337
    168 H68      -102.3261 -114.6731  -26.6439 H         1 GLN         0.0337
    169 H69      -100.7279 -113.1258  -27.5747 H         1 GLN         0.0504
    170 H70       -99.8829 -114.3572  -26.5765 H         1 GLN         0.0504
    171 H71       -98.2340 -112.0315  -24.6429 H         1 GLN         0.1814
    172 H72       -98.3740 -113.6430  -25.2622 H         1 GLN         0.1814
    173 H73      -103.3212 -112.8913  -23.3817 H         1 LYS         0.1883
    174 H74      -105.5304 -114.5200  -22.5547 H         1 LYS         0.0800
    175 H75      -106.8219 -112.2770  -22.7485 H         1 LYS         0.0312
    176 H76      -105.2283 -111.5652  -23.1733 H         1 LYS         0.0312
    177 H77      -104.3212 -112.0875  -21.0338 H         1 LYS         0.0269
    178 H78      -105.7184 -113.1372  -20.6181 H         1 LYS         0.0269
    179 H79      -107.1900 -111.0690  -20.8539 H         1 LYS         0.0317
    180 H80      -105.6770 -110.1059  -20.9537 H         1 LYS         0.0317
    181 H81      -106.2502 -112.0002  -18.6464 H         1 LYS         0.0813
    182 H82      -106.8192 -110.2964  -18.6564 H         1 LYS         0.0813
    183 H83      -104.7130 -110.5334  -17.5461 H         1 LYS         0.1994
    184 H84      -104.5337 -109.6137  -18.8994 H         1 LYS         0.1994
    185 H85      -104.0123 -111.1750  -18.8902 H         1 LYS         0.1994
    186 H86      -107.4373 -115.0975  -23.5993 H         1 ALA         0.1875
    187 H87      -107.4023 -115.1362  -26.5128 H         1 ALA         0.0723
    188 H88      -109.5692 -116.3259  -26.3192 H         1 ALA         0.0270
    189 H89      -109.5809 -115.9997  -24.5529 H         1 ALA         0.0270
    190 H90      -108.3048 -117.0444  -25.2649 H         1 ALA         0.0270
@<TRIPOS>BOND
     1    1    2 1  
     2    2    3 1  
     3    2    5 1  
     4    3    4 2  
     5    3   10 am 
     6    5    6 1  
     7    6    7 1  
     8    7    8 ar 
     9    7    9 ar 
    10   10   11 1  
    11   11   12 1  
    12   11   14 1  
    13   12   13 2  
    14   12   24 am 
    15   14   15 1  
    16   15   16 2  
    17   15   17 1  
    18   16   18 1  
    19   17   19 ar 
    20   17   20 ar 
    21   18   19 1  
    22   19   21 ar 
    23   20   22 ar 
    24   21   23 ar 
    25   22   23 ar 
    26   24   25 1  
    27   25   26 1  
    28   25   28 1  
    29   26   27 2  
    30   26   31 am 
    31   28   29 1  
    32   28   30 1  
    33   31   32 1  
    34   32   33 1  
    35   32   35 1  
    36   33   34 2  
    37   33   41 am 
    38   35   36 1  
    39   36   37 1  
    40   36   38 2  
    41   37   39 2  
    42   38   40 1  
    43   39   40 1  
    44   41   42 1  
    45   41   47 1  
    46   42   43 1  
    47   42   45 1  
    48   43   44 2  
    49   43   48 am 
    50   45   46 1  
    51   46   47 1  
    52   48   49 1  
    53   49   50 1  
    54   49   52 1  
    55   50   51 2  
    56   50   57 am 
    57   52   53 1  
    58   53   54 1  
    59   54   55 2  
    60   54   56 am 
    61   57   58 1  
    62   58   59 1  
    63   58   61 1  
    64   59   60 2  
    65   59   68 am 
    66   61   62 1  
    67   62   63 ar 
    68   62   64 ar 
    69   63   65 ar 
    70   64   66 ar 
    71   65   67 ar 
    72   66   67 ar 
    73   68   69 1  
    74   69   70 1  
    75   69   72 1  
    76   70   71 2  
    77   70   77 am 
    78   72   73 1  
    79   73   74 1  
    80   74   75 ar 
    81   74   76 ar 
    82   77   78 1  
    83   78   79 1  
    84   78   81 1  
    85   79   80 2  
    86   79   86 am 
    87   81   82 1  
    88   82   83 1  
    89   83   84 2  
    90   83   85 am 
    91   86   87 1  
    92   87   88 1  
    93   87   90 1  
    94   88   89 2  
    95   88   95 am 
    96   90   91 1  
    97   91   92 1  
    98   92   93 1  
    99   93   94 1  
   100   95   96 1  
   101   96   97 1  
   102   96   99 1  
   103   97   98 ar 
   104   97  100 ar 
   105    1  101 1  
   106    1  102 1  
   107    1  103 1  
   108    2  104 1  
   109    5  105 1  
   110    5  106 1  
   111    6  107 1  
   112    6  108 1  
   113   10  109 1  
   114   11  110 1  
   115   14  111 1  
   116   14  112 1  
   117   16  113 1  
   118   18  114 1  
   119   20  115 1  
   120   21  116 1  
   121   22  117 1  
   122   23  118 1  
   123   24  119 1  
   124   25  120 1  
   125   28  121 1  
   126   29  122 1  
   127   29  123 1  
   128   29  124 1  
   129   30  125 1  
   130   30  126 1  
   131   30  127 1  
   132   31  128 1  
   133   32  129 1  
   134   35  130 1  
   135   35  131 1  
   136   38  132 1  
   137   39  133 1  
   138   40  134 1  
   139   42  135 1  
   140   45  136 1  
   141   45  137 1  
   142   46  138 1  
   143   46  139 1  
   144   47  140 1  
   145   47  141 1  
   146   48  142 1  
   147   49  143 1  
   148   52  144 1  
   149   52  145 1  
   150   53  146 1  
   151   53  147 1  
   152   56  148 1  
   153   56  149 1  
   154   57  150 1  
   155   58  151 1  
   156   61  152 1  
   157   61  153 1  
   158   63  154 1  
   159   64  155 1  
   160   65  156 1  
   161   66  157 1  
   162   67  158 1  
   163   68  159 1  
   164   69  160 1  
   165   72  161 1  
   166   72  162 1  
   167   73  163 1  
   168   73  164 1  
   169   77  165 1  
   170   78  166 1  
   171   81  167 1  
   172   81  168 1  
   173   82  169 1  
   174   82  170 1  
   175   85  171 1  
   176   85  172 1  
   177   86  173 1  
   178   87  174 1  
   179   90  175 1  
   180   90  176 1  
   181   91  177 1  
   182   91  178 1  
   183   92  179 1  
   184   92  180 1  
   185   93  181 1  
   186   93  182 1  
   187   94  183 1  
   188   94  184 1  
   189   94  185 1  
   190   95  186 1  
   191   96  187 1  
   192   99  188 1  
   193   99  189 1  
   194   99  190 1  
@<TRIPOS>SUBSTRUCTURE
     1 GLU         1

