5n7x_ligand
  -I-interpret- 

191195  0  0  0  0  0  0  0  0999 V2000
 -103.6030 -124.2010  -31.6160 N   0  3  0  0  0
 -102.1970 -124.7100  -31.4950 C   0  0  0  0  0
 -101.5410 -124.2400  -30.1920 C   0  0  0  0  0
 -101.7330 -123.1020  -29.7660 O   0  0  0  0  0
 -101.3490 -124.2730  -32.6950 C   0  0  0  0  0
 -100.0030 -124.9780  -32.7830 C   0  0  0  0  0
  -99.1710 -124.5350  -33.9740 C   0  0  0  0  0
  -99.6840 -123.7780  -34.8230 O   0  0  0  0  0
  -97.9930 -124.9500  -34.0620 O   0  0  0  0  0
 -100.7610 -125.1330  -29.5880 N   0  0  0  0  0
 -100.1760 -124.9140  -28.2690 C   0  0  0  0  0
  -99.1400 -123.7970  -28.3060 C   0  0  0  0  0
  -98.2220 -123.8210  -29.1350 O   0  0  0  0  0
  -99.5190 -126.1900  -27.7380 C   0  0  0  0  0
  -99.0030 -126.0940  -26.3150 C   0  0  0  0  0
  -99.7420 -126.1430  -25.1670 C   0  0  0  0  0
  -97.6350 -125.9440  -25.9010 C   0  0  0  0  0
  -98.9200 -126.0330  -24.0580 N   0  0  0  0  0
  -97.6250 -125.9160  -24.4810 C   0  0  0  0  0
  -96.4150 -125.8500  -26.5850 C   0  0  0  0  0
  -96.4460 -125.7870  -23.7420 C   0  0  0  0  0
  -95.2470 -125.7190  -25.8440 C   0  0  0  0  0
  -95.2680 -125.6860  -24.4500 C   0  0  0  0  0
  -99.3180 -122.8330  -27.4060 N   0  0  0  0  0
  -98.3460 -121.7610  -27.1940 C   0  0  0  0  0
  -97.6840 -121.9400  -25.8300 C   0  0  0  0  0
  -98.3430 -122.0910  -24.8140 O   0  0  0  0  0
  -98.9860 -120.3660  -27.2910 C   0  0  0  0  0
  -97.9340 -119.2760  -27.1080 C   0  0  0  0  0
  -99.6860 -120.1920  -28.6510 C   0  0  0  0  0
  -96.3540 -121.9580  -25.8260 N   0  0  0  0  0
  -95.5780 -122.1540  -24.6190 C   0  0  0  0  0
  -95.9660 -121.0650  -23.5790 C   0  0  0  0  0
  -96.2290 -119.9180  -23.9680 O   0  0  0  0  0
  -94.1040 -122.1120  -24.9920 C   0  0  0  0  0
  -93.1750 -122.3000  -23.8620 C   0  0  0  0  0
  -92.9480 -121.3240  -22.9120 N   0  0  0  0  0
  -92.4520 -123.3720  -23.4800 C   0  0  0  0  0
  -92.0960 -121.7830  -22.0180 C   0  0  0  0  0
  -91.7780 -123.0310  -22.3360 N   0  0  0  0  0
  -95.9780 -121.4130  -22.2880 N   0  0  0  0  0
  -96.4270 -120.4130  -21.2820 C   0  0  0  0  0
  -95.7180 -119.0690  -21.2460 C   0  0  0  0  0
  -96.3130 -118.0740  -20.8480 O   0  0  0  0  0
  -96.2880 -121.1520  -19.9580 C   0  0  0  0  0
  -95.4550 -122.3360  -20.2150 C   0  0  0  0  0
  -95.7280 -122.7190  -21.6440 C   0  0  0  0  0
  -94.4450 -119.0100  -21.6100 N   0  0  0  0  0
  -93.7390 -117.7510  -21.6670 C   0  0  0  0  0
  -94.4650 -116.7150  -22.5420 C   0  0  0  0  0
  -94.3960 -115.5190  -22.2710 O   0  0  0  0  0
  -92.3190 -117.9990  -22.2010 C   0  0  0  0  0
  -91.4340 -116.7620  -22.2270 C   0  0  0  0  0
  -90.0320 -117.0960  -22.6410 C   0  0  0  0  0
  -89.5780 -118.2300  -22.4670 O   0  0  0  0  0
  -89.3370 -116.1150  -23.1670 N   0  0  0  0  0
  -95.1570 -117.1820  -23.5740 N   0  0  0  0  0
  -95.6830 -116.3490  -24.6480 C   0  0  0  0  0
  -97.2070 -116.3270  -24.7370 C   0  0  0  0  0
  -97.7470 -115.5170  -25.4970 O   0  0  0  0  0
  -95.1010 -116.7890  -25.9840 C   0  0  0  0  0
  -93.6540 -117.0680  -25.9100 C   0  0  0  0  0
  -92.7160 -116.0510  -25.9560 C   0  0  0  0  0
  -93.2120 -118.3720  -25.7510 C   0  0  0  0  0
  -91.3550 -116.3340  -25.9170 C   0  0  0  0  0
  -91.8560 -118.6470  -25.6810 C   0  0  0  0  0
  -90.9620 -117.6320  -25.7520 C   0  0  0  0  0
  -97.8830 -117.2190  -24.0250 N   0  0  0  0  0
  -99.3330 -117.3710  -24.1580 C   0  0  0  0  0
 -100.0110 -116.0330  -23.8810 C   0  0  0  0  0
  -99.5510 -115.2160  -23.0400 O   0  0  0  0  0
  -99.8560 -118.4330  -23.1870 C   0  0  0  0  0
  -99.6300 -118.1000  -21.7270 C   0  0  0  0  0
 -100.0730 -119.1900  -20.7880 C   0  0  0  0  0
 -100.6130 -120.2400  -21.2800 O   0  0  0  0  0
  -99.8550 -118.9760  -19.5600 O   0  0  0  0  0
 -101.1020 -115.8050  -24.6080 N   0  0  0  0  0
 -101.8300 -114.5470  -24.5580 C   0  0  0  0  0
 -103.2460 -114.7830  -24.0590 C   0  0  0  0  0
 -103.7550 -115.9040  -24.1020 O   0  0  0  0  0
 -101.8890 -113.9270  -25.9640 C   0  0  0  0  0
 -100.5540 -113.4860  -26.5500 C   0  0  0  0  0
  -99.8750 -112.3870  -25.7690 C   0  0  0  0  0
 -100.3470 -111.2520  -25.7220 O   0  0  0  0  0
  -98.7340 -112.7140  -25.1760 N   0  0  0  0  0
 -103.8580 -113.7160  -23.5600 N   0  0  0  0  0
 -105.3080 -113.7040  -23.2580 C   0  0  0  0  0
 -106.1050 -113.9180  -24.5500 C   0  0  0  0  0
 -105.7280 -113.3870  -25.5930 O   0  0  0  0  0
 -105.7330 -112.3770  -22.6290 C   0  0  0  0  0
 -105.4060 -112.2270  -21.1510 C   0  0  0  0  0
 -106.1320 -111.0250  -20.5560 C   0  0  0  0  0
 -106.0540 -110.9900  -19.0350 C   0  0  0  0  0
 -104.7210 -110.5420  -18.5540 N   0  3  0  0  0
 -107.1950 -114.6820  -24.4760 N   0  0  0  0  0
 -108.0580 -114.9340  -25.6530 C   0  0  0  0  0
 -108.9200 -113.7130  -25.9950 C   0  0  0  0  0
 -108.7130 -112.6230  -25.4470 O   0  0  0  0  0
 -108.9400 -116.1620  -25.4320 C   0  0  0  0  0
 -109.8350 -113.8010  -26.8240 O   0  0  0  0  0
 -104.1443 -124.5052  -30.8068 H   0  0  0  0  0
 -103.5921 -123.1818  -31.6556 H   0  0  0  0  0
 -104.0252 -124.5711  -32.4676 H   0  0  0  0  0
 -102.2484 -125.7987  -31.4795 H   0  0  0  0  0
 -101.1516 -123.2069  -32.5833 H   0  0  0  0  0
 -101.9075 -124.5235  -33.5969 H   0  0  0  0  0
 -100.1961 -126.0450  -32.8940 H   0  0  0  0  0
  -99.4430 -124.7338  -31.8803 H   0  0  0  0  0
  -97.7973 -125.5158  -33.3115 H   0  0  0  0  0
 -100.5629 -126.0105  -30.0688 H   0  0  0  0  0
 -100.9888 -124.6261  -27.6022 H   0  0  0  0  0
  -98.6573 -126.3910  -28.3745 H   0  0  0  0  0
 -100.2836 -126.9668  -27.7459 H   0  0  0  0  0
 -100.8258 -126.2531  -25.1293 H   0  0  0  0  0
  -96.3834 -125.8790  -27.6742 H   0  0  0  0  0
  -96.4576 -125.7671  -22.6522 H   0  0  0  0  0
  -94.2924 -125.6402  -26.3642 H   0  0  0  0  0
  -94.3292 -125.5776  -23.9068 H   0  0  0  0  0
 -100.1671 -122.8422  -26.8409 H   0  0  0  0  0
  -97.5990 -121.8266  -27.9851 H   0  0  0  0  0
  -99.7254 -120.2754  -26.4953 H   0  0  0  0  0
  -97.4682 -119.3832  -26.1284 H   0  0  0  0  0
  -97.1753 -119.3710  -27.8848 H   0  0  0  0  0
  -98.4096 -118.2979  -27.1805 H   0  0  0  0  0
  -98.9549 -120.3050  -29.4516 H   0  0  0  0  0
 -100.4633 -120.9487  -28.7576 H   0  0  0  0  0
 -100.1337 -119.1996  -28.7034 H   0  0  0  0  0
  -95.8604 -121.8285  -26.7092 H   0  0  0  0  0
  -95.7838 -123.1210  -24.1599 H   0  0  0  0  0
  -93.9089 -121.1205  -25.4007 H   0  0  0  0  0
  -93.9294 -122.9344  -25.6857 H   0  0  0  0  0
  -92.4109 -124.3352  -23.9886 H   0  0  0  0  0
  -91.7156 -121.2293  -21.1596 H   0  0  0  0  0
  -97.4369 -120.0920  -21.5371 H   0  0  0  0  0
  -97.2654 -121.4430  -19.5732 H   0  0  0  0  0
  -95.8286 -120.5122  -19.2045 H   0  0  0  0  0
  -95.6964 -123.1496  -19.5310 H   0  0  0  0  0
  -94.3982 -122.1227  -20.0542 H   0  0  0  0  0
  -94.9052 -123.2683  -22.1017 H   0  0  0  0  0
  -96.5641 -123.4107  -21.7466 H   0  0  0  0  0
  -93.9543 -119.8701  -21.8546 H   0  0  0  0  0
  -93.6965 -117.3379  -20.6592 H   0  0  0  0  0
  -92.4194 -118.3428  -23.2305 H   0  0  0  0  0
  -91.8459 -118.7174  -21.5315 H   0  0  0  0  0
  -91.4052 -116.3376  -21.2234 H   0  0  0  0  0
  -91.8478 -116.0573  -22.9483 H   0  0  0  0  0
  -88.3710 -116.2714  -23.4548 H   0  0  0  0  0
  -89.7628 -115.1960  -23.2880 H   0  0  0  0  0
  -95.3314 -118.1860  -23.6181 H   0  0  0  0  0
  -95.3762 -115.3308  -24.4085 H   0  0  0  0  0
  -95.2497 -115.9783  -26.6973 H   0  0  0  0  0
  -95.6045 -117.7086  -26.2820 H   0  0  0  0  0
  -93.0484 -115.0151  -26.0237 H   0  0  0  0  0
  -93.9347 -119.1849  -25.6807 H   0  0  0  0  0
  -90.6177 -115.5374  -26.0159 H   0  0  0  0  0
  -91.5104 -119.6747  -25.5694 H   0  0  0  0  0
  -89.8983 -117.8573  -25.6753 H   0  0  0  0  0
  -97.3794 -117.8146  -23.3677 H   0  0  0  0  0
  -99.5620 -117.6930  -25.1739 H   0  0  0  0  0
  -99.3140 -119.3555  -23.3952 H   0  0  0  0  0
 -100.9330 -118.5062  -23.3383 H   0  0  0  0  0
 -100.2181 -117.2112  -21.4985 H   0  0  0  0  0
  -98.5585 -117.9599  -21.5846 H   0  0  0  0  0
 -100.6643 -120.1547  -22.2348 H   0  0  0  0  0
 -101.4415 -116.5425  -25.2254 H   0  0  0  0  0
 -101.3147 -113.8696  -23.8771 H   0  0  0  0  0
 -102.4999 -113.0283  -25.8789 H   0  0  0  0  0
 -102.2752 -114.7018  -26.6263 H   0  0  0  0  0
 -100.7514 -113.0985  -27.5495 H   0  0  0  0  0
  -99.8916 -114.3515  -26.5338 H   0  0  0  0  0
  -98.2105 -112.0109  -24.6545 H   0  0  0  0  0
  -98.3804 -113.6685  -25.2417 H   0  0  0  0  0
 -103.3105 -112.8748  -23.3781 H   0  0  0  0  0
 -105.5100 -114.5074  -22.5495 H   0  0  0  0  0
 -106.8181 -112.3223  -22.7167 H   0  0  0  0  0
 -105.1852 -111.5930  -23.1519 H   0  0  0  0  0
 -104.3317 -112.0786  -21.0416 H   0  0  0  0  0
 -105.7271 -113.1270  -20.6265 H   0  0  0  0  0
 -107.1828 -111.0940  -20.8372 H   0  0  0  0  0
 -105.6558 -110.1219  -20.9379 H   0  0  0  0  0
 -106.2285 -111.9993  -18.6622 H   0  0  0  0  0
 -106.8013 -110.2842  -18.6723 H   0  0  0  0  0
 -104.7141 -110.5337  -17.5341 H   0  0  0  0  0
 -104.0047 -111.1832  -18.8948 H   0  0  0  0  0
 -104.5326 -109.6027  -18.9042 H   0  0  0  0  0
 -107.4421 -115.1058  -23.5817 H   0  0  0  0  0
 -107.3996 -115.1266  -26.5001 H   0  0  0  0  0
 -108.3095 -117.0356  -25.2665 H   0  0  0  0  0
 -109.5745 -116.0000  -24.5607 H   0  0  0  0  0
 -109.5630 -116.3234  -26.3118 H   0  0  0  0  0
 -109.8746 -114.6990  -27.1611 H   0  0  0  0  0
  1  2  1  0  0  0
  2  3  1  0  0  0
  2  5  1  0  0  0
  3  4  2  0  0  0
  3 10  1  0  0  0
  5  6  1  0  0  0
  6  7  1  0  0  0
  7  8  2  0  0  0
  7  9  1  0  0  0
 10 11  1  0  0  0
 11 12  1  0  0  0
 11 14  1  0  0  0
 12 13  2  0  0  0
 12 24  1  0  0  0
 14 15  1  0  0  0
 15 16  4  0  0  0
 15 17  4  0  0  0
 16 18  4  0  0  0
 17 19  4  0  0  0
 17 20  4  0  0  0
 18 19  4  0  0  0
 19 21  4  0  0  0
 20 22  4  0  0  0
 21 23  4  0  0  0
 22 23  4  0  0  0
 24 25  1  0  0  0
 25 26  1  0  0  0
 25 28  1  0  0  0
 26 27  2  0  0  0
 26 31  1  0  0  0
 28 29  1  0  0  0
 28 30  1  0  0  0
 31 32  1  0  0  0
 32 33  1  0  0  0
 32 35  1  0  0  0
 33 34  2  0  0  0
 33 41  1  0  0  0
 35 36  1  0  0  0
 36 37  4  0  0  0
 36 38  4  0  0  0
 37 39  4  0  0  0
 38 40  4  0  0  0
 39 40  4  0  0  0
 41 42  1  0  0  0
 41 47  1  0  0  0
 42 43  1  0  0  0
 42 45  1  0  0  0
 43 44  2  0  0  0
 43 48  1  0  0  0
 45 46  1  0  0  0
 46 47  1  0  0  0
 48 49  1  0  0  0
 49 50  1  0  0  0
 49 52  1  0  0  0
 50 51  2  0  0  0
 50 57  1  0  0  0
 52 53  1  0  0  0
 53 54  1  0  0  0
 54 55  2  0  0  0
 54 56  1  0  0  0
 57 58  1  0  0  0
 58 59  1  0  0  0
 58 61  1  0  0  0
 59 60  2  0  0  0
 59 68  1  0  0  0
 61 62  1  0  0  0
 62 63  4  0  0  0
 62 64  4  0  0  0
 63 65  4  0  0  0
 64 66  4  0  0  0
 65 67  4  0  0  0
 66 67  4  0  0  0
 68 69  1  0  0  0
 69 70  1  0  0  0
 69 72  1  0  0  0
 70 71  2  0  0  0
 70 77  1  0  0  0
 72 73  1  0  0  0
 73 74  1  0  0  0
 74 75  1  0  0  0
 74 76  2  0  0  0
 77 78  1  0  0  0
 78 79  1  0  0  0
 78 81  1  0  0  0
 79 80  2  0  0  0
 79 86  1  0  0  0
 81 82  1  0  0  0
 82 83  1  0  0  0
 83 84  2  0  0  0
 83 85  1  0  0  0
 86 87  1  0  0  0
 87 88  1  0  0  0
 87 90  1  0  0  0
 88 89  2  0  0  0
 88 95  1  0  0  0
 90 91  1  0  0  0
 91 92  1  0  0  0
 92 93  1  0  0  0
 93 94  1  0  0  0
 95 96  1  0  0  0
 96 97  1  0  0  0
 96 99  1  0  0  0
 97 98  2  0  0  0
 97100  1  0  0  0
  1101  1  0  0  0
  1102  1  0  0  0
  1103  1  0  0  0
  2104  1  0  0  0
  5105  1  0  0  0
  5106  1  0  0  0
  6107  1  0  0  0
  6108  1  0  0  0
  9109  1  0  0  0
 10110  1  0  0  0
 11111  1  0  0  0
 14112  1  0  0  0
 14113  1  0  0  0
 16114  1  0  0  0
 20115  1  0  0  0
 21116  1  0  0  0
 22117  1  0  0  0
 23118  1  0  0  0
 24119  1  0  0  0
 25120  1  0  0  0
 28121  1  0  0  0
 29122  1  0  0  0
 29123  1  0  0  0
 29124  1  0  0  0
 30125  1  0  0  0
 30126  1  0  0  0
 30127  1  0  0  0
 31128  1  0  0  0
 32129  1  0  0  0
 35130  1  0  0  0
 35131  1  0  0  0
 38132  1  0  0  0
 39133  1  0  0  0
 42134  1  0  0  0
 45135  1  0  0  0
 45136  1  0  0  0
 46137  1  0  0  0
 46138  1  0  0  0
 47139  1  0  0  0
 47140  1  0  0  0
 48141  1  0  0  0
 49142  1  0  0  0
 52143  1  0  0  0
 52144  1  0  0  0
 53145  1  0  0  0
 53146  1  0  0  0
 56147  1  0  0  0
 56148  1  0  0  0
 57149  1  0  0  0
 58150  1  0  0  0
 61151  1  0  0  0
 61152  1  0  0  0
 63153  1  0  0  0
 64154  1  0  0  0
 65155  1  0  0  0
 66156  1  0  0  0
 67157  1  0  0  0
 68158  1  0  0  0
 69159  1  0  0  0
 72160  1  0  0  0
 72161  1  0  0  0
 73162  1  0  0  0
 73163  1  0  0  0
 75164  1  0  0  0
 77165  1  0  0  0
 78166  1  0  0  0
 81167  1  0  0  0
 81168  1  0  0  0
 82169  1  0  0  0
 82170  1  0  0  0
 85171  1  0  0  0
 85172  1  0  0  0
 86173  1  0  0  0
 87174  1  0  0  0
 90175  1  0  0  0
 90176  1  0  0  0
 91177  1  0  0  0
 91178  1  0  0  0
 92179  1  0  0  0
 92180  1  0  0  0
 93181  1  0  0  0
 93182  1  0  0  0
 94183  1  0  0  0
 94184  1  0  0  0
 94185  1  0  0  0
 95186  1  0  0  0
 96187  1  0  0  0
 99188  1  0  0  0
 99189  1  0  0  0
 99190  1  0  0  0
100191  1  0  0  0
M  END
$$$$
