3t19_ligand
  -I-interpret- 

 45 49  0  0  0  0  0  0  0  0999 V2000
   11.3870   12.3610   15.3650 C   0  0  0  0  0
    7.3070   12.5430   15.1800 N   0  0  0  0  0
   11.1930   11.9960   17.6970 O   0  0  0  0  0
   10.8630   12.6530   14.0860 C   0  0  0  0  0
   13.0790   12.2250   15.5890 Cl  0  0  0  0  0
    9.4630   12.6800   13.8960 C   0  0  0  0  0
   10.6900   16.4660   19.9800 Cl  0  0  0  0  0
    8.6530   12.5210   15.0010 C   0  0  0  0  0
   10.1380   10.3050   19.7970 Cl  0  0  0  0  0
    9.1410   12.2940   16.2680 C   0  0  0  0  0
   10.5510   12.2230   16.4720 C   0  0  0  0  0
   10.9250   14.0770   18.8440 C   0  0  0  0  0
   10.7920   12.7110   18.8120 C   0  0  0  0  0
   10.2640   12.0120   19.9180 C   0  0  0  0  0
    9.8560   12.6620   21.1000 C   0  0  0  0  0
    9.9930   14.0700   21.1620 C   0  0  0  0  0
   10.5190   14.7490   20.0180 C   0  0  0  0  0
    6.9790   12.3500   16.5090 N   0  0  0  0  0
    8.1080   12.1730   17.1640 N   0  0  0  0  0
    6.2360   12.6060   14.1440 C   0  0  0  0  0
    6.2490   11.0760   13.8690 C   0  0  0  0  0
    6.6750   10.6380   12.6720 N   0  0  0  0  0
    6.6550    9.2840   12.7590 N   0  0  0  0  0
    6.2670    8.7940   13.9660 C   0  0  0  0  0
    5.9720    9.9290   14.7460 C   0  0  0  0  0
    6.1700    7.4620   14.3640 N   0  0  0  0  0
    5.7460    7.2680   15.6980 C   0  0  0  0  0
    5.3980    8.3070   16.6000 C   0  0  0  0  0
    5.5220    9.6450   16.1100 C   0  0  0  0  0
    9.2650   11.8870   22.2500 C   0  0  0  0  0
   10.1720   11.2490   23.2260 N   0  3  0  0  0
   11.5340   12.8561   13.2514 H   0  0  0  0  0
    9.0351   12.8225   12.9037 H   0  0  0  0  0
   11.3300   14.6241   17.9927 H   0  0  0  0  0
    9.7055   14.6215   22.0571 H   0  0  0  0  0
    6.3940   13.2719   13.2956 H   0  0  0  0  0
    5.2861   13.0589   14.4280 H   0  0  0  0  0
    5.6813    6.2425   16.0618 H   0  0  0  0  0
    5.0544    8.0964   17.6128 H   0  0  0  0  0
    5.2746   10.4762   16.7703 H   0  0  0  0  0
    8.7277   11.0607   21.7846 H   0  0  0  0  0
    8.7058   12.6237   22.8267 H   0  0  0  0  0
    9.6207   10.7676   23.9364 H   0  0  0  0  0
   10.7694   10.5770   22.7444 H   0  0  0  0  0
   10.7500   11.9634   23.6687 H   0  0  0  0  0
  1  4  4  0  0  0
  1  5  1  0  0  0
 11  1  4  0  0  0
  8  2  4  0  0  0
  2 18  4  0  0  0
  2 20  1  0  0  0
  3 11  1  0  0  0
 13  3  1  0  0  0
  4  6  4  0  0  0
  8  6  4  0  0  0
 17  7  1  0  0  0
 10  8  4  0  0  0
 14  9  1  0  0  0
 11 10  4  0  0  0
 10 19  4  0  0  0
 13 12  4  0  0  0
 12 17  4  0  0  0
 13 14  4  0  0  0
 14 15  4  0  0  0
 15 16  4  0  0  0
 15 30  1  0  0  0
 16 17  4  0  0  0
 18 19  4  0  0  0
 20 21  1  0  0  0
 21 22  4  0  0  0
 21 25  4  0  0  0
 22 23  4  0  0  0
 23 24  4  0  0  0
 24 25  4  0  0  0
 24 26  4  0  0  0
 25 29  4  0  0  0
 26 27  4  0  0  0
 27 28  4  0  0  0
 28 29  4  0  0  0
 30 31  1  0  0  0
  4 32  1  0  0  0
  6 33  1  0  0  0
 12 34  1  0  0  0
 16 35  1  0  0  0
 20 36  1  0  0  0
 20 37  1  0  0  0
 27 38  1  0  0  0
 28 39  1  0  0  0
 29 40  1  0  0  0
 30 41  1  0  0  0
 30 42  1  0  0  0
 31 43  1  0  0  0
 31 44  1  0  0  0
 31 45  1  0  0  0
M  END
$$$$
