3e9i_ligand
  -I-interpret- 

 62 64  0  0  0  0  0  0  0  0999 V2000
   64.2030  -73.4430   18.1720 N   0  3  0  0  0
   63.4370  -74.5700   17.6200 C   0  0  0  0  0
   62.3550  -75.0020   18.6140 C   0  0  0  0  0
   62.9540  -75.5590   19.9080 C   0  0  0  0  0
   61.8650  -75.9390   20.9160 C   0  0  0  0  0
   61.1230  -74.7010   21.4260 C   0  0  0  0  0
   62.0770  -73.8450   22.1450 N   0  3  0  0  0
   59.9970  -75.0750   22.3930 C   0  0  0  0  0
   59.9690  -74.5900   23.5210 O   0  0  0  0  0
   59.0870  -75.9450   21.9620 N   0  0  0  0  0
   58.0850  -76.2490   22.8320 O   0  0  0  0  0
   57.0800  -77.3790   22.2840 P   0  0  0  0  0
   55.7530  -77.0850   22.8690 O   0  0  0  0  0
   57.1950  -77.4990   20.8140 O   0  0  0  0  0
   57.6650  -78.7120   22.9730 O   0  0  0  0  0
   58.5860  -79.5580   22.2790 C   0  0  0  0  0
   58.2740  -81.0200   22.6020 C   0  0  0  0  0
   58.3940  -81.2900   24.0080 O   0  0  0  0  0
   56.8090  -81.3070   22.2780 C   0  0  0  0  0
   56.7000  -81.5850   20.8790 O   0  0  0  0  0
   56.6310  -82.5950   23.0790 C   0  0  0  0  0
   57.2690  -83.6890   22.4130 O   0  0  0  0  0
   57.3930  -82.2620   24.3650 C   0  0  0  0  0
   56.5420  -81.6380   25.4050 N   0  0  0  0  0
   56.1160  -80.3770   25.4220 C   0  0  0  0  0
   55.4550  -80.1410   26.5540 N   0  0  0  0  0
   55.4570  -81.2640   27.2660 C   0  0  0  0  0
   56.1450  -82.2210   26.5330 C   0  0  0  0  0
   56.2910  -83.4560   27.0330 N   0  0  0  0  0
   55.7890  -83.7740   28.2140 C   0  0  0  0  0
   55.1320  -82.8860   28.9390 N   0  0  0  0  0
   54.9460  -81.6290   28.5060 C   0  0  0  0  0
   54.3010  -80.7440   29.2620 N   0  0  0  0  0
   64.9209  -73.1618   17.5042 H   0  0  0  0  0
   63.5741  -72.6593   18.3470 H   0  0  0  0  0
   64.6436  -73.7288   19.0464 H   0  0  0  0  0
   64.1109  -75.4068   17.4362 H   0  0  0  0  0
   62.9653  -74.2613   16.6871 H   0  0  0  0  0
   61.7589  -75.7871   18.1489 H   0  0  0  0  0
   61.7545  -74.1277   18.8652 H   0  0  0  0  0
   63.5835  -74.7896   20.3550 H   0  0  0  0  0
   63.5259  -76.4546   19.6651 H   0  0  0  0  0
   62.3356  -76.4357   21.7645 H   0  0  0  0  0
   61.1479  -76.5943   20.4216 H   0  0  0  0  0
   60.6891  -74.1882   20.5676 H   0  0  0  0  0
   62.8374  -73.5836   21.5174 H   0  0  0  0  0
   61.5994  -73.0047   22.4709 H   0  0  0  0  0
   62.4541  -74.3547   22.9440 H   0  0  0  0  0
   59.1374  -76.3608   21.0320 H   0  0  0  0  0
   55.8296  -77.0361   23.8247 H   0  0  0  0  0
   59.6032  -79.3245   22.5935 H   0  0  0  0  0
   58.4931  -79.3943   21.2054 H   0  0  0  0  0
   58.9732  -81.6240   22.0238 H   0  0  0  0  0
   56.0948  -80.5149   22.5030 H   0  0  0  0  0
   55.7832  -81.7675   20.6606 H   0  0  0  0  0
   55.5909  -82.8857   23.2264 H   0  0  0  0  0
   57.1483  -84.4900   22.9281 H   0  0  0  0  0
   57.7915  -83.1910   24.7728 H   0  0  0  0  0
   56.2829  -79.6477   24.6293 H   0  0  0  0  0
   55.9194  -84.7864   28.5963 H   0  0  0  0  0
   54.1773  -79.7864   28.9332 H   0  0  0  0  0
   53.9303  -81.0232   30.1703 H   0  0  0  0  0
  1  2  1  0  0  0
  2  3  1  0  0  0
  3  4  1  0  0  0
  4  5  1  0  0  0
  5  6  1  0  0  0
  6  7  1  0  0  0
  6  8  1  0  0  0
  8  9  2  0  0  0
  8 10  1  0  0  0
 10 11  1  0  0  0
 11 12  1  0  0  0
 12 13  1  0  0  0
 12 14  2  0  0  0
 12 15  1  0  0  0
 15 16  1  0  0  0
 16 17  1  0  0  0
 17 18  1  0  0  0
 17 19  1  0  0  0
 18 23  1  0  0  0
 19 20  1  0  0  0
 19 21  1  0  0  0
 21 22  1  0  0  0
 21 23  1  0  0  0
 23 24  1  0  0  0
 24 25  4  0  0  0
 24 28  4  0  0  0
 25 26  4  0  0  0
 26 27  4  0  0  0
 27 28  4  0  0  0
 27 32  4  0  0  0
 28 29  4  0  0  0
 29 30  4  0  0  0
 30 31  4  0  0  0
 31 32  4  0  0  0
 32 33  1  0  0  0
  1 34  1  0  0  0
  1 35  1  0  0  0
  1 36  1  0  0  0
  2 37  1  0  0  0
  2 38  1  0  0  0
  3 39  1  0  0  0
  3 40  1  0  0  0
  4 41  1  0  0  0
  4 42  1  0  0  0
  5 43  1  0  0  0
  5 44  1  0  0  0
  6 45  1  0  0  0
  7 46  1  0  0  0
  7 47  1  0  0  0
  7 48  1  0  0  0
 10 49  1  0  0  0
 13 50  1  0  0  0
 16 51  1  0  0  0
 16 52  1  0  0  0
 17 53  1  0  0  0
 19 54  1  0  0  0
 20 55  1  0  0  0
 21 56  1  0  0  0
 22 57  1  0  0  0
 23 58  1  0  0  0
 25 59  1  0  0  0
 30 60  1  0  0  0
 33 61  1  0  0  0
 33 62  1  0  0  0
M  END
$$$$
