### 
### Created by X-TOOL on Mon Sep 10 21:13:00 2018
### 

@<TRIPOS>MOLECULE
3e9i_ligand
   61    63     1     0     0
SMALL
GAST_HUCK


@<TRIPOS>ATOM
      1 N1         64.2030  -73.4430   18.1720 N.4       1 XAH         0.2185
      2 C2         63.4370  -74.5700   17.6200 C.3       1 XAH        -0.0354
      3 C3         62.3550  -75.0020   18.6140 C.3       1 XAH        -0.0123
      4 C4         62.9540  -75.5590   19.9080 C.3       1 XAH        -0.0410
      5 C5         61.8650  -75.9390   20.9160 C.3       1 XAH         0.0080
      6 C6         61.1230  -74.7010   21.4260 C.3       1 XAH         0.0670
      7 N7         62.0770  -73.8450   22.1450 N.4       1 XAH         0.2379
      8 C8         59.9970  -75.0750   22.3930 C.2       1 XAH         0.2518
      9 O9         59.9690  -74.5900   23.5210 O.2       1 XAH        -0.3902
     10 N10        59.0870  -75.9450   21.9620 N.am      1 XAH        -0.1225
     11 O11        58.0850  -76.2490   22.8320 O.3       1 XAH        -0.1233
     12 P12        57.0800  -77.3790   22.2840 P.3       1 XAH         0.2925
     13 O13        55.7530  -77.0850   22.8690 O.co2     1 XAH        -0.6163
     14 O14        57.1950  -77.4990   20.8140 O.co2     1 XAH        -0.6163
     15 O15        57.6650  -78.7120   22.9730 O.3       1 XAH        -0.2496
     16 C16        58.5860  -79.5580   22.2790 C.3       1 XAH         0.1124
     17 C17        58.2740  -81.0200   22.6020 C.3       1 XAH         0.1188
     18 O18        58.3940  -81.2900   24.0080 O.3       1 XAH        -0.3364
     19 C19        56.8090  -81.3070   22.2780 C.3       1 XAH         0.1149
     20 O20        56.7000  -81.5850   20.8790 O.3       1 XAH        -0.3864
     21 C21        56.6310  -82.5950   23.0790 C.3       1 XAH         0.1385
     22 O22        57.2690  -83.6890   22.4130 O.3       1 XAH        -0.3836
     23 C23        57.3930  -82.2620   24.3650 C.3       1 XAH         0.2010
     24 N24        56.5420  -81.6380   25.4050 N.pl3     1 XAH        -0.1919
     25 C25        56.1160  -80.3770   25.4220 C.2       1 XAH         0.1123
     26 N26        55.4550  -80.1410   26.5540 N.2       1 XAH        -0.2958
     27 C27        55.4570  -81.2640   27.2660 C.ar      1 XAH         0.1045
     28 C28        56.1450  -82.2210   26.5330 C.ar      1 XAH         0.1613
     29 N29        56.2910  -83.4560   27.0330 N.ar      1 XAH        -0.2714
     30 C30        55.7890  -83.7740   28.2140 C.ar      1 XAH         0.0533
     31 N31        55.1320  -82.8860   28.9390 N.ar      1 XAH        -0.2698
     32 C32        54.9460  -81.6290   28.5060 C.ar      1 XAH         0.1298
     33 N33        54.3010  -80.7440   29.2620 N.pl3     1 XAH        -0.3152
     34 H1         64.9128  -73.1643   17.5128 H         1 XAH         0.1994
     35 H2         64.6390  -73.7242   19.0362 H         1 XAH         0.1994
     36 H3         63.5825  -72.6678   18.3454 H         1 XAH         0.1994
     37 H4         64.1160  -75.4144   17.4304 H         1 XAH         0.0813
     38 H5         62.9631  -74.2615   16.6765 H         1 XAH         0.0813
     39 H6         61.7337  -75.7802   18.1466 H         1 XAH         0.0317
     40 H7         61.7293  -74.1310   18.8586 H         1 XAH         0.0317
     41 H8         63.6055  -74.7951   20.3575 H         1 XAH         0.0270
     42 H9         63.5480  -76.4537   19.6702 H         1 XAH         0.0270
     43 H10        62.3304  -76.4545   21.7690 H         1 XAH         0.0345
     44 H11        61.1450  -76.6128   20.4287 H         1 XAH         0.0345
     45 H12        60.7004  -74.1544   20.5700 H         1 XAH         0.1098
     46 H13        61.6010  -73.0248   22.4868 H         1 XAH         0.2015
     47 H14        62.8172  -73.5677   21.5195 H         1 XAH         0.2015
     48 H15        62.4670  -74.3553   22.9219 H         1 XAH         0.2015
     49 H16        59.1364  -76.3526   21.0502 H         1 XAH         0.2282
     50 H17        59.6123  -79.3227   22.5974 H         1 XAH         0.0647
     51 H18        58.4912  -79.3931   21.1956 H         1 XAH         0.0647
     52 H19        58.9417  -81.6764   22.0247 H         1 XAH         0.0651
     53 H20        56.1229  -80.5038   22.5847 H         1 XAH         0.0648
     54 H21        57.2342  -82.3409   20.6649 H         1 XAH         0.2100
     55 H22        55.5716  -82.8229   23.2681 H         1 XAH         0.0676
     56 H23        56.8827  -83.8033   21.5526 H         1 XAH         0.2101
     57 H24        57.8566  -83.1750   24.7669 H         1 XAH         0.0996
     58 H25        56.2827  -79.6484   24.6300 H         1 XAH         0.1349
     59 H26        55.9187  -84.7808   28.5942 H         1 XAH         0.0996
     60 H27        53.9266  -81.0260   30.1792 H         1 XAH         0.1820
     61 H28        54.1761  -79.7770   28.9300 H         1 XAH         0.1820
@<TRIPOS>BOND
     1    1    2 1  
     2    2    3 1  
     3    3    4 1  
     4    4    5 1  
     5    5    6 1  
     6    6    7 1  
     7    6    8 1  
     8    8    9 2  
     9    8   10 am 
    10   10   11 1  
    11   11   12 1  
    12   12   13 ar 
    13   12   14 ar 
    14   12   15 1  
    15   15   16 1  
    16   16   17 1  
    17   17   18 1  
    18   17   19 1  
    19   18   23 1  
    20   19   20 1  
    21   19   21 1  
    22   21   22 1  
    23   21   23 1  
    24   23   24 1  
    25   24   25 1  
    26   24   28 1  
    27   25   26 2  
    28   26   27 1  
    29   27   28 ar 
    30   27   32 ar 
    31   28   29 ar 
    32   29   30 ar 
    33   30   31 ar 
    34   31   32 ar 
    35   32   33 1  
    36    1   34 1  
    37    1   35 1  
    38    1   36 1  
    39    2   37 1  
    40    2   38 1  
    41    3   39 1  
    42    3   40 1  
    43    4   41 1  
    44    4   42 1  
    45    5   43 1  
    46    5   44 1  
    47    6   45 1  
    48    7   46 1  
    49    7   47 1  
    50    7   48 1  
    51   10   49 1  
    52   16   50 1  
    53   16   51 1  
    54   17   52 1  
    55   19   53 1  
    56   20   54 1  
    57   21   55 1  
    58   22   56 1  
    59   23   57 1  
    60   25   58 1  
    61   30   59 1  
    62   33   60 1  
    63   33   61 1  
@<TRIPOS>SUBSTRUCTURE
     1 XAH         1

