4c1f_ligand
  -I-interpret- 

 29 29  0  0  0  0  0  0  0  0999 V2000
   16.9480   14.4440   10.1350 O   0  0  0  0  0
   16.7600   13.7620    9.1490 C   0  0  0  0  0
   15.3880   13.8090    8.5080 C   0  0  0  0  0
   14.4000   13.0060    9.3240 C   0  0  0  0  0
   14.2200   11.4040    8.5900 S   0  0  0  0  0
   14.9390   15.2530    8.4570 C   0  0  0  0  0
   17.8320   12.9670    8.6460 N   0  0  0  0  0
   17.7230   12.1660    7.5380 C   0  0  0  0  0
   17.4140   10.7450    7.9440 C   0  0  0  0  0
   16.9940    9.9200    7.0910 O   0  0  0  0  0
   17.5690   10.3790    9.1390 O   0  0  0  0  0
   19.0390   12.9880    9.2720 C   0  0  0  0  0
   20.0330   12.5660    8.2240 C   0  0  0  0  0
   19.1370   12.3640    6.9470 C   0  0  0  0  0
   15.4361   13.3853    7.5049 H   0  0  0  0  0
   13.4360   13.5145    9.3409 H   0  0  0  0  0
   14.7626   12.9045   10.3469 H   0  0  0  0  0
   13.3526   10.6879    9.2997 H   0  0  0  0  0
   13.9531   15.3095    7.9956 H   0  0  0  0  0
   14.8911   15.6533    9.4697 H   0  0  0  0  0
   15.6505   15.8328    7.8690 H   0  0  0  0  0
   16.9231   12.3979    6.8349 H   0  0  0  0  0
   17.8924   11.1180    9.6595 H   0  0  0  0  0
   19.0566   12.3222   10.1348 H   0  0  0  0  0
   19.2689   13.9763    9.6701 H   0  0  0  0  0
   20.5824   11.6663    8.5010 H   0  0  0  0  0
   20.8245   13.3000    8.0727 H   0  0  0  0  0
   19.1910   13.2061    6.2571 H   0  0  0  0  0
   19.4595   11.5215    6.3352 H   0  0  0  0  0
  1  2  2  0  0  0
  2  3  1  0  0  0
  2  7  1  0  0  0
  3  4  1  0  0  0
  3  6  1  0  0  0
  4  5  1  0  0  0
  7  8  1  0  0  0
  7 12  1  0  0  0
  8  9  1  0  0  0
  8 14  1  0  0  0
  9 10  2  0  0  0
  9 11  1  0  0  0
 12 13  1  0  0  0
 13 14  1  0  0  0
  3 15  1  0  0  0
  4 16  1  0  0  0
  4 17  1  0  0  0
  5 18  1  0  0  0
  6 19  1  0  0  0
  6 20  1  0  0  0
  6 21  1  0  0  0
  8 22  1  0  0  0
 11 23  1  0  0  0
 12 24  1  0  0  0
 12 25  1  0  0  0
 13 26  1  0  0  0
 13 27  1  0  0  0
 14 28  1  0  0  0
 14 29  1  0  0  0
M  END
$$$$
