3fyj_ligand
  -I-interpret- 

 45 49  0  0  0  0  0  0  0  0999 V2000
   81.6070  262.5390  109.5160 C   0  0  0  0  0
   78.4150  264.7470  106.7450 C   0  0  0  0  0
   83.3860  263.4780  106.5460 C   0  0  0  0  0
   84.6910  263.2190  106.8690 C   0  0  0  0  0
   80.3250  262.8230  109.1210 C   0  0  0  0  0
   77.0950  265.0480  106.4790 C   0  0  0  0  0
   77.6580  262.8840  107.9140 C   0  0  0  0  0
   82.6580  262.7530  108.6580 C   0  0  0  0  0
   83.9680  262.4570  109.0650 C   0  0  0  0  0
   78.7330  263.6370  107.4910 C   0  0  0  0  0
   82.3540  263.2570  107.4110 C   0  0  0  0  0
   84.5660  261.9380  110.2720 C   0  0  0  0  0
   84.9500  262.7150  108.1190 C   0  0  0  0  0
   80.1020  263.3210  107.8640 C   0  0  0  0  0
   85.9450  261.8130  110.2130 C   0  0  0  0  0
   76.1040  264.2250  106.9600 C   0  0  0  0  0
   86.9510  261.3790  111.1340 C   0  0  0  0  0
   84.2870  260.8810  112.5500 C   0  0  0  0  0
   85.3200  259.8170  112.2420 C   0  0  0  0  0
   74.6780  264.5520  106.6720 C   0  0  0  0  0
   84.8780  258.7880  111.2320 C   0  0  0  0  0
   76.3620  263.1260  107.6740 N   0  0  0  0  0
   81.1060  263.5450  107.0120 N   0  0  0  0  0
   83.8150  261.6080  111.3720 N   0  0  0  0  0
   86.6370  260.3100  111.9370 N   0  0  0  0  0
   88.0320  261.9510  111.2130 O   0  0  0  0  0
   86.5220  262.3270  108.6950 S   0  0  0  0  0
   81.7926  262.1421  110.5141 H   0  0  0  0  0
   79.2073  265.3907  106.3628 H   0  0  0  0  0
   83.1621  263.8773  105.5568 H   0  0  0  0  0
   85.4960  263.4065  106.1584 H   0  0  0  0  0
   79.4902  262.6540  109.8012 H   0  0  0  0  0
   76.8399  265.9307  105.8926 H   0  0  0  0  0
   77.8867  261.9980  108.5064 H   0  0  0  0  0
   84.7578  261.6077  113.2121 H   0  0  0  0  0
   83.4245  260.3782  112.9875 H   0  0  0  0  0
   85.4046  259.3045  113.2003 H   0  0  0  0  0
   74.4405  265.5319  107.0861 H   0  0  0  0  0
   74.5199  264.5639  105.5936 H   0  0  0  0  0
   74.0348  263.7984  107.1265 H   0  0  0  0  0
   83.9928  258.2722  111.6042 H   0  0  0  0  0
   84.6423  259.2832  110.2900 H   0  0  0  0  0
   85.6805  258.0674  111.0743 H   0  0  0  0  0
   82.8367  261.8965  111.3677 H   0  0  0  0  0
   87.4199  259.8131  112.3620 H   0  0  0  0  0
  1  5  4  0  0  0
  8  1  4  0  0  0
  2  6  4  0  0  0
 10  2  4  0  0  0
  4  3  4  0  0  0
 11  3  4  0  0  0
 13  4  4  0  0  0
  5 14  4  0  0  0
  6 16  4  0  0  0
 10  7  4  0  0  0
  7 22  4  0  0  0
  9  8  4  0  0  0
  8 11  4  0  0  0
 12  9  4  0  0  0
  9 13  4  0  0  0
 14 10  1  0  0  0
 11 23  4  0  0  0
 12 15  4  0  0  0
 24 12  1  0  0  0
 27 13  4  0  0  0
 23 14  4  0  0  0
 15 17  1  0  0  0
 15 27  4  0  0  0
 16 20  1  0  0  0
 22 16  4  0  0  0
 17 25  1  0  0  0
 17 26  2  0  0  0
 18 19  1  0  0  0
 18 24  1  0  0  0
 19 21  1  0  0  0
 19 25  1  0  0  0
  1 28  1  0  0  0
  2 29  1  0  0  0
  3 30  1  0  0  0
  4 31  1  0  0  0
  5 32  1  0  0  0
  6 33  1  0  0  0
  7 34  1  0  0  0
 18 35  1  0  0  0
 18 36  1  0  0  0
 19 37  1  0  0  0
 20 38  1  0  0  0
 20 39  1  0  0  0
 20 40  1  0  0  0
 21 41  1  0  0  0
 21 42  1  0  0  0
 21 43  1  0  0  0
 24 44  1  0  0  0
 25 45  1  0  0  0
M  END
$$$$
