3dcs_ligand
  -I-interpret- 

 23 23  0  0  0  0  0  0  0  0999 V2000
   -5.5360   -0.6590   16.3410 N   0  0  0  0  0
   -5.9500    0.5660   16.8850 S   0  0  0  0  0
   -7.2680    0.7150   16.6740 O   0  0  0  0  0
   -5.5680    0.5850   18.2600 O   0  0  0  0  0
   -5.1200    1.8240   16.0980 C   0  0  0  0  0
   -6.1150    2.9700   15.2190 S   0  0  0  0  0
   -4.6820    3.7210   14.6590 C   0  0  0  0  0
   -3.6080    3.1390   15.0580 N   0  3  0  0  0
   -2.1610    3.4230   14.8250 C   0  0  0  0  0
   -3.8790    2.0620   15.8980 N   0  0  0  0  0
   -5.0590    4.7620   13.8650 N   0  0  0  0  0
   -5.8440    5.5350   13.2150 C   0  0  0  0  0
   -5.6100    6.4700   12.4320 O   0  0  0  0  0
   -7.2690    5.2790   13.4120 C   0  0  0  0  0
   -6.2125   -1.2663   15.8785 H   0  0  0  0  0
   -4.5584   -0.9424   16.4079 H   0  0  0  0  0
   -1.9503    3.3763   13.7566 H   0  0  0  0  0
   -1.9223    4.4180   15.2006 H   0  0  0  0  0
   -1.5576    2.6813   15.3484 H   0  0  0  0  0
   -4.1553    5.1905   13.6648 H   0  0  0  0  0
   -7.7443    6.1715   13.8189 H   0  0  0  0  0
   -7.7269    5.0257   12.4558 H   0  0  0  0  0
   -7.3950    4.4494   14.1077 H   0  0  0  0  0
  1  2  1  0  0  0
  2  3  2  0  0  0
  2  4  2  0  0  0
  2  5  1  0  0  0
  5  6  4  0  0  0
  5 10  4  0  0  0
  6  7  4  0  0  0
  7  8  4  0  0  0
  7 11  1  0  0  0
  8  9  1  0  0  0
  8 10  4  0  0  0
 11 12  1  0  0  0
 12 13  2  0  0  0
 12 14  1  0  0  0
  1 15  1  0  0  0
  1 16  1  0  0  0
  9 17  1  0  0  0
  9 18  1  0  0  0
  9 19  1  0  0  0
 11 20  1  0  0  0
 14 21  1  0  0  0
 14 22  1  0  0  0
 14 23  1  0  0  0
M  END
$$$$
