4j45_ligand
  -I-interpret- 

 48 47  0  0  0  0  0  0  0  0999 V2000
   25.1090   37.9240    7.2040 N   0  3  0  0  0
   25.6500   37.8210    8.5540 C   0  0  0  0  0
   26.7070   36.7080    8.5430 C   0  0  0  0  0
   26.7270   35.8770    7.6360 O   0  0  0  0  0
   24.5120   37.4650    9.5570 C   0  0  0  0  0
   27.4390   36.6940    9.6360 N   0  0  0  0  0
   28.4560   35.6830    9.9220 C   0  0  0  0  0
   28.0790   34.7980   11.1320 C   0  0  0  0  0
   27.5730   35.2980   12.1540 O   0  0  0  0  0
   29.8430   36.3210   10.1610 C   0  0  0  0  0
   29.8730   37.0500   11.3920 O   0  0  0  0  0
   30.1340   37.2670    9.0610 C   0  0  0  0  0
   28.4440   33.5080   11.0450 N   0  0  0  0  0
   28.1610   32.5690   12.1460 C   0  0  0  0  0
   29.2060   32.8300   13.1790 C   0  0  0  0  0
   30.3880   32.8230   12.8750 O   0  0  0  0  0
   28.2400   31.1280   11.6770 C   0  0  0  0  0
   28.7670   33.0700   14.4020 N   0  0  0  0  0
   29.5880   33.6550   15.4510 C   0  0  0  0  0
   29.9230   32.5740   16.4580 C   0  0  0  0  0
   29.5370   31.4000   16.2930 O   0  0  0  0  0
   28.8360   34.7920   16.1220 C   0  0  0  0  0
   30.5850   32.8840   17.4540 O   0  0  0  0  0
   25.8604   38.1571    6.5548 H   0  0  0  0  0
   24.6919   37.0322    6.9372 H   0  0  0  0  0
   24.3975   38.6545    7.1789 H   0  0  0  0  0
   26.0926   38.7676    8.8642 H   0  0  0  0  0
   24.0439   36.5279    9.2557 H   0  0  0  0  0
   24.9314   37.3579   10.5573 H   0  0  0  0  0
   23.7674   38.2610    9.5571 H   0  0  0  0  0
   27.2883   37.4316   10.3243 H   0  0  0  0  0
   28.5059   35.0487    9.0370 H   0  0  0  0  0
   30.5822   35.5210   10.2021 H   0  0  0  0  0
   30.7443   37.4343   11.5139 H   0  0  0  0  0
   29.3798   38.0539    9.0512 H   0  0  0  0  0
   31.1191   37.7079    9.2137 H   0  0  0  0  0
   30.1167   36.7336    8.1106 H   0  0  0  0  0
   28.9222   33.1745   10.2080 H   0  0  0  0  0
   27.1531   32.7162   12.5341 H   0  0  0  0  0
   27.5092   30.9645   10.8850 H   0  0  0  0  0
   29.2412   30.9254   11.2968 H   0  0  0  0  0
   28.0261   30.4627   12.5135 H   0  0  0  0  0
   27.8000   32.8322   14.6226 H   0  0  0  0  0
   30.5081   34.0583   15.0280 H   0  0  0  0  0
   29.0404   31.3398   15.4737 H   0  0  0  0  0
   28.5991   35.5561   15.3816 H   0  0  0  0  0
   27.9136   34.4084   16.5581 H   0  0  0  0  0
   29.4577   35.2243   16.9060 H   0  0  0  0  0
  1  2  1  0  0  0
  2  3  1  0  0  0
  2  5  1  0  0  0
  3  4  2  0  0  0
  3  6  1  0  0  0
  6  7  1  0  0  0
  7  8  1  0  0  0
  7 10  1  0  0  0
  8  9  2  0  0  0
  8 13  1  0  0  0
 10 11  1  0  0  0
 10 12  1  0  0  0
 13 14  1  0  0  0
 14 15  1  0  0  0
 14 17  1  0  0  0
 15 16  2  0  0  0
 15 18  1  0  0  0
 18 19  1  0  0  0
 19 20  1  0  0  0
 19 22  1  0  0  0
 20 21  1  0  0  0
 20 23  2  0  0  0
  1 24  1  0  0  0
  1 25  1  0  0  0
  1 26  1  0  0  0
  2 27  1  0  0  0
  5 28  1  0  0  0
  5 29  1  0  0  0
  5 30  1  0  0  0
  6 31  1  0  0  0
  7 32  1  0  0  0
 10 33  1  0  0  0
 11 34  1  0  0  0
 12 35  1  0  0  0
 12 36  1  0  0  0
 12 37  1  0  0  0
 13 38  1  0  0  0
 14 39  1  0  0  0
 17 40  1  0  0  0
 17 41  1  0  0  0
 17 42  1  0  0  0
 18 43  1  0  0  0
 19 44  1  0  0  0
 21 45  1  0  0  0
 22 46  1  0  0  0
 22 47  1  0  0  0
 22 48  1  0  0  0
M  END
$$$$
