### 
### Created by X-TOOL on Mon Sep 10 21:13:31 2018
### 

@<TRIPOS>MOLECULE
6ayn_ligand
  216   217     1     0     0
SMALL
GAST_HUCK


@<TRIPOS>ATOM
      1 N          17.7450   34.4800   29.2300 N.am      1 GLN        -0.2655
      2 CA         18.3440   35.7900   29.0330 C.3       1 GLN         0.1330
      3 C          19.8390   35.7330   29.2490 C.2       1 GLN         0.2042
      4 O          20.3340   34.9550   30.0610 O.2       1 GLN        -0.3944
      5 CB         17.7240   36.8260   29.9660 C.3       1 GLN         0.0045
      6 CG         16.5140   37.5000   29.3730 C.3       1 GLN         0.0412
      7 CD         16.4610   38.9560   29.7350 C.2       1 GLN         0.1737
      8 OE1        17.1310   39.3920   30.6740 O.2       1 GLN        -0.3973
      9 NE2        15.6760   39.7310   28.9880 N.am      1 GLN        -0.3009
     10 N          20.5590   36.5740   28.5160 N.am      1 PHE        -0.2619
     11 CA         22.0080   36.5730   28.5680 C.3       1 PHE         0.1404
     12 C          22.4850   37.3770   29.7690 C.2       1 PHE         0.2060
     13 O          21.9710   38.4680   30.0450 O.2       1 PHE        -0.3942
     14 CB         22.5850   37.1410   27.2740 C.3       1 PHE         0.0214
     15 CG         24.0650   37.3270   27.3040 C.ar      1 PHE        -0.0386
     16 CD1        24.9130   36.2430   27.1620 C.ar      1 PHE        -0.0601
     17 CD2        24.6140   38.5880   27.4710 C.ar      1 PHE        -0.0601
     18 CE1        26.2850   36.4210   27.1820 C.ar      1 PHE        -0.0686
     19 CE2        26.0000   38.7760   27.4950 C.ar      1 PHE        -0.0686
     20 CZ         26.8310   37.6970   27.3520 C.ar      1 PHE        -0.0687
     21 N          23.4760   36.8360   30.4790 N.am      1 ASP        -0.2620
     22 CA         23.9540   37.4040   31.7340 C.3       1 ASP         0.1423
     23 C          25.3320   38.0260   31.5270 C.2       1 ASP         0.2056
     24 O          26.2750   37.3300   31.1440 O.2       1 ASP        -0.3943
     25 CB         24.0110   36.3390   32.8260 C.3       1 ASP         0.0406
     26 CG         24.3910   36.9130   34.1650 C.2       1 ASP         0.0393
     27 OD1        24.1290   38.1110   34.3790 O.co2     1 ASP        -0.5688
     28 OD2        24.9670   36.1820   34.9940 O.co2     1 ASP        -0.5688
     29 N          25.4450   39.3280   31.8310 N.am      1 LEU        -0.2636
     30 CA         26.6830   40.0740   31.6010 C.3       1 LEU         0.1312
     31 C          27.8040   39.6480   32.5420 C.2       1 LEU         0.2040
     32 O          28.9830   39.7690   32.1880 O.2       1 LEU        -0.3944
     33 CB         26.4200   41.5740   31.7510 C.3       1 LEU        -0.0101
     34 CG         25.4300   42.0650   30.6920 C.3       1 LEU        -0.0425
     35 CD1        24.9790   43.5000   30.9320 C.3       1 LEU        -0.0625
     36 CD2        26.0510   41.9180   29.3100 C.3       1 LEU        -0.0625
     37 N          27.4660   39.1640   33.7430 N.am      1 SER        -0.2616
     38 CA         28.5090   38.7870   34.6930 C.3       1 SER         0.1539
     39 C          29.2720   37.5490   34.2280 C.2       1 SER         0.2063
     40 O          30.5060   37.5070   34.3030 O.2       1 SER        -0.3943
     41 CB         27.8990   38.5580   36.0790 C.3       1 SER         0.0843
     42 OG         27.1970   39.7080   36.5290 O.3       1 SER        -0.3903
     43 N          28.5560   36.5480   33.7090 N.am      1 THR        -0.2613
     44 CA         29.1230   35.2520   33.3270 C.3       1 THR         0.1565
     45 C          29.2360   34.9870   31.8190 C.2       1 THR         0.2065
     46 O          29.8640   33.9940   31.4170 O.2       1 THR        -0.3943
     47 CB         28.2780   34.1080   33.9090 C.3       1 THR         0.0924
     48 OG1        26.9510   34.1640   33.3530 O.3       1 THR        -0.3874
     49 CG2        28.2160   34.2240   35.4340 C.3       1 THR        -0.0346
     50 N          28.6100   35.8500   31.0110 N.am      1 C4G        -0.2636
     51 CA         28.4620   35.6750   29.6600 C.3       1 C4G         0.1311
     52 C          27.8150   34.4850   29.2900 C.2       1 C4G         0.2039
     53 O          28.1100   33.9250   28.1980 O.2       1 C4G        -0.3944
     54 CB         29.8020   35.7180   28.9240 C.3       1 C4G        -0.0092
     55 CG         30.4190   37.0800   29.1750 C.3       1 C4G        -0.0156
     56 CD         31.5640   37.2670   28.1110 C.3       1 C4G         0.0627
     57 NE         32.2660   38.4270   28.5170 N.pl3     1 C4G        -0.2722
     58 CZ         33.3880   38.8030   27.9030 C.cat     1 C4G         0.2903
     59 NH1        33.8350   38.0200   26.8750 N.pl3     1 C4G        -0.2848
     60 NH2        34.2700   39.8640   28.0620 N.pl3     1 C4G        -0.2720
     61 C01        35.0750   40.7030   30.1230 C.3       1 C4G         0.0204
     62 C02        34.0160   40.8240   29.0950 C.3       1 C4G         0.0674
     63 C03        36.3680   41.0100   29.4790 C.3       1 C4G        -0.0322
     64 N01        37.3930   39.9890   29.8380 N.4       1 C4G         0.2186
     65 N          26.8930   34.0020   30.1130 N.am      1 ARG        -0.2637
     66 CA         26.1590   32.7980   29.7830 C.3       1 ARG         0.1311
     67 C          24.6560   33.0690   29.7880 C.2       1 ARG         0.2039
     68 O          24.1820   34.0720   30.3380 O.2       1 ARG        -0.3944
     69 CB         26.5180   31.6770   30.7640 C.3       1 ARG        -0.0092
     70 CG         27.9980   31.2730   30.7240 C.3       1 ARG        -0.0156
     71 CD         28.3640   30.5300   29.4260 C.3       1 ARG         0.0627
     72 NE         27.3700   29.5160   29.0970 N.pl3     1 ARG        -0.2723
     73 CZ         27.1960   28.3760   29.7690 C.cat     1 ARG         0.2882
     74 NH1        27.9800   28.0730   30.8040 N.pl3     1 ARG        -0.2849
     75 NH2        26.2340   27.5320   29.3960 N.pl3     1 ARG        -0.2849
     76 N          23.8960   32.1900   29.1520 N.am      1 LEU        -0.2637
     77 CA         22.4480   32.2920   29.2200 C.3       1 LEU         0.1312
     78 C          21.9660   31.7600   30.5640 C.2       1 LEU         0.2039
     79 O          22.4350   30.7160   31.0360 O.2       1 LEU        -0.3944
     80 CB         21.7880   31.5240   28.0720 C.3       1 LEU        -0.0101
     81 CG         22.0330   32.0270   26.6450 C.3       1 LEU        -0.0425
     82 CD1        21.4410   31.0480   25.6280 C.3       1 LEU        -0.0625
     83 CD2        21.4500   33.4250   26.4560 C.3       1 LEU        -0.0625
     84 N          21.0580   32.5040   31.1900 N.am      1 LYS        -0.2637
     85 CA         20.4680   32.1570   32.4820 C.3       1 LYS         0.1308
     86 C          18.9710   31.9890   32.2960 C.2       1 LYS         0.2016
     87 O          18.3690   32.7150   31.5140 O.2       1 LYS        -0.3945
     88 CB         20.7530   33.2410   33.5210 C.3       1 LYS        -0.0122
     89 CG         20.7200   32.7870   34.9620 C.3       1 LYS        -0.0440
     90 CD         21.1700   33.9150   35.8710 C.3       1 LYS        -0.0124
     91 CE         21.6940   33.3720   37.1760 C.3       1 LYS        -0.0354
     92 NZ         21.7250   34.4400   38.2220 N.4       1 LYS         0.2185
     93 C5         16.5380   30.4400   30.3920 C.3       1 011        -0.0511
     94 C4         16.9860   30.3970   28.9720 C.3       1 011        -0.0509
     95 O          17.9690   34.2840   26.8390 O.2       1 011        -0.3969
     96 C6         17.5890   29.8090   31.2440 C.3       1 011        -0.0327
     97 C3         17.7600   31.6210   28.5960 C.3       1 011        -0.0361
     98 C7         17.3460   30.2170   32.6630 C.3       1 011         0.0309
     99 C2         16.8360   32.7250   28.1980 C.3       1 011         0.0374
    100 N          18.3450   31.1550   33.1190 N.am      1 011        -0.2851
    101 C1         17.6530   33.9520   28.0090 C.2       1 011         0.1782
    102 H1         17.4628   34.0645   30.0947 H         1 GLN         0.1883
    103 H2         18.1542   36.1014   27.9952 H         1 GLN         0.0801
    104 H3         18.4793   37.5939   30.1891 H         1 GLN         0.0337
    105 H4         17.4247   36.3243   30.8980 H         1 GLN         0.0337
    106 H5         15.6077   37.0046   29.7515 H         1 GLN         0.0504
    107 H6         16.5533   37.4055   28.2778 H         1 GLN         0.0504
    108 H7         15.6041   40.7086   29.1860 H         1 GLN         0.1814
    109 H8         15.1586   39.3352   28.2293 H         1 GLN         0.1814
    110 H9         20.0917   37.2223   27.9149 H         1 PHE         0.1885
    111 H10        22.3558   35.5355   28.6799 H         1 PHE         0.0823
    112 H11        22.1167   38.1182   27.0853 H         1 PHE         0.0474
    113 H12        22.3389   36.4517   26.4528 H         1 PHE         0.0474
    114 H13        24.5002   35.2488   27.0344 H         1 PHE         0.0557
    115 H14        23.9583   39.4436   27.5850 H         1 PHE         0.0557
    116 H15        26.9408   35.5658   27.0651 H         1 PHE         0.0599
    117 H16        26.4135   39.7694   27.6260 H         1 PHE         0.0599
    118 H17        27.9065   37.8314   27.3705 H         1 PHE         0.0559
    119 H18        23.9107   36.0036   30.1353 H         1 ASP         0.1884
    120 H19        23.2552   38.1920   32.0514 H         1 ASP         0.0819
    121 H20        24.7556   35.5808   32.5421 H         1 ASP         0.0478
    122 H21        23.0212   35.8669   32.9117 H         1 ASP         0.0478
    123 H22        24.6592   39.8032   32.2269 H         1 LEU         0.1883
    124 H23        27.0118   39.8780   30.5698 H         1 LEU         0.0800
    125 H24        27.3687   42.1189   31.6368 H         1 LEU         0.0315
    126 H25        26.0035   41.7682   32.7504 H         1 LEU         0.0315
    127 H26        24.5381   41.4229   30.7393 H         1 LEU         0.0298
    128 H27        24.2717   43.7986   30.1443 H         1 LEU         0.0232
    129 H28        25.8532   44.1673   30.9120 H         1 LEU         0.0232
    130 H29        24.4863   43.5703   31.9130 H         1 LEU         0.0232
    131 H30        26.3684   40.8756   29.1597 H         1 LEU         0.0232
    132 H31        26.9237   42.5825   29.2276 H         1 LEU         0.0232
    133 H32        25.3096   42.1896   28.5441 H         1 LEU         0.0232
    134 H33        26.5023   39.0608   33.9891 H         1 SER         0.1884
    135 H34        29.2241   39.6198   34.7640 H         1 SER         0.0823
    136 H35        28.7046   38.3280   36.7918 H         1 SER         0.0606
    137 H36        27.2012   37.7092   36.0279 H         1 SER         0.0606
    138 H37        27.7959   40.4438   36.5791 H         1 SER         0.2097
    139 H38        27.5757   36.6914   33.5732 H         1 THR         0.1884
    140 H39        30.1352   35.2027   33.7547 H         1 THR         0.0826
    141 H40        28.7403   33.1463   33.6419 H         1 THR         0.0639
    142 H41        26.5519   34.9977   33.5724 H         1 THR         0.2101
    143 H42        27.6093   33.4011   35.8399 H         1 THR         0.0257
    144 H43        27.7603   35.1863   35.7103 H         1 THR         0.0257
    145 H44        29.2337   34.1679   35.8477 H         1 THR         0.0257
    146 H45        28.2247   36.6773   31.4198 H         1 C4G         0.1883
    147 H46        27.8474   36.5128   29.2989 H         1 C4G         0.0800
    148 H47        29.6426   35.5714   27.8455 H         1 C4G         0.0313
    149 H48        30.4659   34.9291   29.3071 H         1 C4G         0.0313
    150 H49        30.8366   37.1245   30.1917 H         1 C4G         0.0301
    151 H50        29.6597   37.8669   29.0557 H         1 C4G         0.0301
    152 H51        31.1376   37.4066   27.1067 H         1 C4G         0.0689
    153 H52        32.2328   36.3937   28.1072 H         1 C4G         0.0689
    154 H53        31.9040   38.9900   29.2999 H         1 C4G         0.2642
    155 H54        34.6978   38.2730   26.3725 H         1 C4G         0.2615
    156 H55        33.3089   37.1772   26.6032 H         1 C4G         0.2615
    157 H56        35.0918   39.9591   27.4485 H         1 C4G         0.2642
    158 H57        35.0911   39.6791   30.5247 H         1 C4G         0.0351
    159 H58        34.8860   41.4146   30.9402 H         1 C4G         0.0351
    160 H59        33.0339   40.6279   29.5499 H         1 C4G         0.0691
    161 H60        34.0270   41.8382   28.6693 H         1 C4G         0.0691
    162 H61        36.7119   41.9997   29.8140 H         1 C4G         0.0814
    163 H62        36.2343   41.0185   28.3872 H         1 C4G         0.0814
    164 H63        38.2661   40.2171   29.3888 H         1 C4G         0.1994
    165 H64        37.0842   39.0802   29.5302 H         1 C4G         0.1994
    166 H65        37.5219   39.9793   30.8377 H         1 C4G         0.1994
    167 H66        26.7024   34.4758   30.9728 H         1 ARG         0.1883
    168 H67        26.4491   32.4793   28.7710 H         1 ARG         0.0800
    169 H68        25.9101   30.7935   30.5194 H         1 ARG         0.0313
    170 H69        26.2781   32.0166   31.7824 H         1 ARG         0.0313
    171 H70        28.2088   30.6151   31.5800 H         1 ARG         0.0301
    172 H71        28.6150   32.1806   30.7984 H         1 ARG         0.0301
    173 H72        29.3423   30.0439   29.5552 H         1 ARG         0.0689
    174 H73        28.4213   31.2560   28.6017 H         1 ARG         0.0689
    175 H74        26.7577   29.6919   28.2876 H         1 ARG         0.2642
    176 H75        27.8382   27.1909   31.3166 H         1 ARG         0.2615
    177 H76        28.7274   28.7210   31.0910 H         1 ARG         0.2615
    178 H77        25.6270   27.7637   28.5968 H         1 ARG         0.2615
    179 H78        26.0977   26.6481   29.9070 H         1 ARG         0.2615
    180 H79        24.3198   31.4543   28.6237 H         1 LEU         0.1883
    181 H80        22.1657   33.3519   29.1370 H         1 LEU         0.0800
    182 H81        20.7019   31.5434   28.2452 H         1 LEU         0.0315
    183 H82        22.1487   30.4860   28.1209 H         1 LEU         0.0315
    184 H83        23.1191   32.0823   26.4796 H         1 LEU         0.0298
    185 H84        21.6243   31.4217   24.6098 H         1 LEU         0.0232
    186 H85        20.3577   30.9559   25.7953 H         1 LEU         0.0232
    187 H86        21.9156   30.0630   25.7480 H         1 LEU         0.0232
    188 H87        21.8899   34.1089   27.1968 H         1 LEU         0.0232
    189 H88        20.3591   33.3890   26.5927 H         1 LEU         0.0232
    190 H89        21.6809   33.7846   25.4424 H         1 LEU         0.0232
    191 H90        20.7611   33.3517   30.7504 H         1 LYS         0.1883
    192 H91        20.8995   31.2079   32.8326 H         1 LYS         0.0800
    193 H92        20.0005   34.0339   33.3984 H         1 LYS         0.0312
    194 H93        21.7535   33.6504   33.3177 H         1 LYS         0.0312
    195 H94        21.3934   31.9265   35.0885 H         1 LYS         0.0269
    196 H95        19.6942   32.4921   35.2278 H         1 LYS         0.0269
    197 H96        20.3161   34.5783   36.0730 H         1 LYS         0.0317
    198 H97        21.9670   34.4851   35.3713 H         1 LYS         0.0317
    199 H98        22.7132   32.9874   37.0232 H         1 LYS         0.0813
    200 H99        21.0405   32.5546   37.5147 H         1 LYS         0.0813
    201 H100       22.0779   34.0555   39.0844 H         1 LYS         0.1994
    202 H101       20.7926   34.7939   38.3686 H         1 LYS         0.1994
    203 H102       22.3254   35.1905   37.9182 H         1 LYS         0.1994
    204 H103       15.5932   29.8869   30.4991 H         1 011         0.0266
    205 H104       16.3884   31.4849   30.7016 H         1 011         0.0266
    206 H105       16.1019   30.3212   28.3219 H         1 011         0.0267
    207 H106       17.6248   29.5133   28.8268 H         1 011         0.0267
    208 H107       18.5839   30.1513   30.9231 H         1 011         0.0285
    209 H108       17.5320   28.7140   31.1562 H         1 011         0.0285
    210 H109       18.4244   31.3837   27.7521 H         1 011         0.0290
    211 H110       18.3625   31.9465   29.4568 H         1 011         0.0290
    212 H111       17.3760   29.3228   33.3029 H         1 011         0.0520
    213 H112       16.3541   30.6869   32.7357 H         1 011         0.0520
    214 H113       16.0883   32.8908   28.9876 H         1 011         0.0502
    215 H114       16.3259   32.4662   27.2584 H         1 011         0.0502
    216 H115       18.5744   31.1776   34.0921 H         1 011         0.1851
@<TRIPOS>BOND
     1    2    1 1  
     2    1  101 am 
     3    3    2 1  
     4    2    5 1  
     5    3    4 2  
     6   10    3 am 
     7    5    6 1  
     8    6    7 1  
     9    7    8 2  
    10    7    9 am 
    11   11   10 1  
    12   12   11 1  
    13   11   14 1  
    14   12   13 2  
    15   21   12 am 
    16   14   15 1  
    17   15   16 ar 
    18   15   17 ar 
    19   16   18 ar 
    20   17   19 ar 
    21   18   20 ar 
    22   19   20 ar 
    23   22   21 1  
    24   23   22 1  
    25   22   25 1  
    26   23   24 2  
    27   29   23 am 
    28   25   26 1  
    29   26   27 ar 
    30   26   28 ar 
    31   30   29 1  
    32   31   30 1  
    33   30   33 1  
    34   31   32 2  
    35   37   31 am 
    36   33   34 1  
    37   34   35 1  
    38   34   36 1  
    39   38   37 1  
    40   39   38 1  
    41   38   41 1  
    42   39   40 2  
    43   43   39 am 
    44   41   42 1  
    45   44   43 1  
    46   45   44 1  
    47   44   47 1  
    48   45   46 2  
    49   50   45 am 
    50   47   48 1  
    51   47   49 1  
    52   51   50 1  
    53   52   51 1  
    54   51   54 1  
    55   52   53 2  
    56   65   52 am 
    57   54   55 1  
    58   55   56 1  
    59   56   57 1  
    60   57   58 ar 
    61   58   59 ar 
    62   58   60 ar 
    63   60   62 1  
    64   62   61 1  
    65   61   63 1  
    66   63   64 1  
    67   66   65 1  
    68   67   66 1  
    69   66   69 1  
    70   67   68 2  
    71   76   67 am 
    72   69   70 1  
    73   70   71 1  
    74   71   72 1  
    75   72   73 ar 
    76   73   74 ar 
    77   73   75 ar 
    78   77   76 1  
    79   78   77 1  
    80   77   80 1  
    81   78   79 2  
    82   84   78 am 
    83   80   81 1  
    84   81   82 1  
    85   81   83 1  
    86   85   84 1  
    87   86   85 1  
    88   85   88 1  
    89   86   87 2  
    90  100   86 am 
    91   88   89 1  
    92   89   90 1  
    93   90   91 1  
    94   91   92 1  
    95   93   94 1  
    96   96   93 1  
    97   94   97 1  
    98  101   95 2  
    99   98   96 1  
   100   97   99 1  
   101   98  100 1  
   102   99  101 1  
   103    1  102 1  
   104    2  103 1  
   105    5  104 1  
   106    5  105 1  
   107    6  106 1  
   108    6  107 1  
   109    9  108 1  
   110    9  109 1  
   111   10  110 1  
   112   11  111 1  
   113   14  112 1  
   114   14  113 1  
   115   16  114 1  
   116   17  115 1  
   117   18  116 1  
   118   19  117 1  
   119   20  118 1  
   120   21  119 1  
   121   22  120 1  
   122   25  121 1  
   123   25  122 1  
   124   29  123 1  
   125   30  124 1  
   126   33  125 1  
   127   33  126 1  
   128   34  127 1  
   129   35  128 1  
   130   35  129 1  
   131   35  130 1  
   132   36  131 1  
   133   36  132 1  
   134   36  133 1  
   135   37  134 1  
   136   38  135 1  
   137   41  136 1  
   138   41  137 1  
   139   42  138 1  
   140   43  139 1  
   141   44  140 1  
   142   47  141 1  
   143   48  142 1  
   144   49  143 1  
   145   49  144 1  
   146   49  145 1  
   147   50  146 1  
   148   51  147 1  
   149   54  148 1  
   150   54  149 1  
   151   55  150 1  
   152   55  151 1  
   153   56  152 1  
   154   56  153 1  
   155   57  154 1  
   156   59  155 1  
   157   59  156 1  
   158   60  157 1  
   159   61  158 1  
   160   61  159 1  
   161   62  160 1  
   162   62  161 1  
   163   63  162 1  
   164   63  163 1  
   165   64  164 1  
   166   64  165 1  
   167   64  166 1  
   168   65  167 1  
   169   66  168 1  
   170   69  169 1  
   171   69  170 1  
   172   70  171 1  
   173   70  172 1  
   174   71  173 1  
   175   71  174 1  
   176   72  175 1  
   177   74  176 1  
   178   74  177 1  
   179   75  178 1  
   180   75  179 1  
   181   76  180 1  
   182   77  181 1  
   183   80  182 1  
   184   80  183 1  
   185   81  184 1  
   186   82  185 1  
   187   82  186 1  
   188   82  187 1  
   189   83  188 1  
   190   83  189 1  
   191   83  190 1  
   192   84  191 1  
   193   85  192 1  
   194   88  193 1  
   195   88  194 1  
   196   89  195 1  
   197   89  196 1  
   198   90  197 1  
   199   90  198 1  
   200   91  199 1  
   201   91  200 1  
   202   92  201 1  
   203   92  202 1  
   204   92  203 1  
   205   93  204 1  
   206   93  205 1  
   207   94  206 1  
   208   94  207 1  
   209   96  208 1  
   210   96  209 1  
   211   97  210 1  
   212   97  211 1  
   213   98  212 1  
   214   98  213 1  
   215   99  214 1  
   216   99  215 1  
   217  100  216 1  
@<TRIPOS>SUBSTRUCTURE
     1 GLN         1

