6ayn_ligand
  -I-interpret- 

215216  0  0  0  0  0  0  0  0999 V2000
   17.7450   34.4800   29.2300 N   0  0  0  0  0
   18.3440   35.7900   29.0330 C   0  0  0  0  0
   19.8390   35.7330   29.2490 C   0  0  0  0  0
   20.3340   34.9550   30.0610 O   0  0  0  0  0
   17.7240   36.8260   29.9660 C   0  0  0  0  0
   16.5140   37.5000   29.3730 C   0  0  0  0  0
   16.4610   38.9560   29.7350 C   0  0  0  0  0
   17.1310   39.3920   30.6740 O   0  0  0  0  0
   15.6760   39.7310   28.9880 N   0  0  0  0  0
   20.5590   36.5740   28.5160 N   0  0  0  0  0
   22.0080   36.5730   28.5680 C   0  0  0  0  0
   22.4850   37.3770   29.7690 C   0  0  0  0  0
   21.9710   38.4680   30.0450 O   0  0  0  0  0
   22.5850   37.1410   27.2740 C   0  0  0  0  0
   24.0650   37.3270   27.3040 C   0  0  0  0  0
   24.9130   36.2430   27.1620 C   0  0  0  0  0
   24.6140   38.5880   27.4710 C   0  0  0  0  0
   26.2850   36.4210   27.1820 C   0  0  0  0  0
   26.0000   38.7760   27.4950 C   0  0  0  0  0
   26.8310   37.6970   27.3520 C   0  0  0  0  0
   23.4760   36.8360   30.4790 N   0  0  0  0  0
   23.9540   37.4040   31.7340 C   0  0  0  0  0
   25.3320   38.0260   31.5270 C   0  0  0  0  0
   26.2750   37.3300   31.1440 O   0  0  0  0  0
   24.0110   36.3390   32.8260 C   0  0  0  0  0
   24.3910   36.9130   34.1650 C   0  0  0  0  0
   24.1290   38.1110   34.3790 O   0  0  0  0  0
   24.9670   36.1820   34.9940 O   0  0  0  0  0
   25.4450   39.3280   31.8310 N   0  0  0  0  0
   26.6830   40.0740   31.6010 C   0  0  0  0  0
   27.8040   39.6480   32.5420 C   0  0  0  0  0
   28.9830   39.7690   32.1880 O   0  0  0  0  0
   26.4200   41.5740   31.7510 C   0  0  0  0  0
   25.4300   42.0650   30.6920 C   0  0  0  0  0
   24.9790   43.5000   30.9320 C   0  0  0  0  0
   26.0510   41.9180   29.3100 C   0  0  0  0  0
   27.4660   39.1640   33.7430 N   0  0  0  0  0
   28.5090   38.7870   34.6930 C   0  0  0  0  0
   29.2720   37.5490   34.2280 C   0  0  0  0  0
   30.5060   37.5070   34.3030 O   0  0  0  0  0
   27.8990   38.5580   36.0790 C   0  0  0  0  0
   27.1970   39.7080   36.5290 O   0  0  0  0  0
   28.5560   36.5480   33.7090 N   0  0  0  0  0
   29.1230   35.2520   33.3270 C   0  0  0  0  0
   29.2360   34.9870   31.8190 C   0  0  0  0  0
   29.8640   33.9940   31.4170 O   0  0  0  0  0
   28.2780   34.1080   33.9090 C   0  0  0  0  0
   26.9510   34.1640   33.3530 O   0  0  0  0  0
   28.2160   34.2240   35.4340 C   0  0  0  0  0
   28.6100   35.8500   31.0110 N   0  0  0  0  0
   28.4620   35.6750   29.6600 C   0  0  0  0  0
   27.8150   34.4850   29.2900 C   0  0  0  0  0
   28.1100   33.9250   28.1980 O   0  0  0  0  0
   29.8020   35.7180   28.9240 C   0  0  0  0  0
   30.4190   37.0800   29.1750 C   0  0  0  0  0
   31.5640   37.2670   28.1110 C   0  0  0  0  0
   32.2660   38.4270   28.5170 N   0  0  0  0  0
   33.3880   38.8030   27.9030 C   0  0  0  0  0
   33.8350   38.0200   26.8750 N   0  0  0  0  0
   34.2700   39.8640   28.0620 N   0  0  0  0  0
   35.0750   40.7030   30.1230 C   0  0  0  0  0
   34.0160   40.8240   29.0950 C   0  0  0  0  0
   36.3680   41.0100   29.4790 C   0  0  0  0  0
   37.3930   39.9890   29.8380 N   0  3  0  0  0
   26.8930   34.0020   30.1130 N   0  0  0  0  0
   26.1590   32.7980   29.7830 C   0  0  0  0  0
   24.6560   33.0690   29.7880 C   0  0  0  0  0
   24.1820   34.0720   30.3380 O   0  0  0  0  0
   26.5180   31.6770   30.7640 C   0  0  0  0  0
   27.9980   31.2730   30.7240 C   0  0  0  0  0
   28.3640   30.5300   29.4260 C   0  0  0  0  0
   27.3700   29.5160   29.0970 N   0  0  0  0  0
   27.1960   28.3760   29.7690 C   0  0  0  0  0
   27.9800   28.0730   30.8040 N   0  0  0  0  0
   26.2340   27.5320   29.3960 N   0  0  0  0  0
   23.8960   32.1900   29.1520 N   0  0  0  0  0
   22.4480   32.2920   29.2200 C   0  0  0  0  0
   21.9660   31.7600   30.5640 C   0  0  0  0  0
   22.4350   30.7160   31.0360 O   0  0  0  0  0
   21.7880   31.5240   28.0720 C   0  0  0  0  0
   22.0330   32.0270   26.6450 C   0  0  0  0  0
   21.4410   31.0480   25.6280 C   0  0  0  0  0
   21.4500   33.4250   26.4560 C   0  0  0  0  0
   21.0580   32.5040   31.1900 N   0  0  0  0  0
   20.4680   32.1570   32.4820 C   0  0  0  0  0
   18.9710   31.9890   32.2960 C   0  0  0  0  0
   18.3690   32.7150   31.5140 O   0  0  0  0  0
   20.7530   33.2410   33.5210 C   0  0  0  0  0
   20.7200   32.7870   34.9620 C   0  0  0  0  0
   21.1700   33.9150   35.8710 C   0  0  0  0  0
   21.6940   33.3720   37.1760 C   0  0  0  0  0
   21.7250   34.4400   38.2220 N   0  3  0  0  0
   16.5380   30.4400   30.3920 C   0  0  0  0  0
   16.9860   30.3970   28.9720 C   0  0  0  0  0
   17.9690   34.2840   26.8390 O   0  0  0  0  0
   17.5890   29.8090   31.2440 C   0  0  0  0  0
   17.7600   31.6210   28.5960 C   0  0  0  0  0
   17.3460   30.2170   32.6630 C   0  0  0  0  0
   16.8360   32.7250   28.1980 C   0  0  0  0  0
   18.3450   31.1550   33.1190 N   0  0  0  0  0
   17.6530   33.9520   28.0090 C   0  0  0  0  0
   17.4572   34.0562   30.1120 H   0  0  0  0  0
   18.1466   36.0904   28.0040 H   0  0  0  0  0
   18.4736   37.5943   30.1552 H   0  0  0  0  0
   17.4068   36.3101   30.8723 H   0  0  0  0  0
   15.6211   37.0141   29.7665 H   0  0  0  0  0
   16.5700   37.4163   28.2877 H   0  0  0  0  0
   15.6111   40.7301   29.1831 H   0  0  0  0  0
   15.1398   39.3253   28.2210 H   0  0  0  0  0
   20.0823   37.2353   27.9029 H   0  0  0  0  0
   22.3588   35.5466   28.6756 H   0  0  0  0  0
   22.1374   38.1232   27.1226 H   0  0  0  0  0
   22.3634   36.4285   26.4795 H   0  0  0  0  0
   24.4980   35.2433   27.0337 H   0  0  0  0  0
   23.9547   39.4484   27.5857 H   0  0  0  0  0
   26.9444   35.5611   27.0645 H   0  0  0  0  0
   26.4158   39.7749   27.6267 H   0  0  0  0  0
   27.9124   37.8321   27.3706 H   0  0  0  0  0
   23.9193   35.9869   30.1284 H   0  0  0  0  0
   23.2564   38.1780   32.0539 H   0  0  0  0  0
   24.7679   35.6068   32.5449 H   0  0  0  0  0
   23.0197   35.8952   32.9175 H   0  0  0  0  0
   25.0684   35.3011   34.6262 H   0  0  0  0  0
   24.6435   39.8127   32.2348 H   0  0  0  0  0
   27.0115   39.8517   30.5857 H   0  0  0  0  0
   27.3614   42.1087   31.6247 H   0  0  0  0  0
   25.9963   41.7580   32.7383 H   0  0  0  0  0
   24.5353   41.4462   30.7609 H   0  0  0  0  0
   24.4911   43.5684   31.9043 H   0  0  0  0  0
   25.8461   44.1602   30.9120 H   0  0  0  0  0
   24.2782   43.7947   30.1509 H   0  0  0  0  0
   26.9636   42.5117   29.2582 H   0  0  0  0  0
   26.2874   40.8695   29.1289 H   0  0  0  0  0
   25.3451   42.2680   28.5568 H   0  0  0  0  0
   26.4830   39.0588   33.9940 H   0  0  0  0  0
   29.2246   39.6071   34.7515 H   0  0  0  0  0
   28.7042   38.3452   36.7822 H   0  0  0  0  0
   27.1983   37.7254   36.0170 H   0  0  0  0  0
   26.8265   39.5358   37.3977 H   0  0  0  0  0
   27.5561   36.6943   33.5705 H   0  0  0  0  0
   30.1354   35.2902   33.7291 H   0  0  0  0  0
   28.7362   33.1530   33.6518 H   0  0  0  0  0
   26.4227   33.4495   33.7163 H   0  0  0  0  0
   29.2250   34.1683   35.8427 H   0  0  0  0  0
   27.7644   35.1779   35.7065 H   0  0  0  0  0
   27.6147   33.4081   35.8350 H   0  0  0  0  0
   28.2170   36.6938   31.4280 H   0  0  0  0  0
   27.8283   36.5124   29.3680 H   0  0  0  0  0
   29.6546   35.5582   27.8559 H   0  0  0  0  0
   30.4609   34.9292   29.2871 H   0  0  0  0  0
   30.8181   37.1429   30.1874 H   0  0  0  0  0
   29.6707   37.8668   29.0798 H   0  0  0  0  0
   31.1617   37.3738   27.1036 H   0  0  0  0  0
   32.2185   36.3964   28.0690 H   0  0  0  0  0
   31.9075   38.9846   29.2922 H   0  0  0  0  0
   33.3140   37.1854   26.6058 H   0  0  0  0  0
   35.0839   39.9581   27.4544 H   0  0  0  0  0
   35.0881   39.6940   30.5352 H   0  0  0  0  0
   34.8870   41.3963   30.9428 H   0  0  0  0  0
   33.0403   40.6372   29.5435 H   0  0  0  0  0
   34.0190   41.8301   28.6756 H   0  0  0  0  0
   36.7090   41.9866   29.8226 H   0  0  0  0  0
   36.2319   41.0066   28.3975 H   0  0  0  0  0
   38.2760   40.2208   29.3830 H   0  0  0  0  0
   37.5225   39.9801   30.8497 H   0  0  0  0  0
   37.0794   39.0699   29.5261 H   0  0  0  0  0
   26.6986   34.4853   30.9900 H   0  0  0  0  0
   26.4389   32.4786   28.7791 H   0  0  0  0  0
   25.9331   30.8004   30.4855 H   0  0  0  0  0
   26.3071   32.0431   31.7688 H   0  0  0  0  0
   28.1894   30.6039   31.5629 H   0  0  0  0  0
   28.5987   32.1811   30.7755 H   0  0  0  0  0
   29.3267   30.0388   29.5674 H   0  0  0  0  0
   28.4037   31.2536   28.6118 H   0  0  0  0  0
   26.7637   29.6901   28.2955 H   0  0  0  0  0
   27.8429   27.1971   31.3084 H   0  0  0  0  0
   28.7168   28.7171   31.0914 H   0  0  0  0  0
   25.6362   27.7591   28.6013 H   0  0  0  0  0
   24.3283   31.4396   28.6131 H   0  0  0  0  0
   22.1647   33.3401   29.1229 H   0  0  0  0  0
   20.7147   31.6208   28.2352 H   0  0  0  0  0
   22.2172   30.5226   28.1061 H   0  0  0  0  0
   23.1087   32.0871   26.4796 H   0  0  0  0  0
   21.9121   30.0724   25.7480 H   0  0  0  0  0
   20.3676   30.9576   25.7949 H   0  0  0  0  0
   21.6232   31.4193   24.6195 H   0  0  0  0  0
   20.3760   33.3973   26.6401 H   0  0  0  0  0
   21.9226   34.1123   27.1577 H   0  0  0  0  0
   21.6365   33.7602   25.4357 H   0  0  0  0  0
   20.7552   33.3686   30.7416 H   0  0  0  0  0
   20.9083   31.2282   32.8446 H   0  0  0  0  0
   19.9667   33.9882   33.4132 H   0  0  0  0  0
   21.7663   33.5944   33.3304 H   0  0  0  0  0
   21.3909   31.9369   35.0859 H   0  0  0  0  0
   19.7020   32.4991   35.2243 H   0  0  0  0  0
   20.3179   34.5631   36.0761 H   0  0  0  0  0
   21.9665   34.4701   35.3754 H   0  0  0  0  0
   22.7077   33.0026   37.0210 H   0  0  0  0  0
   21.0366   32.5702   37.5121 H   0  0  0  0  0
   22.0822   34.0498   39.0941 H   0  0  0  0  0
   22.3328   35.1989   37.9135 H   0  0  0  0  0
   20.7811   34.7973   38.3695 H   0  0  0  0  0
   15.5984   29.8983   30.5007 H   0  0  0  0  0
   16.3824   31.4738   30.7003 H   0  0  0  0  0
   16.1027   30.3414   28.3357 H   0  0  0  0  0
   17.6332   29.5295   28.8431 H   0  0  0  0  0
   18.5781   30.1363   30.9237 H   0  0  0  0  0
   17.5443   28.7237   31.1528 H   0  0  0  0  0
   18.4099   31.3833   27.7539 H   0  0  0  0  0
   18.3482   31.9448   29.4546 H   0  0  0  0  0
   17.3926   29.3280   33.2920 H   0  0  0  0  0
   16.3684   30.6952   32.7235 H   0  0  0  0  0
   16.0828   32.8859   28.9693 H   0  0  0  0  0
   16.3157   32.4699   27.2748 H   0  0  0  0  0
   18.5790   31.1780   34.1115 H   0  0  0  0  0
  2  1  1  0  0  0
  1101  1  0  0  0
  3  2  1  0  0  0
  2  5  1  0  0  0
  3  4  2  0  0  0
 10  3  1  0  0  0
  5  6  1  0  0  0
  6  7  1  0  0  0
  7  8  2  0  0  0
  7  9  1  0  0  0
 11 10  1  0  0  0
 12 11  1  0  0  0
 11 14  1  0  0  0
 12 13  2  0  0  0
 21 12  1  0  0  0
 14 15  1  0  0  0
 15 16  4  0  0  0
 15 17  4  0  0  0
 16 18  4  0  0  0
 17 19  4  0  0  0
 18 20  4  0  0  0
 19 20  4  0  0  0
 22 21  1  0  0  0
 23 22  1  0  0  0
 22 25  1  0  0  0
 23 24  2  0  0  0
 29 23  1  0  0  0
 25 26  1  0  0  0
 26 27  2  0  0  0
 26 28  1  0  0  0
 30 29  1  0  0  0
 31 30  1  0  0  0
 30 33  1  0  0  0
 31 32  2  0  0  0
 37 31  1  0  0  0
 33 34  1  0  0  0
 34 35  1  0  0  0
 34 36  1  0  0  0
 38 37  1  0  0  0
 39 38  1  0  0  0
 38 41  1  0  0  0
 39 40  2  0  0  0
 43 39  1  0  0  0
 41 42  1  0  0  0
 44 43  1  0  0  0
 45 44  1  0  0  0
 44 47  1  0  0  0
 45 46  2  0  0  0
 50 45  1  0  0  0
 47 48  1  0  0  0
 47 49  1  0  0  0
 51 50  1  0  0  0
 52 51  1  0  0  0
 51 54  1  0  0  0
 52 53  2  0  0  0
 65 52  1  0  0  0
 54 55  1  0  0  0
 55 56  1  0  0  0
 56 57  1  0  0  0
 57 58  1  0  0  0
 58 59  2  0  0  0
 58 60  1  0  0  0
 60 62  1  0  0  0
 62 61  1  0  0  0
 61 63  1  0  0  0
 63 64  1  0  0  0
 66 65  1  0  0  0
 67 66  1  0  0  0
 66 69  1  0  0  0
 67 68  2  0  0  0
 76 67  1  0  0  0
 69 70  1  0  0  0
 70 71  1  0  0  0
 71 72  1  0  0  0
 72 73  1  0  0  0
 73 74  1  0  0  0
 73 75  2  0  0  0
 77 76  1  0  0  0
 78 77  1  0  0  0
 77 80  1  0  0  0
 78 79  2  0  0  0
 84 78  1  0  0  0
 80 81  1  0  0  0
 81 82  1  0  0  0
 81 83  1  0  0  0
 85 84  1  0  0  0
 86 85  1  0  0  0
 85 88  1  0  0  0
 86 87  2  0  0  0
100 86  1  0  0  0
 88 89  1  0  0  0
 89 90  1  0  0  0
 90 91  1  0  0  0
 91 92  1  0  0  0
 93 94  1  0  0  0
 96 93  1  0  0  0
 94 97  1  0  0  0
101 95  2  0  0  0
 98 96  1  0  0  0
 97 99  1  0  0  0
 98100  1  0  0  0
 99101  1  0  0  0
  1102  1  0  0  0
  2103  1  0  0  0
  5104  1  0  0  0
  5105  1  0  0  0
  6106  1  0  0  0
  6107  1  0  0  0
  9108  1  0  0  0
  9109  1  0  0  0
 10110  1  0  0  0
 11111  1  0  0  0
 14112  1  0  0  0
 14113  1  0  0  0
 16114  1  0  0  0
 17115  1  0  0  0
 18116  1  0  0  0
 19117  1  0  0  0
 20118  1  0  0  0
 21119  1  0  0  0
 22120  1  0  0  0
 25121  1  0  0  0
 25122  1  0  0  0
 28123  1  0  0  0
 29124  1  0  0  0
 30125  1  0  0  0
 33126  1  0  0  0
 33127  1  0  0  0
 34128  1  0  0  0
 35129  1  0  0  0
 35130  1  0  0  0
 35131  1  0  0  0
 36132  1  0  0  0
 36133  1  0  0  0
 36134  1  0  0  0
 37135  1  0  0  0
 38136  1  0  0  0
 41137  1  0  0  0
 41138  1  0  0  0
 42139  1  0  0  0
 43140  1  0  0  0
 44141  1  0  0  0
 47142  1  0  0  0
 48143  1  0  0  0
 49144  1  0  0  0
 49145  1  0  0  0
 49146  1  0  0  0
 50147  1  0  0  0
 51148  1  0  0  0
 54149  1  0  0  0
 54150  1  0  0  0
 55151  1  0  0  0
 55152  1  0  0  0
 56153  1  0  0  0
 56154  1  0  0  0
 57155  1  0  0  0
 59156  1  0  0  0
 60157  1  0  0  0
 61158  1  0  0  0
 61159  1  0  0  0
 62160  1  0  0  0
 62161  1  0  0  0
 63162  1  0  0  0
 63163  1  0  0  0
 64164  1  0  0  0
 64165  1  0  0  0
 64166  1  0  0  0
 65167  1  0  0  0
 66168  1  0  0  0
 69169  1  0  0  0
 69170  1  0  0  0
 70171  1  0  0  0
 70172  1  0  0  0
 71173  1  0  0  0
 71174  1  0  0  0
 72175  1  0  0  0
 74176  1  0  0  0
 74177  1  0  0  0
 75178  1  0  0  0
 76179  1  0  0  0
 77180  1  0  0  0
 80181  1  0  0  0
 80182  1  0  0  0
 81183  1  0  0  0
 82184  1  0  0  0
 82185  1  0  0  0
 82186  1  0  0  0
 83187  1  0  0  0
 83188  1  0  0  0
 83189  1  0  0  0
 84190  1  0  0  0
 85191  1  0  0  0
 88192  1  0  0  0
 88193  1  0  0  0
 89194  1  0  0  0
 89195  1  0  0  0
 90196  1  0  0  0
 90197  1  0  0  0
 91198  1  0  0  0
 91199  1  0  0  0
 92200  1  0  0  0
 92201  1  0  0  0
 92202  1  0  0  0
 93203  1  0  0  0
 93204  1  0  0  0
 94205  1  0  0  0
 94206  1  0  0  0
 96207  1  0  0  0
 96208  1  0  0  0
 97209  1  0  0  0
 97210  1  0  0  0
 98211  1  0  0  0
 98212  1  0  0  0
 99213  1  0  0  0
 99214  1  0  0  0
100215  1  0  0  0
M  END
$$$$
