### 
### Created by X-TOOL on Mon Sep 10 21:13:17 2018
### 

@<TRIPOS>MOLECULE
4kxl_ligand
   48    51     1     0     0
SMALL
GAST_HUCK


@<TRIPOS>ATOM
      1 C65         0.3380   13.2480   62.7840 C.3       1 6C6        -0.0295
      2 C64        -0.6590   14.2560   63.3770 C.3       1 6C6        -0.0508
      3 C63        -0.7400   13.9550   64.8850 C.3       1 6C6        -0.0508
      4 C62         0.1010   12.6840   65.1180 C.3       1 6C6        -0.0295
      5 C61         1.1160   12.6580   63.9780 C.3       1 6C6         0.0409
      6 N6          2.2340   13.5610   64.2970 N.pl3     1 6C6        -0.2981
      7 C6          3.3130   13.2670   65.0440 C.ar      1 6C6         0.1326
      8 N1          4.2260   14.2520   65.1630 N.ar      1 6C6        -0.2696
      9 C2          5.3310   14.0670   65.8630 C.ar      1 6C6         0.0533
     10 N3          5.5930   12.9330   66.5000 N.ar      1 6C6        -0.2714
     11 C4          4.7180   11.9230   66.4490 C.ar      1 6C6         0.1613
     12 C5          3.5500   12.0550   65.6880 C.ar      1 6C6         0.1047
     13 N7          2.8820   10.8990   65.8030 N.2       1 6C6        -0.2957
     14 C8          3.6180   10.0760   66.5640 C.2       1 6C6         0.1123
     15 N9          4.7470   10.6950   66.9570 N.pl3     1 6C6        -0.1919
     16 C1'         5.8100   10.1490   67.8540 C.3       1 6C6         0.2010
     17 O4'         5.4080    8.8250   68.2880 O.3       1 6C6        -0.3365
     18 C2'         5.8750   11.0300   69.1260 C.3       1 6C6         0.1385
     19 O2'         7.2080   11.4920   69.4190 O.3       1 6C6        -0.3836
     20 C3'         5.3030   10.1930   70.2840 C.3       1 6C6         0.1149
     21 O3'         6.2290    9.9230   71.3410 O.3       1 6C6        -0.3864
     22 C4'         4.9190    8.8480   69.6520 C.3       1 6C6         0.1182
     23 C5'         3.3870    8.6670   69.5970 C.3       1 6C6         0.1072
     24 O5'         3.0630    7.5130   68.8830 O.3       1 6C6        -0.2734
     25 PA          1.5100    7.1240   68.6570 P.3       1 6C6         0.2008
     26 OA2         1.5800    5.7140   67.9910 O.co2     1 6C6        -0.5537
     27 OA3         0.9200    8.2040   67.6920 O.co2     1 6C6        -0.5537
     28 OA1         0.8380    7.0600   69.9750 O.co2     1 6C6        -0.5537
     29 H           1.0274   13.7552   62.0930 H         1 6C6         0.0288
     30 H          -0.1986   12.4515   62.2477 H         1 6C6         0.0288
     31 H          -1.6476   14.1317   62.9111 H         1 6C6         0.0266
     32 H          -0.3031   15.2838   63.2133 H         1 6C6         0.0266
     33 H          -1.7844   13.7806   65.1831 H         1 6C6         0.0266
     34 H          -0.3288   14.7952   65.4638 H         1 6C6         0.0266
     35 H          -0.5371   11.7886   65.0862 H         1 6C6         0.0288
     36 H           0.6142   12.7343   66.0896 H         1 6C6         0.0288
     37 H           1.4785   11.6397   63.7740 H         1 6C6         0.0561
     38 H           2.1849   14.5139   63.9090 H         1 6C6         0.1859
     39 H           6.0525   14.8740   65.9192 H         1 6C6         0.0996
     40 H           3.3425    9.0555   66.8260 H         1 6C6         0.1349
     41 H           6.7814   10.1213   67.3386 H         1 6C6         0.0996
     42 H           5.2379   11.9139   68.9752 H         1 6C6         0.0676
     43 H           7.7785   10.7445   69.5541 H         1 6C6         0.2101
     44 H           4.4198   10.6987   70.7013 H         1 6C6         0.0648
     45 H           6.9717    9.4424   70.9948 H         1 6C6         0.2100
     46 H           5.3683    8.0285   70.2322 H         1 6C6         0.0650
     47 H           2.9357    9.5393   69.1016 H         1 6C6         0.0639
     48 H           2.9942    8.5828   70.6210 H         1 6C6         0.0639
@<TRIPOS>BOND
     1    1    2 1  
     2    1    5 1  
     3    2    3 1  
     4    3    4 1  
     5    4    5 1  
     6    5    6 1  
     7    6    7 1  
     8    7    8 ar 
     9    7   12 ar 
    10    8    9 ar 
    11    9   10 ar 
    12   10   11 ar 
    13   11   12 ar 
    14   11   15 1  
    15   12   13 1  
    16   13   14 2  
    17   14   15 1  
    18   15   16 1  
    19   16   17 1  
    20   16   18 1  
    21   17   22 1  
    22   18   19 1  
    23   18   20 1  
    24   20   21 1  
    25   20   22 1  
    26   22   23 1  
    27   23   24 1  
    28   24   25 1  
    29   25   26 ar 
    30   25   27 ar 
    31   25   28 ar 
    32    1   29 1  
    33    1   30 1  
    34    2   31 1  
    35    2   32 1  
    36    3   33 1  
    37    3   34 1  
    38    4   35 1  
    39    4   36 1  
    40    5   37 1  
    41    6   38 1  
    42    9   39 1  
    43   14   40 1  
    44   16   41 1  
    45   18   42 1  
    46   19   43 1  
    47   20   44 1  
    48   21   45 1  
    49   22   46 1  
    50   23   47 1  
    51   23   48 1  
@<TRIPOS>SUBSTRUCTURE
     1 6C6         1

