4kxl_ligand
  -I-interpret- 

 50 53  0  0  0  0  0  0  0  0999 V2000
    0.3380   13.2480   62.7840 C   0  0  0  0  0
   -0.6590   14.2560   63.3770 C   0  0  0  0  0
   -0.7400   13.9550   64.8850 C   0  0  0  0  0
    0.1010   12.6840   65.1180 C   0  0  0  0  0
    1.1160   12.6580   63.9780 C   0  0  0  0  0
    2.2340   13.5610   64.2970 N   0  0  0  0  0
    3.3130   13.2670   65.0440 C   0  0  0  0  0
    4.2260   14.2520   65.1630 N   0  0  0  0  0
    5.3310   14.0670   65.8630 C   0  0  0  0  0
    5.5930   12.9330   66.5000 N   0  0  0  0  0
    4.7180   11.9230   66.4490 C   0  0  0  0  0
    3.5500   12.0550   65.6880 C   0  0  0  0  0
    2.8820   10.8990   65.8030 N   0  0  0  0  0
    3.6180   10.0760   66.5640 C   0  0  0  0  0
    4.7470   10.6950   66.9570 N   0  0  0  0  0
    5.8100   10.1490   67.8540 C   0  0  0  0  0
    5.4080    8.8250   68.2880 O   0  0  0  0  0
    5.8750   11.0300   69.1260 C   0  0  0  0  0
    7.2080   11.4920   69.4190 O   0  0  0  0  0
    5.3030   10.1930   70.2840 C   0  0  0  0  0
    6.2290    9.9230   71.3410 O   0  0  0  0  0
    4.9190    8.8480   69.6520 C   0  0  0  0  0
    3.3870    8.6670   69.5970 C   0  0  0  0  0
    3.0630    7.5130   68.8830 O   0  0  0  0  0
    1.5100    7.1240   68.6570 P   0  0  0  0  0
    1.5800    5.7140   67.9910 O   0  0  0  0  0
    0.9200    8.2040   67.6920 O   0  0  0  0  0
    0.8380    7.0600   69.9750 O   0  0  0  0  0
    1.0117   13.7317   62.0767 H   0  0  0  0  0
   -0.1784   12.4663   62.2269 H   0  0  0  0  0
   -1.6376   14.1599   62.9067 H   0  0  0  0  0
   -0.3302   15.2801   63.2005 H   0  0  0  0  0
   -1.7727   13.8052   65.2001 H   0  0  0  0  0
   -0.3593   14.7904   65.4726 H   0  0  0  0  0
   -0.5194   11.7878   65.1233 H   0  0  0  0  0
    0.5913   12.7002   66.0914 H   0  0  0  0  0
    1.5188   11.6624   63.7919 H   0  0  0  0  0
    2.1854   14.5046   63.9128 H   0  0  0  0  0
    6.0565   14.8785   65.9195 H   0  0  0  0  0
    3.3423    9.0546   66.8262 H   0  0  0  0  0
    6.7650   10.1275   67.3291 H   0  0  0  0  0
    5.2896   11.9365   68.9722 H   0  0  0  0  0
    7.1913   12.0309   70.2133 H   0  0  0  0  0
    4.4828   10.7491   70.7380 H   0  0  0  0  0
    5.7954    9.3994   72.0188 H   0  0  0  0  0
    5.3527    8.0520   70.2573 H   0  0  0  0  0
    2.9436    9.5300   69.1002 H   0  0  0  0  0
    3.0018    8.5778   70.6127 H   0  0  0  0  0
    2.0192    5.7846   67.1403 H   0  0  0  0  0
    1.4023    8.1877   66.8621 H   0  0  0  0  0
  1  2  1  0  0  0
  1  5  1  0  0  0
  2  3  1  0  0  0
  3  4  1  0  0  0
  4  5  1  0  0  0
  5  6  1  0  0  0
  6  7  1  0  0  0
  7  8  4  0  0  0
  7 12  4  0  0  0
  8  9  4  0  0  0
  9 10  4  0  0  0
 10 11  4  0  0  0
 11 12  4  0  0  0
 11 15  4  0  0  0
 12 13  4  0  0  0
 13 14  4  0  0  0
 14 15  4  0  0  0
 15 16  1  0  0  0
 16 17  1  0  0  0
 16 18  1  0  0  0
 17 22  1  0  0  0
 18 19  1  0  0  0
 18 20  1  0  0  0
 20 21  1  0  0  0
 20 22  1  0  0  0
 22 23  1  0  0  0
 23 24  1  0  0  0
 24 25  1  0  0  0
 25 26  1  0  0  0
 25 27  1  0  0  0
 25 28  2  0  0  0
  1 29  1  0  0  0
  1 30  1  0  0  0
  2 31  1  0  0  0
  2 32  1  0  0  0
  3 33  1  0  0  0
  3 34  1  0  0  0
  4 35  1  0  0  0
  4 36  1  0  0  0
  5 37  1  0  0  0
  6 38  1  0  0  0
  9 39  1  0  0  0
 14 40  1  0  0  0
 16 41  1  0  0  0
 18 42  1  0  0  0
 19 43  1  0  0  0
 20 44  1  0  0  0
 21 45  1  0  0  0
 22 46  1  0  0  0
 23 47  1  0  0  0
 23 48  1  0  0  0
 26 49  1  0  0  0
 27 50  1  0  0  0
M  END
$$$$
