5o22_ligand
  -I-interpret- 

 73 73  0  0  0  0  0  0  0  0999 V2000
  -57.5230    8.7960   -1.0060 C   0  0  0  0  0
  -57.0290    6.5500   -3.3810 C   0  0  0  0  0
  -57.3080    4.3300   -1.4040 C   0  0  0  0  0
  -58.4550    3.7150   -1.7110 C   0  0  0  0  0
  -58.9130    2.2040   -3.6620 C   0  0  0  0  0
  -57.8690    2.6470   -4.6560 C   0  0  0  0  0
  -58.4750    3.6590   -5.6310 C   0  0  0  0  0
  -56.2640    1.7550   -6.4890 C   0  0  0  0  0
  -56.2440   11.7720    1.3550 C   0  0  0  0  0
  -56.3430   10.3580    0.7590 C   0  0  0  0  0
  -56.7890    9.4000    1.8120 C   0  0  0  0  0
  -56.1770    8.2730    2.1660 C   0  0  0  0  0
  -56.5850    7.2780    3.2000 C   0  0  0  0  0
  -57.9180    7.4770    3.5940 O   0  0  0  0  0
  -56.4480    5.7920    2.6930 C   0  0  0  0  0
  -57.1960    5.0330    3.5990 O   0  0  0  0  0
  -57.2580   10.2420   -0.5040 C   0  0  0  0  0
  -56.2420    8.1540   -1.5900 C   0  0  0  0  0
  -56.3600    6.6510   -2.0050 C   0  0  0  0  0
  -57.2050    5.7920   -1.0060 C   0  0  0  0  0
  -56.0090    3.5650   -1.4490 C   0  0  0  0  0
  -58.7120    2.2920   -2.1270 C   0  0  0  0  0
  -59.8880    1.7100   -1.3260 C   0  0  0  0  0
  -57.2990    1.4170   -5.4240 C   0  0  0  0  0
  -56.6970    0.6370   -4.4070 O   0  0  0  0  0
  -57.3530   -0.5680   -4.0890 C   0  0  0  0  0
  -55.6440    0.4960   -7.1180 C   0  0  0  0  0
  -56.3600   -0.5240   -7.2260 O   0  0  0  0  0
  -54.4450    0.5800   -7.4710 O   0  0  0  0  0
  -59.9720    1.7480   -4.0740 O   0  0  0  0  0
  -56.5130    5.8320    0.2520 O   0  0  0  0  0
  -57.2370    5.6180    1.3910 C   0  0  0  0  0
  -58.4110    5.3110    1.3630 O   0  0  0  0  0
  -58.2776    8.8364   -1.7915 H   0  0  0  0  0
  -57.8567    8.1933   -0.1613 H   0  0  0  0  0
  -58.0238    6.9930   -3.3333 H   0  0  0  0  0
  -56.4270    7.0838   -4.1163 H   0  0  0  0  0
  -57.1101    5.5016   -3.6681 H   0  0  0  0  0
  -59.3436    4.3434   -1.6504 H   0  0  0  0  0
  -57.0488    3.1260   -4.1214 H   0  0  0  0  0
  -57.7054    4.0004   -6.3232 H   0  0  0  0  0
  -59.2829    3.1854   -6.1887 H   0  0  0  0  0
  -58.8668    4.5094   -5.0730 H   0  0  0  0  0
  -55.4651    2.3260   -6.0159 H   0  0  0  0  0
  -56.7616    2.3182   -7.2784 H   0  0  0  0  0
  -57.2210   12.0757    1.7309 H   0  0  0  0  0
  -55.5231   11.7706    2.1726 H   0  0  0  0  0
  -55.9180   12.4685    0.5825 H   0  0  0  0  0
  -55.3409   10.1095    0.4095 H   0  0  0  0  0
  -57.7074    9.6480    2.3441 H   0  0  0  0  0
  -55.2555    8.0467    1.6296 H   0  0  0  0  0
  -55.9098    7.4318    4.0418 H   0  0  0  0  0
  -58.1549    6.8255    4.2581 H   0  0  0  0  0
  -55.3966    5.5268    2.5822 H   0  0  0  0  0
  -57.1564    4.1071    3.3483 H   0  0  0  0  0
  -58.2267   10.6565   -0.2250 H   0  0  0  0  0
  -56.7410   10.7613   -1.3110 H   0  0  0  0  0
  -55.4903    8.1969   -0.8019 H   0  0  0  0  0
  -56.0091    8.7066   -2.5002 H   0  0  0  0  0
  -55.3427    6.2596   -2.0121 H   0  0  0  0  0
  -58.2151    6.2008   -0.9801 H   0  0  0  0  0
  -56.0567    2.7292   -0.7510 H   0  0  0  0  0
  -55.8456    3.1880   -2.4586 H   0  0  0  0  0
  -55.1892    4.2269   -1.1698 H   0  0  0  0  0
  -57.8415    1.6782   -1.8956 H   0  0  0  0  0
  -60.7986    2.2569   -1.5706 H   0  0  0  0  0
  -60.0147    0.6580   -1.5816 H   0  0  0  0  0
  -59.6816    1.8039   -0.2599 H   0  0  0  0  0
  -58.0964    0.9200   -5.9764 H   0  0  0  0  0
  -58.3650   -0.3502   -3.7477 H   0  0  0  0  0
  -57.3955   -1.2018   -4.9748 H   0  0  0  0  0
  -56.8045   -1.0814   -3.2993 H   0  0  0  0  0
  -54.1187    1.4633   -7.2842 H   0  0  0  0  0
  1 17  1  0  0  0
 18  1  1  0  0  0
 19  2  1  0  0  0
  3  4  2  0  0  0
 20  3  1  0  0  0
  3 21  1  0  0  0
  4 22  1  0  0  0
  5  6  1  0  0  0
 22  5  1  0  0  0
  5 30  2  0  0  0
  6  7  1  0  0  0
  6 24  1  0  0  0
 24  8  1  0  0  0
  8 27  1  0  0  0
 10  9  1  0  0  0
 10 11  1  0  0  0
 17 10  1  0  0  0
 11 12  2  0  0  0
 12 13  1  0  0  0
 13 14  1  0  0  0
 13 15  1  0  0  0
 15 16  1  0  0  0
 15 32  1  0  0  0
 19 18  1  0  0  0
 19 20  1  0  0  0
 20 31  1  0  0  0
 22 23  1  0  0  0
 24 25  1  0  0  0
 25 26  1  0  0  0
 27 28  2  0  0  0
 27 29  1  0  0  0
 31 32  1  0  0  0
 32 33  2  0  0  0
  1 34  1  0  0  0
  1 35  1  0  0  0
  2 36  1  0  0  0
  2 37  1  0  0  0
  2 38  1  0  0  0
  4 39  1  0  0  0
  6 40  1  0  0  0
  7 41  1  0  0  0
  7 42  1  0  0  0
  7 43  1  0  0  0
  8 44  1  0  0  0
  8 45  1  0  0  0
  9 46  1  0  0  0
  9 47  1  0  0  0
  9 48  1  0  0  0
 10 49  1  0  0  0
 11 50  1  0  0  0
 12 51  1  0  0  0
 13 52  1  0  0  0
 14 53  1  0  0  0
 15 54  1  0  0  0
 16 55  1  0  0  0
 17 56  1  0  0  0
 17 57  1  0  0  0
 18 58  1  0  0  0
 18 59  1  0  0  0
 19 60  1  0  0  0
 20 61  1  0  0  0
 21 62  1  0  0  0
 21 63  1  0  0  0
 21 64  1  0  0  0
 22 65  1  0  0  0
 23 66  1  0  0  0
 23 67  1  0  0  0
 23 68  1  0  0  0
 24 69  1  0  0  0
 26 70  1  0  0  0
 26 71  1  0  0  0
 26 72  1  0  0  0
 29 73  1  0  0  0
M  END
$$$$
