5qa7_ligand
  -I-interpret- 

 26 27  0  0  0  0  0  0  0  0999 V2000
   96.7480  253.7200    6.9400 C   0  0  0  0  0
   97.4760  253.8400    5.9300 O   0  0  0  0  0
   96.2530  252.3360    7.2790 C   0  0  0  0  0
   95.2960  249.7920    7.8440 C   0  0  0  0  0
   94.9760  250.8540    8.6710 C   0  0  0  0  0
   95.4520  252.1220    8.3910 C   0  0  0  0  0
   96.5760  251.2600    6.4590 C   0  0  0  0  0
   96.1070  249.9760    6.7270 C   0  0  0  0  0
   96.4830  248.8360    5.8540 C   0  0  0  0  0
   97.8270  248.5370    5.6290 C   0  0  0  0  0
   98.1750  247.4450    4.8460 C   0  0  0  0  0
   97.1950  246.6490    4.2720 C   0  0  0  0  0
   95.8640  246.9470    4.4870 C   0  0  0  0  0
   95.5100  248.0300    5.2680 C   0  0  0  0  0
   99.4930  247.1540    4.6510 O   0  0  0  0  0
   96.4020  254.6670    7.6900 O   0  0  0  0  0
   94.9084  248.7986    8.0697 H   0  0  0  0  0
   94.3468  250.6908    9.5460 H   0  0  0  0  0
   95.1971  252.9553    9.0458 H   0  0  0  0  0
   97.2099  251.4250    5.5878 H   0  0  0  0  0
   98.6046  249.1616    6.0686 H   0  0  0  0  0
   97.4735  245.7943    3.6556 H   0  0  0  0  0
   95.0893  246.3250    4.0385 H   0  0  0  0  0
   94.4558  248.2566    5.4277 H   0  0  0  0  0
   99.5687  246.3772    4.0921 H   0  0  0  0  0
   95.8457  254.3283    8.3953 H   0  0  0  0  0
  1  2  2  0  0  0
  3  1  1  0  0  0
  1 16  1  0  0  0
  6  3  4  0  0  0
  3  7  4  0  0  0
  5  4  4  0  0  0
  4  8  4  0  0  0
  5  6  4  0  0  0
  7  8  4  0  0  0
  8  9  1  0  0  0
  9 10  4  0  0  0
  9 14  4  0  0  0
 10 11  4  0  0  0
 11 12  4  0  0  0
 11 15  1  0  0  0
 12 13  4  0  0  0
 13 14  4  0  0  0
  4 17  1  0  0  0
  5 18  1  0  0  0
  6 19  1  0  0  0
  7 20  1  0  0  0
 10 21  1  0  0  0
 12 22  1  0  0  0
 13 23  1  0  0  0
 14 24  1  0  0  0
 15 25  1  0  0  0
 16 26  1  0  0  0
M  END
$$$$
