3itc_ligand
  -I-interpret- 

 21 20  0  0  0  0  0  0  0  0999 V2000
  -27.9770  -31.5900  -20.4630 C   0  0  0  0  0
  -27.5540  -30.7200  -19.7370 O   0  0  0  0  0
  -27.9350  -32.8590  -20.0260 O   0  0  0  0  0
  -28.6110  -31.3000  -21.7880 C   0  0  0  0  0
  -28.1080  -29.9680  -22.3480 C   0  0  0  0  0
  -26.6880  -29.8960  -22.4170 O   0  0  0  0  0
  -28.6510  -29.7840  -23.7770 C   0  0  0  0  0
  -28.1970  -31.0040  -24.5490 C   0  0  0  0  0
  -27.0200  -31.2720  -24.6350 O   0  0  0  0  0
  -29.1260  -31.7150  -25.2040 O   0  0  0  0  0
  -28.7050  -28.8240  -21.5530 C   0  0  0  0  0
  -28.0020  -27.9170  -21.1660 O   0  0  0  0  0
  -30.0160  -28.9040  -21.2880 O   0  0  0  0  0
  -28.2998  -33.4398  -20.6977 H   0  0  0  0  0
  -29.6915  -31.2415  -21.6565 H   0  0  0  0  0
  -28.3505  -32.0963  -22.4852 H   0  0  0  0  0
  -26.3199  -30.0078  -21.5374 H   0  0  0  0  0
  -28.2762  -28.8657  -24.2291 H   0  0  0  0  0
  -29.7372  -29.6933  -23.7805 H   0  0  0  0  0
  -29.9955  -31.3554  -25.0138 H   0  0  0  0  0
  -30.3744  -29.6992  -21.6890 H   0  0  0  0  0
  1  2  2  0  0  0
  1  3  1  0  0  0
  1  4  1  0  0  0
  4  5  1  0  0  0
  5  6  1  0  0  0
  5  7  1  0  0  0
  5 11  1  0  0  0
  7  8  1  0  0  0
  8  9  2  0  0  0
  8 10  1  0  0  0
 11 12  2  0  0  0
 11 13  1  0  0  0
  3 14  1  0  0  0
  4 15  1  0  0  0
  4 16  1  0  0  0
  6 17  1  0  0  0
  7 18  1  0  0  0
  7 19  1  0  0  0
 10 20  1  0  0  0
 13 21  1  0  0  0
M  END
$$$$
