4fe9_ligand
  -I-interpret- 

 87 90  0  0  0  0  0  0  0  0999 V2000
  -14.2490   88.5190   32.8940 O   0  0  0  0  0
  -14.0850   89.8320   33.4580 C   0  0  0  0  0
  -14.7660   90.8610   32.5810 C   0  0  0  0  0
  -14.2910   90.7790   31.2360 O   0  0  0  0  0
  -14.5520   92.2540   33.1830 C   0  0  0  0  0
  -15.2490   93.2060   32.3790 O   0  0  0  0  0
  -15.0970   92.2970   34.6190 C   0  0  0  0  0
  -14.7370   89.9430   34.8320 C   0  0  0  0  0
  -14.4500   91.2510   35.3790 O   0  0  0  0  0
  -14.3710   88.7980   35.7850 C   0  0  0  0  0
  -12.9660   88.8200   36.0490 O   0  0  0  0  0
  -16.5260   92.0390   34.5590 O   0  0  0  0  0
  -17.3430   92.8130   35.4550 C   0  0  0  0  0
  -18.2360   93.7240   34.6400 C   0  0  0  0  0
  -17.4380   94.6310   33.8770 O   0  0  0  0  0
  -19.1970   94.5100   35.5480 C   0  0  0  0  0
  -20.1420   95.1690   34.7180 O   0  0  0  0  0
  -19.9830   93.5740   36.4380 C   0  0  0  0  0
  -18.2400   91.8930   36.2790 C   0  0  0  0  0
  -19.1000   92.6670   37.1140 O   0  0  0  0  0
  -17.4180   90.9890   37.1900 C   0  0  0  0  0
  -18.2770   89.9710   37.7010 O   0  0  0  0  0
  -20.9090   92.8650   35.6320 O   0  0  0  0  0
  -22.2070   92.8270   36.1670 C   0  0  0  0  0
  -23.1610   93.5240   35.2160 C   0  0  0  0  0
  -22.8410   94.9190   35.1440 O   0  0  0  0  0
  -24.5870   93.3170   35.6760 C   0  0  0  0  0
  -25.4630   93.8680   34.7090 O   0  0  0  0  0
  -24.9030   91.8350   35.8410 C   0  0  0  0  0
  -22.5910   91.3770   36.3070 C   0  0  0  0  0
  -23.9540   91.2450   36.7290 O   0  0  0  0  0
  -21.6840   90.6690   37.3080 C   0  0  0  0  0
  -22.1000   89.3060   37.3780 O   0  0  0  0  0
  -24.8410   91.1780   34.5800 O   0  0  0  0  0
  -26.0100   90.4180   34.2630 C   0  0  0  0  0
  -26.6740   91.0460   33.0420 C   0  0  0  0  0
  -27.2440   92.3120   33.3920 O   0  0  0  0  0
  -27.7540   90.1430   32.4450 C   0  0  0  0  0
  -28.1250   90.6640   31.1650 O   0  0  0  0  0
  -27.2840   88.6950   32.2740 C   0  0  0  0  0
  -26.3600   88.5960   31.1760 O   0  0  0  0  0
  -25.5790   88.9930   33.9310 C   0  0  0  0  0
  -26.6950   88.2110   33.4850 O   0  0  0  0  0
  -24.9840   88.3340   35.1560 C   0  0  0  0  0
  -24.1730   87.2450   34.7290 O   0  0  0  0  0
  -13.8272   88.4872   32.0322 H   0  0  0  0  0
  -13.0116   90.0056   33.5342 H   0  0  0  0  0
  -15.8370   90.6614   32.5453 H   0  0  0  0  0
  -14.4434   89.8937   30.8974 H   0  0  0  0  0
  -13.4873   92.4861   33.2062 H   0  0  0  0  0
  -14.9070   93.1775   31.4824 H   0  0  0  0  0
  -14.9087   93.2631   35.0872 H   0  0  0  0  0
  -15.8149   89.8370   34.7094 H   0  0  0  0  0
  -14.6370   87.8464   35.3248 H   0  0  0  0  0
  -14.9161   88.9193   36.7211 H   0  0  0  0  0
  -12.7424   88.1019   36.6455 H   0  0  0  0  0
  -16.6940   93.3868   36.1166 H   0  0  0  0  0
  -18.8298   93.1071   33.9655 H   0  0  0  0  0
  -18.0108   95.2050   33.3632 H   0  0  0  0  0
  -18.6148   95.2017   36.1568 H   0  0  0  0  0
  -20.7538   95.6673   35.2647 H   0  0  0  0  0
  -20.5174   94.1429   37.1988 H   0  0  0  0  0
  -18.8134   91.2892   35.5756 H   0  0  0  0  0
  -16.9949   91.5688   38.0103 H   0  0  0  0  0
  -16.5969   90.5405   36.6308 H   0  0  0  0  0
  -17.7754   89.3907   38.2783 H   0  0  0  0  0
  -22.2496   93.3295   37.1333 H   0  0  0  0  0
  -23.0586   93.0970   34.2184 H   0  0  0  0  0
  -23.4478   95.3546   34.5410 H   0  0  0  0  0
  -24.7155   93.8073   36.6410 H   0  0  0  0  0
  -26.3714   93.7413   34.9926 H   0  0  0  0  0
  -25.9080   91.7282   36.2494 H   0  0  0  0  0
  -22.4750   90.9133   35.3274 H   0  0  0  0  0
  -21.7585   91.1401   38.2881 H   0  0  0  0  0
  -20.6434   90.7331   36.9899 H   0  0  0  0  0
  -21.5443   88.8347   38.0030 H   0  0  0  0  0
  -26.7084   90.4085   35.0998 H   0  0  0  0  0
  -25.9010   91.1825   32.2857 H   0  0  0  0  0
  -27.6593   92.6996   32.6181 H   0  0  0  0  0
  -28.5981   90.1324   33.1345 H   0  0  0  0  0
  -28.8035   90.1059   30.7780 H   0  0  0  0  0
  -28.1493   88.0717   32.0486 H   0  0  0  0  0
  -26.0744   87.6844   31.0808 H   0  0  0  0  0
  -24.8367   89.0450   33.1345 H   0  0  0  0  0
  -25.7785   87.9743   35.8098 H   0  0  0  0  0
  -24.3819   89.0529   35.7117 H   0  0  0  0  0
  -23.7871   86.8150   35.4957 H   0  0  0  0  0
  1  2  1  0  0  0
  2  3  1  0  0  0
  2  8  1  0  0  0
  3  4  1  0  0  0
  3  5  1  0  0  0
  5  6  1  0  0  0
  5  7  1  0  0  0
  7  9  1  0  0  0
  7 12  1  0  0  0
  8  9  1  0  0  0
  8 10  1  0  0  0
 10 11  1  0  0  0
 12 13  1  0  0  0
 13 14  1  0  0  0
 13 19  1  0  0  0
 14 15  1  0  0  0
 14 16  1  0  0  0
 16 17  1  0  0  0
 16 18  1  0  0  0
 18 20  1  0  0  0
 18 23  1  0  0  0
 19 20  1  0  0  0
 19 21  1  0  0  0
 21 22  1  0  0  0
 23 24  1  0  0  0
 24 25  1  0  0  0
 24 30  1  0  0  0
 25 26  1  0  0  0
 25 27  1  0  0  0
 27 28  1  0  0  0
 27 29  1  0  0  0
 29 31  1  0  0  0
 29 34  1  0  0  0
 30 31  1  0  0  0
 30 32  1  0  0  0
 32 33  1  0  0  0
 34 35  1  0  0  0
 35 36  1  0  0  0
 35 42  1  0  0  0
 36 37  1  0  0  0
 36 38  1  0  0  0
 38 39  1  0  0  0
 38 40  1  0  0  0
 40 41  1  0  0  0
 40 43  1  0  0  0
 42 43  1  0  0  0
 42 44  1  0  0  0
 44 45  1  0  0  0
  1 46  1  0  0  0
  2 47  1  0  0  0
  3 48  1  0  0  0
  4 49  1  0  0  0
  5 50  1  0  0  0
  6 51  1  0  0  0
  7 52  1  0  0  0
  8 53  1  0  0  0
 10 54  1  0  0  0
 10 55  1  0  0  0
 11 56  1  0  0  0
 13 57  1  0  0  0
 14 58  1  0  0  0
 15 59  1  0  0  0
 16 60  1  0  0  0
 17 61  1  0  0  0
 18 62  1  0  0  0
 19 63  1  0  0  0
 21 64  1  0  0  0
 21 65  1  0  0  0
 22 66  1  0  0  0
 24 67  1  0  0  0
 25 68  1  0  0  0
 26 69  1  0  0  0
 27 70  1  0  0  0
 28 71  1  0  0  0
 29 72  1  0  0  0
 30 73  1  0  0  0
 32 74  1  0  0  0
 32 75  1  0  0  0
 33 76  1  0  0  0
 35 77  1  0  0  0
 36 78  1  0  0  0
 37 79  1  0  0  0
 38 80  1  0  0  0
 39 81  1  0  0  0
 40 82  1  0  0  0
 41 83  1  0  0  0
 42 84  1  0  0  0
 44 85  1  0  0  0
 44 86  1  0  0  0
 45 87  1  0  0  0
M  END
$$$$
