### 
### Created by X-TOOL on Mon Sep 10 21:12:46 2018
### 

@<TRIPOS>MOLECULE
1x11_ligand
  202   206     1     0     0
SMALL
GAST_HUCK


@<TRIPOS>ATOM
      1 N          53.9220   13.7040   59.9180 N.4       1 GLN         0.2380
      2 CA         52.9330   12.5940   59.9950 C.3       1 GLN         0.0671
      3 C          53.6620   11.2420   60.0090 C.2       1 GLN         0.2270
      4 O          53.8530   10.6140   58.9670 O.2       1 GLN        -0.3907
      5 CB         51.9810   12.6560   58.7980 C.3       1 GLN         0.0247
      6 CG         50.8140   11.6950   58.8840 C.3       1 GLN         0.0443
      7 CD         50.2930   11.3050   57.5140 C.2       1 GLN         0.1738
      8 OE1        51.0770   11.0290   56.5930 O.2       1 GLN        -0.3973
      9 NE2        48.9670   11.2680   57.3670 N.am      1 GLN        -0.3009
     10 H1         53.4360   14.5870   59.9093 H         1 GLN         0.2015
     11 H2         54.4659   13.6115   59.0744 H         1 GLN         0.2015
     12 H3         54.5337   13.6651   60.7182 H         1 GLN         0.2015
     13 H4         52.3505   12.6973   60.9224 H         1 GLN         0.1100
     14 H5         52.5541   12.4224   57.8886 H         1 GLN         0.0370
     15 N          54.0600   10.8050   61.1970 N.am      1 ASN        -0.2589
     16 CA         54.7720    9.5420   61.3590 C.3       1 ASN         0.1477
     17 C          54.2090    8.7450   62.5240 C.2       1 ASN         0.2061
     18 O          53.6880    9.3050   63.4900 O.2       1 ASN        -0.3942
     19 CB         56.2540    9.7840   61.6350 C.3       1 ASN         0.0773
     20 CG         56.9360   10.5010   60.5140 C.2       1 ASN         0.1780
     21 OD1        56.7950   10.1240   59.3450 O.2       1 ASN        -0.3970
     22 ND2        57.6460   11.5730   60.8410 N.am      1 ASN        -0.3007
     23 H6         51.5816   13.6785   58.7272 H         1 GLN         0.0370
     24 H7         50.0010   12.1741   59.4492 H         1 GLN         0.0506
     25 H8         51.1410   10.7864   59.4108 H         1 GLN         0.0506
     26 N          54.3270    7.4280   62.4360 N.am      1 GLY        -0.2663
     27 CA         53.8390    6.5790   63.5000 C.3       1 GLY         0.1201
     28 C          54.7920    5.4330   63.7440 C.2       1 GLY         0.2009
     29 O          55.4790    4.9760   62.8240 O.2       1 GLY        -0.3947
     30 H9         48.5685   11.0171   56.4848 H         1 GLN         0.1814
     31 N          54.8120    4.9590   64.9830 N.am      1 TYR        -0.2624
     32 CA         55.6710    3.8510   65.3680 C.3       1 TYR         0.1390
     33 C          54.8440    2.8280   66.1350 C.2       1 TYR         0.2057
     34 O          54.1130    3.1750   67.0640 O.2       1 TYR        -0.3942
     35 CB         56.8440    4.3460   66.2220 C.3       1 TYR         0.0163
     36 CG         57.6270    5.4510   65.5720 C.ar      1 TYR        -0.0493
     37 CD1        57.2610    6.7810   65.7550 C.ar      1 TYR        -0.0685
     38 CD2        58.7130    5.1690   64.7500 C.ar      1 TYR        -0.0685
     39 CE1        57.9570    7.8120   65.1260 C.ar      1 TYR        -0.0398
     40 CE2        59.4260    6.1910   64.1130 C.ar      1 TYR        -0.0398
     41 CZ         59.0410    7.5160   64.3050 C.ar      1 TYR         0.0805
     42 OH         59.7180    8.5450   63.6750 O.3       1 TYR        -0.3376
     43 H10        48.3719   11.4912   58.1391 H         1 GLN         0.1814
     44 H11        53.8658   11.3588   62.0067 H         1 ASN         0.1886
     45 N          54.8920    1.5850   65.6720 N.am      1 GLU        -0.2635
     46 CA         54.1720    0.4970   66.2990 C.3       1 GLU         0.1325
     47 C          55.1360   -0.2110   67.2530 C.2       1 GLU         0.2041
     48 O          56.3090   -0.4190   66.9230 O.2       1 GLU        -0.3944
     49 CB         53.6940   -0.4680   65.2250 C.3       1 GLU        -0.0008
     50 CG         53.1860   -1.8140   65.7410 C.3       1 GLU         0.0044
     51 CD         51.8750   -1.7430   66.5100 C.2       1 GLU         0.0350
     52 OE1        50.9620   -0.9770   66.1170 O.co2     1 GLU        -0.5690
     53 OE2        51.7460   -2.4890   67.5100 O.co2     1 GLU        -0.5690
     54 H12        54.6654    8.9569   60.4336 H         1 ASN         0.0826
     55 N          54.6640   -0.5290   68.4500 N.am      1 ASN        -0.2616
     56 CA         55.4810   -1.2300   69.4280 C.3       1 ASN         0.1478
     57 C          55.3470   -2.7180   69.1020 C.2       1 ASN         0.2088
     58 O          54.3000   -3.3160   69.3450 O.2       1 ASN        -0.3940
     59 CB         54.9640   -0.9530   70.8320 C.3       1 ASN         0.0773
     60 CG         55.8010   -1.6300   71.8850 C.2       1 ASN         0.1780
     61 OD1        56.8180   -2.2670   71.5670 O.2       1 ASN        -0.3970
     62 ND2        55.3890   -1.5120   73.1400 N.am      1 ASN        -0.3007
     63 H13        56.7481    8.8127   61.7847 H         1 ASN         0.0551
     64 H14        56.3484   10.3882   62.5493 H         1 ASN         0.0551
     65 H15        58.1237   12.0917   60.1319 H         1 ASN         0.1814
     66 N          56.4280   -3.3570   68.6110 N.am      1 PRO        -0.2497
     67 CA         56.4070   -4.7900   68.2480 C.3       1 PRO         0.1338
     68 C          56.2180   -5.7690   69.3990 C.2       1 PRO         0.2042
     69 O          55.5250   -6.7780   69.2920 O.2       1 PRO        -0.3944
     70 CB         57.7730   -4.9880   67.5990 C.3       1 PRO        -0.0104
     71 CG         58.2350   -3.5830   67.2670 C.3       1 PRO        -0.0281
     72 CD         57.7720   -2.8040   68.4330 C.3       1 PRO         0.0369
     73 N          56.9040   -5.4850   70.4890 N.am      1 THR        -0.2613
     74 CA         56.8460   -6.3070   71.6770 C.3       1 THR         0.1565
     75 C          55.4080   -6.4060   72.1650 C.2       1 THR         0.2066
     76 O          54.9760   -7.4670   72.6290 O.2       1 THR        -0.3943
     77 CB         57.7490   -5.6930   72.7790 C.3       1 THR         0.0924
     78 OG1        59.1020   -5.6170   72.2900 O.3       1 THR        -0.3874
     79 CG2        57.6760   -6.5060   74.0730 C.3       1 THR        -0.0346
     80 H16        57.7035   11.8623   61.7965 H         1 ASN         0.1814
     81 H17        54.7555    7.0194   61.6301 H         1 GLY         0.1881
     82 N          54.6730   -5.3010   72.0250 N.am      1 TYR        -0.2621
     83 CA         53.2790   -5.2040   72.4530 C.3       1 TYR         0.1390
     84 C          52.4700   -6.3730   71.9010 C.2       1 TYR         0.2057
     85 O          51.7150   -7.0260   72.6300 O.2       1 TYR        -0.3942
     86 CB         52.6790   -3.8710   71.9940 C.3       1 TYR         0.0163
     87 CG         51.2060   -3.7670   72.2470 C.ar      1 TYR        -0.0493
     88 CD1        50.2900   -4.2350   71.3070 C.ar      1 TYR        -0.0685
     89 CD2        50.7260   -3.2900   73.4640 C.ar      1 TYR        -0.0685
     90 CE1        48.9360   -4.2470   71.5770 C.ar      1 TYR        -0.0398
     91 CE2        49.3670   -3.2940   73.7460 C.ar      1 TYR        -0.0398
     92 CZ         48.4760   -3.7820   72.7990 C.ar      1 TYR         0.0805
     93 OH         47.1380   -3.8620   73.0930 O.3       1 TYR        -0.3376
     94 H18        52.8544    6.1770   63.2192 H         1 GLY         0.0763
     95 H19        53.7436    7.1724   64.4213 H         1 GLY         0.0763
     96 N          52.6510   -6.6150   70.6060 N.am      1 LYS        -0.2636
     97 CA         52.0250   -7.7040   69.8630 C.3       1 LYS         0.1310
     98 C          51.9330   -9.0150   70.6510 C.2       1 LYS         0.2040
     99 O          50.9570   -9.7570   70.5230 O.2       1 LYS        -0.3944
    100 CB         52.8800   -7.9720   68.6210 C.3       1 LYS        -0.0122
    101 CG         52.3410   -8.9690   67.6350 C.3       1 LYS        -0.0440
    102 CD         53.3970   -9.2910   66.5960 C.3       1 LYS        -0.0124
    103 CE         54.1230   -8.0500   66.0980 C.3       1 LYS        -0.0354
    104 NZ         53.2510   -7.1410   65.3040 N.4       1 LYS         0.2185
    105 H20        54.2191    5.3759   65.6720 H         1 TYR         0.1885
    106 H21        56.0726    3.3778   64.4598 H         1 TYR         0.0821
    107 H22        57.5221    3.5001   66.4078 H         1 TYR         0.0453
    108 H23        56.4476    4.7153   67.1793 H         1 TYR         0.0453
    109 N          52.9780   -9.3180   71.4170 N.am      1 PHE        -0.2619
    110 CA         53.0520  -10.5570   72.1920 C.3       1 PHE         0.1405
    111 C          52.5180  -10.4420   73.6250 C.2       1 PHE         0.2061
    112 O          52.8490  -11.2640   74.4770 O.2       1 PHE        -0.3942
    113 CB         54.5030  -11.0650   72.2330 C.3       1 PHE         0.0214
    114 CG         55.1570  -11.2090   70.8700 C.ar      1 PHE        -0.0386
    115 CD1        55.0780  -12.4090   70.1630 C.ar      1 PHE        -0.0601
    116 CD2        55.9290  -10.1780   70.3390 C.ar      1 PHE        -0.0601
    117 CE1        55.7650  -12.5840   68.9450 C.ar      1 PHE        -0.0686
    118 CE2        56.6150  -10.3450   69.1260 C.ar      1 PHE        -0.0686
    119 CZ         56.5360  -11.5550   68.4310 C.ar      1 PHE        -0.0687
    120 H24        56.4209    7.0192   66.3972 H         1 TYR         0.0530
    121 N          51.7020   -9.4330   73.8950 N.am      1 PHE        -0.2631
    122 CA         51.1430   -9.2500   75.2290 C.3       1 PHE         0.1223
    123 C          49.6500   -8.8980   75.2080 C.2       1 PHE         0.1265
    124 O          48.9080   -9.4030   74.3310 O.2       1 PHE        -0.3723
    125 CB         51.9000   -8.1550   75.9830 C.3       1 PHE         0.0201
    126 CG         53.1920   -8.6110   76.6090 C.ar      1 PHE        -0.0385
    127 CD1        54.3140   -8.8650   75.8260 C.ar      1 PHE        -0.0601
    128 CD2        53.2890   -8.7560   77.9910 C.ar      1 PHE        -0.0601
    129 CE1        55.5180   -9.2590   76.4120 C.ar      1 PHE        -0.0686
    130 CE2        54.4890   -9.1490   78.5880 C.ar      1 PHE        -0.0686
    131 CZ         55.6050   -9.4020   77.7980 C.ar      1 PHE        -0.0687
    132 H25        59.0128    4.1381   64.5999 H         1 TYR         0.0530
    133 H26        57.6546    8.8421   65.2760 H         1 TYR         0.0525
    134 H27        60.2703    5.9537   63.4759 H         1 TYR         0.0525
    135 H28        59.3251    9.3756   63.9164 H         1 TYR         0.2458
    136 H29        55.4452    1.3934   64.8613 H         1 GLU         0.1883
    137 H30        53.3085    0.8861   66.8584 H         1 GLU         0.0801
    138 H31        54.5342   -0.6604   64.5416 H         1 GLU         0.0330
    139 H32        52.8752    0.0158   64.6723 H         1 GLU         0.0330
    140 H33        53.9521   -2.2375   66.4071 H         1 GLU         0.0433
    141 H34        53.0418   -2.4803   64.8777 H         1 GLU         0.0433
    142 H35        53.7244   -0.2812   68.6862 H         1 ASN         0.1885
    143 H36        56.5313   -0.9126   69.3507 H         1 ASN         0.0826
    144 H37        53.9304   -1.3213   70.9090 H         1 ASN         0.0551
    145 H38        54.9806    0.1325   71.0089 H         1 ASN         0.0551
    146 H39        55.9076   -1.9420   73.8790 H         1 ASN         0.1814
    147 H40        54.5597   -0.9930   73.3473 H         1 ASN         0.1814
    148 H41        55.6038   -4.9690   67.5181 H         1 PRO         0.0802
    149 H42        57.6867   -5.5960   66.6864 H         1 PRO         0.0313
    150 H43        58.4703   -5.4728   68.2980 H         1 PRO         0.0313
    151 H44        59.3298   -3.5383   67.1696 H         1 PRO         0.0287
    152 H45        57.7692   -3.2216   66.3384 H         1 PRO         0.0287
    153 H46        58.4037   -2.9814   69.3159 H         1 PRO         0.0524
    154 H47        57.7415   -1.7264   68.2144 H         1 PRO         0.0524
    155 H48        57.4855   -4.6714   70.4940 H         1 THR         0.1884
    156 H49        57.2117   -7.3159   71.4353 H         1 THR         0.0826
    157 H50        57.3957   -4.6737   72.9939 H         1 THR         0.0639
    158 H51        59.1195   -5.1082   71.4879 H         1 THR         0.2101
    159 H52        58.3255   -6.0459   74.8322 H         1 THR         0.0257
    160 H53        58.0114   -7.5354   73.8787 H         1 THR         0.0257
    161 H54        56.6386   -6.5212   74.4385 H         1 THR         0.0257
    162 H55        55.0977   -4.4985   71.6059 H         1 TYR         0.1885
    163 H56        53.2455   -5.2438   73.5518 H         1 TYR         0.0821
    164 H57        52.8565   -3.7614   70.9140 H         1 TYR         0.0453
    165 H58        53.1844   -3.0563   72.5332 H         1 TYR         0.0453
    166 H59        50.6461   -4.5953   70.3486 H         1 TYR         0.0530
    167 H60        51.4236   -2.9102   74.2016 H         1 TYR         0.0530
    168 H61        48.2362   -4.6182   70.8370 H         1 TYR         0.0525
    169 H62        49.0044   -2.9197   74.6965 H         1 TYR         0.0525
    170 H63        47.0131   -4.4326   73.8422 H         1 TYR         0.2458
    171 H64        53.2626   -6.0043   70.1030 H         1 LYS         0.1883
    172 H65        51.0120   -7.3953   69.5656 H         1 LYS         0.0800
    173 H66        53.8597   -8.3371   68.9628 H         1 LYS         0.0312
    174 H67        53.0090   -7.0161   68.0922 H         1 LYS         0.0312
    175 H68        51.4559   -8.5469   67.1365 H         1 LYS         0.0269
    176 H69        52.0586   -9.8903   68.1655 H         1 LYS         0.0269
    177 H70        52.9113   -9.7826   65.7402 H         1 LYS         0.0317
    178 H71        54.1337   -9.9752   67.0422 H         1 LYS         0.0317
    179 H72        54.9652   -8.3675   65.4656 H         1 LYS         0.0813
    180 H73        54.5059   -7.4960   66.9677 H         1 LYS         0.0813
    181 H74        53.7853   -6.3409   65.0032 H         1 LYS         0.1994
    182 H75        52.4783   -6.8340   65.8739 H         1 LYS         0.1994
    183 H76        52.8992   -7.6326   64.4974 H         1 LYS         0.1994
    184 H77        53.7419   -8.6744   71.4649 H         1 PHE         0.1885
    185 H78        52.4378  -11.3059   71.6705 H         1 PHE         0.0823
    186 H79        54.5088  -12.0499   72.7229 H         1 PHE         0.0474
    187 H80        55.0988  -10.3564   72.8271 H         1 PHE         0.0474
    188 H81        54.4778  -13.2210   70.5573 H         1 PHE         0.0557
    189 H82        56.0007   -9.2352   70.8692 H         1 PHE         0.0557
    190 H83        55.6899  -13.5241   68.4105 H         1 PHE         0.0599
    191 H84        57.2092   -9.5313   68.7261 H         1 PHE         0.0599
    192 H85        57.0731  -11.6867   67.4986 H         1 PHE         0.0559
    193 H86        51.4655   -8.7855   73.1705 H         1 PHE         0.1886
    194 H87        51.2623  -10.1973   75.7753 H         1 PHE         0.0814
    195 H88        49.2371   -8.2149   75.9488 H         1 PHE         0.1375
    196 H89        51.2471   -7.7723   76.7812 H         1 PHE         0.0475
    197 H90        52.1278   -7.3443   75.2753 H         1 PHE         0.0475
    198 H91        54.2523   -8.7557   74.7493 H         1 PHE         0.0557
    199 H92        52.4217   -8.5612   78.6114 H         1 PHE         0.0557
    200 H93        56.3850   -9.4539   75.7912 H         1 PHE         0.0599
    201 H94        54.5502   -9.2566   79.6649 H         1 PHE         0.0599
    202 H95        56.5382   -9.7088   78.2562 H         1 PHE         0.0559
@<TRIPOS>BOND
     1    2    1 1  
     2    2    5 1  
     3    3    2 1  
     4    3    4 2  
     5    5    6 1  
     6    6    7 1  
     7    7    9 am 
     8    7    8 2  
     9    1   10 1  
    10    1   11 1  
    11    1   12 1  
    12    2   13 1  
    13    5   14 1  
    14   16   15 1  
    15   16   19 1  
    16   17   16 1  
    17   17   18 2  
    18   19   20 1  
    19   20   22 am 
    20   20   21 2  
    21    5   23 1  
    22    6   24 1  
    23    6   25 1  
    24   15    3 am 
    25   27   26 1  
    26   28   27 1  
    27   28   29 2  
    28    9   30 1  
    29   26   17 am 
    30   32   31 1  
    31   32   35 1  
    32   33   32 1  
    33   33   34 2  
    34   35   36 1  
    35   36   37 ar 
    36   36   38 ar 
    37   38   40 ar 
    38   40   41 ar 
    39   41   42 1  
    40   39   41 ar 
    41   37   39 ar 
    42    9   43 1  
    43   15   44 1  
    44   31   28 am 
    45   46   45 1  
    46   46   49 1  
    47   47   46 1  
    48   47   48 2  
    49   49   50 1  
    50   50   51 1  
    51   51   53 ar 
    52   51   52 ar 
    53   16   54 1  
    54   45   33 am 
    55   56   55 1  
    56   56   59 1  
    57   57   56 1  
    58   57   58 2  
    59   59   60 1  
    60   60   62 am 
    61   60   61 2  
    62   19   63 1  
    63   19   64 1  
    64   22   65 1  
    65   55   47 am 
    66   68   67 1  
    67   67   70 1  
    68   67   66 1  
    69   66   72 1  
    70   72   71 1  
    71   70   71 1  
    72   68   69 2  
    73   66   57 am 
    74   74   73 1  
    75   74   77 1  
    76   75   74 1  
    77   75   76 2  
    78   77   79 1  
    79   77   78 1  
    80   22   80 1  
    81   26   81 1  
    82   73   68 am 
    83   83   82 1  
    84   83   86 1  
    85   84   83 1  
    86   84   85 2  
    87   86   87 1  
    88   87   88 ar 
    89   87   89 ar 
    90   89   91 ar 
    91   91   92 ar 
    92   92   93 1  
    93   90   92 ar 
    94   88   90 ar 
    95   27   94 1  
    96   27   95 1  
    97   82   75 am 
    98   97   96 1  
    99   97  100 1  
   100   98   97 1  
   101   98   99 2  
   102  100  101 1  
   103  101  102 1  
   104  102  103 1  
   105  103  104 1  
   106   31  105 1  
   107   32  106 1  
   108   35  107 1  
   109   35  108 1  
   110   96   84 am 
   111  110  109 1  
   112  110  113 1  
   113  111  110 1  
   114  111  112 2  
   115  113  114 1  
   116  114  115 ar 
   117  114  116 ar 
   118  116  118 ar 
   119  118  119 ar 
   120  117  119 ar 
   121  115  117 ar 
   122   37  120 1  
   123  109   98 am 
   124  121  122 1  
   125  122  125 1  
   126  122  123 1  
   127  123  124 2  
   128  125  126 1  
   129  126  127 ar 
   130  126  128 ar 
   131  128  130 ar 
   132  130  131 ar 
   133  129  131 ar 
   134  127  129 ar 
   135   38  132 1  
   136  111  121 am 
   137   39  133 1  
   138   40  134 1  
   139   42  135 1  
   140   45  136 1  
   141   46  137 1  
   142   49  138 1  
   143   49  139 1  
   144   50  140 1  
   145   50  141 1  
   146   55  142 1  
   147   56  143 1  
   148   59  144 1  
   149   59  145 1  
   150   62  146 1  
   151   62  147 1  
   152   67  148 1  
   153   70  149 1  
   154   70  150 1  
   155   71  151 1  
   156   71  152 1  
   157   72  153 1  
   158   72  154 1  
   159   73  155 1  
   160   74  156 1  
   161   77  157 1  
   162   78  158 1  
   163   79  159 1  
   164   79  160 1  
   165   79  161 1  
   166   82  162 1  
   167   83  163 1  
   168   86  164 1  
   169   86  165 1  
   170   88  166 1  
   171   89  167 1  
   172   90  168 1  
   173   91  169 1  
   174   93  170 1  
   175   96  171 1  
   176   97  172 1  
   177  100  173 1  
   178  100  174 1  
   179  101  175 1  
   180  101  176 1  
   181  102  177 1  
   182  102  178 1  
   183  103  179 1  
   184  103  180 1  
   185  104  181 1  
   186  104  182 1  
   187  104  183 1  
   188  109  184 1  
   189  110  185 1  
   190  113  186 1  
   191  113  187 1  
   192  115  188 1  
   193  116  189 1  
   194  117  190 1  
   195  118  191 1  
   196  119  192 1  
   197  121  193 1  
   198  122  194 1  
   199  123  195 1  
   200  125  196 1  
   201  125  197 1  
   202  127  198 1  
   203  128  199 1  
   204  129  200 1  
   205  130  201 1  
   206  131  202 1  
@<TRIPOS>SUBSTRUCTURE
     1 GLN         1

