1x11_ligand
  -I-interpret- 

203207  0  0  0  0  0  0  0  0999 V2000
   53.9220   13.7040   59.9180 N   0  3  0  0  0
   52.9330   12.5940   59.9950 C   0  0  0  0  0
   53.6620   11.2420   60.0090 C   0  0  0  0  0
   53.8530   10.6140   58.9670 O   0  0  0  0  0
   51.9810   12.6560   58.7980 C   0  0  0  0  0
   50.8140   11.6950   58.8840 C   0  0  0  0  0
   50.2930   11.3050   57.5140 C   0  0  0  0  0
   51.0770   11.0290   56.5930 O   0  0  0  0  0
   48.9670   11.2680   57.3670 N   0  0  0  0  0
   54.0600   10.8050   61.1970 N   0  0  0  0  0
   54.7720    9.5420   61.3590 C   0  0  0  0  0
   54.2090    8.7450   62.5240 C   0  0  0  0  0
   53.6880    9.3050   63.4900 O   0  0  0  0  0
   56.2540    9.7840   61.6350 C   0  0  0  0  0
   56.9360   10.5010   60.5140 C   0  0  0  0  0
   56.7950   10.1240   59.3450 O   0  0  0  0  0
   57.6460   11.5730   60.8410 N   0  0  0  0  0
   54.3270    7.4280   62.4360 N   0  0  0  0  0
   53.8390    6.5790   63.5000 C   0  0  0  0  0
   54.7920    5.4330   63.7440 C   0  0  0  0  0
   55.4790    4.9760   62.8240 O   0  0  0  0  0
   54.8120    4.9590   64.9830 N   0  0  0  0  0
   55.6710    3.8510   65.3680 C   0  0  0  0  0
   54.8440    2.8280   66.1350 C   0  0  0  0  0
   54.1130    3.1750   67.0640 O   0  0  0  0  0
   56.8440    4.3460   66.2220 C   0  0  0  0  0
   57.6270    5.4510   65.5720 C   0  0  0  0  0
   57.2610    6.7810   65.7550 C   0  0  0  0  0
   58.7130    5.1690   64.7500 C   0  0  0  0  0
   57.9570    7.8120   65.1260 C   0  0  0  0  0
   59.4260    6.1910   64.1130 C   0  0  0  0  0
   59.0410    7.5160   64.3050 C   0  0  0  0  0
   59.7180    8.5450   63.6750 O   0  0  0  0  0
   54.8920    1.5850   65.6720 N   0  0  0  0  0
   54.1720    0.4970   66.2990 C   0  0  0  0  0
   55.1360   -0.2110   67.2530 C   0  0  0  0  0
   56.3090   -0.4190   66.9230 O   0  0  0  0  0
   53.6940   -0.4680   65.2250 C   0  0  0  0  0
   53.1860   -1.8140   65.7410 C   0  0  0  0  0
   51.8750   -1.7430   66.5100 C   0  0  0  0  0
   50.9620   -0.9770   66.1170 O   0  0  0  0  0
   51.7460   -2.4890   67.5100 O   0  0  0  0  0
   54.6640   -0.5290   68.4500 N   0  0  0  0  0
   55.4810   -1.2300   69.4280 C   0  0  0  0  0
   55.3470   -2.7180   69.1020 C   0  0  0  0  0
   54.3000   -3.3160   69.3450 O   0  0  0  0  0
   54.9640   -0.9530   70.8320 C   0  0  0  0  0
   55.8010   -1.6300   71.8850 C   0  0  0  0  0
   56.8180   -2.2670   71.5670 O   0  0  0  0  0
   55.3890   -1.5120   73.1400 N   0  0  0  0  0
   56.4280   -3.3570   68.6110 N   0  0  0  0  0
   56.4070   -4.7900   68.2480 C   0  0  0  0  0
   56.2180   -5.7690   69.3990 C   0  0  0  0  0
   55.5250   -6.7780   69.2920 O   0  0  0  0  0
   57.7730   -4.9880   67.5990 C   0  0  0  0  0
   58.2350   -3.5830   67.2670 C   0  0  0  0  0
   57.7720   -2.8040   68.4330 C   0  0  0  0  0
   56.9040   -5.4850   70.4890 N   0  0  0  0  0
   56.8460   -6.3070   71.6770 C   0  0  0  0  0
   55.4080   -6.4060   72.1650 C   0  0  0  0  0
   54.9760   -7.4670   72.6290 O   0  0  0  0  0
   57.7490   -5.6930   72.7790 C   0  0  0  0  0
   59.1020   -5.6170   72.2900 O   0  0  0  0  0
   57.6760   -6.5060   74.0730 C   0  0  0  0  0
   54.6730   -5.3010   72.0250 N   0  0  0  0  0
   53.2790   -5.2040   72.4530 C   0  0  0  0  0
   52.4700   -6.3730   71.9010 C   0  0  0  0  0
   51.7150   -7.0260   72.6300 O   0  0  0  0  0
   52.6790   -3.8710   71.9940 C   0  0  0  0  0
   51.2060   -3.7670   72.2470 C   0  0  0  0  0
   50.2900   -4.2350   71.3070 C   0  0  0  0  0
   50.7260   -3.2900   73.4640 C   0  0  0  0  0
   48.9360   -4.2470   71.5770 C   0  0  0  0  0
   49.3670   -3.2940   73.7460 C   0  0  0  0  0
   48.4760   -3.7820   72.7990 C   0  0  0  0  0
   47.1380   -3.8620   73.0930 O   0  0  0  0  0
   52.6510   -6.6150   70.6060 N   0  0  0  0  0
   52.0250   -7.7040   69.8630 C   0  0  0  0  0
   51.9330   -9.0150   70.6510 C   0  0  0  0  0
   50.9570   -9.7570   70.5230 O   0  0  0  0  0
   52.8800   -7.9720   68.6210 C   0  0  0  0  0
   52.3410   -8.9690   67.6350 C   0  0  0  0  0
   53.3970   -9.2910   66.5960 C   0  0  0  0  0
   54.1230   -8.0500   66.0980 C   0  0  0  0  0
   53.2510   -7.1410   65.3040 N   0  3  0  0  0
   52.9780   -9.3180   71.4170 N   0  0  0  0  0
   53.0520  -10.5570   72.1920 C   0  0  0  0  0
   52.5180  -10.4420   73.6250 C   0  0  0  0  0
   52.8490  -11.2640   74.4770 O   0  0  0  0  0
   54.5030  -11.0650   72.2330 C   0  0  0  0  0
   55.1570  -11.2090   70.8700 C   0  0  0  0  0
   55.0780  -12.4090   70.1630 C   0  0  0  0  0
   55.9290  -10.1780   70.3390 C   0  0  0  0  0
   55.7650  -12.5840   68.9450 C   0  0  0  0  0
   56.6150  -10.3450   69.1260 C   0  0  0  0  0
   56.5360  -11.5550   68.4310 C   0  0  0  0  0
   51.7020   -9.4330   73.8950 N   0  0  0  0  0
   51.1430   -9.2500   75.2290 C   0  0  0  0  0
   49.6500   -8.8980   75.2080 C   0  0  0  0  0
   48.9080   -9.4030   74.3310 O   0  0  0  0  0
   51.9000   -8.1550   75.9830 C   0  0  0  0  0
   53.1920   -8.6110   76.6090 C   0  0  0  0  0
   54.3140   -8.8650   75.8260 C   0  0  0  0  0
   53.2890   -8.7560   77.9910 C   0  0  0  0  0
   55.5180   -9.2590   76.4120 C   0  0  0  0  0
   54.4890   -9.1490   78.5880 C   0  0  0  0  0
   55.6050   -9.4020   77.7980 C   0  0  0  0  0
   53.4291   14.5970   59.9092 H   0  0  0  0  0
   54.5404   13.6636   60.7281 H   0  0  0  0  0
   54.4717   13.6093   59.0641 H   0  0  0  0  0
   52.3567   12.6988   60.9142 H   0  0  0  0  0
   52.5574   12.3842   57.9137 H   0  0  0  0  0
   51.5667   13.6637   58.7680 H   0  0  0  0  0
   50.0073   12.1879   59.4266 H   0  0  0  0  0
   51.1551   10.7906   59.3879 H   0  0  0  0  0
   48.5605   11.0047   56.4693 H   0  0  0  0  0
   48.3601   11.5030   58.1523 H   0  0  0  0  0
   53.8619   11.3699   62.0229 H   0  0  0  0  0
   54.6474    8.9865   60.4295 H   0  0  0  0  0
   56.7361    8.8140   61.7563 H   0  0  0  0  0
   56.3328   10.4041   62.5279 H   0  0  0  0  0
   58.1028   12.1234   60.1139 H   0  0  0  0  0
   57.7350   11.8467   61.8195 H   0  0  0  0  0
   54.7641    7.0113   61.6140 H   0  0  0  0  0
   52.8676    6.1760   63.2133 H   0  0  0  0  0
   53.7547    7.1691   64.4126 H   0  0  0  0  0
   54.2073    5.3842   65.6858 H   0  0  0  0  0
   56.0856    3.3866   64.4733 H   0  0  0  0  0
   57.5215    3.5052   66.3704 H   0  0  0  0  0
   56.4323    4.7370   67.1524 H   0  0  0  0  0
   56.4162    7.0205   66.4008 H   0  0  0  0  0
   59.0144    4.1324   64.5991 H   0  0  0  0  0
   57.6529    8.8478   65.2769 H   0  0  0  0  0
   60.2750    5.9524   63.4724 H   0  0  0  0  0
   59.3209    9.3843   63.9189 H   0  0  0  0  0
   55.4562    1.3895   64.8451 H   0  0  0  0  0
   53.3056    0.8652   66.8485 H   0  0  0  0  0
   54.5535   -0.6802   64.5892 H   0  0  0  0  0
   52.8542    0.0125   64.7231 H   0  0  0  0  0
   53.9392   -2.1954   66.4304 H   0  0  0  0  0
   53.0097   -2.4433   64.8687 H   0  0  0  0  0
   51.2608   -0.4962   65.3417 H   0  0  0  0  0
   53.7056   -0.2763   68.6909 H   0  0  0  0  0
   56.5207   -0.9051   69.3890 H   0  0  0  0  0
   53.9476   -1.3401   70.9035 H   0  0  0  0  0
   55.0042    0.1226   71.0040 H   0  0  0  0  0
   55.9148   -1.9554   73.8932 H   0  0  0  0  0
   54.5463   -0.9778   73.3521 H   0  0  0  0  0
   55.5452   -5.0056   67.6164 H   0  0  0  0  0
   57.7197   -5.6229   66.7146 H   0  0  0  0  0
   58.4703   -5.5049   68.2583 H   0  0  0  0  0
   59.3117   -3.5155   67.1114 H   0  0  0  0  0
   57.8322   -3.2152   66.3233 H   0  0  0  0  0
   58.4107   -2.8967   69.3114 H   0  0  0  0  0
   57.7921   -1.7246   68.2827 H   0  0  0  0  0
   57.4971   -4.6552   70.4941 H   0  0  0  0  0
   57.2057   -7.3091   71.4437 H   0  0  0  0  0
   57.3939   -4.6894   73.0131 H   0  0  0  0  0
   59.6654   -5.2375   72.9684 H   0  0  0  0  0
   56.6476   -6.5203   74.4341 H   0  0  0  0  0
   58.0086   -7.5258   73.8791 H   0  0  0  0  0
   58.3200   -6.0491   74.8244 H   0  0  0  0  0
   55.1062   -4.4825   71.5975 H   0  0  0  0  0
   53.2428   -5.2463   73.5416 H   0  0  0  0  0
   52.8353   -3.7920   70.9182 H   0  0  0  0  0
   53.1676   -3.0773   72.5592 H   0  0  0  0  0
   50.6480   -4.5973   70.3433 H   0  0  0  0  0
   51.4275   -2.9081   74.2057 H   0  0  0  0  0
   48.2324   -4.6203   70.8329 H   0  0  0  0  0
   49.0024   -2.9176   74.7018 H   0  0  0  0  0
   46.6660   -4.2175   72.3364 H   0  0  0  0  0
   53.2748   -5.9921   70.0929 H   0  0  0  0  0
   51.0070   -7.3918   69.6298 H   0  0  0  0  0
   53.8191   -8.3877   68.9863 H   0  0  0  0  0
   52.9406   -7.0236   68.0872 H   0  0  0  0  0
   51.4664   -8.5475   67.1396 H   0  0  0  0  0
   52.0653   -9.8824   68.1620 H   0  0  0  0  0
   52.8997   -9.7541   65.7437 H   0  0  0  0  0
   54.1335   -9.9485   67.0580 H   0  0  0  0  0
   54.9348   -8.3795   65.4496 H   0  0  0  0  0
   54.4696   -7.4969   66.9709 H   0  0  0  0  0
   53.7926   -6.3318   65.0002 H   0  0  0  0  0
   52.8956   -7.6395   64.4882 H   0  0  0  0  0
   52.4695   -6.8311   65.8816 H   0  0  0  0  0
   53.7572   -8.6616   71.4658 H   0  0  0  0  0
   52.4013  -11.2634   71.6766 H   0  0  0  0  0
   54.4815  -12.0573   72.6835 H   0  0  0  0  0
   55.0835  -10.3294   72.7898 H   0  0  0  0  0
   54.4744  -13.2254   70.5595 H   0  0  0  0  0
   56.0011   -9.2300   70.8721 H   0  0  0  0  0
   55.6895  -13.5293   68.4076 H   0  0  0  0  0
   57.2125   -9.5268   68.7239 H   0  0  0  0  0
   57.0760  -11.6874   67.4935 H   0  0  0  0  0
   51.4608   -8.7726   73.1561 H   0  0  0  0  0
   51.2540  -10.2074   75.7381 H   0  0  0  0  0
   49.2367   -8.2142   75.9494 H   0  0  0  0  0
   51.2531   -7.8182   76.7931 H   0  0  0  0  0
   52.1514   -7.3816   75.2572 H   0  0  0  0  0
   54.2519   -8.7551   74.7433 H   0  0  0  0  0
   52.4169   -8.5602   78.6148 H   0  0  0  0  0
   56.3898   -9.4549   75.7878 H   0  0  0  0  0
   54.5505   -9.2571   79.6709 H   0  0  0  0  0
   56.5434   -9.7105   78.2588 H   0  0  0  0  0
  2  1  1  0  0  0
  2  5  1  0  0  0
  3  2  1  0  0  0
  3  4  2  0  0  0
  5  6  1  0  0  0
  6  7  1  0  0  0
  7  9  1  0  0  0
  7  8  2  0  0  0
 11 10  1  0  0  0
 11 14  1  0  0  0
 12 11  1  0  0  0
 12 13  2  0  0  0
 14 15  1  0  0  0
 15 17  1  0  0  0
 15 16  2  0  0  0
 10  3  1  0  0  0
 19 18  1  0  0  0
 20 19  1  0  0  0
 20 21  2  0  0  0
 18 12  1  0  0  0
 23 22  1  0  0  0
 23 26  1  0  0  0
 24 23  1  0  0  0
 24 25  2  0  0  0
 26 27  1  0  0  0
 27 28  4  0  0  0
 27 29  4  0  0  0
 29 31  4  0  0  0
 31 32  4  0  0  0
 32 33  1  0  0  0
 30 32  4  0  0  0
 28 30  4  0  0  0
 22 20  1  0  0  0
 35 34  1  0  0  0
 35 38  1  0  0  0
 36 35  1  0  0  0
 36 37  2  0  0  0
 38 39  1  0  0  0
 39 40  1  0  0  0
 40 42  2  0  0  0
 40 41  1  0  0  0
 34 24  1  0  0  0
 44 43  1  0  0  0
 44 47  1  0  0  0
 45 44  1  0  0  0
 45 46  2  0  0  0
 47 48  1  0  0  0
 48 50  1  0  0  0
 48 49  2  0  0  0
 43 36  1  0  0  0
 53 52  1  0  0  0
 52 55  1  0  0  0
 52 51  1  0  0  0
 51 57  1  0  0  0
 57 56  1  0  0  0
 55 56  1  0  0  0
 53 54  2  0  0  0
 51 45  1  0  0  0
 59 58  1  0  0  0
 59 62  1  0  0  0
 60 59  1  0  0  0
 60 61  2  0  0  0
 62 64  1  0  0  0
 62 63  1  0  0  0
 58 53  1  0  0  0
 66 65  1  0  0  0
 66 69  1  0  0  0
 67 66  1  0  0  0
 67 68  2  0  0  0
 69 70  1  0  0  0
 70 71  4  0  0  0
 70 72  4  0  0  0
 72 74  4  0  0  0
 74 75  4  0  0  0
 75 76  1  0  0  0
 73 75  4  0  0  0
 71 73  4  0  0  0
 65 60  1  0  0  0
 78 77  1  0  0  0
 78 81  1  0  0  0
 79 78  1  0  0  0
 79 80  2  0  0  0
 81 82  1  0  0  0
 82 83  1  0  0  0
 83 84  1  0  0  0
 84 85  1  0  0  0
 77 67  1  0  0  0
 87 86  1  0  0  0
 87 90  1  0  0  0
 88 87  1  0  0  0
 88 89  2  0  0  0
 90 91  1  0  0  0
 91 92  4  0  0  0
 91 93  4  0  0  0
 93 95  4  0  0  0
 95 96  4  0  0  0
 94 96  4  0  0  0
 92 94  4  0  0  0
 86 79  1  0  0  0
 97 98  1  0  0  0
 98101  1  0  0  0
 98 99  1  0  0  0
 99100  2  0  0  0
101102  1  0  0  0
102103  4  0  0  0
102104  4  0  0  0
104106  4  0  0  0
106107  4  0  0  0
105107  4  0  0  0
103105  4  0  0  0
 88 97  1  0  0  0
  1108  1  0  0  0
  1109  1  0  0  0
  1110  1  0  0  0
  2111  1  0  0  0
  5112  1  0  0  0
  5113  1  0  0  0
  6114  1  0  0  0
  6115  1  0  0  0
  9116  1  0  0  0
  9117  1  0  0  0
 10118  1  0  0  0
 11119  1  0  0  0
 14120  1  0  0  0
 14121  1  0  0  0
 17122  1  0  0  0
 17123  1  0  0  0
 18124  1  0  0  0
 19125  1  0  0  0
 19126  1  0  0  0
 22127  1  0  0  0
 23128  1  0  0  0
 26129  1  0  0  0
 26130  1  0  0  0
 28131  1  0  0  0
 29132  1  0  0  0
 30133  1  0  0  0
 31134  1  0  0  0
 33135  1  0  0  0
 34136  1  0  0  0
 35137  1  0  0  0
 38138  1  0  0  0
 38139  1  0  0  0
 39140  1  0  0  0
 39141  1  0  0  0
 41142  1  0  0  0
 43143  1  0  0  0
 44144  1  0  0  0
 47145  1  0  0  0
 47146  1  0  0  0
 50147  1  0  0  0
 50148  1  0  0  0
 52149  1  0  0  0
 55150  1  0  0  0
 55151  1  0  0  0
 56152  1  0  0  0
 56153  1  0  0  0
 57154  1  0  0  0
 57155  1  0  0  0
 58156  1  0  0  0
 59157  1  0  0  0
 62158  1  0  0  0
 63159  1  0  0  0
 64160  1  0  0  0
 64161  1  0  0  0
 64162  1  0  0  0
 65163  1  0  0  0
 66164  1  0  0  0
 69165  1  0  0  0
 69166  1  0  0  0
 71167  1  0  0  0
 72168  1  0  0  0
 73169  1  0  0  0
 74170  1  0  0  0
 76171  1  0  0  0
 77172  1  0  0  0
 78173  1  0  0  0
 81174  1  0  0  0
 81175  1  0  0  0
 82176  1  0  0  0
 82177  1  0  0  0
 83178  1  0  0  0
 83179  1  0  0  0
 84180  1  0  0  0
 84181  1  0  0  0
 85182  1  0  0  0
 85183  1  0  0  0
 85184  1  0  0  0
 86185  1  0  0  0
 87186  1  0  0  0
 90187  1  0  0  0
 90188  1  0  0  0
 92189  1  0  0  0
 93190  1  0  0  0
 94191  1  0  0  0
 95192  1  0  0  0
 96193  1  0  0  0
 97194  1  0  0  0
 98195  1  0  0  0
 99196  1  0  0  0
101197  1  0  0  0
101198  1  0  0  0
103199  1  0  0  0
104200  1  0  0  0
105201  1  0  0  0
106202  1  0  0  0
107203  1  0  0  0
M  END
$$$$
