1xh7_ligand
  -I-interpret- 

 82 86  0  0  0  0  0  0  0  0999 V2000
    7.2550    9.2200    1.5990 O   0  0  0  0  0
    7.1140    9.2490    2.8150 C   0  0  0  0  0
    5.8160    9.4150    3.4710 C   0  0  0  0  0
    4.6640    9.6220    2.7130 C   0  0  0  0  0
    3.4280    9.7470    3.3420 C   0  0  0  0  0
    3.3400    9.7130    4.6700 N   0  0  0  0  0
    4.4130    9.5140    5.4430 C   0  0  0  0  0
    5.6650    9.3590    4.8640 C   0  0  0  0  0
    8.2530    9.1150    3.5910 N   0  0  0  0  0
    9.5620    8.7770    2.9980 C   0  0  0  0  0
    9.8560    7.3430    3.4360 C   0  0  0  0  0
   11.1320    6.8610    2.8810 N   0  3  0  0  0
   12.2370    7.0400    3.8210 C   0  0  0  0  0
   12.8030    8.4720    3.7340 C   0  0  0  0  0
   11.7990    9.4990    4.2980 C   0  0  0  0  0
   10.6270    9.8850    3.3410 C   0  0  0  0  0
   11.1130   10.5010    2.0760 N   0  0  0  0  0
   11.8290   11.6940    2.0960 C   0  0  0  0  0
   11.7920   12.4130    3.0990 O   0  0  0  0  0
   12.6450   12.0500    0.9570 C   0  0  0  0  0
   12.9490   13.4010    0.7040 C   0  0  0  0  0
   13.7650   13.7430   -0.3730 C   0  0  0  0  0
   13.1450   11.0400    0.1400 C   0  0  0  0  0
   13.9490   11.3800   -0.9360 C   0  0  0  0  0
   14.2490   12.7180   -1.2040 C   0  0  0  0  0
   15.1220   13.0330   -2.3330 C   0  0  0  0  0
   15.8390   14.0520   -2.2330 O   0  0  0  0  0
   15.3260   12.1950   -3.5210 C   0  0  0  0  0
   14.4090   11.8770   -4.5530 C   0  0  0  0  0
   13.1080   12.2590   -4.5980 O   0  0  0  0  0
   14.8050   11.0920   -5.6290 C   0  0  0  0  0
   16.1040   10.5870   -5.7060 C   0  0  0  0  0
   16.6270   11.6820   -3.6080 C   0  0  0  0  0
   17.0360   10.8890   -4.6980 C   0  0  0  0  0
   18.3840   10.3860   -4.7750 N   0  0  0  0  0
   18.8920    9.9130   -6.0970 C   0  0  0  0  0
   20.4130    9.6220   -6.2180 C   0  0  0  0  0
   21.2940   10.3330   -5.1880 C   0  0  0  0  0
   20.7660   10.0420   -3.7800 C   0  0  0  0  0
   21.7940   10.6660   -2.8030 C   0  0  0  0  0
   20.6980    8.5480   -3.4320 C   0  0  0  0  0
   19.3430   10.6340   -3.6400 C   0  0  0  0  0
    4.7311    9.6860    1.6270 H   0  0  0  0  0
    2.5262    9.8736    2.7429 H   0  0  0  0  0
    4.3045    9.4736    6.5268 H   0  0  0  0  0
    6.5369    9.1926    5.4966 H   0  0  0  0  0
    8.1858    9.2535    4.5993 H   0  0  0  0  0
    9.5836    8.7841    1.9082 H   0  0  0  0  0
    9.0555    6.6993    3.0715 H   0  0  0  0  0
    9.9218    7.3205    4.5238 H   0  0  0  0  0
   11.3380    7.3984    2.0389 H   0  0  0  0  0
   11.0387    5.8648    2.6827 H   0  0  0  0  0
   13.0286    6.3333    3.5718 H   0  0  0  0  0
   11.8694    6.8681    4.8326 H   0  0  0  0  0
   12.9949    8.7091    2.6875 H   0  0  0  0  0
   13.7204    8.5215    4.3206 H   0  0  0  0  0
   12.3616   10.4135    4.4858 H   0  0  0  0  0
   11.3453    9.0405    5.1767 H   0  0  0  0  0
   10.0877   10.6078    3.9531 H   0  0  0  0  0
   10.9191   10.0438    1.1851 H   0  0  0  0  0
   12.5459   14.1803    1.3508 H   0  0  0  0  0
   14.0226   14.7842   -0.5668 H   0  0  0  0  0
   12.9073    9.9960    0.3439 H   0  0  0  0  0
   14.3509   10.5969   -1.5789 H   0  0  0  0  0
   12.7026   11.9166   -5.3980 H   0  0  0  0  0
   14.0924   10.8678   -6.4228 H   0  0  0  0  0
   16.3956    9.9586   -6.5476 H   0  0  0  0  0
   17.3397   11.9018   -2.8131 H   0  0  0  0  0
   18.6920   10.7252   -6.7959 H   0  0  0  0  0
   18.3955    8.9597   -6.2782 H   0  0  0  0  0
   20.7243    9.9816   -7.1988 H   0  0  0  0  0
   20.5417    8.5519   -6.0557 H   0  0  0  0  0
   21.2723   11.4075   -5.3701 H   0  0  0  0  0
   22.3188    9.9720   -5.2744 H   0  0  0  0  0
   22.7696   10.2065   -2.9618 H   0  0  0  0  0
   21.8621   11.7385   -2.9855 H   0  0  0  0  0
   21.4710   10.4905   -1.7769 H   0  0  0  0  0
   20.0354    8.0424   -4.1345 H   0  0  0  0  0
   21.6964    8.1154   -3.4966 H   0  0  0  0  0
   20.3141    8.4294   -2.4188 H   0  0  0  0  0
   18.9037   10.1494   -2.7681 H   0  0  0  0  0
   19.4740   11.7150   -3.5921 H   0  0  0  0  0
  1  2  2  0  0  0
  2  3  1  0  0  0
  2  9  1  0  0  0
  3  4  4  0  0  0
  3  8  4  0  0  0
  4  5  4  0  0  0
  5  6  4  0  0  0
  6  7  4  0  0  0
  7  8  4  0  0  0
  9 10  1  0  0  0
 10 11  1  0  0  0
 10 16  1  0  0  0
 11 12  1  0  0  0
 12 13  1  0  0  0
 13 14  1  0  0  0
 14 15  1  0  0  0
 15 16  1  0  0  0
 16 17  1  0  0  0
 17 18  1  0  0  0
 18 19  2  0  0  0
 18 20  1  0  0  0
 20 21  4  0  0  0
 20 23  4  0  0  0
 21 22  4  0  0  0
 22 25  4  0  0  0
 23 24  4  0  0  0
 24 25  4  0  0  0
 25 26  1  0  0  0
 26 27  2  0  0  0
 26 28  1  0  0  0
 28 29  4  0  0  0
 28 33  4  0  0  0
 29 30  1  0  0  0
 29 31  4  0  0  0
 31 32  4  0  0  0
 32 34  4  0  0  0
 33 34  4  0  0  0
 34 35  1  0  0  0
 35 36  1  0  0  0
 35 42  1  0  0  0
 36 37  1  0  0  0
 37 38  1  0  0  0
 38 39  1  0  0  0
 39 40  1  0  0  0
 39 41  1  0  0  0
 39 42  1  0  0  0
  4 43  1  0  0  0
  5 44  1  0  0  0
  7 45  1  0  0  0
  8 46  1  0  0  0
  9 47  1  0  0  0
 10 48  1  0  0  0
 11 49  1  0  0  0
 11 50  1  0  0  0
 12 51  1  0  0  0
 12 52  1  0  0  0
 13 53  1  0  0  0
 13 54  1  0  0  0
 14 55  1  0  0  0
 14 56  1  0  0  0
 15 57  1  0  0  0
 15 58  1  0  0  0
 16 59  1  0  0  0
 17 60  1  0  0  0
 21 61  1  0  0  0
 22 62  1  0  0  0
 23 63  1  0  0  0
 24 64  1  0  0  0
 30 65  1  0  0  0
 31 66  1  0  0  0
 32 67  1  0  0  0
 33 68  1  0  0  0
 36 69  1  0  0  0
 36 70  1  0  0  0
 37 71  1  0  0  0
 37 72  1  0  0  0
 38 73  1  0  0  0
 38 74  1  0  0  0
 40 75  1  0  0  0
 40 76  1  0  0  0
 40 77  1  0  0  0
 41 78  1  0  0  0
 41 79  1  0  0  0
 41 80  1  0  0  0
 42 81  1  0  0  0
 42 82  1  0  0  0
M  END
$$$$
