1tt1_ligand
  -I-interpret- 

 31 31  0  0  0  0  0  0  0  0999 V2000
    2.1690    0.5040   24.1980 N   0  3  0  0  0
    0.8890    0.0040   24.8850 C   0  0  0  0  0
   -0.9750   -0.0870   27.1820 C   0  0  0  0  0
    0.7020   -0.2880   28.9520 C   0  0  0  0  0
    3.1870    0.7010   25.2160 C   0  0  0  0  0
    2.4360    0.9210   26.5050 C   0  0  0  0  0
    1.8050    2.3820   26.7350 C   0  0  0  0  0
    1.3620   -0.1190   26.4070 C   0  0  0  0  0
    2.8530    3.3780   27.2490 C   0  0  0  0  0
    0.2610   -0.1620   27.5430 C   0  0  0  0  0
    4.2550   -0.4590   25.2630 C   0  0  0  0  0
    4.3490   -1.1400   24.2180 O   0  0  0  0  0
    2.4780    4.5590   27.2590 O   0  0  0  0  0
    3.9750    2.9610   27.6130 O   0  0  0  0  0
    4.9320   -0.5650   26.3310 O   0  0  0  0  0
    1.9852    1.3822   23.7129 H   0  0  0  0  0
    2.4880   -0.1805   23.5124 H   0  0  0  0  0
    0.5117   -0.9311   24.4712 H   0  0  0  0  0
    0.0357    0.6683   24.7484 H   0  0  0  0  0
   -1.2299    0.0024   26.1260 H   0  0  0  0  0
   -1.7646   -0.1130   27.9329 H   0  0  0  0  0
    0.3531    0.5750   29.5191 H   0  0  0  0  0
    0.2856   -1.1991   29.3816 H   0  0  0  0  0
    1.7905   -0.3322   28.9881 H   0  0  0  0  0
    3.8104    1.5676   24.9960 H   0  0  0  0  0
    3.1082    0.8456   27.3597 H   0  0  0  0  0
    1.0136    2.3010   27.4801 H   0  0  0  0  0
    1.4242    2.7459   25.7807 H   0  0  0  0  0
    1.7313   -1.1191   26.6340 H   0  0  0  0  0
    4.0110    2.0077   27.5059 H   0  0  0  0  0
    4.6363    0.0945   26.9628 H   0  0  0  0  0
  2  1  1  0  0  0
  5  1  1  0  0  0
  8  2  1  0  0  0
 10  3  2  0  0  0
 10  4  1  0  0  0
  6  5  1  0  0  0
  5 11  1  0  0  0
  6  7  1  0  0  0
  8  6  1  0  0  0
  7  9  1  0  0  0
  8 10  1  0  0  0
  9 13  2  0  0  0
  9 14  1  0  0  0
 11 12  2  0  0  0
 11 15  1  0  0  0
  1 16  1  0  0  0
  1 17  1  0  0  0
  2 18  1  0  0  0
  2 19  1  0  0  0
  3 20  1  0  0  0
  3 21  1  0  0  0
  4 22  1  0  0  0
  4 23  1  0  0  0
  4 24  1  0  0  0
  5 25  1  0  0  0
  6 26  1  0  0  0
  7 27  1  0  0  0
  7 28  1  0  0  0
  8 29  1  0  0  0
 14 30  1  0  0  0
 15 31  1  0  0  0
M  END
$$$$
