4umu_ligand
  -I-interpret- 

 46 48  0  0  0  0  0  0  0  0999 V2000
   37.5720   19.9260   24.7360 C   0  0  0  0  0
   36.6530   20.0680   23.5420 C   0  0  0  0  0
   36.4210   21.4570   23.3060 O   0  0  0  0  0
   35.5610   21.8360   22.2990 C   0  0  0  0  0
   34.9130   20.9800   21.4130 C   0  0  0  0  0
   34.0540   21.4750   20.4230 C   0  0  0  0  0
   33.4430   20.5630   19.5760 O   0  0  0  0  0
   32.4450   20.9670   18.5850 C   0  0  0  0  0
   31.9380   19.7840   17.9280 C   0  0  0  0  0
   31.5140   18.8110   17.3890 C   0  0  0  0  0
   30.9860   17.6030   16.7190 C   0  0  0  0  0
   29.6090   17.4120   16.6450 C   0  0  0  0  0
   29.0900   16.2970   16.0240 C   0  0  0  0  0
   29.9530   15.3400   15.4530 C   0  0  0  0  0
   29.4900   14.1780   14.8070 C   0  0  0  0  0
   30.4020   13.2920   14.2750 C   0  0  0  0  0
   31.7260   13.4730   14.3380 N   0  0  0  0  0
   32.1930   14.5670   14.9490 C   0  0  0  0  0
   31.3530   15.5390   15.5260 C   0  0  0  0  0
   31.8490   16.6750   16.1580 C   0  0  0  0  0
   33.8540   22.8420   20.3330 C   0  0  0  0  0
   34.4940   23.7040   21.2110 C   0  0  0  0  0
   35.3510   23.2200   22.2000 C   0  0  0  0  0
   36.0330   24.1880   23.1420 C   0  0  0  0  0
   35.4610   24.1450   24.5130 N   0  3  0  0  0
   38.5160   20.4297   24.5282 H   0  0  0  0  0
   37.1025   20.3774   25.6100 H   0  0  0  0  0
   37.7571   18.8689   24.9267 H   0  0  0  0  0
   35.7076   19.5630   23.7401 H   0  0  0  0  0
   37.1136   19.6150   22.6641 H   0  0  0  0  0
   35.0768   19.9052   21.4908 H   0  0  0  0  0
   32.9006   21.6314   17.8508 H   0  0  0  0  0
   31.6285   21.4958   19.0766 H   0  0  0  0  0
   28.9363   18.1502   17.0817 H   0  0  0  0  0
   28.0105   16.1548   15.9742 H   0  0  0  0  0
   28.4209   13.9809   14.7283 H   0  0  0  0  0
   30.0253   12.3983   13.7776 H   0  0  0  0  0
   33.2718   14.7129   15.0028 H   0  0  0  0  0
   32.9256   16.8365   16.2123 H   0  0  0  0  0
   33.1896   23.2431   19.5676 H   0  0  0  0  0
   34.3247   24.7775   21.1270 H   0  0  0  0  0
   35.8920   25.1952   22.7498 H   0  0  0  0  0
   37.0848   23.9097   23.2072 H   0  0  0  0  0
   35.9531   24.8128   25.1065 H   0  0  0  0  0
   34.4710   24.3874   24.4748 H   0  0  0  0  0
   35.5677   23.2054   24.8953 H   0  0  0  0  0
  1  2  1  0  0  0
  2  3  1  0  0  0
  3  4  1  0  0  0
  4  5  4  0  0  0
  4 23  4  0  0  0
  5  6  4  0  0  0
  6  7  1  0  0  0
  6 21  4  0  0  0
  7  8  1  0  0  0
  8  9  1  0  0  0
  9 10  3  0  0  0
 10 11  1  0  0  0
 11 12  4  0  0  0
 11 20  4  0  0  0
 12 13  4  0  0  0
 13 14  4  0  0  0
 14 15  4  0  0  0
 14 19  4  0  0  0
 15 16  4  0  0  0
 16 17  4  0  0  0
 17 18  4  0  0  0
 18 19  4  0  0  0
 19 20  4  0  0  0
 21 22  4  0  0  0
 22 23  4  0  0  0
 23 24  1  0  0  0
 24 25  1  0  0  0
  1 26  1  0  0  0
  1 27  1  0  0  0
  1 28  1  0  0  0
  2 29  1  0  0  0
  2 30  1  0  0  0
  5 31  1  0  0  0
  8 32  1  0  0  0
  8 33  1  0  0  0
 12 34  1  0  0  0
 13 35  1  0  0  0
 15 36  1  0  0  0
 16 37  1  0  0  0
 18 38  1  0  0  0
 20 39  1  0  0  0
 21 40  1  0  0  0
 22 41  1  0  0  0
 24 42  1  0  0  0
 24 43  1  0  0  0
 25 44  1  0  0  0
 25 45  1  0  0  0
 25 46  1  0  0  0
M  END
$$$$
