4z83_ligand
  -I-interpret- 

 39 42  0  0  0  0  0  0  0  0999 V2000
  -14.1230  -11.4860    6.4350 C   0  0  0  0  0
  -13.4780  -10.1140    6.3050 C   0  0  0  0  0
  -14.5410   -8.9990    6.3040 C   0  0  0  0  0
  -12.5910   -8.1410    7.2840 C   0  0  0  0  0
  -17.6600  -14.4300    3.0810 Br  0  0  0  0  0
  -16.0080  -12.0710    3.2500 C   0  0  0  0  0
  -15.1130  -11.3740    4.0820 C   0  0  0  0  0
  -14.9260  -11.9540    5.3040 C   0  0  0  0  0
  -16.4860  -13.1810    3.8380 C   0  0  0  0  0
  -13.9750  -12.1680    7.4320 O   0  0  0  0  0
  -13.9330   -7.7840    6.8710 N   0  3  0  0  0
   -6.2640  -11.0620    8.5610 O   0  0  0  0  0
   -6.9160  -10.8610    7.5380 C   0  0  0  0  0
   -6.2990  -10.7780    6.2880 N   0  0  0  0  0
   -6.9990  -10.5670    5.1480 C   0  0  0  0  0
   -8.3200  -10.3810    5.0860 N   0  0  0  0  0
   -9.0170  -10.4310    6.3010 C   0  0  0  0  0
  -10.3980  -10.2140    6.2720 C   0  0  0  0  0
   -8.3810  -10.6910    7.5230 C   0  0  0  0  0
   -9.1420  -10.8000    8.6840 C   0  0  0  0  0
  -10.5100  -10.5970    8.6370 C   0  0  0  0  0
  -11.1430  -10.2420    7.4510 C   0  0  0  0  0
  -12.5510   -9.6830    7.4800 C   0  0  0  0  0
  -15.8770  -13.4150    5.4410 S   0  0  0  0  0
  -12.9078  -10.2227    5.3824 H   0  0  0  0  0
  -15.4017   -9.3010    6.9007 H   0  0  0  0  0
  -14.8826   -8.8076    5.2868 H   0  0  0  0  0
  -12.3327   -7.6337    8.2135 H   0  0  0  0  0
  -11.8677   -7.8359    6.5278 H   0  0  0  0  0
  -16.2819  -11.7484    2.2455 H   0  0  0  0  0
  -14.6137  -10.4538    3.7785 H   0  0  0  0  0
  -14.4772   -7.4419    7.6630 H   0  0  0  0  0
  -13.9124   -7.0330    6.1811 H   0  0  0  0  0
   -5.2857  -10.8799    6.2316 H   0  0  0  0  0
   -6.4426  -10.5475    4.2109 H   0  0  0  0  0
  -10.8958  -10.0216    5.3216 H   0  0  0  0  0
   -8.6599  -11.0453    9.6303 H   0  0  0  0  0
  -11.1012  -10.7174    9.5448 H   0  0  0  0  0
  -12.8831  -10.0557    8.4490 H   0  0  0  0  0
  2  1  1  0  0  0
  1  8  1  0  0  0
  1 10  2  0  0  0
  2  3  1  0  0  0
 23  2  1  0  0  0
 11  3  1  0  0  0
  4 11  1  0  0  0
 23  4  1  0  0  0
  9  5  1  0  0  0
  7  6  4  0  0  0
  9  6  4  0  0  0
  8  7  4  0  0  0
  8 24  4  0  0  0
 24  9  4  0  0  0
 13 12  2  0  0  0
 13 14  1  0  0  0
 19 13  1  0  0  0
 15 14  1  0  0  0
 16 15  2  0  0  0
 17 16  1  0  0  0
 18 17  4  0  0  0
 17 19  4  0  0  0
 22 18  4  0  0  0
 20 19  4  0  0  0
 21 20  4  0  0  0
 22 21  4  0  0  0
 22 23  1  0  0  0
  2 25  1  0  0  0
  3 26  1  0  0  0
  3 27  1  0  0  0
  4 28  1  0  0  0
  4 29  1  0  0  0
  6 30  1  0  0  0
  7 31  1  0  0  0
 11 32  1  0  0  0
 11 33  1  0  0  0
 14 34  1  0  0  0
 15 35  1  0  0  0
 18 36  1  0  0  0
 20 37  1  0  0  0
 21 38  1  0  0  0
 23 39  1  0  0  0
M  END
$$$$
