6c9n_ligand
  -I-interpret- 

 37 39  0  0  0  0  0  0  0  0999 V2000
    5.0820    0.3010    6.7620 N   0  0  0  0  0
    5.9140   -0.3450    7.5870 C   0  0  0  0  0
    6.9410    0.2540    8.1870 N   0  0  0  0  0
    7.1790    1.5850    7.9080 C   0  0  0  0  0
    6.3590    2.2760    7.0470 C   0  0  0  0  0
    5.2910    1.5680    6.4440 C   0  0  0  0  0
    4.4140    2.2280    5.5120 N   0  0  0  0  0
    6.8670    3.5810    7.0140 C   0  0  0  0  0
    7.9670    3.6510    7.8350 C   0  0  0  0  0
    8.1720    2.4510    8.3510 N   0  0  0  0  0
    9.1500    2.1060    9.3910 C   0  0  0  0  0
    6.3240    4.7810    6.2640 C   0  0  0  0  0
    6.6650    6.0560    6.8620 N   0  0  0  0  0
    5.5920    4.7170    5.3470 O   0  0  0  0  0
   10.5850    2.5870    9.1910 C   0  0  0  0  0
   11.3860    1.5270    8.7430 O   0  0  0  0  0
   10.9920    3.1400   10.6030 C   0  0  0  0  0
   12.1040    2.4130   11.1470 O   0  0  0  0  0
    9.7800    2.8890   11.4820 C   0  0  0  0  0
    8.6830    2.7450   10.5710 O   0  0  0  0  0
    9.4870    4.0010   12.4810 C   0  0  0  0  0
    8.3380    3.7020   13.2540 O   0  0  0  0  0
    5.7443   -1.4050    7.7758 H   0  0  0  0  0
    3.6331    1.7187    5.0982 H   0  0  0  0  0
    4.5736    3.2048    5.2656 H   0  0  0  0  0
    8.5662    4.5410    8.0273 H   0  0  0  0  0
    9.2094    1.0177    9.4004 H   0  0  0  0  0
    6.2678    6.9175    6.4873 H   0  0  0  0  0
    7.3023    6.0920    7.6576 H   0  0  0  0  0
   10.7024    3.3576    8.4291 H   0  0  0  0  0
   12.2860    1.8374    8.6198 H   0  0  0  0  0
   11.2819    4.1890   10.5429 H   0  0  0  0  0
   12.3295    2.7726   12.0081 H   0  0  0  0  0
    9.9564    2.0091   12.1006 H   0  0  0  0  0
    9.3072    4.9251   11.9317 H   0  0  0  0  0
   10.3412    4.1026   13.1505 H   0  0  0  0  0
    8.1759    4.4168   13.8739 H   0  0  0  0  0
  1  2  4  0  0  0
  1  6  4  0  0  0
  2  3  4  0  0  0
  3  4  4  0  0  0
  4  5  4  0  0  0
  4 10  4  0  0  0
  5  6  4  0  0  0
  5  8  4  0  0  0
  6  7  1  0  0  0
  8  9  4  0  0  0
  8 12  1  0  0  0
  9 10  4  0  0  0
 10 11  1  0  0  0
 11 15  1  0  0  0
 11 20  1  0  0  0
 12 13  1  0  0  0
 12 14  2  0  0  0
 15 16  1  0  0  0
 15 17  1  0  0  0
 17 18  1  0  0  0
 17 19  1  0  0  0
 19 20  1  0  0  0
 19 21  1  0  0  0
 21 22  1  0  0  0
  2 23  1  0  0  0
  7 24  1  0  0  0
  7 25  1  0  0  0
  9 26  1  0  0  0
 11 27  1  0  0  0
 13 28  1  0  0  0
 13 29  1  0  0  0
 15 30  1  0  0  0
 16 31  1  0  0  0
 17 32  1  0  0  0
 18 33  1  0  0  0
 19 34  1  0  0  0
 21 35  1  0  0  0
 21 36  1  0  0  0
 22 37  1  0  0  0
M  END
$$$$
