### 
### Created by X-TOOL on Mon Aug  2 16:17:07 2021
### 

@<TRIPOS>MOLECULE
6qto_ligand
  154   155     1     0     0
SMALL
GAST_HUCK


@<TRIPOS>ATOM
      1 C          -2.9980   -5.9880   26.9770 C.2       1 ACE         0.1751
      2 O          -3.7950   -5.2820   26.3530 O.2       1 ACE        -0.3972
      3 CH3        -2.9560   -7.4770   26.7630 C.3       1 ACE         0.0258
      4 N          -2.1220   -5.5030   27.8710 N.am      1 ACE        -0.2657
      5 CA         -2.0430   -4.0770   28.1920 C.3       1 ACE         0.1324
      6 C          -1.7760   -3.2080   26.9640 C.2       1 ACE         0.2040
      7 O          -2.1750   -2.0490   26.9050 O.2       1 ACE        -0.3944
      8 CB         -0.9590   -3.8340   29.2390 C.3       1 ACE        -0.0008
      9 CG         -1.2770   -4.4440   30.5930 C.3       1 ACE         0.0044
     10 CD         -0.1620   -4.2490   31.5980 C.2       1 ACE         0.0350
     11 OE1         0.8600   -3.6280   31.2390 O.co2     1 ACE        -0.5690
     12 OE2        -0.3070   -4.7180   32.7470 O.co2     1 ACE        -0.5690
     13 N          -1.1030   -3.7820   25.9740 N.am      1 ACE        -0.2635
     14 CA         -0.8890   -3.0790   24.7140 C.3       1 ACE         0.1335
     15 C          -2.2090   -2.7310   24.0330 C.2       1 ACE         0.2042
     16 O          -2.2680   -1.7750   23.2460 O.2       1 ACE        -0.3944
     17 CB          0.0550   -3.9130   23.8310 C.3       1 ACE        -0.0037
     18 CG1         0.5610   -3.0960   22.6450 C.3       1 ACE        -0.0491
     19 CG2        -0.6210   -5.1860   23.3330 C.3       1 ACE        -0.0582
     20 CD1         1.5960   -2.0680   23.0210 C.3       1 ACE        -0.0648
     21 N          -3.2830   -3.4850   24.3070 N.am      1 ACE        -0.2637
     22 CA         -4.6030   -3.1930   23.7640 C.3       1 ACE         0.1311
     23 C          -5.5450   -2.6230   24.8150 C.2       1 ACE         0.2039
     24 O          -6.7640   -2.6610   24.6470 O.2       1 ACE        -0.3944
     25 CB         -5.2440   -4.4090   23.0970 C.3       1 ACE        -0.0092
     26 CG         -4.4500   -4.9850   21.9650 C.3       1 ACE        -0.0156
     27 CD         -4.2480   -4.0080   20.8300 C.3       1 ACE         0.0627
     28 NE         -5.4640   -3.7680   20.0540 N.pl3     1 ACE        -0.2723
     29 CZ         -5.6910   -2.6980   19.3080 C.cat     1 ACE         0.2882
     30 NH1        -4.8000   -1.7130   19.2510 N.pl3     1 ACE        -0.2849
     31 NH2        -6.8190   -2.6000   18.6310 N.pl3     1 ACE        -0.2849
     32 N          -5.0090   -2.0700   25.8920 N.am      1 ACE        -0.2637
     33 CA         -5.8650   -1.4250   26.8710 C.3       1 ACE         0.1311
     34 C          -6.3780   -0.0980   26.3270 C.2       1 ACE         0.2039
     35 O          -5.6160    0.7130   25.7920 O.2       1 ACE        -0.3944
     36 CB         -5.0840   -1.1930   28.1640 C.3       1 ACE        -0.0092
     37 CG         -5.9230   -0.5620   29.2640 C.3       1 ACE        -0.0156
     38 CD         -5.1030   -0.2630   30.5090 C.3       1 ACE         0.0627
     39 NE         -4.7310   -1.4730   31.2340 N.pl3     1 ACE        -0.2723
     40 CZ         -5.5250   -2.1090   32.0900 C.cat     1 ACE         0.2882
     41 NH1        -6.7500   -1.6580   32.3290 N.pl3     1 ACE        -0.2849
     42 NH2        -5.0960   -3.2020   32.7050 N.pl3     1 ACE        -0.2849
     43 N          -7.6740    0.1260   26.4630 N.am      1 ACE        -0.2635
     44 CA         -8.2880    1.3680   25.9910 C.3       1 ACE         0.1334
     45 C          -7.9690    2.4720   26.9960 C.2       1 ACE         0.2066
     46 O          -8.1200    2.2540   28.2100 O.2       1 ACE        -0.3942
     47 CB         -9.7930    1.1820   25.8590 C.3       1 ACE        -0.0062
     48 CG1       -10.4640    2.4670   25.4050 C.3       1 ACE        -0.0584
     49 CG2       -10.1350    0.0420   24.9050 C.3       1 ACE        -0.0584
     50 N          -7.5350    3.6420   26.5470 N.am      1 ACE        -0.2498
     51 CA         -7.2410    4.7210   27.4950 C.3       1 ACE         0.1338
     52 C          -8.4930    5.2900   28.1470 C.2       1 ACE         0.2041
     53 O          -9.5820    5.2620   27.5830 O.2       1 ACE        -0.3944
     54 CB         -6.5580    5.7790   26.6200 C.3       1 ACE        -0.0104
     55 CG         -6.9330    5.4800   25.2490 C.3       1 ACE        -0.0281
     56 CD         -7.2110    4.0090   25.1570 C.3       1 ACE         0.0369
     57 N          -8.3170    5.8290   29.3520 N.am      1 ACE        -0.2636
     58 CA         -9.3240    6.6550   30.0050 C.3       1 ACE         0.1324
     59 C          -8.8060    8.0870   30.1060 C.2       1 ACE         0.2036
     60 O          -7.5970    8.3190   30.2050 O.2       1 ACE        -0.3944
     61 CB         -9.6510    6.1420   31.4120 C.3       1 ACE        -0.0008
     62 CG        -10.6240    4.9610   31.4490 C.3       1 ACE         0.0044
     63 CD        -12.0330    5.3180   30.9750 C.2       1 ACE         0.0350
     64 OE1       -12.5970    6.3520   31.4240 O.co2     1 ACE        -0.5690
     65 OE2       -12.5800    4.5520   30.1520 O.co2     1 ACE        -0.5690
     66 N          -9.7230    9.0510   30.0770 N.am      1 ACE        -0.2677
     67 CA         -9.3130   10.4530   30.1150 C.3       1 ACE         0.1039
     68 C          -8.7730   10.8280   31.4930 C.2       1 ACE         0.0621
     69 O          -9.2850   10.3680   32.5120 O.co2     1 ACE        -0.5664
     70 CB        -10.4640   11.3870   29.7370 C.3       1 ACE         0.0159
     71 CG        -10.0910   12.8430   29.7810 C.ar      1 ACE        -0.0392
     72 CD1        -9.0100   13.3140   29.0550 C.ar      1 ACE        -0.0602
     73 CD2       -10.8140   13.7370   30.5520 C.ar      1 ACE        -0.0602
     74 CE1        -8.6590   14.6500   29.0960 C.ar      1 ACE        -0.0686
     75 CE2       -10.4640   15.0730   30.5970 C.ar      1 ACE        -0.0686
     76 CZ         -9.3890   15.5310   29.8650 C.ar      1 ACE        -0.0687
     77 OXT        -7.8180   11.5950   31.6030 O.co2     1 ACE        -0.5664
     78 H1         -2.1832   -7.9186   27.4093 H         1 ACE         0.0467
     79 H2         -2.7188   -7.6896   25.7101 H         1 ACE         0.0467
     80 H3         -3.9352   -7.9112   27.0132 H         1 ACE         0.0467
     81 H4         -1.5024   -6.1373   28.3334 H         1 ACE         0.1883
     82 H5         -3.0112   -3.7735   28.6169 H         1 ACE         0.0801
     83 H6         -0.8353   -2.7485   29.3666 H         1 ACE         0.0330
     84 H7         -0.0176   -4.2699   28.8732 H         1 ACE         0.0330
     85 H8         -1.4476   -5.5227   30.4617 H         1 ACE         0.0433
     86 H9         -2.1905   -3.9733   30.9852 H         1 ACE         0.0433
     87 H10        -0.7391   -4.7058   26.0933 H         1 ACE         0.1883
     88 H11        -0.3814   -2.1292   24.9379 H         1 ACE         0.0803
     89 H12         0.9215   -4.2032   24.4433 H         1 ACE         0.0345
     90 H13        -0.2951   -2.5773   22.1890 H         1 ACE         0.0267
     91 H14         1.0052   -3.7851   21.9117 H         1 ACE         0.0267
     92 H15        -0.9829   -5.7693   24.1925 H         1 ACE         0.0235
     93 H16         0.1025   -5.7858   22.7613 H         1 ACE         0.0235
     94 H17        -1.4702   -4.9212   22.6860 H         1 ACE         0.0235
     95 H18         1.9127   -1.5204   22.1211 H         1 ACE         0.0230
     96 H19         2.4657   -2.5703   23.4696 H         1 ACE         0.0230
     97 H20         1.1653   -1.3625   23.7468 H         1 ACE         0.0230
     98 H21        -3.1740   -4.2778   24.9067 H         1 ACE         0.1883
     99 H22        -4.4685   -2.4244   22.9886 H         1 ACE         0.0800
    100 H23        -6.2286   -4.1092   22.7088 H         1 ACE         0.0313
    101 H24        -5.3731   -5.1913   23.8595 H         1 ACE         0.0313
    102 H25        -4.9803   -5.8675   21.5779 H         1 ACE         0.0301
    103 H26        -3.4638   -5.2880   22.3467 H         1 ACE         0.0301
    104 H27        -3.4767   -4.4093   20.1562 H         1 ACE         0.0689
    105 H28        -3.9062   -3.0503   21.2495 H         1 ACE         0.0689
    106 H29        -6.2008   -4.4869   20.0906 H         1 ACE         0.2642
    107 H30        -4.9850   -0.8843   18.6680 H         1 ACE         0.2615
    108 H31        -3.9247   -1.7785   19.7899 H         1 ACE         0.2615
    109 H32        -7.5122   -3.3607   18.6723 H         1 ACE         0.2615
    110 H33        -7.0066   -1.7627   18.0612 H         1 ACE         0.2615
    111 H34        -4.0190   -2.0965   26.0304 H         1 ACE         0.1883
    112 H35        -6.7232   -2.0796   27.0829 H         1 ACE         0.0800
    113 H36        -4.2357   -0.5276   27.9458 H         1 ACE         0.0313
    114 H37        -4.7071   -2.1618   28.5237 H         1 ACE         0.0313
    115 H38        -6.7349   -1.2541   29.5319 H         1 ACE         0.0301
    116 H39        -6.3519    0.3784   28.8876 H         1 ACE         0.0301
    117 H40        -5.6955    0.3803   31.1761 H         1 ACE         0.0689
    118 H41        -4.1858    0.2653   30.2095 H         1 ACE         0.0689
    119 H42        -3.7905   -1.8605   31.0719 H         1 ACE         0.2642
    120 H43        -7.3611   -2.1544   32.9931 H         1 ACE         0.2615
    121 H44        -7.0896   -0.8115   31.8504 H         1 ACE         0.2615
    122 H45        -4.1461   -3.5561   32.5230 H         1 ACE         0.2615
    123 H46        -5.7126   -3.6972   33.3649 H         1 ACE         0.2615
    124 H47        -8.2473   -0.5684   26.8979 H         1 ACE         0.1883
    125 H48        -7.8707    1.6356   25.0090 H         1 ACE         0.0803
    126 H49       -10.1884    0.9233   26.8523 H         1 ACE         0.0343
    127 H50       -11.5483    2.3036   25.3184 H         1 ACE         0.0234
    128 H51       -10.0591    2.7664   24.4271 H         1 ACE         0.0234
    129 H52       -10.2706    3.2615   26.1408 H         1 ACE         0.0234
    130 H53        -9.6431   -0.8811   25.2455 H         1 ACE         0.0234
    131 H54        -9.7839    0.2928   23.8932 H         1 ACE         0.0234
    132 H55       -11.2246   -0.1079   24.8884 H         1 ACE         0.0234
    133 H56        -6.5595    4.3648   28.2816 H         1 ACE         0.0802
    134 H57        -5.4657    5.7222   26.7368 H         1 ACE         0.0313
    135 H58        -6.9048    6.7850   26.8986 H         1 ACE         0.0313
    136 H59        -6.1104    5.7480   24.5697 H         1 ACE         0.0287
    137 H60        -7.8342    6.0484   24.9757 H         1 ACE         0.0287
    138 H61        -8.0606    3.8089   24.4876 H         1 ACE         0.0524
    139 H62        -6.3261    3.4616   24.8001 H         1 ACE         0.0524
    140 H63        -7.4552    5.6592   29.8300 H         1 ACE         0.1883
    141 H64       -10.2421    6.6410   29.3993 H         1 ACE         0.0801
    142 H65       -10.0943    6.9699   31.9847 H         1 ACE         0.0330
    143 H66        -8.7113    5.8275   31.8896 H         1 ACE         0.0330
    144 H67       -10.6872    4.5940   32.4840 H         1 ACE         0.0433
    145 H68       -10.2298    4.1644   30.8009 H         1 ACE         0.0433
    146 H69       -10.6937    8.8156   30.0291 H         1 ACE         0.1877
    147 H70        -8.5061   10.5894   29.3800 H         1 ACE         0.0749
    148 H71       -11.2944   11.2186   30.4384 H         1 ACE         0.0467
    149 H72       -10.7911   11.1417   28.7158 H         1 ACE         0.0467
    150 H73        -8.4324   12.6268   28.4474 H         1 ACE         0.0557
    151 H74       -11.6634   13.3854   31.1263 H         1 ACE         0.0557
    152 H75        -7.8098   15.0052   28.5235 H         1 ACE         0.0599
    153 H76       -11.0353   15.7619   31.2086 H         1 ACE         0.0599
    154 H77        -9.1188   16.5804   29.8941 H         1 ACE         0.0559
@<TRIPOS>BOND
     1    1    2 2  
     2    1    3 1  
     3    1    4 am 
     4    4    5 1  
     5    5    6 1  
     6    5    8 1  
     7    6    7 2  
     8    6   13 am 
     9    8    9 1  
    10    9   10 1  
    11   10   11 ar 
    12   10   12 ar 
    13   13   14 1  
    14   14   15 1  
    15   14   17 1  
    16   15   16 2  
    17   15   21 am 
    18   17   18 1  
    19   17   19 1  
    20   18   20 1  
    21   21   22 1  
    22   22   23 1  
    23   22   25 1  
    24   23   24 2  
    25   23   32 am 
    26   25   26 1  
    27   26   27 1  
    28   27   28 1  
    29   28   29 ar 
    30   29   30 ar 
    31   29   31 ar 
    32   32   33 1  
    33   33   34 1  
    34   33   36 1  
    35   34   35 2  
    36   34   43 am 
    37   36   37 1  
    38   37   38 1  
    39   38   39 1  
    40   39   40 ar 
    41   40   41 ar 
    42   40   42 ar 
    43   43   44 1  
    44   44   45 1  
    45   44   47 1  
    46   45   46 2  
    47   45   50 am 
    48   47   48 1  
    49   47   49 1  
    50   50   51 1  
    51   50   56 1  
    52   51   52 1  
    53   51   54 1  
    54   52   53 2  
    55   52   57 am 
    56   54   55 1  
    57   55   56 1  
    58   57   58 1  
    59   58   59 1  
    60   58   61 1  
    61   59   60 2  
    62   59   66 am 
    63   61   62 1  
    64   62   63 1  
    65   63   64 ar 
    66   63   65 ar 
    67   66   67 1  
    68   67   68 1  
    69   67   70 1  
    70   68   69 ar 
    71   68   77 ar 
    72   70   71 1  
    73   71   72 ar 
    74   71   73 ar 
    75   72   74 ar 
    76   73   75 ar 
    77   74   76 ar 
    78   75   76 ar 
    79    3   78 1  
    80    3   79 1  
    81    3   80 1  
    82    4   81 1  
    83    5   82 1  
    84    8   83 1  
    85    8   84 1  
    86    9   85 1  
    87    9   86 1  
    88   13   87 1  
    89   14   88 1  
    90   17   89 1  
    91   18   90 1  
    92   18   91 1  
    93   19   92 1  
    94   19   93 1  
    95   19   94 1  
    96   20   95 1  
    97   20   96 1  
    98   20   97 1  
    99   21   98 1  
   100   22   99 1  
   101   25  100 1  
   102   25  101 1  
   103   26  102 1  
   104   26  103 1  
   105   27  104 1  
   106   27  105 1  
   107   28  106 1  
   108   30  107 1  
   109   30  108 1  
   110   31  109 1  
   111   31  110 1  
   112   32  111 1  
   113   33  112 1  
   114   36  113 1  
   115   36  114 1  
   116   37  115 1  
   117   37  116 1  
   118   38  117 1  
   119   38  118 1  
   120   39  119 1  
   121   41  120 1  
   122   41  121 1  
   123   42  122 1  
   124   42  123 1  
   125   43  124 1  
   126   44  125 1  
   127   47  126 1  
   128   48  127 1  
   129   48  128 1  
   130   48  129 1  
   131   49  130 1  
   132   49  131 1  
   133   49  132 1  
   134   51  133 1  
   135   54  134 1  
   136   54  135 1  
   137   55  136 1  
   138   55  137 1  
   139   56  138 1  
   140   56  139 1  
   141   57  140 1  
   142   58  141 1  
   143   61  142 1  
   144   61  143 1  
   145   62  144 1  
   146   62  145 1  
   147   66  146 1  
   148   67  147 1  
   149   70  148 1  
   150   70  149 1  
   151   72  150 1  
   152   73  151 1  
   153   74  152 1  
   154   75  153 1  
   155   76  154 1  
@<TRIPOS>SUBSTRUCTURE
     1 ACE         1

