6qto_ligand
  -I-interpret- 

155156  0  0  0  0  0  0  0  0999 V2000
   -2.9980   -5.9880   26.9770 C   0  0  0  0  0
   -3.7950   -5.2820   26.3530 O   0  0  0  0  0
   -2.9560   -7.4770   26.7630 C   0  0  0  0  0
   -2.1220   -5.5030   27.8710 N   0  0  0  0  0
   -2.0430   -4.0770   28.1920 C   0  0  0  0  0
   -1.7760   -3.2080   26.9640 C   0  0  0  0  0
   -2.1750   -2.0490   26.9050 O   0  0  0  0  0
   -0.9590   -3.8340   29.2390 C   0  0  0  0  0
   -1.2770   -4.4440   30.5930 C   0  0  0  0  0
   -0.1620   -4.2490   31.5980 C   0  0  0  0  0
    0.8600   -3.6280   31.2390 O   0  0  0  0  0
   -0.3070   -4.7180   32.7470 O   0  0  0  0  0
   -1.1030   -3.7820   25.9740 N   0  0  0  0  0
   -0.8890   -3.0790   24.7140 C   0  0  0  0  0
   -2.2090   -2.7310   24.0330 C   0  0  0  0  0
   -2.2680   -1.7750   23.2460 O   0  0  0  0  0
    0.0550   -3.9130   23.8310 C   0  0  0  0  0
    0.5610   -3.0960   22.6450 C   0  0  0  0  0
   -0.6210   -5.1860   23.3330 C   0  0  0  0  0
    1.5960   -2.0680   23.0210 C   0  0  0  0  0
   -3.2830   -3.4850   24.3070 N   0  0  0  0  0
   -4.6030   -3.1930   23.7640 C   0  0  0  0  0
   -5.5450   -2.6230   24.8150 C   0  0  0  0  0
   -6.7640   -2.6610   24.6470 O   0  0  0  0  0
   -5.2440   -4.4090   23.0970 C   0  0  0  0  0
   -4.4500   -4.9850   21.9650 C   0  0  0  0  0
   -4.2480   -4.0080   20.8300 C   0  0  0  0  0
   -5.4640   -3.7680   20.0540 N   0  0  0  0  0
   -5.6910   -2.6980   19.3080 C   0  0  0  0  0
   -4.8000   -1.7130   19.2510 N   0  0  0  0  0
   -6.8190   -2.6000   18.6310 N   0  0  0  0  0
   -5.0090   -2.0700   25.8920 N   0  0  0  0  0
   -5.8650   -1.4250   26.8710 C   0  0  0  0  0
   -6.3780   -0.0980   26.3270 C   0  0  0  0  0
   -5.6160    0.7130   25.7920 O   0  0  0  0  0
   -5.0840   -1.1930   28.1640 C   0  0  0  0  0
   -5.9230   -0.5620   29.2640 C   0  0  0  0  0
   -5.1030   -0.2630   30.5090 C   0  0  0  0  0
   -4.7310   -1.4730   31.2340 N   0  0  0  0  0
   -5.5250   -2.1090   32.0900 C   0  0  0  0  0
   -6.7500   -1.6580   32.3290 N   0  0  0  0  0
   -5.0960   -3.2020   32.7050 N   0  0  0  0  0
   -7.6740    0.1260   26.4630 N   0  0  0  0  0
   -8.2880    1.3680   25.9910 C   0  0  0  0  0
   -7.9690    2.4720   26.9960 C   0  0  0  0  0
   -8.1200    2.2540   28.2100 O   0  0  0  0  0
   -9.7930    1.1820   25.8590 C   0  0  0  0  0
  -10.4640    2.4670   25.4050 C   0  0  0  0  0
  -10.1350    0.0420   24.9050 C   0  0  0  0  0
   -7.5350    3.6420   26.5470 N   0  0  0  0  0
   -7.2410    4.7210   27.4950 C   0  0  0  0  0
   -8.4930    5.2900   28.1470 C   0  0  0  0  0
   -9.5820    5.2620   27.5830 O   0  0  0  0  0
   -6.5580    5.7790   26.6200 C   0  0  0  0  0
   -6.9330    5.4800   25.2490 C   0  0  0  0  0
   -7.2110    4.0090   25.1570 C   0  0  0  0  0
   -8.3170    5.8290   29.3520 N   0  0  0  0  0
   -9.3240    6.6550   30.0050 C   0  0  0  0  0
   -8.8060    8.0870   30.1060 C   0  0  0  0  0
   -7.5970    8.3190   30.2050 O   0  0  0  0  0
   -9.6510    6.1420   31.4120 C   0  0  0  0  0
  -10.6240    4.9610   31.4490 C   0  0  0  0  0
  -12.0330    5.3180   30.9750 C   0  0  0  0  0
  -12.5970    6.3520   31.4240 O   0  0  0  0  0
  -12.5800    4.5520   30.1520 O   0  0  0  0  0
   -9.7230    9.0510   30.0770 N   0  0  0  0  0
   -9.3130   10.4530   30.1150 C   0  0  0  0  0
   -8.7730   10.8280   31.4930 C   0  0  0  0  0
   -9.2850   10.3680   32.5120 O   0  0  0  0  0
  -10.4640   11.3870   29.7370 C   0  0  0  0  0
  -10.0910   12.8430   29.7810 C   0  0  0  0  0
   -9.0100   13.3140   29.0550 C   0  0  0  0  0
  -10.8140   13.7370   30.5520 C   0  0  0  0  0
   -8.6590   14.6500   29.0960 C   0  0  0  0  0
  -10.4640   15.0730   30.5970 C   0  0  0  0  0
   -9.3890   15.5310   29.8650 C   0  0  0  0  0
   -7.8180   11.5950   31.6030 O   0  0  0  0  0
   -3.9268   -7.9060   27.0112 H   0  0  0  0  0
   -2.7209   -7.6863   25.7194 H   0  0  0  0  0
   -2.1900   -7.9134   27.4039 H   0  0  0  0  0
   -1.4900   -6.1500   28.3426 H   0  0  0  0  0
   -3.0170   -3.7884   28.5872 H   0  0  0  0  0
   -0.8728   -2.7563   29.3773 H   0  0  0  0  0
   -0.0430   -4.3004   28.8765 H   0  0  0  0  0
   -1.4173   -5.5158   30.4526 H   0  0  0  0  0
   -2.1678   -3.9504   30.9815 H   0  0  0  0  0
   -1.1602   -5.1537   32.8082 H   0  0  0  0  0
   -0.7318   -4.7242   26.0957 H   0  0  0  0  0
   -0.4086   -2.1190   24.9029 H   0  0  0  0  0
    0.9050   -4.1972   24.4514 H   0  0  0  0  0
   -0.2927   -2.5632   22.2262 H   0  0  0  0  0
    1.0272   -3.7892   21.9448 H   0  0  0  0  0
   -0.9216   -5.7939   24.1863 H   0  0  0  0  0
   -1.5002   -4.9228   22.7450 H   0  0  0  0  0
    0.0774   -5.7480   22.7130 H   0  0  0  0  0
    1.1681   -1.3696   23.7402 H   0  0  0  0  0
    2.4572   -2.5670   23.4654 H   0  0  0  0  0
    1.9090   -1.5261   22.1285 H   0  0  0  0  0
   -3.1718   -4.2936   24.9187 H   0  0  0  0  0
   -4.4414   -2.4337   22.9988 H   0  0  0  0  0
   -6.1979   -4.0812   22.6840 H   0  0  0  0  0
   -5.3251   -5.1852   23.8579 H   0  0  0  0  0
   -5.0011   -5.8401   21.5736 H   0  0  0  0  0
   -3.4668   -5.2538   22.3514 H   0  0  0  0  0
   -3.5044   -4.4334   20.1561 H   0  0  0  0  0
   -3.9395   -3.0568   21.2637 H   0  0  0  0  0
   -6.1936   -4.4799   20.0902 H   0  0  0  0  0
   -4.9899   -0.8857   18.6854 H   0  0  0  0  0
   -3.9265   -1.7846   19.7728 H   0  0  0  0  0
   -7.5119   -3.3467   18.6836 H   0  0  0  0  0
   -3.9992   -2.0971   26.0332 H   0  0  0  0  0
   -6.7180   -2.0712   27.0782 H   0  0  0  0  0
   -4.2661   -0.5088   27.9382 H   0  0  0  0  0
   -4.7435   -2.1640   28.5235 H   0  0  0  0  0
   -6.7104   -1.2648   29.5363 H   0  0  0  0  0
   -6.3248    0.3787   28.8877 H   0  0  0  0  0
   -5.7094    0.3543   31.1719 H   0  0  0  0  0
   -4.1867    0.2382   30.1969 H   0  0  0  0  0
   -3.7996   -1.8567   31.0735 H   0  0  0  0  0
   -7.3567   -2.1520   32.9834 H   0  0  0  0  0
   -7.0848   -0.8173   31.8583 H   0  0  0  0  0
   -4.1568   -3.5551   32.5215 H   0  0  0  0  0
   -8.2587   -0.5823   26.9066 H   0  0  0  0  0
   -7.8934    1.6392   25.0118 H   0  0  0  0  0
  -10.1736    0.9217   26.8467 H   0  0  0  0  0
  -10.2716    3.2534   26.1349 H   0  0  0  0  0
  -10.0619    2.7626   24.4360 H   0  0  0  0  0
  -11.5383    2.3038   25.3196 H   0  0  0  0  0
   -9.7264    0.2606   23.9184 H   0  0  0  0  0
   -9.7041   -0.8861   25.2807 H   0  0  0  0  0
  -11.2180   -0.0603   24.8366 H   0  0  0  0  0
   -6.6303    4.3745   28.3288 H   0  0  0  0  0
   -5.4755    5.7510   26.7448 H   0  0  0  0  0
   -6.8736    6.7835   26.9021 H   0  0  0  0  0
   -6.1269    5.7549   24.5688 H   0  0  0  0  0
   -7.8185    6.0497   24.9672 H   0  0  0  0  0
   -8.0166    3.7753   24.4609 H   0  0  0  0  0
   -6.3678    3.4451   24.7581 H   0  0  0  0  0
   -7.4380    5.6558   29.8395 H   0  0  0  0  0
  -10.2349    6.6141   29.4077 H   0  0  0  0  0
  -10.1269    6.9634   31.9476 H   0  0  0  0  0
   -8.7147    5.7968   31.8505 H   0  0  0  0  0
  -10.7002    4.6312   32.4851 H   0  0  0  0  0
  -10.2361    4.1953   30.7772 H   0  0  0  0  0
  -12.0077    6.7952   32.0388 H   0  0  0  0  0
  -10.7131    8.8109   30.0282 H   0  0  0  0  0
   -8.5184   10.5738   29.3787 H   0  0  0  0  0
  -11.2646   11.2310   30.4601 H   0  0  0  0  0
  -10.7540   11.1530   28.7127 H   0  0  0  0  0
   -8.4292   12.6230   28.4441 H   0  0  0  0  0
  -11.6681   13.3834   31.1295 H   0  0  0  0  0
   -7.8051   15.0071   28.5204 H   0  0  0  0  0
  -11.0385   15.7657   31.2120 H   0  0  0  0  0
   -9.1173   16.5862   29.8943 H   0  0  0  0  0
   -7.5273   11.8695   30.7302 H   0  0  0  0  0
  1  2  2  0  0  0
  1  3  1  0  0  0
  1  4  1  0  0  0
  4  5  1  0  0  0
  5  6  1  0  0  0
  5  8  1  0  0  0
  6  7  2  0  0  0
  6 13  1  0  0  0
  8  9  1  0  0  0
  9 10  1  0  0  0
 10 11  2  0  0  0
 10 12  1  0  0  0
 13 14  1  0  0  0
 14 15  1  0  0  0
 14 17  1  0  0  0
 15 16  2  0  0  0
 15 21  1  0  0  0
 17 18  1  0  0  0
 17 19  1  0  0  0
 18 20  1  0  0  0
 21 22  1  0  0  0
 22 23  1  0  0  0
 22 25  1  0  0  0
 23 24  2  0  0  0
 23 32  1  0  0  0
 25 26  1  0  0  0
 26 27  1  0  0  0
 27 28  1  0  0  0
 28 29  1  0  0  0
 29 30  1  0  0  0
 29 31  2  0  0  0
 32 33  1  0  0  0
 33 34  1  0  0  0
 33 36  1  0  0  0
 34 35  2  0  0  0
 34 43  1  0  0  0
 36 37  1  0  0  0
 37 38  1  0  0  0
 38 39  1  0  0  0
 39 40  1  0  0  0
 40 41  1  0  0  0
 40 42  2  0  0  0
 43 44  1  0  0  0
 44 45  1  0  0  0
 44 47  1  0  0  0
 45 46  2  0  0  0
 45 50  1  0  0  0
 47 48  1  0  0  0
 47 49  1  0  0  0
 50 51  1  0  0  0
 50 56  1  0  0  0
 51 52  1  0  0  0
 51 54  1  0  0  0
 52 53  2  0  0  0
 52 57  1  0  0  0
 54 55  1  0  0  0
 55 56  1  0  0  0
 57 58  1  0  0  0
 58 59  1  0  0  0
 58 61  1  0  0  0
 59 60  2  0  0  0
 59 66  1  0  0  0
 61 62  1  0  0  0
 62 63  1  0  0  0
 63 64  1  0  0  0
 63 65  2  0  0  0
 66 67  1  0  0  0
 67 68  1  0  0  0
 67 70  1  0  0  0
 68 69  2  0  0  0
 68 77  1  0  0  0
 70 71  1  0  0  0
 71 72  4  0  0  0
 71 73  4  0  0  0
 72 74  4  0  0  0
 73 75  4  0  0  0
 74 76  4  0  0  0
 75 76  4  0  0  0
  3 78  1  0  0  0
  3 79  1  0  0  0
  3 80  1  0  0  0
  4 81  1  0  0  0
  5 82  1  0  0  0
  8 83  1  0  0  0
  8 84  1  0  0  0
  9 85  1  0  0  0
  9 86  1  0  0  0
 12 87  1  0  0  0
 13 88  1  0  0  0
 14 89  1  0  0  0
 17 90  1  0  0  0
 18 91  1  0  0  0
 18 92  1  0  0  0
 19 93  1  0  0  0
 19 94  1  0  0  0
 19 95  1  0  0  0
 20 96  1  0  0  0
 20 97  1  0  0  0
 20 98  1  0  0  0
 21 99  1  0  0  0
 22100  1  0  0  0
 25101  1  0  0  0
 25102  1  0  0  0
 26103  1  0  0  0
 26104  1  0  0  0
 27105  1  0  0  0
 27106  1  0  0  0
 28107  1  0  0  0
 30108  1  0  0  0
 30109  1  0  0  0
 31110  1  0  0  0
 32111  1  0  0  0
 33112  1  0  0  0
 36113  1  0  0  0
 36114  1  0  0  0
 37115  1  0  0  0
 37116  1  0  0  0
 38117  1  0  0  0
 38118  1  0  0  0
 39119  1  0  0  0
 41120  1  0  0  0
 41121  1  0  0  0
 42122  1  0  0  0
 43123  1  0  0  0
 44124  1  0  0  0
 47125  1  0  0  0
 48126  1  0  0  0
 48127  1  0  0  0
 48128  1  0  0  0
 49129  1  0  0  0
 49130  1  0  0  0
 49131  1  0  0  0
 51132  1  0  0  0
 54133  1  0  0  0
 54134  1  0  0  0
 55135  1  0  0  0
 55136  1  0  0  0
 56137  1  0  0  0
 56138  1  0  0  0
 57139  1  0  0  0
 58140  1  0  0  0
 61141  1  0  0  0
 61142  1  0  0  0
 62143  1  0  0  0
 62144  1  0  0  0
 64145  1  0  0  0
 66146  1  0  0  0
 67147  1  0  0  0
 70148  1  0  0  0
 70149  1  0  0  0
 72150  1  0  0  0
 73151  1  0  0  0
 74152  1  0  0  0
 75153  1  0  0  0
 76154  1  0  0  0
 77155  1  0  0  0
M  END
$$$$
