3s3k_ligand
  -I-interpret- 

 20 20  0  0  0  0  0  0  0  0999 V2000
  -16.6410   26.5870   -3.0160 S   0  0  0  0  0
  -17.8470   26.3510   -2.2020 O   0  0  0  0  0
  -16.4390   25.4710   -4.0390 O   0  0  0  0  0
  -15.4350   26.6120   -2.0970 O   0  0  0  0  0
  -16.7860   27.9340   -3.7070 O   0  0  0  0  0
  -19.6490   25.3920   -3.9990 O   0  0  0  0  0
  -16.3410   22.1620    0.5800 O   0  0  0  0  0
  -17.6500   20.3880   -0.4560 O   0  0  0  0  0
  -17.4280   24.1460   -1.1330 C   0  0  0  0  0
  -17.2910   21.7780   -0.4070 N   0  0  0  0  0
  -19.3840   23.1650   -3.1110 C   0  0  0  0  0
  -18.1510   25.0180   -2.1650 C   0  0  0  0  0
  -18.7810   22.2720   -2.2140 C   0  0  0  0  0
  -19.0690   24.5310   -3.1010 C   0  0  0  0  0
  -17.8380   22.6760   -1.2530 C   0  0  0  0  0
  -17.1944   25.4402   -4.6306 H   0  0  0  0  0
  -19.3191   26.2807   -3.8474 H   0  0  0  0  0
  -16.7113   24.5251   -0.4045 H   0  0  0  0  0
  -20.1120   22.7898   -3.8303 H   0  0  0  0  0
  -19.0554   21.2183   -2.2640 H   0  0  0  0  0
  2  1  1  0  0  0
  1  3  1  0  0  0
  1  4  2  0  0  0
  1  5  2  0  0  0
 12  2  1  0  0  0
 14  6  1  0  0  0
 10  7  2  0  0  0
 10  8  2  0  0  0
 12  9  4  0  0  0
  9 15  4  0  0  0
 15 10  1  0  0  0
 11 13  4  0  0  0
 14 11  4  0  0  0
 12 14  4  0  0  0
 13 15  4  0  0  0
  3 16  1  0  0  0
  6 17  1  0  0  0
  9 18  1  0  0  0
 11 19  1  0  0  0
 13 20  1  0  0  0
M  END
$$$$
