5caq_ligand
  -I-interpret- 

 55 58  0  0  0  0  0  0  0  0999 V2000
  -52.7160    1.3730  -19.6110 C   0  0  0  0  0
  -53.7120    2.3380  -19.7850 C   0  0  0  0  0
  -50.7120   -1.1740  -21.2660 C   0  0  0  0  0
  -53.9860    1.7650  -22.0390 C   0  0  0  0  0
  -52.9670    0.8260  -21.9580 C   0  0  0  0  0
  -52.3360    0.6060  -20.7330 C   0  0  0  0  0
  -51.2020   -2.6190  -21.1340 C   0  0  0  0  0
  -49.2340   -0.9420  -21.5560 C   0  0  0  0  0
  -51.9310    0.9620  -18.5800 N   0  0  0  0  0
  -50.1270   -0.6150  -18.0300 C   0  0  0  0  0
  -51.1090    0.0310  -18.9770 C   0  0  0  0  0
  -54.3140    2.4820  -20.9610 N   0  0  0  0  0
  -51.3300   -0.2340  -20.3180 N   0  0  0  0  0
  -54.6320    2.0420  -23.2530 N   0  0  0  0  0
  -54.7720    1.1860  -24.3440 C   0  0  0  0  0
  -55.9330    1.2570  -25.1350 C   0  0  0  0  0
  -56.0550    0.4000  -26.2200 C   0  0  0  0  0
  -55.0700   -0.4610  -26.4710 N   0  0  0  0  0
  -53.9730   -0.5350  -25.7030 C   0  0  0  0  0
  -53.8260    0.2990  -24.6680 N   0  0  0  0  0
  -52.9610   -1.4520  -25.9940 N   0  0  0  0  0
  -51.7870   -1.5820  -25.0880 C   0  0  0  0  0
  -50.4760   -1.5250  -25.8940 C   0  0  0  0  0
  -50.5320   -2.5790  -27.0240 C   0  0  0  0  0
  -51.7000   -2.2680  -27.9810 C   0  0  0  0  0
  -53.0320   -2.2840  -27.2260 C   0  0  0  0  0
  -51.5560   -0.9550  -28.4310 F   0  0  0  0  0
  -49.3080   -2.5650  -27.7710 O   0  0  0  0  0
  -48.4450   -3.6800  -27.5440 C   0  0  0  0  0
  -53.9972    2.9775  -18.9496 H   0  0  0  0  0
  -51.1250   -0.9003  -22.2369 H   0  0  0  0  0
  -52.6628    0.2661  -22.8423 H   0  0  0  0  0
  -51.0085   -3.1533  -22.0641 H   0  0  0  0  0
  -50.6726   -3.1075  -20.3159 H   0  0  0  0  0
  -52.2724   -2.6210  -20.9283 H   0  0  0  0  0
  -49.1000    0.0533  -21.9796 H   0  0  0  0  0
  -48.6661   -1.0233  -20.6292 H   0  0  0  0  0
  -48.8825   -1.6907  -22.2659 H   0  0  0  0  0
  -49.4612    0.1465  -17.6239 H   0  0  0  0  0
  -50.6709   -1.0952  -17.2166 H   0  0  0  0  0
  -49.5423   -1.3611  -18.5681 H   0  0  0  0  0
  -55.0438    2.9704  -23.3475 H   0  0  0  0  0
  -56.7220    1.9715  -24.9003 H   0  0  0  0  0
  -56.9404    0.4309  -26.8549 H   0  0  0  0  0
  -51.8433   -2.5394  -24.5700 H   0  0  0  0  0
  -51.7990   -0.7601  -24.3721 H   0  0  0  0  0
  -49.6319   -1.7354  -25.2373 H   0  0  0  0  0
  -50.3527   -0.5313  -26.3246 H   0  0  0  0  0
  -50.6772   -3.5604  -26.5725 H   0  0  0  0  0
  -51.6908   -3.0064  -28.7828 H   0  0  0  0  0
  -53.8062   -1.8775  -27.8768 H   0  0  0  0  0
  -53.2580   -3.3113  -26.9401 H   0  0  0  0  0
  -48.1664   -3.7137  -26.4907 H   0  0  0  0  0
  -48.9636   -4.6000  -27.8136 H   0  0  0  0  0
  -47.5486   -3.5743  -28.1550 H   0  0  0  0  0
  1  2  4  0  0  0
  6  1  4  0  0  0
  1  9  4  0  0  0
  2 12  4  0  0  0
  3  7  1  0  0  0
  3  8  1  0  0  0
 13  3  1  0  0  0
  5  4  4  0  0  0
  4 12  4  0  0  0
  4 14  1  0  0  0
  6  5  4  0  0  0
  6 13  4  0  0  0
  9 11  4  0  0  0
 11 10  1  0  0  0
 11 13  4  0  0  0
 14 15  1  0  0  0
 15 16  4  0  0  0
 15 20  4  0  0  0
 16 17  4  0  0  0
 17 18  4  0  0  0
 18 19  4  0  0  0
 19 20  4  0  0  0
 19 21  1  0  0  0
 21 22  1  0  0  0
 21 26  1  0  0  0
 22 23  1  0  0  0
 23 24  1  0  0  0
 24 25  1  0  0  0
 24 28  1  0  0  0
 25 26  1  0  0  0
 25 27  1  0  0  0
 28 29  1  0  0  0
  2 30  1  0  0  0
  3 31  1  0  0  0
  5 32  1  0  0  0
  7 33  1  0  0  0
  7 34  1  0  0  0
  7 35  1  0  0  0
  8 36  1  0  0  0
  8 37  1  0  0  0
  8 38  1  0  0  0
 10 39  1  0  0  0
 10 40  1  0  0  0
 10 41  1  0  0  0
 14 42  1  0  0  0
 16 43  1  0  0  0
 17 44  1  0  0  0
 22 45  1  0  0  0
 22 46  1  0  0  0
 23 47  1  0  0  0
 23 48  1  0  0  0
 24 49  1  0  0  0
 25 50  1  0  0  0
 26 51  1  0  0  0
 26 52  1  0  0  0
 29 53  1  0  0  0
 29 54  1  0  0  0
 29 55  1  0  0  0
M  END
$$$$
