1rq2_ligand
  -I-interpret- 

 21 20  0  0  0  0  0  0  0  0999 V2000
  -10.6580   41.9950    4.6430 C   0  0  0  0  0
  -11.3460   41.0660    5.1250 O   0  0  0  0  0
  -10.5770   43.0840    5.2650 O   0  0  0  0  0
   -9.9550   41.7830    3.3270 C   0  0  0  0  0
   -8.4460   41.5450    3.4900 C   0  0  0  0  0
   -7.8450   42.6840    4.1630 O   0  0  0  0  0
   -8.2180   40.2660    4.3010 C   0  0  0  0  0
   -6.7650   40.0060    4.5800 C   0  0  0  0  0
   -6.4660   39.4410    5.6710 O   0  0  0  0  0
   -5.8950   40.3140    3.7340 O   0  0  0  0  0
   -7.8990   41.4360    2.0670 C   0  0  0  0  0
   -8.0450   40.3900    1.4040 O   0  0  0  0  0
   -7.3290   42.4020    1.5090 O   0  0  0  0  0
  -10.0193   43.6913    4.7733 H   0  0  0  0  0
  -10.0882   42.6841    2.7283 H   0  0  0  0  0
  -10.3840   40.8974    2.8581 H   0  0  0  0  0
   -7.9958   43.4772    3.6437 H   0  0  0  0  0
   -8.6016   39.4282    3.7186 H   0  0  0  0  0
   -8.7265   40.3821    5.2581 H   0  0  0  0  0
   -7.2652   39.2881    6.1804 H   0  0  0  0  0
   -7.2797   43.1400    2.1210 H   0  0  0  0  0
  1  2  2  0  0  0
  1  3  1  0  0  0
  1  4  1  0  0  0
  4  5  1  0  0  0
  5  6  1  0  0  0
  5  7  1  0  0  0
  5 11  1  0  0  0
  7  8  1  0  0  0
  8  9  1  0  0  0
  8 10  2  0  0  0
 11 12  2  0  0  0
 11 13  1  0  0  0
  3 14  1  0  0  0
  4 15  1  0  0  0
  4 16  1  0  0  0
  6 17  1  0  0  0
  7 18  1  0  0  0
  7 19  1  0  0  0
  9 20  1  0  0  0
 13 21  1  0  0  0
M  END
$$$$
