3wqm_ligand
  -I-interpret- 

 48 51  0  0  0  0  0  0  0  0999 V2000
   -4.7870  -15.7090   25.8500 C   0  0  0  0  0
   -4.4910  -15.5170   27.2290 C   0  0  0  0  0
   -4.8040  -16.5320   28.1710 C   0  0  0  0  0
   -5.4120  -17.7410   27.7390 C   0  0  0  0  0
   -5.7070  -17.9340   26.3620 C   0  0  0  0  0
   -5.3940  -16.9180   25.4220 C   0  0  0  0  0
   -5.5650  -16.8450   24.0700 O   0  0  0  0  0
   -5.0980  -15.6380   23.6060 C   0  0  0  0  0
   -4.6050  -14.9110   24.7230 C   0  0  0  0  0
   -4.0550  -13.6150   24.5420 C   0  0  0  0  0
   -4.0020  -13.0460   23.2500 C   0  0  0  0  0
   -4.4870  -13.7610   22.1300 C   0  0  0  0  0
   -5.0440  -15.0690   22.2810 C   0  0  0  0  0
   -5.5240  -15.7960   21.1380 C   0  0  0  0  0
   -6.5290  -16.8140   21.2520 C   0  0  0  0  0
   -4.9860  -15.5180   19.8440 C   0  0  0  0  0
   -5.4360  -16.2290   18.7100 C   0  0  0  0  0
   -6.4220  -17.2300   18.8340 C   0  0  0  0  0
   -6.9820  -17.5330   20.1090 C   0  0  0  0  0
   -8.0620  -18.6300   20.2850 C   0  0  0  0  0
   -9.2110  -18.7070   19.2430 C   0  0  0  0  0
  -10.3520  -20.1370   19.6880 P   0  0  0  0  0
  -10.4530  -20.2290   21.2960 O   0  0  0  0  0
  -11.8210  -19.7680   19.1660 O   0  0  0  0  0
   -9.8890  -21.4060   19.0820 O   0  0  0  0  0
  -10.2840  -17.1560   19.1510 P   0  0  0  0  0
  -11.3610  -17.2980   20.3540 O   0  0  0  0  0
   -9.4090  -15.8480   19.4730 O   0  0  0  0  0
  -10.9380  -17.0890   17.8230 O   0  0  0  0  0
   -8.6640  -18.9570   17.9400 O   0  0  0  0  0
   -4.0238  -14.5902   27.5619 H   0  0  0  0  0
   -4.5776  -16.3835   29.2268 H   0  0  0  0  0
   -5.6521  -18.5199   28.4627 H   0  0  0  0  0
   -6.1730  -18.8612   26.0285 H   0  0  0  0  0
   -3.6740  -13.0594   25.3989 H   0  0  0  0  0
   -3.5842  -12.0483   23.1152 H   0  0  0  0  0
   -4.4354  -13.3091   21.1394 H   0  0  0  0  0
   -6.9530  -17.0409   22.2302 H   0  0  0  0  0
   -4.2210  -14.7498   19.7310 H   0  0  0  0  0
   -5.0174  -16.0021   17.7295 H   0  0  0  0  0
   -6.7571  -17.7741   17.9509 H   0  0  0  0  0
   -8.5497  -18.4022   21.2328 H   0  0  0  0  0
   -7.5276  -19.5755   20.1924 H   0  0  0  0  0
  -10.7557  -19.3875   21.6452 H   0  0  0  0  0
  -12.1047  -18.9439   19.5684 H   0  0  0  0  0
  -10.8976  -17.3379   21.1938 H   0  0  0  0  0
   -9.0073  -15.9386   20.3402 H   0  0  0  0  0
   -9.3767  -19.0040   17.2986 H   0  0  0  0  0
  1  2  4  0  0  0
  1  6  4  0  0  0
  1  9  4  0  0  0
  2  3  4  0  0  0
  3  4  4  0  0  0
  4  5  4  0  0  0
  5  6  4  0  0  0
  6  7  4  0  0  0
  7  8  4  0  0  0
  8  9  4  0  0  0
  8 13  4  0  0  0
  9 10  4  0  0  0
 10 11  4  0  0  0
 11 12  4  0  0  0
 12 13  4  0  0  0
 13 14  1  0  0  0
 14 15  4  0  0  0
 14 16  4  0  0  0
 15 19  4  0  0  0
 16 17  4  0  0  0
 17 18  4  0  0  0
 18 19  4  0  0  0
 19 20  1  0  0  0
 20 21  1  0  0  0
 21 22  1  0  0  0
 21 26  1  0  0  0
 21 30  1  0  0  0
 22 23  1  0  0  0
 22 24  1  0  0  0
 22 25  2  0  0  0
 26 27  1  0  0  0
 26 28  1  0  0  0
 26 29  2  0  0  0
  2 31  1  0  0  0
  3 32  1  0  0  0
  4 33  1  0  0  0
  5 34  1  0  0  0
 10 35  1  0  0  0
 11 36  1  0  0  0
 12 37  1  0  0  0
 15 38  1  0  0  0
 16 39  1  0  0  0
 17 40  1  0  0  0
 18 41  1  0  0  0
 20 42  1  0  0  0
 20 43  1  0  0  0
 23 44  1  0  0  0
 24 45  1  0  0  0
 27 46  1  0  0  0
 28 47  1  0  0  0
 30 48  1  0  0  0
M  END
$$$$
