1ek2_ligand
  -I-interpret- 

 54 54  0  0  0  0  0  0  0  0999 V2000
  -41.5100 -114.2050  -26.3170 C   0  0  0  0  0
  -40.1420 -113.4190  -26.5350 C   0  0  0  0  0
  -40.2520 -112.2430  -27.6010 C   0  0  0  0  0
  -41.0750 -112.6590  -28.9050 C   0  0  0  0  0
  -42.4770 -113.3250  -28.5940 C   0  0  0  0  0
  -42.2140 -114.6060  -27.6890 C   0  0  0  0  0
  -43.1210 -113.6960  -29.9300 N   0  0  0  0  0
  -44.3210 -114.2880  -30.2350 C   0  0  0  0  0
  -45.0520 -114.5700  -29.2620 O   0  0  0  0  0
  -44.8290 -114.6370  -31.4550 N   0  0  0  0  0
  -46.1560 -115.3150  -31.6490 C   0  0  0  0  0
  -46.4210 -115.6030  -33.1340 C   0  0  0  0  0
  -47.7870 -116.3240  -33.3400 C   0  0  0  0  0
  -48.1860 -116.5080  -34.8550 C   0  0  0  0  0
  -49.7300 -116.7880  -35.1160 C   0  0  0  0  0
  -50.0870 -118.3070  -35.0610 C   0  0  0  0  0
  -51.6050 -118.6020  -35.3160 C   0  0  0  0  0
  -51.9280 -120.1410  -35.2540 C   0  0  0  0  0
  -53.4380 -120.4610  -35.4970 C   0  0  0  0  0
  -53.7500 -121.9800  -35.4350 C   0  0  0  0  0
  -42.1891 -113.5499  -25.7713 H   0  0  0  0  0
  -41.2855 -115.1236  -25.7750 H   0  0  0  0  0
  -39.4084 -114.1335  -26.9085 H   0  0  0  0  0
  -39.8640 -112.9723  -25.5804 H   0  0  0  0  0
  -39.2410 -111.9833  -27.9149 H   0  0  0  0  0
  -40.7767 -111.4132  -27.1275 H   0  0  0  0  0
  -40.4786 -113.3957  -29.4432 H   0  0  0  0  0
  -41.2677 -111.7476  -29.4709 H   0  0  0  0  0
  -43.1496 -112.6549  -28.0586 H   0  0  0  0  0
  -43.1711 -115.0771  -27.4651 H   0  0  0  0  0
  -41.5582 -115.2872  -28.2312 H   0  0  0  0  0
  -42.5545 -113.4601  -30.7447 H   0  0  0  0  0
  -44.2738 -114.4244  -32.2838 H   0  0  0  0  0
  -46.9408 -114.6563  -31.2770 H   0  0  0  0  0
  -46.1457 -116.2610  -31.1077 H   0  0  0  0  0
  -45.6282 -116.2514  -33.5071 H   0  0  0  0  0
  -46.4463 -114.6547  -33.6708 H   0  0  0  0  0
  -48.5547 -115.7063  -32.8739 H   0  0  0  0  0
  -47.6991 -117.3188  -32.9034 H   0  0  0  0  0
  -47.6427 -117.3799  -35.2193 H   0  0  0  0  0
  -47.9471 -115.5714  -35.3588 H   0  0  0  0  0
  -49.9711 -116.4243  -36.1149 H   0  0  0  0  0
  -50.2977 -116.2831  -34.3344 H   0  0  0  0  0
  -49.8477 -118.6637  -34.0592 H   0  0  0  0  0
  -49.5198 -118.8055  -35.8470 H   0  0  0  0  0
  -51.8585 -118.2415  -36.3129 H   0  0  0  0  0
  -52.1835 -118.1018  -34.5394 H   0  0  0  0  0
  -51.6715 -120.4931  -34.2548 H   0  0  0  0  0
  -51.3548 -120.6316  -36.0407 H   0  0  0  0  0
  -53.6970 -120.1081  -36.4952 H   0  0  0  0  0
  -54.0132 -119.9703  -34.7118 H   0  0  0  0  0
  -53.1723 -122.4998  -36.1993 H   0  0  0  0  0
  -53.4822 -122.3647  -34.4509 H   0  0  0  0  0
  -54.8139 -122.1386  -35.6114 H   0  0  0  0  0
  1  2  1  0  0  0
  1  6  1  0  0  0
  2  3  1  0  0  0
  3  4  1  0  0  0
  4  5  1  0  0  0
  5  6  1  0  0  0
  5  7  1  0  0  0
  7  8  1  0  0  0
  8  9  2  0  0  0
  8 10  1  0  0  0
 10 11  1  0  0  0
 11 12  1  0  0  0
 12 13  1  0  0  0
 13 14  1  0  0  0
 14 15  1  0  0  0
 15 16  1  0  0  0
 16 17  1  0  0  0
 17 18  1  0  0  0
 18 19  1  0  0  0
 19 20  1  0  0  0
  1 21  1  0  0  0
  1 22  1  0  0  0
  2 23  1  0  0  0
  2 24  1  0  0  0
  3 25  1  0  0  0
  3 26  1  0  0  0
  4 27  1  0  0  0
  4 28  1  0  0  0
  5 29  1  0  0  0
  6 30  1  0  0  0
  6 31  1  0  0  0
  7 32  1  0  0  0
 10 33  1  0  0  0
 11 34  1  0  0  0
 11 35  1  0  0  0
 12 36  1  0  0  0
 12 37  1  0  0  0
 13 38  1  0  0  0
 13 39  1  0  0  0
 14 40  1  0  0  0
 14 41  1  0  0  0
 15 42  1  0  0  0
 15 43  1  0  0  0
 16 44  1  0  0  0
 16 45  1  0  0  0
 17 46  1  0  0  0
 17 47  1  0  0  0
 18 48  1  0  0  0
 18 49  1  0  0  0
 19 50  1  0  0  0
 19 51  1  0  0  0
 20 52  1  0  0  0
 20 53  1  0  0  0
 20 54  1  0  0  0
M  END
$$$$
