6fby_ligand
  -I-interpret- 

152156  0  0  0  0  0  0  0  0999 V2000
   23.2670   -4.8540  -17.7650 C   0  0  0  0  0
   23.7220   -5.9490  -18.1090 O   0  0  0  0  0
   23.0450   -3.7180  -18.7290 C   0  0  0  0  0
   22.9290   -4.6020  -16.5040 N   0  0  0  0  0
   23.1070   -5.6130  -15.4790 C   0  0  0  0  0
   22.2660   -6.8660  -15.7690 C   0  0  0  0  0
   21.2810   -6.8200  -16.5170 O   0  0  0  0  0
   22.7530   -5.0410  -14.0980 C   0  0  0  0  0
   23.8210   -4.1200  -13.4430 C   0  0  0  0  0
   23.6490   -4.0980  -11.9090 C   0  0  0  0  0
   24.4220   -3.0670  -11.2060 N   0  0  0  0  0
   25.6970   -3.1850  -10.8310 C   0  0  0  0  0
   26.2930   -2.1940  -10.1770 N   0  0  0  0  0
   26.3870   -4.2850  -11.1100 N   0  0  0  0  0
   22.6810   -7.9870  -15.1870 N   0  0  0  0  0
   21.8660   -9.1950  -15.2170 C   0  0  0  0  0
   20.4820   -8.9080  -14.6380 C   0  0  0  0  0
   20.3740   -8.2440  -13.6030 O   0  0  0  0  0
   22.5160  -10.3080  -14.3920 C   0  0  0  0  0
   23.8530  -10.5560  -14.8480 O   0  0  0  0  0
   21.6960  -11.5770  -14.5100 C   0  0  0  0  0
   19.4040   -9.4240  -15.2470 N   0  0  0  0  0
   18.0690   -9.2180  -14.6660 C   0  0  0  0  0
   17.7680   -9.9700  -13.3520 C   0  0  0  0  0
   18.0550  -11.1550  -13.1800 O   0  0  0  0  0
   17.1280   -9.7230  -15.7790 C   0  0  0  0  0
   17.9440   -9.7300  -17.0370 C   0  0  0  0  0
   19.3410  -10.0150  -16.5970 C   0  0  0  0  0
   17.1370   -9.2560  -12.4350 N   0  0  0  0  0
   16.6700   -9.8190  -11.1820 C   0  0  0  0  0
   16.8850   -8.8100  -10.0550 C   0  0  0  0  0
   16.1470   -7.6500  -10.3480 O   0  0  0  0  0
   15.1860  -10.2040  -11.2840 C   0  0  0  0  0
   14.5610  -10.0570  -12.3290 O   0  0  0  0  0
   16.3800   -6.3400   -9.4480 P   0  0  0  0  0
   15.3870   -5.2700  -10.0630 O   0  0  0  0  0
   17.8910   -5.9440   -9.6220 O   0  0  0  0  0
   16.0080   -6.7080   -7.9380 O   0  0  0  0  0
   14.6320  -10.7200  -10.2010 N   0  0  0  0  0
   13.2300  -11.1220  -10.1880 C   0  0  0  0  0
   12.3340   -9.9430  -10.5690 C   0  0  0  0  0
   12.4370   -8.8720   -9.9680 O   0  0  0  0  0
   12.8510  -11.6480   -8.8080 C   0  0  0  0  0
   11.5530  -12.4440   -8.7130 C   0  0  0  0  0
   11.7360  -13.7910   -9.4160 C   0  0  0  0  0
   11.1720  -12.6460   -7.2570 C   0  0  0  0  0
   11.4450  -10.1170  -11.5520 N   0  0  0  0  0
   10.6200   -8.9790  -11.9910 C   0  0  0  0  0
    9.3550   -8.7710  -11.1640 C   0  0  0  0  0
    8.2890   -8.4390  -11.6900 O   0  0  0  0  0
   10.2890   -9.3320  -13.4410 C   0  0  0  0  0
   10.2530  -10.8270  -13.4410 C   0  0  0  0  0
   11.2790  -11.2810  -12.4330 C   0  0  0  0  0
    9.4780   -8.9140   -9.8570 N   0  0  0  0  0
    8.3450   -8.8360   -8.9610 C   0  0  0  0  0
    8.8310   -9.3350   -7.6310 C   0  0  0  0  0
   10.0340   -9.5070   -7.4730 O   0  0  0  0  0
    8.2720  -10.0950   -5.2420 C   0  0  0  0  0
    2.1610   -9.7410   -7.3530 C   0  0  0  0  0
    3.5690   -9.7420   -7.4090 C   0  0  0  0  0
    6.5160   -9.6450   -6.8230 C   0  0  0  0  0
    8.7710  -13.9820   -9.9890 C   0  0  0  0  0
    7.7270  -12.9240   -9.8410 C   0  0  0  0  0
    7.3050  -12.4740   -8.5910 C   0  0  0  0  0
    6.2960  -11.5160   -8.5350 C   0  0  0  0  0
    5.8040  -10.9930   -7.1840 C   0  0  0  0  0
    4.2720  -10.9170   -7.1530 C   0  0  0  0  0
    3.5550  -12.0790   -6.8500 C   0  0  0  0  0
    2.1590  -12.0690   -6.8030 C   0  0  0  0  0
    1.4550  -10.8930   -7.0460 C   0  0  0  0  0
    7.1410   -9.9750   -4.4750 C   0  0  0  0  0
    6.1080   -9.2570   -5.3300 C   0  0  0  0  0
    5.7580  -10.9940   -9.7350 C   0  0  0  0  0
    6.2100  -11.4380  -10.9660 C   0  0  0  0  0
    7.1910  -12.3980  -11.0290 C   0  0  0  0  0
    7.8060   -9.8360   -6.7780 N   0  0  0  0  0
   23.9941   -3.4427  -19.1889 H   0  0  0  0  0
   22.3426   -4.0308  -19.5016 H   0  0  0  0  0
   22.6383   -2.8614  -18.1916 H   0  0  0  0  0
   22.5419   -3.6916  -16.2556 H   0  0  0  0  0
   24.1561   -5.9088  -15.4833 H   0  0  0  0  0
   22.6403   -5.8975  -13.4333 H   0  0  0  0  0
   21.8659   -4.4243  -14.2420 H   0  0  0  0  0
   23.6989   -3.1074  -13.8275 H   0  0  0  0  0
   24.8132   -4.5025  -13.6825 H   0  0  0  0  0
   24.0051   -5.0603  -11.5411 H   0  0  0  0  0
   22.5975   -3.8858  -11.7158 H   0  0  0  0  0
   23.9470   -2.1914  -10.9869 H   0  0  0  0  0
   27.2693   -2.2833   -9.8953 H   0  0  0  0  0
   25.7743   -1.3438   -9.9565 H   0  0  0  0  0
   25.9427   -5.0511  -11.6161 H   0  0  0  0  0
   23.5836   -8.0019  -14.7122 H   0  0  0  0  0
   21.7799   -9.5151  -16.2554 H   0  0  0  0  0
   22.5535   -9.9924  -13.3494 H   0  0  0  0  0
   24.2452  -11.2557  -14.3205 H   0  0  0  0  0
   20.6880  -11.3926  -14.1383 H   0  0  0  0  0
   21.6490  -11.8818  -15.5555 H   0  0  0  0  0
   22.1632  -12.3661  -13.9208 H   0  0  0  0  0
   17.9565   -8.1734  -14.3756 H   0  0  0  0  0
   16.2534   -9.0802  -15.8789 H   0  0  0  0  0
   16.7445  -10.7175  -15.5512 H   0  0  0  0  0
   17.8754   -8.7792  -17.5655 H   0  0  0  0  0
   17.5852  -10.4777  -17.7443 H   0  0  0  0  0
   19.5701  -11.0807  -16.5977 H   0  0  0  0  0
   20.0859   -9.5943  -17.2725 H   0  0  0  0  0
   16.9714   -8.2661  -12.6166 H   0  0  0  0  0
   17.2398  -10.7223  -10.9642 H   0  0  0  0  0
   17.9440   -8.5659   -9.9711 H   0  0  0  0  0
   16.5516   -9.2337   -9.1077 H   0  0  0  0  0
   14.4820   -5.5610   -9.9293 H   0  0  0  0  0
   15.0782   -6.9414   -7.8865 H   0  0  0  0  0
   15.1950  -10.8393   -9.3589 H   0  0  0  0  0
   13.0866  -11.9164  -10.9205 H   0  0  0  0  0
   12.7117  -10.7690   -8.1787 H   0  0  0  0  0
   13.6468  -12.3344   -8.5186 H   0  0  0  0  0
   10.7485  -11.8945   -9.2018 H   0  0  0  0  0
   11.9862  -13.6218  -10.4633 H   0  0  0  0  0
   12.5415  -14.3447   -8.9336 H   0  0  0  0  0
   10.8102  -14.3625   -9.3500 H   0  0  0  0  0
   11.9659  -13.1919   -6.7474 H   0  0  0  0  0
   11.0334  -11.6753   -6.7810 H   0  0  0  0  0
   10.2441  -13.2153   -7.2012 H   0  0  0  0  0
   11.1492   -8.0334  -11.8729 H   0  0  0  0  0
   11.0203   -8.9332  -14.1440 H   0  0  0  0  0
    9.3479   -8.8929  -13.7720 H   0  0  0  0  0
   10.4779  -11.2225  -14.4315 H   0  0  0  0  0
    9.2603  -11.1931  -13.1790 H   0  0  0  0  0
   10.9608  -12.1705  -11.8893 H   0  0  0  0  0
   12.2155  -11.5831  -12.9018 H   0  0  0  0  0
   10.4042   -9.0854   -9.4656 H   0  0  0  0  0
    7.5118   -9.4363   -9.3264 H   0  0  0  0  0
    7.9717   -7.8147   -8.8860 H   0  0  0  0  0
    8.7218  -11.0813   -5.1282 H   0  0  0  0  0
    9.0333   -9.3777   -4.9355 H   0  0  0  0  0
    1.6177   -8.8178   -7.5547 H   0  0  0  0  0
    4.1067   -8.8256   -7.6520 H   0  0  0  0  0
    6.2398   -8.8876   -7.5566 H   0  0  0  0  0
    9.6976  -13.6437   -9.5251 H   0  0  0  0  0
    8.4318  -14.8961   -9.5016 H   0  0  0  0  0
    8.9428  -14.1755  -11.0478 H   0  0  0  0  0
    7.7548  -12.8634   -7.6777 H   0  0  0  0  0
    6.0800  -11.6977   -6.3996 H   0  0  0  0  0
    4.0930  -13.0052   -6.6477 H   0  0  0  0  0
    1.6179  -12.9872   -6.5748 H   0  0  0  0  0
    0.3663  -10.8786   -6.9956 H   0  0  0  0  0
    7.3476   -9.4150   -3.5629 H   0  0  0  0  0
    6.7760  -10.9542   -4.1649 H   0  0  0  0  0
    5.0880   -9.5550   -5.0872 H   0  0  0  0  0
    6.1090   -8.1795   -5.1656 H   0  0  0  0  0
    4.9786  -10.2334   -9.6898 H   0  0  0  0  0
    5.7885  -11.0269  -11.8833 H   0  0  0  0  0
    7.5517  -12.7499  -11.9955 H   0  0  0  0  0
  1  2  2  0  0  0
  1  3  1  0  0  0
  4  1  1  0  0  0
  5  4  1  0  0  0
  6  5  1  0  0  0
  5  8  1  0  0  0
  6  7  2  0  0  0
 15  6  1  0  0  0
  8  9  1  0  0  0
  9 10  1  0  0  0
 10 11  1  0  0  0
 11 12  1  0  0  0
 12 13  1  0  0  0
 12 14  2  0  0  0
 16 15  1  0  0  0
 17 16  1  0  0  0
 16 19  1  0  0  0
 17 18  2  0  0  0
 22 17  1  0  0  0
 19 20  1  0  0  0
 19 21  1  0  0  0
 23 22  1  0  0  0
 22 28  1  0  0  0
 24 23  1  0  0  0
 23 26  1  0  0  0
 24 25  2  0  0  0
 29 24  1  0  0  0
 26 27  1  0  0  0
 27 28  1  0  0  0
 30 29  1  0  0  0
 30 31  1  0  0  0
 33 30  1  0  0  0
 31 32  1  0  0  0
 33 34  2  0  0  0
 39 33  1  0  0  0
 35 36  1  0  0  0
 35 38  1  0  0  0
 40 39  1  0  0  0
 41 40  1  0  0  0
 40 43  1  0  0  0
 41 42  2  0  0  0
 47 41  1  0  0  0
 43 44  1  0  0  0
 44 45  1  0  0  0
 44 46  1  0  0  0
 48 47  1  0  0  0
 47 53  1  0  0  0
 49 48  1  0  0  0
 48 51  1  0  0  0
 49 50  2  0  0  0
 54 49  1  0  0  0
 51 52  1  0  0  0
 52 53  1  0  0  0
 55 54  1  0  0  0
 56 55  1  0  0  0
 56 57  2  0  0  0
 76 56  1  0  0  0
 32 35  1  0  0  0
 35 37  2  0  0  0
 58 71  1  0  0  0
 76 58  1  0  0  0
 60 59  4  0  0  0
 59 70  4  0  0  0
 67 60  4  0  0  0
 66 61  1  0  0  0
 61 72  1  0  0  0
 61 76  1  0  0  0
 63 62  1  0  0  0
 64 63  4  0  0  0
 63 75  4  0  0  0
 65 64  4  0  0  0
 66 65  1  0  0  0
 65 73  4  0  0  0
 66 67  1  0  0  0
 67 68  4  0  0  0
 68 69  4  0  0  0
 69 70  4  0  0  0
 72 71  1  0  0  0
 73 74  4  0  0  0
 74 75  4  0  0  0
  3 77  1  0  0  0
  3 78  1  0  0  0
  3 79  1  0  0  0
  4 80  1  0  0  0
  5 81  1  0  0  0
  8 82  1  0  0  0
  8 83  1  0  0  0
  9 84  1  0  0  0
  9 85  1  0  0  0
 10 86  1  0  0  0
 10 87  1  0  0  0
 11 88  1  0  0  0
 13 89  1  0  0  0
 13 90  1  0  0  0
 14 91  1  0  0  0
 15 92  1  0  0  0
 16 93  1  0  0  0
 19 94  1  0  0  0
 20 95  1  0  0  0
 21 96  1  0  0  0
 21 97  1  0  0  0
 21 98  1  0  0  0
 23 99  1  0  0  0
 26100  1  0  0  0
 26101  1  0  0  0
 27102  1  0  0  0
 27103  1  0  0  0
 28104  1  0  0  0
 28105  1  0  0  0
 29106  1  0  0  0
 30107  1  0  0  0
 31108  1  0  0  0
 31109  1  0  0  0
 36110  1  0  0  0
 38111  1  0  0  0
 39112  1  0  0  0
 40113  1  0  0  0
 43114  1  0  0  0
 43115  1  0  0  0
 44116  1  0  0  0
 45117  1  0  0  0
 45118  1  0  0  0
 45119  1  0  0  0
 46120  1  0  0  0
 46121  1  0  0  0
 46122  1  0  0  0
 48123  1  0  0  0
 51124  1  0  0  0
 51125  1  0  0  0
 52126  1  0  0  0
 52127  1  0  0  0
 53128  1  0  0  0
 53129  1  0  0  0
 54130  1  0  0  0
 55131  1  0  0  0
 55132  1  0  0  0
 58133  1  0  0  0
 58134  1  0  0  0
 59135  1  0  0  0
 60136  1  0  0  0
 61137  1  0  0  0
 62138  1  0  0  0
 62139  1  0  0  0
 62140  1  0  0  0
 64141  1  0  0  0
 66142  1  0  0  0
 68143  1  0  0  0
 69144  1  0  0  0
 70145  1  0  0  0
 71146  1  0  0  0
 71147  1  0  0  0
 72148  1  0  0  0
 72149  1  0  0  0
 73150  1  0  0  0
 74151  1  0  0  0
 75152  1  0  0  0
M  END
$$$$
