### 
### Created by X-TOOL on Wed Jan  1 15:39:34 2020
### 

@<TRIPOS>MOLECULE
6fby_ligand
  151   155     1     0     0
SMALL
GAST_HUCK


@<TRIPOS>ATOM
      1 C          23.2670   -4.8540  -17.7650 C.2       1 ACE         0.1751
      2 O          23.7220   -5.9490  -18.1090 O.2       1 ACE        -0.3972
      3 CH3        23.0450   -3.7180  -18.7290 C.3       1 ACE         0.0258
      4 N          22.9290   -4.6020  -16.5040 N.am      1 ARG        -0.2658
      5 CA         23.1070   -5.6130  -15.4790 C.3       1 ARG         0.1310
      6 C          22.2660   -6.8660  -15.7690 C.2       1 ARG         0.2040
      7 O          21.2810   -6.8200  -16.5170 O.2       1 ARG        -0.3944
      8 CB         22.7530   -5.0410  -14.0980 C.3       1 ARG        -0.0092
      9 CG         23.8210   -4.1200  -13.4430 C.3       1 ARG        -0.0156
     10 CD         23.6490   -4.0980  -11.9090 C.3       1 ARG         0.0627
     11 NE         24.4220   -3.0670  -11.2060 N.pl3     1 ARG        -0.2723
     12 CZ         25.6970   -3.1850  -10.8310 C.cat     1 ARG         0.2882
     13 NH1        26.2930   -2.1940  -10.1770 N.pl3     1 ARG        -0.2849
     14 NH2        26.3870   -4.2850  -11.1100 N.pl3     1 ARG        -0.2849
     15 N          22.6810   -7.9870  -15.1870 N.am      1 THR        -0.2613
     16 CA         21.8660   -9.1950  -15.2170 C.3       1 THR         0.1567
     17 C          20.4820   -8.9080  -14.6380 C.2       1 THR         0.2090
     18 O          20.3740   -8.2440  -13.6030 O.2       1 THR        -0.3941
     19 CB         22.5160  -10.3080  -14.3920 C.3       1 THR         0.0924
     20 OG1        23.8530  -10.5560  -14.8480 O.3       1 THR        -0.3874
     21 CG2        21.6960  -11.5770  -14.5100 C.3       1 THR        -0.0346
     22 N          19.4040   -9.4240  -15.2470 N.am      1 PRO        -0.2498
     23 CA         18.0690   -9.2180  -14.6660 C.3       1 PRO         0.1338
     24 C          17.7680   -9.9700  -13.3520 C.2       1 PRO         0.2042
     25 O          18.0550  -11.1550  -13.1800 O.2       1 PRO        -0.3944
     26 CB         17.1280   -9.7230  -15.7790 C.3       1 PRO        -0.0104
     27 CG         17.9440   -9.7300  -17.0370 C.3       1 PRO        -0.0281
     28 CD         19.3410  -10.0150  -16.5970 C.3       1 PRO         0.0369
     29 N          17.1370   -9.2560  -12.4350 N.am      1 SEP        -0.2613
     30 CA         16.6700   -9.8190  -11.1820 C.3       1 SEP         0.1586
     31 CB         16.8850   -8.8100  -10.0550 C.3       1 SEP         0.1184
     32 OG         16.1470   -7.6500  -10.3480 O.3       1 SEP        -0.2714
     33 C          15.1860  -10.2040  -11.2840 C.2       1 SEP         0.2065
     34 O          14.5610  -10.0570  -12.3290 O.2       1 SEP        -0.3943
     35 P          16.3800   -6.3400   -9.4480 P.3       1 SEP         0.2010
     36 O1P        15.3870   -5.2700  -10.0630 O.co2     1 SEP        -0.5537
     37 O2P        17.8910   -5.9440   -9.6220 O.co2     1 SEP        -0.5537
     38 O3P        16.0080   -6.7080   -7.9380 O.co2     1 SEP        -0.5537
     39 N          14.6320  -10.7200  -10.2010 N.am      1 LEU        -0.2636
     40 CA         13.2300  -11.1220  -10.1880 C.3       1 LEU         0.1314
     41 C          12.3340   -9.9430  -10.5690 C.2       1 LEU         0.2064
     42 O          12.4370   -8.8720   -9.9680 O.2       1 LEU        -0.3942
     43 CB         12.8510  -11.6480   -8.8080 C.3       1 LEU        -0.0101
     44 CG         11.5530  -12.4440   -8.7130 C.3       1 LEU        -0.0425
     45 CD1        11.7360  -13.7910   -9.4160 C.3       1 LEU        -0.0625
     46 CD2        11.1720  -12.6460   -7.2570 C.3       1 LEU        -0.0625
     47 N          11.4450  -10.1170  -11.5520 N.am      1 PRO        -0.2498
     48 CA         10.6200   -8.9790  -11.9910 C.3       1 PRO         0.1338
     49 C           9.3550   -8.7710  -11.1640 C.2       1 PRO         0.2039
     50 O           8.2890   -8.4390  -11.6900 O.2       1 PRO        -0.3944
     51 CB         10.2890   -9.3320  -13.4410 C.3       1 PRO        -0.0104
     52 CG         10.2530  -10.8270  -13.4410 C.3       1 PRO        -0.0281
     53 CD         11.2790  -11.2810  -12.4330 C.3       1 PRO         0.0369
     54 N           9.4780   -8.9140   -9.8570 N.am      1 GLY        -0.2664
     55 CA          8.3450   -8.8360   -8.9610 C.3       1 GLY         0.1202
     56 C           8.8310   -9.3350   -7.6310 C.2       1 GLY         0.2015
     57 O          10.0340   -9.5070   -7.4730 O.2       1 GLY        -0.3946
     58 C14         8.2720  -10.0950   -5.2420 C.3       1 D4H         0.0347
     59 C10         2.1610   -9.7410   -7.3530 C.ar      1 D4H        -0.0682
     60 C11         3.5690   -9.7420   -7.4090 C.ar      1 D4H        -0.0580
     61 C12         6.5160   -9.6450   -6.8230 C.3       1 D4H         0.0664
     62 C01         8.7710  -13.9820   -9.9890 C.3       1 D4H        -0.0327
     63 C02         7.7270  -12.9240   -9.8410 C.ar      1 D4H        -0.0525
     64 C03         7.3050  -12.4740   -8.5910 C.ar      1 D4H        -0.0571
     65 C04         6.2960  -11.5160   -8.5350 C.ar      1 D4H        -0.0334
     66 C05         5.8040  -10.9930   -7.1840 C.3       1 D4H         0.0471
     67 C06         4.2720  -10.9170   -7.1530 C.ar      1 D4H        -0.0268
     68 C07         3.5550  -12.0790   -6.8500 C.ar      1 D4H        -0.0580
     69 C08         2.1590  -12.0690   -6.8030 C.ar      1 D4H        -0.0682
     70 C09         1.4550  -10.8930   -7.0460 C.ar      1 D4H        -0.0685
     71 C15         7.1410   -9.9750   -4.4750 C.3       1 D4H        -0.0301
     72 C16         6.1080   -9.2570   -5.3300 C.3       1 D4H        -0.0239
     73 C17         5.7580  -10.9940   -9.7350 C.ar      1 D4H        -0.0649
     74 C18         6.2100  -11.4380  -10.9660 C.ar      1 D4H        -0.0748
     75 C19         7.1910  -12.3980  -11.0290 C.ar      1 D4H        -0.0673
     76 N13         7.8060   -9.8360   -6.7780 N.am      1 D4H        -0.2644
     77 H1         22.6345   -2.8528  -18.1878 H         1 ACE         0.0467
     78 H2         22.3362   -4.0324  -19.5092 H         1 ACE         0.0467
     79 H3         24.0022   -3.4392  -19.1939 H         1 ACE         0.0467
     80 H4         22.5495   -3.7094  -16.2605 H         1 ARG         0.1882
     81 H5         24.1668   -5.9075  -15.4702 H         1 ARG         0.0800
     82 H6         22.5780   -5.8881  -13.4185 H         1 ARG         0.0313
     83 H7         21.8262   -4.4580  -14.2035 H         1 ARG         0.0313
     84 H8         23.7071   -3.0984  -13.8346 H         1 ARG         0.0301
     85 H9         24.8244   -4.4974  -13.6892 H         1 ARG         0.0301
     86 H10        23.9570   -5.0791  -11.5183 H         1 ARG         0.0689
     87 H11        22.5839   -3.9335  -11.6887 H         1 ARG         0.0689
     88 H12        23.9423   -2.1828  -10.9848 H         1 ARG         0.2642
     89 H13        27.2773   -2.2863   -9.8880 H         1 ARG         0.2615
     90 H14        25.7708   -1.3334   -9.9589 H         1 ARG         0.2615
     91 H15        25.9369   -5.0607  -11.6165 H         1 ARG         0.2615
     92 H16        27.3723   -4.3624  -10.8199 H         1 ARG         0.2615
     93 H17        23.5659   -8.0016  -14.7215 H         1 THR         0.1884
     94 H18        21.7630   -9.5299  -16.2597 H         1 THR         0.0826
     95 H19        22.5497   -9.9975  -13.3373 H         1 THR         0.0639
     96 H20        24.3690   -9.7634  -14.7586 H         1 THR         0.2101
     97 H21        22.1665  -12.3742  -13.9157 H         1 THR         0.0257
     98 H22        21.6479  -11.8857  -15.5647 H         1 THR         0.0257
     99 H23        20.6785  -11.3923  -14.1352 H         1 THR         0.0257
    100 H24        17.9145   -8.1441  -14.4850 H         1 PRO         0.0802
    101 H25        16.2659   -9.0483  -15.8862 H         1 PRO         0.0313
    102 H26        16.7727  -10.7381  -15.5480 H         1 PRO         0.0313
    103 H27        17.8894   -8.7519  -17.5374 H         1 PRO         0.0287
    104 H28        17.5885  -10.5131  -17.7228 H         1 PRO         0.0287
    105 H29        19.5286  -11.0983  -16.5612 H         1 PRO         0.0524
    106 H30        20.0698   -9.5386  -17.2692 H         1 PRO         0.0524
    107 H31        16.9746   -8.2855  -12.6130 H         1 SEP         0.1884
    108 H32        17.2531  -10.7254  -10.9619 H         1 SEP         0.0827
    109 H33        17.9536   -8.5605   -9.9791 H         1 SEP         0.0662
    110 H34        16.5400   -9.2385   -9.1025 H         1 SEP         0.0662
    111 H35        15.1840  -10.8370   -9.3754 H         1 LEU         0.1883
    112 H36        13.0863  -11.9261  -10.9247 H         1 LEU         0.0800
    113 H37        12.7621  -10.7832   -8.1341 H         1 LEU         0.0315
    114 H38        13.6677  -12.2992   -8.4632 H         1 LEU         0.0315
    115 H39        10.7500  -11.8846   -9.2153 H         1 LEU         0.0298
    116 H40        10.8023  -14.3688   -9.3501 H         1 LEU         0.0232
    117 H41        12.5486  -14.3508   -8.9300 H         1 LEU         0.0232
    118 H42        11.9885  -13.6216  -10.4731 H         1 LEU         0.0232
    119 H43        11.0457  -11.6669   -6.7718 H         1 LEU         0.0232
    120 H44        11.9660  -13.2092   -6.7449 H         1 LEU         0.0232
    121 H45        10.2282  -13.2081   -7.1995 H         1 LEU         0.0232
    122 H46        11.2120   -8.0528  -11.9494 H         1 PRO         0.0802
    123 H47        11.0666   -8.9582  -14.1233 H         1 PRO         0.0313
    124 H48         9.3136   -8.9159  -13.7334 H         1 PRO         0.0313
    125 H49        10.5050  -11.2130  -14.4397 H         1 PRO         0.0287
    126 H50         9.2531  -11.1829  -13.1519 H         1 PRO         0.0287
    127 H51        10.9143  -12.1513  -11.8677 H         1 PRO         0.0524
    128 H52        12.2277  -11.5364  -12.9276 H         1 PRO         0.0524
    129 H53        10.3860   -9.0821   -9.4733 H         1 GLY         0.1881
    130 H54         7.5232   -9.4680   -9.3287 H         1 GLY         0.0763
    131 H55         7.9974   -7.7960   -8.8747 H         1 GLY         0.0763
    132 H56         8.6986  -11.1035   -5.1376 H         1 GLY         0.0522
    133 H57         9.0197   -9.3473   -4.9389 H         1 GLY         0.0522
    134 H58         1.6207   -8.8229   -7.5536 H         1 GLY         0.0600
    135 H59         4.1038   -8.8306   -7.6507 H         1 GLY         0.0561
    136 H60         6.2486   -8.8544   -7.5396 H         1 GLY         0.0606
    137 H61         9.1065  -14.3078   -8.9934 H         1 GLY         0.0390
    138 H62         9.6263  -13.5772  -10.5498 H         1 GLY         0.0390
    139 H63         8.3490  -14.8401  -10.5327 H         1 GLY         0.0390
    140 H64         7.7524  -12.8612   -7.6827 H         1 GLY         0.0498
    141 H65         6.1011  -11.7251   -6.4187 H         1 GLY         0.0640
    142 H66         4.0900  -13.0001   -6.6489 H         1 GLY         0.0561
    143 H67         1.6208  -12.9822   -6.5760 H         1 GLY         0.0600
    144 H68         0.3722  -10.8787   -6.9959 H         1 GLY         0.0561
    145 H69         7.3572   -9.3890   -3.5696 H         1 GLY         0.0285
    146 H70         6.7701  -10.9700   -4.1879 H         1 GLY         0.0285
    147 H71         5.0925   -9.6096   -5.0968 H         1 GLY         0.0291
    148 H72         6.1620   -8.1688   -5.1789 H         1 GLY         0.0291
    149 H73         4.9828  -10.2376   -9.6900 H         1 GLY         0.0503
    150 H74         5.7908  -11.0291  -11.8782 H         1 GLY         0.0582
    151 H75         7.5497  -12.7479  -11.9902 H         1 GLY         0.0501
@<TRIPOS>BOND
     1    1    2 2  
     2    1    3 1  
     3    4    1 am 
     4    5    4 1  
     5    6    5 1  
     6    5    8 1  
     7    6    7 2  
     8   15    6 am 
     9    8    9 1  
    10    9   10 1  
    11   10   11 1  
    12   11   12 ar 
    13   12   13 ar 
    14   12   14 ar 
    15   16   15 1  
    16   17   16 1  
    17   16   19 1  
    18   17   18 2  
    19   22   17 am 
    20   19   20 1  
    21   19   21 1  
    22   23   22 1  
    23   22   28 1  
    24   24   23 1  
    25   23   26 1  
    26   24   25 2  
    27   29   24 am 
    28   26   27 1  
    29   27   28 1  
    30   30   29 1  
    31   30   31 1  
    32   33   30 1  
    33   31   32 1  
    34   33   34 2  
    35   39   33 am 
    36   35   36 ar 
    37   35   38 ar 
    38   40   39 1  
    39   41   40 1  
    40   40   43 1  
    41   41   42 2  
    42   47   41 am 
    43   43   44 1  
    44   44   45 1  
    45   44   46 1  
    46   48   47 1  
    47   47   53 1  
    48   49   48 1  
    49   48   51 1  
    50   49   50 2  
    51   54   49 am 
    52   51   52 1  
    53   52   53 1  
    54   55   54 1  
    55   56   55 1  
    56   56   57 2  
    57   76   56 am 
    58   32   35 1  
    59   35   37 ar 
    60   58   71 1  
    61   76   58 1  
    62   60   59 ar 
    63   59   70 ar 
    64   67   60 ar 
    65   66   61 1  
    66   61   72 1  
    67   61   76 1  
    68   63   62 1  
    69   64   63 ar 
    70   63   75 ar 
    71   65   64 ar 
    72   66   65 1  
    73   65   73 ar 
    74   66   67 1  
    75   67   68 ar 
    76   68   69 ar 
    77   69   70 ar 
    78   72   71 1  
    79   73   74 ar 
    80   74   75 ar 
    81    3   77 1  
    82    3   78 1  
    83    3   79 1  
    84    4   80 1  
    85    5   81 1  
    86    8   82 1  
    87    8   83 1  
    88    9   84 1  
    89    9   85 1  
    90   10   86 1  
    91   10   87 1  
    92   11   88 1  
    93   13   89 1  
    94   13   90 1  
    95   14   91 1  
    96   14   92 1  
    97   15   93 1  
    98   16   94 1  
    99   19   95 1  
   100   20   96 1  
   101   21   97 1  
   102   21   98 1  
   103   21   99 1  
   104   23  100 1  
   105   26  101 1  
   106   26  102 1  
   107   27  103 1  
   108   27  104 1  
   109   28  105 1  
   110   28  106 1  
   111   29  107 1  
   112   30  108 1  
   113   31  109 1  
   114   31  110 1  
   115   39  111 1  
   116   40  112 1  
   117   43  113 1  
   118   43  114 1  
   119   44  115 1  
   120   45  116 1  
   121   45  117 1  
   122   45  118 1  
   123   46  119 1  
   124   46  120 1  
   125   46  121 1  
   126   48  122 1  
   127   51  123 1  
   128   51  124 1  
   129   52  125 1  
   130   52  126 1  
   131   53  127 1  
   132   53  128 1  
   133   54  129 1  
   134   55  130 1  
   135   55  131 1  
   136   58  132 1  
   137   58  133 1  
   138   59  134 1  
   139   60  135 1  
   140   61  136 1  
   141   62  137 1  
   142   62  138 1  
   143   62  139 1  
   144   64  140 1  
   145   66  141 1  
   146   68  142 1  
   147   69  143 1  
   148   70  144 1  
   149   71  145 1  
   150   71  146 1  
   151   72  147 1  
   152   72  148 1  
   153   73  149 1  
   154   74  150 1  
   155   75  151 1  
@<TRIPOS>SUBSTRUCTURE
     1 ACE         1

