4py4_ligand
  -I-interpret- 

 45 47  0  0  0  0  0  0  0  0999 V2000
  -24.2510   -7.1500   10.8830 C   0  0  0  0  0
  -24.6600   -7.6430    9.6000 C   0  0  0  0  0
  -24.6270   -9.0380    9.3590 C   0  0  0  0  0
  -24.1970   -9.9270   10.3770 C   0  0  0  0  0
  -23.7770   -9.4570   11.6650 C   0  0  0  0  0
  -23.8150   -8.0550   11.9040 C   0  0  0  0  0
  -24.0270  -11.6330   10.4510 S   0  0  0  0  0
  -23.4420  -11.7740   12.0440 C   0  0  0  0  0
  -23.3780  -10.4770   12.5530 N   0  0  0  0  0
  -23.3870   -7.5050   13.2360 C   0  0  0  0  0
  -23.0050   -8.2620   14.0830 O   0  0  0  0  0
  -23.4230   -6.1230   13.4550 N   0  0  0  0  0
  -25.0680   -6.8280    8.6200 F   0  0  0  0  0
  -23.1180  -13.0600   12.6580 N   0  0  0  0  0
  -22.3690  -13.2050   13.8350 C   0  0  0  0  0
  -21.2390  -14.0710   13.8310 C   0  0  0  0  0
  -20.4980  -14.2390   15.0030 C   0  0  0  0  0
  -20.8710  -13.5530   16.2010 C   0  0  0  0  0
  -21.9740  -12.7180   16.1890 C   0  0  0  0  0
  -22.7490  -12.5410   14.9800 C   0  0  0  0  0
  -20.0560  -13.7360   17.4650 C   0  0  0  0  0
  -20.8420  -13.1380   18.5840 C   0  0  0  0  0
  -19.6300  -15.1140   17.6700 N   0  3  0  0  0
  -19.6180  -15.5060   19.0400 C   0  0  0  0  0
  -18.2580  -15.3470   17.1710 C   0  0  0  0  0
  -24.2721   -6.0787   11.0827 H   0  0  0  0  0
  -24.9328   -9.4295    8.3888 H   0  0  0  0  0
  -23.1201   -5.7405   14.3507 H   0  0  0  0  0
  -23.7522   -5.4984   12.7189 H   0  0  0  0  0
  -23.4583  -13.9062   12.2014 H   0  0  0  0  0
  -20.9544  -14.5987   12.9207 H   0  0  0  0  0
  -19.6294  -14.8975   15.0045 H   0  0  0  0  0
  -22.2616  -12.1892   17.0977 H   0  0  0  0  0
  -23.6231  -11.8899   14.9756 H   0  0  0  0  0
  -19.1027  -13.2120   17.3956 H   0  0  0  0  0
  -21.0095  -12.0797   18.3837 H   0  0  0  0  0
  -21.8009  -13.6496   18.6668 H   0  0  0  0  0
  -20.2876  -13.2495   19.5159 H   0  0  0  0  0
  -20.3180  -15.6623   17.1538 H   0  0  0  0  0
  -18.9319  -14.8652   19.5939 H   0  0  0  0  0
  -20.6219  -15.4086   19.4533 H   0  0  0  0  0
  -19.2910  -16.5429   19.1170 H   0  0  0  0  0
  -18.2199  -15.1326   16.1030 H   0  0  0  0  0
  -17.5646  -14.6926   17.6992 H   0  0  0  0  0
  -17.9815  -16.3870   17.3442 H   0  0  0  0  0
  1  2  4  0  0  0
  1  6  4  0  0  0
  2  3  4  0  0  0
  2 13  1  0  0  0
  3  4  4  0  0  0
  4  5  4  0  0  0
  4  7  4  0  0  0
  5  6  4  0  0  0
  5  9  4  0  0  0
  6 10  1  0  0  0
  7  8  4  0  0  0
  8  9  4  0  0  0
  8 14  1  0  0  0
 10 11  2  0  0  0
 10 12  1  0  0  0
 14 15  1  0  0  0
 15 16  4  0  0  0
 15 20  4  0  0  0
 16 17  4  0  0  0
 17 18  4  0  0  0
 18 19  4  0  0  0
 18 21  1  0  0  0
 19 20  4  0  0  0
 21 22  1  0  0  0
 21 23  1  0  0  0
 23 24  1  0  0  0
 23 25  1  0  0  0
  1 26  1  0  0  0
  3 27  1  0  0  0
 12 28  1  0  0  0
 12 29  1  0  0  0
 14 30  1  0  0  0
 16 31  1  0  0  0
 17 32  1  0  0  0
 19 33  1  0  0  0
 20 34  1  0  0  0
 21 35  1  0  0  0
 22 36  1  0  0  0
 22 37  1  0  0  0
 22 38  1  0  0  0
 23 39  1  0  0  0
 24 40  1  0  0  0
 24 41  1  0  0  0
 24 42  1  0  0  0
 25 43  1  0  0  0
 25 44  1  0  0  0
 25 45  1  0  0  0
M  END
$$$$
