1py1_ligand
  -I-interpret- 

125124  0  0  0  0  0  0  0  0999 V2000
   29.7750   33.0520   66.8410 N   0  3  0  0  0
   28.8110   33.8690   67.6270 C   0  0  0  0  0
   27.3790   33.5030   67.1580 C   0  0  0  0  0
   27.2010   32.5510   66.3980 O   0  0  0  0  0
   29.0890   35.3670   67.4050 C   0  0  0  0  0
   28.7550   36.2280   68.6370 C   0  0  0  0  0
   27.5840   36.2250   69.0850 O   0  0  0  0  0
   29.6660   36.9140   69.1560 O   0  0  0  0  0
   26.3840   34.2610   67.6180 N   0  0  0  0  0
   24.9700   34.0030   67.2650 C   0  0  0  0  0
   24.2030   35.2960   66.9450 C   0  0  0  0  0
   24.5260   36.3440   67.4420 O   0  0  0  0  0
   24.2760   33.2490   68.4210 C   0  0  0  0  0
   22.8160   32.9070   68.1260 C   0  0  0  0  0
   22.4910   32.6110   66.9500 O   0  0  0  0  0
   21.9980   32.9070   69.0750 O   0  0  0  0  0
   23.1910   35.1960   66.0980 N   0  0  0  0  0
   22.4110   36.3660   65.7440 C   0  0  0  0  0
   21.2120   36.5270   66.6680 C   0  0  0  0  0
   20.9180   35.6520   67.4560 O   0  0  0  0  0
   21.9160   36.2660   64.3140 C   0  0  0  0  0
   20.8550   35.1760   64.2130 C   0  0  0  0  0
   23.0810   35.9310   63.4070 C   0  0  0  0  0
   20.3340   34.9690   62.8280 C   0  0  0  0  0
   20.5300   37.6590   66.5460 N   0  0  0  0  0
   19.3610   37.9660   67.3880 C   0  0  0  0  0
   19.0810   39.4810   67.3020 C   0  0  0  0  0
   18.9320   40.0510   66.2810 O   0  0  0  0  0
   18.0960   37.1770   66.9690 C   0  0  0  0  0
   17.9930   36.6560   65.8630 O   0  0  0  0  0
   19.3840   41.5170   66.6440 P   0  0  0  0  0
   18.5720   42.4440   67.6220 O   0  0  0  0  0
   19.1170   42.0130   65.1350 O   0  0  0  0  0
   20.9370   41.4210   66.9800 O   0  0  0  0  0
   17.1550   37.0830   67.8980 N   0  0  0  0  0
   15.9050   36.3830   67.6310 C   0  0  0  0  0
   15.1090   37.0800   66.5340 C   0  0  0  0  0
   14.9980   38.2880   66.5160 O   0  0  0  0  0
   15.0400   36.3060   68.8960 C   0  0  0  0  0
   13.5540   35.9740   68.6820 C   0  0  0  0  0
   13.3960   34.5810   68.1140 C   0  0  0  0  0
   12.8140   36.0870   69.9950 C   0  0  0  0  0
   14.5780   36.2860   65.6170 N   0  0  0  0  0
   13.7610   36.8090   64.5350 C   0  0  0  0  0
   12.4880   37.4480   65.1400 C   0  0  0  0  0
   12.0070   37.0130   66.1820 O   0  0  0  0  0
   13.4070   35.6650   63.5800 C   0  0  0  0  0
   12.7790   35.9870   62.2260 C   0  0  0  0  0
   13.6610   36.9830   61.4890 C   0  0  0  0  0
   12.6020   34.7070   61.4110 C   0  0  0  0  0
   11.9770   38.4900   64.4960 N   0  0  0  0  0
   10.7840   39.1830   64.9980 C   0  0  0  0  0
    9.4690   38.5270   64.5290 C   0  0  0  0  0
    9.4910   37.8130   63.5020 O   0  0  0  0  0
   10.8120   40.6450   64.5510 C   0  0  0  0  0
   10.3490   41.6300   65.6150 C   0  0  0  0  0
   11.1870   41.4810   66.8860 C   0  0  0  0  0
   10.8410   42.5290   67.9460 C   0  0  0  0  0
   11.2030   43.9230   67.5370 N   0  3  0  0  0
    8.4400   38.7560   65.1960 O   0  0  0  0  0
   29.5836   32.0619   66.9940 H   0  0  0  0  0
   29.6743   33.2698   65.8496 H   0  0  0  0  0
   30.7255   33.2663   67.1426 H   0  0  0  0  0
   28.9150   33.6636   68.6924 H   0  0  0  0  0
   28.4581   35.7042   66.5825 H   0  0  0  0  0
   30.1531   35.4808   67.1981 H   0  0  0  0  0
   27.0403   35.6399   68.5524 H   0  0  0  0  0
   26.6041   35.0442   68.2332 H   0  0  0  0  0
   24.9617   33.3917   66.3626 H   0  0  0  0  0
   24.2928   33.8986   69.2961 H   0  0  0  0  0
   24.8109   32.3113   68.5719 H   0  0  0  0  0
   23.2617   32.6730   66.3810 H   0  0  0  0  0
   22.9582   34.2899   65.6915 H   0  0  0  0  0
   23.0626   37.2336   65.8478 H   0  0  0  0  0
   21.4789   37.2173   64.0106 H   0  0  0  0  0
   20.0137   35.4824   64.8346 H   0  0  0  0  0
   21.3178   34.2413   64.5295 H   0  0  0  0  0
   23.8342   36.7155   63.4803 H   0  0  0  0  0
   23.5153   34.9790   63.7121 H   0  0  0  0  0
   22.7293   35.8582   62.3779 H   0  0  0  0  0
   19.8838   35.8943   62.4685 H   0  0  0  0  0
   21.1556   34.6839   62.1709 H   0  0  0  0  0
   19.5838   34.1783   62.8378 H   0  0  0  0  0
   20.8253   38.3393   65.8457 H   0  0  0  0  0
   19.5939   37.6657   68.4096 H   0  0  0  0  0
   19.9929   39.9243   67.7021 H   0  0  0  0  0
   18.1091   39.5808   67.7853 H   0  0  0  0  0
   19.6065   41.4563   64.5250 H   0  0  0  0  0
   21.3653   40.8418   66.3454 H   0  0  0  0  0
   17.3081   37.5068   68.8131 H   0  0  0  0  0
   16.1641   35.3759   67.3043 H   0  0  0  0  0
   15.0688   37.2985   69.3457 H   0  0  0  0  0
   15.4502   35.4942   69.4966 H   0  0  0  0  0
   13.1344   36.6841   67.9694 H   0  0  0  0  0
   13.9136   34.5195   67.1567 H   0  0  0  0  0
   13.8240   33.8567   68.8071 H   0  0  0  0  0
   12.3370   34.3665   67.9704 H   0  0  0  0  0
   13.2419   35.3875   70.7131 H   0  0  0  0  0
   12.9069   37.1038   70.3766 H   0  0  0  0  0
   11.7614   35.8509   69.8388 H   0  0  0  0  0
   14.7467   35.2815   65.6715 H   0  0  0  0  0
   14.3007   37.5710   63.9727 H   0  0  0  0  0
   12.6481   35.0874   64.1078 H   0  0  0  0  0
   14.3623   35.1986   63.3392 H   0  0  0  0  0
   11.7941   36.4301   62.3737 H   0  0  0  0  0
   13.7476   37.8956   62.0788 H   0  0  0  0  0
   14.6501   36.5498   61.3401 H   0  0  0  0  0
   13.2152   37.2149   60.5217 H   0  0  0  0  0
   13.5746   34.2410   61.2529 H   0  0  0  0  0
   11.9522   34.0198   61.9528 H   0  0  0  0  0
   12.1533   34.9502   60.4478 H   0  0  0  0  0
   12.4210   38.8151   63.6371 H   0  0  0  0  0
   10.8090   39.1148   66.0856 H   0  0  0  0  0
   10.3861   37.7784   63.1568 H   0  0  0  0  0
   10.1281   40.7371   63.7073 H   0  0  0  0  0
   11.8474   40.8897   64.3141 H   0  0  0  0  0
    9.3050   41.4275   65.8540 H   0  0  0  0  0
   10.4643   42.6441   65.2323 H   0  0  0  0  0
   12.2344   41.6123   66.6142 H   0  0  0  0  0
   10.9832   40.4971   67.3084 H   0  0  0  0  0
   11.4096   42.2902   68.8447 H   0  0  0  0  0
    9.7624   42.4995   68.1001 H   0  0  0  0  0
   10.9486   44.5715   68.2820 H   0  0  0  0  0
   12.2073   43.9761   67.3666 H   0  0  0  0  0
   10.6989   44.1677   66.6847 H   0  0  0  0  0
  1  2  1  0  0  0
  2  3  1  0  0  0
  2  5  1  0  0  0
  3  4  2  0  0  0
  3  9  1  0  0  0
  5  6  1  0  0  0
  6  7  1  0  0  0
  6  8  2  0  0  0
  9 10  1  0  0  0
 10 11  1  0  0  0
 10 13  1  0  0  0
 11 12  2  0  0  0
 11 17  1  0  0  0
 13 14  1  0  0  0
 14 15  1  0  0  0
 14 16  2  0  0  0
 17 18  1  0  0  0
 18 19  1  0  0  0
 18 21  1  0  0  0
 19 20  2  0  0  0
 19 25  1  0  0  0
 21 22  1  0  0  0
 21 23  1  0  0  0
 22 24  1  0  0  0
 25 26  1  0  0  0
 26 27  1  0  0  0
 26 29  1  0  0  0
 27 28  1  0  0  0
 28 31  1  0  0  0
 29 30  2  0  0  0
 29 35  1  0  0  0
 31 32  2  0  0  0
 31 33  1  0  0  0
 31 34  1  0  0  0
 35 36  1  0  0  0
 36 37  1  0  0  0
 36 39  1  0  0  0
 37 38  2  0  0  0
 37 43  1  0  0  0
 39 40  1  0  0  0
 40 41  1  0  0  0
 40 42  1  0  0  0
 43 44  1  0  0  0
 44 45  1  0  0  0
 44 47  1  0  0  0
 45 46  2  0  0  0
 45 51  1  0  0  0
 47 48  1  0  0  0
 48 49  1  0  0  0
 48 50  1  0  0  0
 51 52  1  0  0  0
 52 53  1  0  0  0
 52 55  1  0  0  0
 53 54  1  0  0  0
 53 60  2  0  0  0
 55 56  1  0  0  0
 56 57  1  0  0  0
 57 58  1  0  0  0
 58 59  1  0  0  0
  1 61  1  0  0  0
  1 62  1  0  0  0
  1 63  1  0  0  0
  2 64  1  0  0  0
  5 65  1  0  0  0
  5 66  1  0  0  0
  7 67  1  0  0  0
  9 68  1  0  0  0
 10 69  1  0  0  0
 13 70  1  0  0  0
 13 71  1  0  0  0
 15 72  1  0  0  0
 17 73  1  0  0  0
 18 74  1  0  0  0
 21 75  1  0  0  0
 22 76  1  0  0  0
 22 77  1  0  0  0
 23 78  1  0  0  0
 23 79  1  0  0  0
 23 80  1  0  0  0
 24 81  1  0  0  0
 24 82  1  0  0  0
 24 83  1  0  0  0
 25 84  1  0  0  0
 26 85  1  0  0  0
 27 86  1  0  0  0
 27 87  1  0  0  0
 33 88  1  0  0  0
 34 89  1  0  0  0
 35 90  1  0  0  0
 36 91  1  0  0  0
 39 92  1  0  0  0
 39 93  1  0  0  0
 40 94  1  0  0  0
 41 95  1  0  0  0
 41 96  1  0  0  0
 41 97  1  0  0  0
 42 98  1  0  0  0
 42 99  1  0  0  0
 42100  1  0  0  0
 43101  1  0  0  0
 44102  1  0  0  0
 47103  1  0  0  0
 47104  1  0  0  0
 48105  1  0  0  0
 49106  1  0  0  0
 49107  1  0  0  0
 49108  1  0  0  0
 50109  1  0  0  0
 50110  1  0  0  0
 50111  1  0  0  0
 51112  1  0  0  0
 52113  1  0  0  0
 54114  1  0  0  0
 55115  1  0  0  0
 55116  1  0  0  0
 56117  1  0  0  0
 56118  1  0  0  0
 57119  1  0  0  0
 57120  1  0  0  0
 58121  1  0  0  0
 58122  1  0  0  0
 59123  1  0  0  0
 59124  1  0  0  0
 59125  1  0  0  0
M  END
$$$$
