### 
### Created by X-TOOL on Mon Sep 10 21:12:50 2018
### 

@<TRIPOS>MOLECULE
1py1_ligand
  120   119     1     0     0
SMALL
GAST_HUCK


@<TRIPOS>ATOM
      1 N          29.7750   33.0520   66.8410 N.4       1 ASP         0.2391
      2 CA         28.8110   33.8690   67.6270 C.3       1 ASP         0.0764
      3 C          27.3790   33.5030   67.1580 C.2       1 ASP         0.2285
      4 O          27.2010   32.5510   66.3980 O.2       1 ASP        -0.3906
      5 CB         29.0890   35.3670   67.4050 C.3       1 ASP         0.0607
      6 CG         28.7550   36.2280   68.6370 C.2       1 ASP         0.0425
      7 OD1        27.5840   36.2250   69.0850 O.co2     1 ASP        -0.5686
      8 OD2        29.6660   36.9140   69.1560 O.co2     1 ASP        -0.5686
      9 N          26.3840   34.2610   67.6180 N.am      1 ASP        -0.2594
     10 CA         24.9700   34.0030   67.2650 C.3       1 ASP         0.1424
     11 C          24.2030   35.2960   66.9450 C.2       1 ASP         0.2056
     12 O          24.5260   36.3440   67.4420 O.2       1 ASP        -0.3943
     13 CB         24.2760   33.2490   68.4210 C.3       1 ASP         0.0406
     14 CG         22.8160   32.9070   68.1260 C.2       1 ASP         0.0393
     15 OD1        22.4910   32.6110   66.9500 O.co2     1 ASP        -0.5688
     16 OD2        21.9980   32.9070   69.0750 O.co2     1 ASP        -0.5688
     17 N          23.1910   35.1960   66.0980 N.am      1 ILE        -0.2634
     18 CA         22.4110   36.3660   65.7440 C.3       1 ILE         0.1335
     19 C          21.2120   36.5270   66.6680 C.2       1 ILE         0.2042
     20 O          20.9180   35.6520   67.4560 O.2       1 ILE        -0.3944
     21 CB         21.9160   36.2660   64.3140 C.3       1 ILE        -0.0037
     22 CG1        20.8550   35.1760   64.2130 C.3       1 ILE        -0.0491
     23 CG2        23.0810   35.9310   63.4070 C.3       1 ILE        -0.0582
     24 CD1        20.3340   34.9690   62.8280 C.3       1 ILE        -0.0648
     25 N          20.5300   37.6590   66.5460 N.am      1 SEP        -0.2613
     26 CA         19.3610   37.9660   67.3880 C.3       1 SEP         0.1586
     27 CB         19.0810   39.4810   67.3020 C.3       1 SEP         0.1184
     28 OG         18.9320   40.0510   66.2810 O.3       1 SEP        -0.2714
     29 C          18.0960   37.1770   66.9690 C.2       1 SEP         0.2065
     30 O          17.9930   36.6560   65.8630 O.2       1 SEP        -0.3943
     31 P          19.3840   41.5170   66.6440 P.3       1 SEP         0.2010
     32 O1P        18.5720   42.4440   67.6220 O.co2     1 SEP        -0.5537
     33 O2P        19.1170   42.0130   65.1350 O.co2     1 SEP        -0.5537
     34 O3P        20.9370   41.4210   66.9800 O.co2     1 SEP        -0.5537
     35 N          17.1550   37.0830   67.8980 N.am      1 LEU        -0.2636
     36 CA         15.9050   36.3830   67.6310 C.3       1 LEU         0.1312
     37 C          15.1090   37.0800   66.5340 C.2       1 LEU         0.2039
     38 O          14.9980   38.2880   66.5160 O.2       1 LEU        -0.3944
     39 CB         15.0400   36.3060   68.8960 C.3       1 LEU        -0.0101
     40 CG         13.5540   35.9740   68.6820 C.3       1 LEU        -0.0425
     41 CD1        13.3960   34.5810   68.1140 C.3       1 LEU        -0.0625
     42 CD2        12.8140   36.0870   69.9950 C.3       1 LEU        -0.0625
     43 N          14.5780   36.2860   65.6170 N.am      1 LEU        -0.2637
     44 CA         13.7610   36.8090   64.5350 C.3       1 LEU         0.1312
     45 C          12.4880   37.4480   65.1400 C.2       1 LEU         0.2033
     46 O          12.0070   37.0130   66.1820 O.2       1 LEU        -0.3944
     47 CB         13.4070   35.6650   63.5800 C.3       1 LEU        -0.0101
     48 CG         12.7790   35.9870   62.2260 C.3       1 LEU        -0.0425
     49 CD1        13.6610   36.9830   61.4890 C.3       1 LEU        -0.0625
     50 CD2        12.6020   34.7070   61.4110 C.3       1 LEU        -0.0625
     51 N          11.9770   38.4900   64.4960 N.am      1 LYS        -0.2695
     52 CA         10.7840   39.1830   64.9980 C.3       1 LYS         0.0944
     53 C           9.4690   38.5270   64.5290 C.2       1 LYS         0.0601
     54 O           9.4910   37.8130   63.5020 O.co2     1 LYS        -0.5666
     55 CB         10.8120   40.6450   64.5510 C.3       1 LYS        -0.0177
     56 CG         10.3490   41.6300   65.6150 C.3       1 LYS        -0.0446
     57 CD         11.1870   41.4810   66.8860 C.3       1 LYS        -0.0125
     58 CE         10.8410   42.5290   67.9460 C.3       1 LYS        -0.0354
     59 NZ         11.2030   43.9230   67.5370 N.4       1 LYS         0.2185
     60 OXT         8.4400   38.7560   65.1960 O.co2     1 LYS        -0.5666
     61 H1         30.7155   33.2728   67.1288 H         1 ASP         0.2016
     62 H2         29.6671   33.2565   65.8599 H         1 ASP         0.2016
     63 H3         29.5955   32.0733   67.0020 H         1 ASP         0.2016
     64 H4         28.9170   33.6379   68.6972 H         1 ASP         0.1117
     65 H5         28.4796   35.7152   66.5580 H         1 ASP         0.0512
     66 H6         30.1552   35.4944   67.1665 H         1 ASP         0.0512
     67 H7         26.5998   35.0289   68.2212 H         1 ASP         0.1886
     68 H8         24.9516   33.3650   66.3691 H         1 ASP         0.0819
     69 H9         24.3122   33.8798   69.3214 H         1 ASP         0.0478
     70 H10        24.8236   32.3132   68.6066 H         1 ASP         0.0478
     71 H11        22.9627   34.3077   65.6995 H         1 ILE         0.1883
     72 H12        23.0532   37.2541   65.8379 H         1 ILE         0.0803
     73 H13        21.4796   37.2286   64.0091 H         1 ILE         0.0345
     74 H14        20.0117   35.4514   64.8633 H         1 ILE         0.0267
     75 H15        21.2946   34.2304   64.5632 H         1 ILE         0.0267
     76 H16        23.8437   36.7200   63.4832 H         1 ILE         0.0235
     77 H17        22.7282   35.8613   62.3675 H         1 ILE         0.0235
     78 H18        23.5177   34.9684   63.7113 H         1 ILE         0.0235
     79 H19        19.5767   34.1712   62.8366 H         1 ILE         0.0230
     80 H20        21.1623   34.6812   62.1638 H         1 ILE         0.0230
     81 H21        19.8794   35.9021   62.4640 H         1 ILE         0.0230
     82 H22        20.8195   38.3259   65.8594 H         1 SEP         0.1884
     83 H23        19.6020   37.7029   68.4285 H         1 SEP         0.0827
     84 H24        19.9271   39.9740   67.8031 H         1 SEP         0.0662
     85 H25        18.1615   39.6522   67.8810 H         1 SEP         0.0662
     86 H26        17.3051   37.4985   68.7951 H         1 LEU         0.1883
     87 H27        16.1434   35.3611   67.3011 H         1 LEU         0.0800
     88 H28        15.0967   37.2813   69.4015 H         1 LEU         0.0315
     89 H29        15.4669   35.5297   69.5480 H         1 LEU         0.0315
     90 H30        13.1283   36.6960   67.9697 H         1 LEU         0.0298
     91 H31        12.3276   34.3634   67.9686 H         1 LEU         0.0232
     92 H32        13.8275   33.8490   68.8126 H         1 LEU         0.0232
     93 H33        13.9179   34.5176   67.1478 H         1 LEU         0.0232
     94 H34        12.9358   37.1031   70.3983 H         1 LEU         0.0232
     95 H35        13.2222   35.3575   70.7099 H         1 LEU         0.0232
     96 H36        11.7454   35.8828   69.8324 H         1 LEU         0.0232
     97 H37        14.7434   35.3012   65.6704 H         1 LEU         0.1883
     98 H38        14.3242   37.5768   63.9843 H         1 LEU         0.0800
     99 H39        12.7022   35.0094   64.1124 H         1 LEU         0.0315
    100 H40        14.3384   35.1155   63.3788 H         1 LEU         0.0315
    101 H41        11.7901   36.4404   62.3885 H         1 LEU         0.0298
    102 H42        13.2121   37.2179   60.5126 H         1 LEU         0.0232
    103 H43        14.6596   36.5470   61.3381 H         1 LEU         0.0232
    104 H44        13.7492   37.9045   62.0832 H         1 LEU         0.0232
    105 H45        11.9615   34.0051   61.9652 H         1 LEU         0.0232
    106 H46        13.5849   34.2456   61.2348 H         1 LEU         0.0232
    107 H47        12.1321   34.9486   60.4462 H         1 LEU         0.0232
    108 H48        12.4123   38.8087   63.6540 H         1 LYS         0.1875
    109 H49        10.8085   39.1499   66.0972 H         1 LYS         0.0726
    110 H50        10.1564   40.7506   63.6741 H         1 LYS         0.0305
    111 H51        11.8443   40.9004   64.2699 H         1 LYS         0.0305
    112 H52         9.2929   41.4353   65.8532 H         1 LYS         0.0269
    113 H53        10.4551   42.6549   65.2299 H         1 LYS         0.0269
    114 H54        12.2496   41.5852   66.6215 H         1 LYS         0.0317
    115 H55        11.0107   40.4810   67.3089 H         1 LYS         0.0317
    116 H56        11.3841   42.2837   68.8706 H         1 LYS         0.0813
    117 H57         9.7582   42.4903   68.1356 H         1 LYS         0.0813
    118 H58        10.9520   44.5648   68.2726 H         1 LYS         0.1994
    119 H59        10.7053   44.1660   66.6948 H         1 LYS         0.1994
    120 H60        12.1953   43.9767   67.3683 H         1 LYS         0.1994
@<TRIPOS>BOND
     1    1    2 1  
     2    2    3 1  
     3    2    5 1  
     4    3    4 2  
     5    3    9 am 
     6    5    6 1  
     7    6    7 ar 
     8    6    8 ar 
     9    9   10 1  
    10   10   11 1  
    11   10   13 1  
    12   11   12 2  
    13   11   17 am 
    14   13   14 1  
    15   14   15 ar 
    16   14   16 ar 
    17   17   18 1  
    18   18   19 1  
    19   18   21 1  
    20   19   20 2  
    21   19   25 am 
    22   21   22 1  
    23   21   23 1  
    24   22   24 1  
    25   25   26 1  
    26   26   27 1  
    27   26   29 1  
    28   27   28 1  
    29   28   31 1  
    30   29   30 2  
    31   29   35 am 
    32   31   32 ar 
    33   31   33 ar 
    34   31   34 ar 
    35   35   36 1  
    36   36   37 1  
    37   36   39 1  
    38   37   38 2  
    39   37   43 am 
    40   39   40 1  
    41   40   41 1  
    42   40   42 1  
    43   43   44 1  
    44   44   45 1  
    45   44   47 1  
    46   45   46 2  
    47   45   51 am 
    48   47   48 1  
    49   48   49 1  
    50   48   50 1  
    51   51   52 1  
    52   52   53 1  
    53   52   55 1  
    54   53   54 ar 
    55   53   60 ar 
    56   55   56 1  
    57   56   57 1  
    58   57   58 1  
    59   58   59 1  
    60    1   61 1  
    61    1   62 1  
    62    1   63 1  
    63    2   64 1  
    64    5   65 1  
    65    5   66 1  
    66    9   67 1  
    67   10   68 1  
    68   13   69 1  
    69   13   70 1  
    70   17   71 1  
    71   18   72 1  
    72   21   73 1  
    73   22   74 1  
    74   22   75 1  
    75   23   76 1  
    76   23   77 1  
    77   23   78 1  
    78   24   79 1  
    79   24   80 1  
    80   24   81 1  
    81   25   82 1  
    82   26   83 1  
    83   27   84 1  
    84   27   85 1  
    85   35   86 1  
    86   36   87 1  
    87   39   88 1  
    88   39   89 1  
    89   40   90 1  
    90   41   91 1  
    91   41   92 1  
    92   41   93 1  
    93   42   94 1  
    94   42   95 1  
    95   42   96 1  
    96   43   97 1  
    97   44   98 1  
    98   47   99 1  
    99   47  100 1  
   100   48  101 1  
   101   49  102 1  
   102   49  103 1  
   103   49  104 1  
   104   50  105 1  
   105   50  106 1  
   106   50  107 1  
   107   51  108 1  
   108   52  109 1  
   109   55  110 1  
   110   55  111 1  
   111   56  112 1  
   112   56  113 1  
   113   57  114 1  
   114   57  115 1  
   115   58  116 1  
   116   58  117 1  
   117   59  118 1  
   118   59  119 1  
   119   59  120 1  
@<TRIPOS>SUBSTRUCTURE
     1 ASP         1

