1h37_ligand
  -I-interpret- 

 55 58  0  0  0  0  0  0  0  0999 V2000
   68.3100   72.0150   71.8920 C   0  0  0  0  0
   67.5870   70.7240   71.5000 C   0  0  0  0  0
   67.7490   69.7390   72.2130 O   0  0  0  0  0
   66.6880   70.5810   70.2600 C   0  0  0  0  0
   66.8070   71.4690   69.1550 C   0  0  0  0  0
   65.9860   71.3330   68.0120 C   0  0  0  0  0
   65.0190   70.2970   67.9370 C   0  0  0  0  0
   64.1910   70.1580   66.7900 O   0  0  0  0  0
   64.8250   70.2910   65.4800 C   0  0  0  0  0
   63.7840   69.8340   64.4140 C   0  0  0  0  0
   62.4360   70.5930   64.4980 C   0  0  0  0  0
   62.5220   73.6180   60.4650 C   0  0  0  0  0
   63.3520   72.4470   61.0210 C   0  0  0  0  0
   62.8540   71.0640   60.7390 N   0  3  0  0  0
   62.9110   70.1750   61.9550 C   0  0  0  0  0
   63.6140   70.5060   59.5980 C   0  0  0  0  0
   62.9420   69.3440   58.8940 C   0  0  0  0  0
   63.6450   68.3260   58.3880 C   0  0  0  0  0
   64.8850   69.3960   69.0420 C   0  0  0  0  0
   65.7150   69.5370   70.1960 C   0  0  0  0  0
   67.6610   73.2840   71.7950 C   0  0  0  0  0
   68.3380   74.4690   72.1530 C   0  0  0  0  0
   69.6770   74.4130   72.6190 C   0  0  0  0  0
   70.5440   75.9910   73.0740 Br  0  0  0  0  0
   70.3410   73.1500   72.7280 C   0  0  0  0  0
   63.3650   70.8300   63.2970 C   0  0  0  0  0
   63.9100   73.3290   59.8700 C   0  0  0  0  0
   69.6590   71.9580   72.3660 C   0  0  0  0  0
   67.5455   72.2699   69.1902 H   0  0  0  0  0
   66.0967   72.0299   67.1812 H   0  0  0  0  0
   65.7242   69.6774   65.4253 H   0  0  0  0  0
   65.1267   71.3234   65.3032 H   0  0  0  0  0
   64.1267   68.7994   64.3998 H   0  0  0  0  0
   61.8791   71.1842   65.2249 H   0  0  0  0  0
   61.3855   70.3677   64.6820 H   0  0  0  0  0
   61.9649   74.4727   60.8487 H   0  0  0  0  0
   61.5074   73.7974   60.1094 H   0  0  0  0  0
   63.7385   72.1422   61.9935 H   0  0  0  0  0
   61.8664   71.1117   60.4885 H   0  0  0  0  0
   63.6576   69.4134   61.7300 H   0  0  0  0  0
   61.8885   69.8363   62.1221 H   0  0  0  0  0
   64.5561   70.1314   59.9982 H   0  0  0  0  0
   63.7148   71.3053   58.8638 H   0  0  0  0  0
   61.8563   69.3384   58.7978 H   0  0  0  0  0
   64.7314   68.3169   58.4761 H   0  0  0  0  0
   63.1319   67.5050   57.8873 H   0  0  0  0  0
   64.1445   68.5971   69.0022 H   0  0  0  0  0
   65.6055   68.8452   71.0312 H   0  0  0  0  0
   66.6316   73.3373   71.4406 H   0  0  0  0  0
   67.8308   75.4304   72.0713 H   0  0  0  0  0
   71.3686   73.1029   73.0883 H   0  0  0  0  0
   63.8170   71.7074   62.8344 H   0  0  0  0  0
   64.8233   73.8689   59.6198 H   0  0  0  0  0
   64.3722   73.2030   58.8909 H   0  0  0  0  0
   70.1650   70.9962   72.4495 H   0  0  0  0  0
  2  1  1  0  0  0
  1 21  4  0  0  0
  1 28  4  0  0  0
  2  3  2  0  0  0
  4  2  1  0  0  0
  5  4  4  0  0  0
  4 20  4  0  0  0
  6  5  4  0  0  0
  7  6  4  0  0  0
  8  7  1  0  0  0
  7 19  4  0  0  0
  9  8  1  0  0  0
 10  9  1  0  0  0
 11 10  1  0  0  0
 26 10  1  0  0  0
 26 11  1  0  0  0
 13 12  1  0  0  0
 27 12  1  0  0  0
 14 13  1  0  0  0
 13 27  1  0  0  0
 15 14  1  0  0  0
 14 16  1  0  0  0
 15 26  1  0  0  0
 16 17  1  0  0  0
 17 18  2  0  0  0
 19 20  4  0  0  0
 21 22  4  0  0  0
 22 23  4  0  0  0
 23 24  1  0  0  0
 23 25  4  0  0  0
 25 28  4  0  0  0
  5 29  1  0  0  0
  6 30  1  0  0  0
  9 31  1  0  0  0
  9 32  1  0  0  0
 10 33  1  0  0  0
 11 34  1  0  0  0
 11 35  1  0  0  0
 12 36  1  0  0  0
 12 37  1  0  0  0
 13 38  1  0  0  0
 14 39  1  0  0  0
 15 40  1  0  0  0
 15 41  1  0  0  0
 16 42  1  0  0  0
 16 43  1  0  0  0
 17 44  1  0  0  0
 18 45  1  0  0  0
 18 46  1  0  0  0
 19 47  1  0  0  0
 20 48  1  0  0  0
 21 49  1  0  0  0
 22 50  1  0  0  0
 25 51  1  0  0  0
 26 52  1  0  0  0
 27 53  1  0  0  0
 27 54  1  0  0  0
 28 55  1  0  0  0
M  END
$$$$
