6goo_ligand
  -I-interpret- 

 26 25  0  0  0  0  0  0  0  0999 V2000
    4.1220   -6.8820   19.1350 C   0  0  0  0  0
    4.6510   -8.0220   19.9770 C   0  0  0  0  0
    5.4050   -9.0000   19.1030 C   0  0  0  0  0
    3.0650   -6.1220   19.9060 C   0  0  0  0  0
    4.5570   -9.8940   18.2250 C   0  0  0  0  0
    3.8980   -4.0000   19.5090 F   0  0  0  0  0
    2.8320   -4.7720   19.2630 C   0  0  0  0  0
    2.7340   -4.9490   17.9390 F   0  0  0  0  0
    1.5960   -4.0390   19.7360 C   0  0  0  0  0
    1.4900   -4.1310   21.0670 F   0  0  0  0  0
    0.5000   -4.6080   19.2170 F   0  0  0  0  0
    1.6690   -2.5560   19.3140 C   0  0  0  0  0
    1.7820   -1.7320   20.2590 O   0  0  0  0  0
    1.6190   -2.1960   18.1090 O   0  0  0  0  0
    1.9230   -6.8210   19.9200 F   0  0  0  0  0
    3.4600   -5.9580   21.1750 F   0  0  0  0  0
    5.1370   -6.0630   18.8290 F   0  0  0  0  0
    3.5910   -7.3840   18.0130 F   0  0  0  0  0
    3.6350   -8.6460   20.5860 F   0  0  0  0  0
    5.5070   -7.5490   20.8930 F   0  0  0  0  0
    6.1480   -9.7810   19.8970 F   0  0  0  0  0
    6.2290   -8.3020   18.3120 F   0  0  0  0  0
    5.3130  -10.8820   17.7310 F   0  0  0  0  0
    4.0470   -9.1750   17.2160 F   0  0  0  0  0
    3.5590  -10.4150   18.9500 F   0  0  0  0  0
    1.8017   -2.2052   21.0940 H   0  0  0  0  0
  1  2  1  0  0  0
  1  4  1  0  0  0
  1 17  1  0  0  0
  1 18  1  0  0  0
  2  3  1  0  0  0
  2 19  1  0  0  0
  2 20  1  0  0  0
  3  5  1  0  0  0
  3 21  1  0  0  0
  3 22  1  0  0  0
  4  7  1  0  0  0
  4 15  1  0  0  0
  4 16  1  0  0  0
  5 23  1  0  0  0
  5 24  1  0  0  0
  5 25  1  0  0  0
  7  6  1  0  0  0
  7  8  1  0  0  0
  7  9  1  0  0  0
  9 10  1  0  0  0
  9 11  1  0  0  0
  9 12  1  0  0  0
 12 13  1  0  0  0
 12 14  2  0  0  0
 13 26  1  0  0  0
M  END
$$$$
