6rfj_ligand
  -I-interpret- 

 70 74  0  0  0  0  0  0  0  0999 V2000
  -26.1760  -38.6310   -5.8550 C   0  0  0  0  0
  -20.2060  -39.3750   -6.9280 C   0  0  0  0  0
  -19.4680  -39.9000   -9.0540 C   0  0  0  0  0
  -18.1160  -39.9090   -8.5680 C   0  0  0  0  0
  -15.8320  -40.1670   -8.8740 C   0  0  0  0  0
  -15.5730  -39.8960   -7.5270 C   0  0  0  0  0
  -16.6150  -39.6250   -6.6890 C   0  0  0  0  0
  -17.9340  -39.6230   -7.1870 C   0  0  0  0  0
  -15.2460  -40.7170  -11.1630 C   0  0  0  0  0
  -21.1270  -40.1530  -10.8530 C   0  0  0  0  0
  -23.1780  -38.8570  -11.5420 C   0  0  0  0  0
  -21.2790  -41.0660  -12.0550 C   0  0  0  0  0
  -27.1510  -40.4070  -12.9970 C   0  0  0  0  0
  -26.2260  -40.0390  -15.2420 C   0  0  0  0  0
  -24.8310  -40.2980  -14.6780 C   0  0  0  0  0
  -28.0590  -41.6990  -14.9130 C   0  0  0  0  0
  -24.8180  -38.8500   -6.3290 N   0  0  0  0  0
  -24.5760  -39.1610   -7.6470 N   0  0  0  0  0
  -23.2640  -39.2910   -7.7260 C   0  0  0  0  0
  -22.6600  -39.0710   -6.4850 C   0  0  0  0  0
  -23.6830  -38.7940   -5.6240 C   0  0  0  0  0
  -21.3020  -39.1090   -6.1290 N   0  0  0  0  0
  -20.4710  -39.6350   -8.2220 N   0  0  0  0  0
  -17.0630  -40.1770   -9.3960 N   0  0  0  0  0
  -18.9900  -39.3520   -6.3500 N   0  0  0  0  0
  -14.7020  -40.4710   -9.8290 C   0  0  0  0  0
  -15.6550  -40.9090  -12.2050 N   0  0  0  0  0
  -19.7610  -40.1550  -10.3470 N   0  0  0  0  0
  -21.6890  -38.7740  -11.1550 C   0  0  0  0  0
  -23.4190  -39.8760  -12.6670 C   0  0  0  0  0
  -22.7540  -41.2320  -12.4110 C   0  0  0  0  0
  -24.7740  -39.9080  -13.2560 N   0  3  0  0  0
  -25.7520  -40.6890  -12.4890 C   0  0  0  0  0
  -27.2460  -40.7270  -14.4290 N   0  0  0  0  0
  -28.1560  -41.9830  -16.0850 O   0  0  0  0  0
  -28.7410  -42.3080  -13.9270 O   0  0  0  0  0
  -29.6410  -43.3680  -14.3420 C   0  0  0  0  0
  -26.6205  -37.7992   -6.4014 H   0  0  0  0  0
  -26.7666  -39.5323   -6.0193 H   0  0  0  0  0
  -26.1547  -38.3981   -4.7904 H   0  0  0  0  0
  -14.5501  -39.9012   -7.1506 H   0  0  0  0  0
  -16.4281  -39.4105   -5.6368 H   0  0  0  0  0
  -21.7254  -40.5425  -10.0294 H   0  0  0  0  0
  -23.4957  -37.8757  -11.8945 H   0  0  0  0  0
  -23.7428  -39.1743  -10.6654 H   0  0  0  0  0
  -20.8587  -42.0427  -11.8154 H   0  0  0  0  0
  -20.7553  -40.6267  -12.9040 H   0  0  0  0  0
  -27.3768  -39.3506  -12.8520 H   0  0  0  0  0
  -27.8614  -41.0233  -12.4460 H   0  0  0  0  0
  -26.2717  -40.4176  -16.2631 H   0  0  0  0  0
  -26.4223  -38.9670  -15.2244 H   0  0  0  0  0
  -24.1052  -39.7087  -15.2383 H   0  0  0  0  0
  -24.6030  -41.3603  -14.7654 H   0  0  0  0  0
  -22.7231  -39.5376   -8.6396 H   0  0  0  0  0
  -23.5916  -38.5694   -4.5613 H   0  0  0  0  0
  -21.0969  -38.9141   -5.1490 H   0  0  0  0  0
  -14.1643  -41.3552   -9.4867 H   0  0  0  0  0
  -14.0185  -39.6227   -9.8656 H   0  0  0  0  0
  -18.9980  -40.3564  -10.9932 H   0  0  0  0  0
  -21.1342  -38.3455  -11.9897 H   0  0  0  0  0
  -21.5935  -38.1546  -10.2632 H   0  0  0  0  0
  -22.8683  -39.4640  -13.5127 H   0  0  0  0  0
  -23.2608  -41.7156  -11.5759 H   0  0  0  0  0
  -22.8273  -41.8319  -13.3181 H   0  0  0  0  0
  -25.0429  -38.9256  -13.2020 H   0  0  0  0  0
  -25.5347  -41.7507  -12.6058 H   0  0  0  0  0
  -25.6888  -40.4101  -11.4372 H   0  0  0  0  0
  -30.3881  -42.9622  -15.0241 H   0  0  0  0  0
  -29.0723  -44.1489  -14.8468 H   0  0  0  0  0
  -30.1362  -43.7863  -13.4657 H   0  0  0  0  0
 17  1  1  0  0  0
  2 22  1  0  0  0
 23  2  4  0  0  0
  2 25  4  0  0  0
  3  4  4  0  0  0
  3 23  4  0  0  0
 28  3  1  0  0  0
  4  8  4  0  0  0
  4 24  4  0  0  0
  5  6  4  0  0  0
 24  5  4  0  0  0
  5 26  1  0  0  0
  7  6  4  0  0  0
  8  7  4  0  0  0
  8 25  4  0  0  0
 26  9  1  0  0  0
  9 27  3  0  0  0
 12 10  1  0  0  0
 10 28  1  0  0  0
 29 10  1  0  0  0
 11 29  1  0  0  0
 30 11  1  0  0  0
 31 12  1  0  0  0
 13 33  1  0  0  0
 34 13  1  0  0  0
 15 14  1  0  0  0
 14 34  1  0  0  0
 32 15  1  0  0  0
 34 16  1  0  0  0
 16 35  2  0  0  0
 16 36  1  0  0  0
 17 18  4  0  0  0
 21 17  4  0  0  0
 19 18  4  0  0  0
 20 19  4  0  0  0
 20 21  4  0  0  0
 22 20  1  0  0  0
 30 31  1  0  0  0
 30 32  1  0  0  0
 32 33  1  0  0  0
 36 37  1  0  0  0
  1 38  1  0  0  0
  1 39  1  0  0  0
  1 40  1  0  0  0
  6 41  1  0  0  0
  7 42  1  0  0  0
 10 43  1  0  0  0
 11 44  1  0  0  0
 11 45  1  0  0  0
 12 46  1  0  0  0
 12 47  1  0  0  0
 13 48  1  0  0  0
 13 49  1  0  0  0
 14 50  1  0  0  0
 14 51  1  0  0  0
 15 52  1  0  0  0
 15 53  1  0  0  0
 19 54  1  0  0  0
 21 55  1  0  0  0
 22 56  1  0  0  0
 26 57  1  0  0  0
 26 58  1  0  0  0
 28 59  1  0  0  0
 29 60  1  0  0  0
 29 61  1  0  0  0
 30 62  1  0  0  0
 31 63  1  0  0  0
 31 64  1  0  0  0
 32 65  1  0  0  0
 33 66  1  0  0  0
 33 67  1  0  0  0
 37 68  1  0  0  0
 37 69  1  0  0  0
 37 70  1  0  0  0
M  END
$$$$
