5aab_ligand
  -I-interpret- 

 53 56  0  0  0  0  0  0  0  0999 V2000
   32.9350   46.5870    6.6460 Cl  0  0  0  0  0
   33.3930   46.2880    8.3030 C   0  0  0  0  0
   34.2140   47.2720    8.9180 C   0  0  0  0  0
   34.6450   47.1280   10.2610 C   0  0  0  0  0
   34.2670   45.9940   11.0290 C   0  0  0  0  0
   34.6980   45.9010   12.2910 F   0  0  0  0  0
   32.9780   45.1060    9.0590 C   0  0  0  0  0
   33.4390   44.9740   10.4530 C   0  0  0  0  0
   33.0270   43.6100   11.4910 Cl  0  0  0  0  0
   32.0700   44.0340    8.3670 C   0  0  0  0  0
   32.7280   42.6420    8.3460 C   0  0  0  0  0
   30.7520   43.8570    9.0060 O   0  0  0  0  0
   29.7680   44.8510    9.1880 C   0  0  0  0  0
   29.6490   46.0670    8.4180 C   0  0  0  0  0
   28.7700   44.6550   10.2070 C   0  0  0  0  0
   28.8130   43.4900   10.9950 N   0  0  0  0  0
   27.7630   45.5270   10.4690 N   0  0  0  0  0
   27.6770   46.6680    9.7270 C   0  0  0  0  0
   28.5940   47.0050    8.6780 C   0  0  0  0  0
   28.4630   48.2910    7.8660 C   0  0  0  0  0
   29.4930   48.9580    7.0710 C   0  0  0  0  0
   27.3330   49.0940    7.7160 C   0  0  0  0  0
   27.7630   50.1380    6.8720 N   0  0  0  0  0
   28.9960   50.0150    6.5350 N   0  0  0  0  0
   26.9320   51.2740    6.3960 C   0  0  0  0  0
   26.7050   52.2910    7.5360 C   0  0  0  0  0
   25.8410   53.4650    7.0140 C   0  0  0  0  0
   24.5510   53.0000    6.4240 N   0  3  0  0  0
   24.7430   51.9830    5.3520 C   0  0  0  0  0
   25.5770   50.7750    5.8360 C   0  0  0  0  0
   34.5168   48.1506    8.3484 H   0  0  0  0  0
   35.2741   47.8967   10.7098 H   0  0  0  0  0
   31.9370   44.4307    7.3605 H   0  0  0  0  0
   32.8329   42.2757    9.3672 H   0  0  0  0  0
   32.1038   41.9551    7.7745 H   0  0  0  0  0
   33.7114   42.7134    7.8814 H   0  0  0  0  0
   30.3706   46.2755    7.6281 H   0  0  0  0  0
   29.5452   42.7968   10.8408 H   0  0  0  0  0
   28.1120   43.3388   11.7204 H   0  0  0  0  0
   26.8655   47.3627    9.9438 H   0  0  0  0  0
   30.5201   48.6132    6.9518 H   0  0  0  0  0
   26.3444   48.9480    8.1513 H   0  0  0  0  0
   27.4686   51.7708    5.5877 H   0  0  0  0  0
   27.6664   52.6719    7.8805 H   0  0  0  0  0
   26.1916   51.8013    8.3635 H   0  0  0  0  0
   26.4038   53.9788    6.2346 H   0  0  0  0  0
   25.6119   54.1173    7.8567 H   0  0  0  0  0
   24.0866   53.8081    6.0097 H   0  0  0  0  0
   24.0026   52.5703    7.1690 H   0  0  0  0  0
   25.2773   52.4556    4.5278 H   0  0  0  0  0
   23.7610   51.6183    5.0507 H   0  0  0  0  0
   25.0322   50.2479    6.6193 H   0  0  0  0  0
   25.7563   50.0990    4.9999 H   0  0  0  0  0
  1  2  1  0  0  0
  2  3  4  0  0  0
  2  7  4  0  0  0
  3  4  4  0  0  0
  4  5  4  0  0  0
  5  6  1  0  0  0
  5  8  4  0  0  0
  7  8  4  0  0  0
  7 10  1  0  0  0
  8  9  1  0  0  0
 10 11  1  0  0  0
 10 12  1  0  0  0
 12 13  1  0  0  0
 13 14  4  0  0  0
 13 15  4  0  0  0
 14 19  4  0  0  0
 15 16  1  0  0  0
 15 17  4  0  0  0
 17 18  4  0  0  0
 18 19  4  0  0  0
 19 20  1  0  0  0
 20 21  4  0  0  0
 20 22  4  0  0  0
 21 24  4  0  0  0
 22 23  4  0  0  0
 23 24  4  0  0  0
 23 25  1  0  0  0
 25 26  1  0  0  0
 25 30  1  0  0  0
 26 27  1  0  0  0
 27 28  1  0  0  0
 28 29  1  0  0  0
 29 30  1  0  0  0
  3 31  1  0  0  0
  4 32  1  0  0  0
 10 33  1  0  0  0
 11 34  1  0  0  0
 11 35  1  0  0  0
 11 36  1  0  0  0
 14 37  1  0  0  0
 16 38  1  0  0  0
 16 39  1  0  0  0
 18 40  1  0  0  0
 21 41  1  0  0  0
 22 42  1  0  0  0
 25 43  1  0  0  0
 26 44  1  0  0  0
 26 45  1  0  0  0
 27 46  1  0  0  0
 27 47  1  0  0  0
 28 48  1  0  0  0
 28 49  1  0  0  0
 29 50  1  0  0  0
 29 51  1  0  0  0
 30 52  1  0  0  0
 30 53  1  0  0  0
M  END
$$$$
