### 
### Created by X-TOOL on Mon Sep 10 21:13:00 2018
### 

@<TRIPOS>MOLECULE
3dgn_ligand
   39    41     1     0     0
SMALL
GAST_HUCK


@<TRIPOS>ATOM
      1 PB         23.2420  -11.7800  -17.0160 P.3       1 ADP         0.2069
      2 O1B        23.0670  -12.4140  -15.6310 O.co2     1 ADP        -0.5891
      3 O2B        21.9830  -11.3650  -17.7770 O.co2     1 ADP        -0.5891
      4 O3B        24.4450  -10.7920  -17.1410 O.co2     1 ADP        -0.5891
      5 PA         24.9910  -13.7930  -17.3060 P.3       1 ADP         0.3276
      6 O1A        24.5210  -14.8380  -16.2900 O.co2     1 ADP        -0.5556
      7 O2A        26.1210  -12.7630  -17.0320 O.co2     1 ADP        -0.5556
      8 O3A        23.7160  -13.0360  -17.8600 O.3       1 ADP        -0.1548
      9 O5'        25.2260  -14.5420  -18.7380 O.3       1 ADP        -0.2436
     10 C5'        25.8420  -14.0290  -19.9540 C.3       1 ADP         0.1132
     11 C4'        25.5880  -15.0150  -21.1410 C.3       1 ADP         0.1189
     12 O4'        26.7780  -15.8280  -21.3040 O.3       1 ADP        -0.3364
     13 C3'        24.4520  -16.0100  -20.8660 C.3       1 ADP         0.1149
     14 O3'        23.9320  -16.6350  -22.0600 O.3       1 ADP        -0.3864
     15 C2'        25.1790  -17.0340  -20.0270 C.3       1 ADP         0.1385
     16 O2'        24.4820  -18.2670  -20.0230 O.3       1 ADP        -0.3836
     17 C1'        26.5260  -17.1190  -20.7460 C.3       1 ADP         0.2010
     18 N9         27.6090  -17.5330  -19.8310 N.pl3     1 ADP        -0.1919
     19 C8         28.1890  -16.7100  -18.9400 C.2       1 ADP         0.1123
     20 N7         29.1020  -17.4650  -18.2880 N.2       1 ADP        -0.2958
     21 C5         29.1640  -18.7540  -18.7390 C.ar      1 ADP         0.1045
     22 C6         29.9580  -19.9900  -18.4040 C.ar      1 ADP         0.1298
     23 N6         30.9460  -20.0120  -17.4000 N.pl3     1 ADP        -0.3152
     24 N1         29.6380  -21.1110  -19.1320 N.ar      1 ADP        -0.2698
     25 C2         28.6500  -21.0630  -20.0880 C.ar      1 ADP         0.0533
     26 N3         27.9340  -19.9810  -20.4430 N.ar      1 ADP        -0.2714
     27 C4         28.1470  -18.8050  -19.7870 C.ar      1 ADP         0.1613
     28 H1         26.9252  -13.9212  -19.7958 H         1 ADP         0.0648
     29 H2         25.4074  -13.0480  -20.1963 H         1 ADP         0.0648
     30 H3         25.3723  -14.4417  -22.0547 H         1 ADP         0.0651
     31 H4         23.6289  -15.5330  -20.3138 H         1 ADP         0.0648
     32 H5         23.2355  -17.2363  -21.8237 H         1 ADP         0.2100
     33 H6         25.3064  -16.6870  -18.9910 H         1 ADP         0.0676
     34 H7         23.6125  -18.1368  -19.6631 H         1 ADP         0.2101
     35 H8         26.4576  -17.8585  -21.5574 H         1 ADP         0.0996
     36 H9         27.9695  -15.6558  -18.7774 H         1 ADP         0.1349
     37 H10        31.4638  -20.8810  -17.2059 H         1 ADP         0.1820
     38 H11        31.1506  -19.1591  -16.8600 H         1 ADP         0.1820
     39 H12        28.4264  -21.9884  -20.6064 H         1 ADP         0.0996
@<TRIPOS>BOND
     1    1    2 ar 
     2    1    3 ar 
     3    1    4 ar 
     4    8    1 1  
     5    5    6 ar 
     6    5    7 ar 
     7    5    8 1  
     8    5    9 1  
     9    9   10 1  
    10   10   11 1  
    11   11   12 1  
    12   11   13 1  
    13   12   17 1  
    14   13   14 1  
    15   13   15 1  
    16   15   16 1  
    17   15   17 1  
    18   17   18 1  
    19   18   19 1  
    20   18   27 1  
    21   19   20 2  
    22   20   21 1  
    23   21   22 ar 
    24   21   27 ar 
    25   22   23 1  
    26   22   24 ar 
    27   24   25 ar 
    28   25   26 ar 
    29   26   27 ar 
    30   10   28 1  
    31   10   29 1  
    32   11   30 1  
    33   13   31 1  
    34   14   32 1  
    35   15   33 1  
    36   16   34 1  
    37   17   35 1  
    38   19   36 1  
    39   23   37 1  
    40   23   38 1  
    41   25   39 1  
@<TRIPOS>SUBSTRUCTURE
     1 ADP         1

