3dgn_ligand
  -I-interpret- 

 42 44  0  0  0  0  0  0  0  0999 V2000
   23.2420  -11.7800  -17.0160 P   0  0  0  0  0
   23.0670  -12.4140  -15.6310 O   0  0  0  0  0
   21.9830  -11.3650  -17.7770 O   0  0  0  0  0
   24.4450  -10.7920  -17.1410 O   0  0  0  0  0
   24.9910  -13.7930  -17.3060 P   0  0  0  0  0
   24.5210  -14.8380  -16.2900 O   0  0  0  0  0
   26.1210  -12.7630  -17.0320 O   0  0  0  0  0
   23.7160  -13.0360  -17.8600 O   0  0  0  0  0
   25.2260  -14.5420  -18.7380 O   0  0  0  0  0
   25.8420  -14.0290  -19.9540 C   0  0  0  0  0
   25.5880  -15.0150  -21.1410 C   0  0  0  0  0
   26.7780  -15.8280  -21.3040 O   0  0  0  0  0
   24.4520  -16.0100  -20.8660 C   0  0  0  0  0
   23.9320  -16.6350  -22.0600 O   0  0  0  0  0
   25.1790  -17.0340  -20.0270 C   0  0  0  0  0
   24.4820  -18.2670  -20.0230 O   0  0  0  0  0
   26.5260  -17.1190  -20.7460 C   0  0  0  0  0
   27.6090  -17.5330  -19.8310 N   0  0  0  0  0
   28.1890  -16.7100  -18.9400 C   0  0  0  0  0
   29.1020  -17.4650  -18.2880 N   0  0  0  0  0
   29.1640  -18.7540  -18.7390 C   0  0  0  0  0
   29.9580  -19.9900  -18.4040 C   0  0  0  0  0
   30.9460  -20.0120  -17.4000 N   0  0  0  0  0
   29.6380  -21.1110  -19.1320 N   0  0  0  0  0
   28.6500  -21.0630  -20.0880 C   0  0  0  0  0
   27.9340  -19.9810  -20.4430 N   0  0  0  0  0
   28.1470  -18.8050  -19.7870 C   0  0  0  0  0
   23.9293  -12.6258  -15.2660 H   0  0  0  0  0
   25.1882  -11.1289  -16.6352 H   0  0  0  0  0
   26.2443  -12.2110  -17.8077 H   0  0  0  0  0
   26.9157  -13.9276  -19.7962 H   0  0  0  0  0
   25.4063  -13.0592  -20.1945 H   0  0  0  0  0
   25.3328  -14.4072  -22.0090 H   0  0  0  0  0
   23.5797  -15.5417  -20.4101 H   0  0  0  0  0
   23.2282  -17.2427  -21.8212 H   0  0  0  0  0
   25.2746  -16.7780  -18.9718 H   0  0  0  0  0
   24.9605  -18.9020  -19.4850 H   0  0  0  0  0
   26.4938  -17.8780  -21.5277 H   0  0  0  0  0
   27.9693  -15.6549  -18.7772 H   0  0  0  0  0
   31.1486  -19.1674  -16.8652 H   0  0  0  0  0
   31.4587  -20.8726  -17.2078 H   0  0  0  0  0
   28.4252  -21.9935  -20.6092 H   0  0  0  0  0
  1  2  1  0  0  0
  1  3  2  0  0  0
  1  4  1  0  0  0
  8  1  1  0  0  0
  5  6  2  0  0  0
  5  7  1  0  0  0
  5  8  1  0  0  0
  5  9  1  0  0  0
  9 10  1  0  0  0
 10 11  1  0  0  0
 11 12  1  0  0  0
 11 13  1  0  0  0
 12 17  1  0  0  0
 13 14  1  0  0  0
 13 15  1  0  0  0
 15 16  1  0  0  0
 15 17  1  0  0  0
 17 18  1  0  0  0
 18 19  4  0  0  0
 18 27  4  0  0  0
 19 20  4  0  0  0
 20 21  4  0  0  0
 21 22  4  0  0  0
 21 27  4  0  0  0
 22 23  1  0  0  0
 22 24  4  0  0  0
 24 25  4  0  0  0
 25 26  4  0  0  0
 26 27  4  0  0  0
  2 28  1  0  0  0
  4 29  1  0  0  0
  7 30  1  0  0  0
 10 31  1  0  0  0
 10 32  1  0  0  0
 11 33  1  0  0  0
 13 34  1  0  0  0
 14 35  1  0  0  0
 15 36  1  0  0  0
 16 37  1  0  0  0
 17 38  1  0  0  0
 19 39  1  0  0  0
 23 40  1  0  0  0
 23 41  1  0  0  0
 25 42  1  0  0  0
M  END
$$$$
