5kx8_ligand
  -I-interpret- 

 47 50  0  0  0  0  0  0  0  0999 V2000
   29.9700    6.6960   -7.6660 N   0  0  0  0  0
   30.7990    5.7640   -8.2610 C   0  0  0  0  0
   30.8900    4.5700   -7.8900 O   0  0  0  0  0
   31.6640    6.2860   -9.3720 C   0  0  0  0  0
   32.4900    5.4380  -10.1760 C   0  0  0  0  0
   33.2350    6.1220  -11.0960 N   0  0  0  0  0
   32.8890    7.4540  -10.9110 N   0  0  0  0  0
   31.9310    7.5960   -9.8350 C   0  0  0  0  0
   31.4850    8.8250   -9.4520 N   0  0  0  0  0
   31.9320    9.9430  -10.1380 C   0  0  0  0  0
   32.8740    9.8220  -11.1770 C   0  0  0  0  0
   33.3470    8.5950  -11.5790 C   0  0  0  0  0
   31.5020   11.1880   -9.6740 N   0  0  0  0  0
   31.9260   12.4340  -10.3260 C   0  0  0  0  0
   31.2010   13.6750   -9.8530 C   0  0  0  0  0
   31.3080   13.7340   -8.3930 N   0  3  0  0  0
   30.6020   12.5950   -7.8130 C   0  0  0  0  0
   31.3660   11.3720   -8.2220 C   0  0  0  0  0
   29.3520    6.5100   -6.4050 C   0  0  0  0  0
   28.7040    7.5260   -5.6130 C   0  0  0  0  0
   28.2080    6.9720   -4.5020 N   0  0  0  0  0
   28.5120    5.6520   -4.5350 N   0  0  0  0  0
   29.1820    5.3000   -5.6380 C   0  0  0  0  0
   28.5840    8.9580   -5.9360 C   0  0  0  0  0
   28.1430    9.7620   -4.9710 N   0  0  0  0  0
   28.8850    9.3730   -7.0630 O   0  0  0  0  0
   28.0960    4.7930   -3.4360 C   0  0  0  0  0
   29.7928    7.5685   -8.1638 H   0  0  0  0  0
   32.5220    4.3541  -10.0658 H   0  0  0  0  0
   33.2368   10.7215  -11.6743 H   0  0  0  0  0
   34.0614    8.5132  -12.3982 H   0  0  0  0  0
   31.7084   12.3255  -11.3885 H   0  0  0  0  0
   32.9806   12.5731  -10.0881 H   0  0  0  0  0
   30.1536   13.6360  -10.1523 H   0  0  0  0  0
   31.6465   14.5641  -10.2992 H   0  0  0  0  0
   30.8933   14.6022   -8.0543 H   0  0  0  0  0
   32.2904   13.7025   -8.1204 H   0  0  0  0  0
   29.5724   12.5504   -8.1681 H   0  0  0  0  0
   30.5490   12.6787   -6.7275 H   0  0  0  0  0
   32.3737   11.4791   -7.8205 H   0  0  0  0  0
   30.8130   10.5120   -7.8442 H   0  0  0  0  0
   29.5291    4.3014   -5.9034 H   0  0  0  0  0
   28.0421   10.7617   -5.1465 H   0  0  0  0  0
   27.9060    9.3783   -4.0561 H   0  0  0  0  0
   28.5440    5.1493   -2.5084 H   0  0  0  0  0
   27.0097    4.8169   -3.3489 H   0  0  0  0  0
   28.4238    3.7718   -3.6306 H   0  0  0  0  0
  1  2  1  0  0  0
  1 19  1  0  0  0
  2  3  2  0  0  0
  2  4  1  0  0  0
  4  5  4  0  0  0
  4  8  4  0  0  0
  5  6  4  0  0  0
  6  7  4  0  0  0
  7  8  4  0  0  0
  7 12  4  0  0  0
  8  9  4  0  0  0
  9 10  4  0  0  0
 10 11  4  0  0  0
 10 13  1  0  0  0
 11 12  4  0  0  0
 13 14  1  0  0  0
 13 18  1  0  0  0
 14 15  1  0  0  0
 15 16  1  0  0  0
 16 17  1  0  0  0
 17 18  1  0  0  0
 19 20  4  0  0  0
 19 23  4  0  0  0
 20 21  4  0  0  0
 20 24  1  0  0  0
 21 22  4  0  0  0
 22 23  4  0  0  0
 22 27  1  0  0  0
 24 25  1  0  0  0
 24 26  2  0  0  0
  1 28  1  0  0  0
  5 29  1  0  0  0
 11 30  1  0  0  0
 12 31  1  0  0  0
 14 32  1  0  0  0
 14 33  1  0  0  0
 15 34  1  0  0  0
 15 35  1  0  0  0
 16 36  1  0  0  0
 16 37  1  0  0  0
 17 38  1  0  0  0
 17 39  1  0  0  0
 18 40  1  0  0  0
 18 41  1  0  0  0
 23 42  1  0  0  0
 25 43  1  0  0  0
 25 44  1  0  0  0
 27 45  1  0  0  0
 27 46  1  0  0  0
 27 47  1  0  0  0
M  END
$$$$
