6cqz_ligand
  -I-interpret- 

 14 13  0  0  0  0  0  0  0  0999 V2000
   50.8850  -25.6380  346.3280 P   0  0  0  0  0
   50.9990  -25.7950  347.8260 O   0  0  0  0  0
   49.9990  -24.2970  345.9800 O   0  0  0  0  0
   52.5840  -25.4380  345.6000 C   0  0  0  0  0
   49.3900  -23.6020  347.0280 C   0  0  0  0  0
   48.3270  -22.6700  346.4510 C   0  0  0  0  0
   53.0582  -24.5534  346.0252 H   0  0  0  0  0
   53.1827  -26.3191  345.8306 H   0  0  0  0  0
   52.5036  -25.3246  344.5189 H   0  0  0  0  0
   50.1371  -23.0198  347.5675 H   0  0  0  0  0
   48.9267  -24.3073  347.7179 H   0  0  0  0  0
   48.7970  -21.9656  345.7647 H   0  0  0  0  0
   47.5817  -23.2583  345.9158 H   0  0  0  0  0
   47.8461  -22.1232  347.2621 H   0  0  0  0  0
  1  2  2  0  0  0
  1  3  1  0  0  0
  1  4  1  0  0  0
  3  5  1  0  0  0
  5  6  1  0  0  0
  4  7  1  0  0  0
  4  8  1  0  0  0
  4  9  1  0  0  0
  5 10  1  0  0  0
  5 11  1  0  0  0
  6 12  1  0  0  0
  6 13  1  0  0  0
  6 14  1  0  0  0
M  END
$$$$
