3l81_ligand
  -I-interpret- 

134136  0  0  0  0  0  0  0  0999 V2000
  -23.7480    7.1430   36.5360 N   0  3  0  0  0
  -22.2480    7.1610   36.5650 C   0  0  0  0  0
  -21.6320    6.9800   35.1750 C   0  0  0  0  0
  -20.5130    7.4350   34.9260 O   0  0  0  0  0
  -21.6450    6.0390   37.4660 C   0  0  0  0  0
  -22.5980    5.6060   38.4420 O   0  0  0  0  0
  -20.3360    6.5170   38.1570 C   0  0  0  0  0
  -22.3650    6.3120   34.2850 N   0  0  0  0  0
  -21.8010    5.8500   33.0220 C   0  0  0  0  0
  -22.3830    6.5550   31.8060 C   0  0  0  0  0
  -23.5590    6.9500   31.8140 O   0  0  0  0  0
  -22.0340    4.3530   32.8860 C   0  0  0  0  0
  -21.4820    3.5220   34.0120 C   0  0  0  0  0
  -20.1150    3.2710   34.1100 C   0  0  0  0  0
  -22.3350    2.9710   34.9750 C   0  0  0  0  0
  -19.6000    2.4970   35.1330 C   0  0  0  0  0
  -21.8310    2.1860   36.0160 C   0  0  0  0  0
  -20.4610    1.9570   36.0840 C   0  0  0  0  0
  -19.9670    1.1820   37.1060 O   0  0  0  0  0
  -21.5760    6.6960   30.7560 N   0  0  0  0  0
  -22.0360    7.3140   29.5040 C   0  0  0  0  0
  -22.5340    6.2380   28.5460 C   0  0  0  0  0
  -21.8830    5.2140   28.3840 O   0  0  0  0  0
  -20.8830    8.0790   28.8690 C   0  0  0  0  0
  -21.2130    8.7440   27.5700 C   0  0  0  0  0
  -20.1940    9.8130   27.2000 C   0  0  0  0  0
  -20.7210   10.6950   26.0560 C   0  0  0  0  0
  -19.9030   11.9580   25.8780 N   0  3  0  0  0
  -23.6710    6.4870   27.9040 N   0  0  0  0  0
  -24.2790    5.5320   26.9580 C   0  0  0  0  0
  -24.4150    6.1300   25.5660 C   0  0  0  0  0
  -24.4820    7.3540   25.3990 O   0  0  0  0  0
  -25.6500    5.0430   27.4460 C   0  0  0  0  0
  -25.5720    4.2690   28.7010 C   0  0  0  0  0
  -25.6330    4.9230   29.9400 C   0  0  0  0  0
  -25.4210    2.8810   28.6760 C   0  0  0  0  0
  -25.5590    4.1930   31.1410 C   0  0  0  0  0
  -25.3050    2.1470   29.8670 C   0  0  0  0  0
  -25.3970    2.8070   31.1030 C   0  0  0  0  0
  -24.4410    5.2840   24.5540 N   0  0  0  0  0
  -24.7250    5.7350   23.1960 C   0  0  0  0  0
  -25.7760    4.8290   22.6070 C   0  0  0  0  0
  -25.9760    3.7370   23.0860 O   0  0  0  0  0
  -23.4570    5.7120   22.3220 C   0  0  0  0  0
  -22.7130    4.3950   22.3280 C   0  0  0  0  0
  -23.0650    3.3790   21.4600 C   0  0  0  0  0
  -21.6200    4.2150   23.1560 C   0  0  0  0  0
  -22.3500    2.1620   21.4800 C   0  0  0  0  0
  -20.9020    3.0060   23.1830 C   0  0  0  0  0
  -21.2770    1.9920   22.3050 C   0  0  0  0  0
  -26.4380    5.3110   21.5600 N   0  0  0  0  0
  -27.4730    4.5560   20.8620 C   0  0  0  0  0
  -26.9590    3.8080   19.6400 C   0  0  0  0  0
  -27.5760    2.8230   19.1920 O   0  0  0  0  0
  -28.6170    5.4900   20.4660 C   0  0  0  0  0
  -29.2130    6.2220   21.6720 C   0  0  0  0  0
  -29.7490    5.2750   22.7540 C   0  0  0  0  0
  -30.3220    4.2090   22.4120 O   0  0  0  0  0
  -29.5940    5.6110   23.9580 O   0  0  0  0  0
  -25.8320    4.2600   19.1060 N   0  0  0  0  0
  -25.2210    3.5460   17.9830 C   0  0  0  0  0
  -23.7130    3.7230   17.9750 C   0  0  0  0  0
  -22.9900    2.8550   17.4570 O   0  0  0  0  0
  -25.8260    4.0410   16.6530 C   0  0  0  0  0
  -25.7360    5.5560   16.4510 C   0  0  0  0  0
  -26.3250    6.0340   15.1350 C   0  0  0  0  0
  -26.1370    5.4080   14.0920 O   0  0  0  0  0
  -27.0280    7.1680   15.1770 N   0  0  0  0  0
  -23.2090    4.7540   18.4630 O   0  0  0  0  0
  -24.0843    7.8948   35.9342 H   0  0  0  0  0
  -24.0691    6.2456   36.1727 H   0  0  0  0  0
  -24.1068    7.2764   37.4815 H   0  0  0  0  0
  -22.0040    8.1433   36.9694 H   0  0  0  0  0
  -21.3986    5.1928   36.8246 H   0  0  0  0  0
  -23.3984    5.3149   37.9990 H   0  0  0  0  0
  -20.5619    7.3481   38.8251 H   0  0  0  0  0
  -19.9079    5.6945   38.7301 H   0  0  0  0  0
  -19.6241    6.8422   37.3984 H   0  0  0  0  0
  -23.3449    6.1190   34.4923 H   0  0  0  0  0
  -20.7370    6.0852   33.0481 H   0  0  0  0  0
  -21.5216    4.0348   31.9781 H   0  0  0  0  0
  -23.1133    4.2006   32.8806 H   0  0  0  0  0
  -19.4391    3.6928   33.3662 H   0  0  0  0  0
  -23.4073    3.1566   34.9124 H   0  0  0  0  0
  -18.5278    2.3110   35.1945 H   0  0  0  0  0
  -22.5012    1.7601   36.7627 H   0  0  0  0  0
  -20.6913    0.8936   37.6663 H   0  0  0  0  0
  -20.6130    6.3664   30.8223 H   0  0  0  0  0
  -22.8549    8.0010   29.7175 H   0  0  0  0  0
  -20.0965    7.3531   28.6627 H   0  0  0  0  0
  -20.6036    8.8681   29.5671 H   0  0  0  0  0
  -22.1872    9.2226   27.6704 H   0  0  0  0  0
  -21.2088    7.9846   26.7881 H   0  0  0  0  0
  -19.2751    9.3256   26.8740 H   0  0  0  0  0
  -20.0098   10.4405   28.0720 H   0  0  0  0  0
  -21.7433   10.9861   26.2975 H   0  0  0  0  0
  -20.6607   10.1206   25.1316 H   0  0  0  0  0
  -20.2903   12.5072   25.1107 H   0  0  0  0  0
  -19.9330   12.5051   26.7383 H   0  0  0  0  0
  -18.9370   11.7089   25.6656 H   0  0  0  0  0
  -24.1428    7.3755   28.0724 H   0  0  0  0  0
  -23.6041    4.6777   26.9060 H   0  0  0  0  0
  -26.0628    4.3895   26.6775 H   0  0  0  0  0
  -26.2682    5.9207   27.6346 H   0  0  0  0  0
  -25.7388    6.0073   29.9732 H   0  0  0  0  0
  -25.3928    2.3604   27.7188 H   0  0  0  0  0
  -25.6280    4.7088   32.0988 H   0  0  0  0  0
  -25.1442    1.0695   29.8325 H   0  0  0  0  0
  -25.3420    2.2381   32.0311 H   0  0  0  0  0
  -24.2589    4.2950   24.7245 H   0  0  0  0  0
  -25.0819    6.7645   23.2264 H   0  0  0  0  0
  -22.7782    6.4631   22.7259 H   0  0  0  0  0
  -23.7746    5.8937   21.2952 H   0  0  0  0  0
  -23.8914    3.5168   20.7627 H   0  0  0  0  0
  -21.3065    5.0324   23.8053 H   0  0  0  0  0
  -22.6598    1.3463   20.8267 H   0  0  0  0  0
  -20.0715    2.8659   23.8749 H   0  0  0  0  0
  -20.7118    1.0604   22.2770 H   0  0  0  0  0
  -26.2126    6.2495   21.2302 H   0  0  0  0  0
  -27.8295    3.7964   21.5577 H   0  0  0  0  0
  -29.4043    4.8875   20.0130 H   0  0  0  0  0
  -28.2210    6.2373   19.7784 H   0  0  0  0  0
  -30.0510    6.8195   21.3131 H   0  0  0  0  0
  -28.4184    6.8182   22.1207 H   0  0  0  0  0
  -29.1357    6.4536   23.9974 H   0  0  0  0  0
  -25.3923    5.1025   19.4766 H   0  0  0  0  0
  -25.4322    2.4829   18.0985 H   0  0  0  0  0
  -26.8840    3.7792   16.6627 H   0  0  0  0  0
  -25.2595    3.5740   15.8474 H   0  0  0  0  0
  -24.6789    5.8220   16.4501 H   0  0  0  0  0
  -26.3063    6.0256   17.2524 H   0  0  0  0  0
  -27.4342    7.5482   14.3221 H   0  0  0  0  0
  -27.1590    7.6543   16.0640 H   0  0  0  0  0
  -23.9050    5.3121   18.8176 H   0  0  0  0  0
  1  2  1  0  0  0
  2  3  1  0  0  0
  2  5  1  0  0  0
  3  4  2  0  0  0
  3  8  1  0  0  0
  5  6  1  0  0  0
  5  7  1  0  0  0
  8  9  1  0  0  0
  9 10  1  0  0  0
  9 12  1  0  0  0
 10 11  2  0  0  0
 10 20  1  0  0  0
 12 13  1  0  0  0
 13 14  4  0  0  0
 13 15  4  0  0  0
 14 16  4  0  0  0
 15 17  4  0  0  0
 16 18  4  0  0  0
 17 18  4  0  0  0
 18 19  1  0  0  0
 20 21  1  0  0  0
 21 22  1  0  0  0
 21 24  1  0  0  0
 22 23  2  0  0  0
 22 29  1  0  0  0
 24 25  1  0  0  0
 25 26  1  0  0  0
 26 27  1  0  0  0
 27 28  1  0  0  0
 29 30  1  0  0  0
 30 31  1  0  0  0
 30 33  1  0  0  0
 31 32  2  0  0  0
 31 40  1  0  0  0
 33 34  1  0  0  0
 34 35  4  0  0  0
 34 36  4  0  0  0
 35 37  4  0  0  0
 36 38  4  0  0  0
 37 39  4  0  0  0
 38 39  4  0  0  0
 40 41  1  0  0  0
 41 42  1  0  0  0
 41 44  1  0  0  0
 42 43  2  0  0  0
 42 51  1  0  0  0
 44 45  1  0  0  0
 45 46  4  0  0  0
 45 47  4  0  0  0
 46 48  4  0  0  0
 47 49  4  0  0  0
 48 50  4  0  0  0
 49 50  4  0  0  0
 51 52  1  0  0  0
 52 53  1  0  0  0
 52 55  1  0  0  0
 53 54  2  0  0  0
 53 60  1  0  0  0
 55 56  1  0  0  0
 56 57  1  0  0  0
 57 58  2  0  0  0
 57 59  1  0  0  0
 60 61  1  0  0  0
 61 62  1  0  0  0
 61 64  1  0  0  0
 62 63  2  0  0  0
 62 69  1  0  0  0
 64 65  1  0  0  0
 65 66  1  0  0  0
 66 67  2  0  0  0
 66 68  1  0  0  0
  1 70  1  0  0  0
  1 71  1  0  0  0
  1 72  1  0  0  0
  2 73  1  0  0  0
  5 74  1  0  0  0
  6 75  1  0  0  0
  7 76  1  0  0  0
  7 77  1  0  0  0
  7 78  1  0  0  0
  8 79  1  0  0  0
  9 80  1  0  0  0
 12 81  1  0  0  0
 12 82  1  0  0  0
 14 83  1  0  0  0
 15 84  1  0  0  0
 16 85  1  0  0  0
 17 86  1  0  0  0
 19 87  1  0  0  0
 20 88  1  0  0  0
 21 89  1  0  0  0
 24 90  1  0  0  0
 24 91  1  0  0  0
 25 92  1  0  0  0
 25 93  1  0  0  0
 26 94  1  0  0  0
 26 95  1  0  0  0
 27 96  1  0  0  0
 27 97  1  0  0  0
 28 98  1  0  0  0
 28 99  1  0  0  0
 28100  1  0  0  0
 29101  1  0  0  0
 30102  1  0  0  0
 33103  1  0  0  0
 33104  1  0  0  0
 35105  1  0  0  0
 36106  1  0  0  0
 37107  1  0  0  0
 38108  1  0  0  0
 39109  1  0  0  0
 40110  1  0  0  0
 41111  1  0  0  0
 44112  1  0  0  0
 44113  1  0  0  0
 46114  1  0  0  0
 47115  1  0  0  0
 48116  1  0  0  0
 49117  1  0  0  0
 50118  1  0  0  0
 51119  1  0  0  0
 52120  1  0  0  0
 55121  1  0  0  0
 55122  1  0  0  0
 56123  1  0  0  0
 56124  1  0  0  0
 59125  1  0  0  0
 60126  1  0  0  0
 61127  1  0  0  0
 64128  1  0  0  0
 64129  1  0  0  0
 65130  1  0  0  0
 65131  1  0  0  0
 68132  1  0  0  0
 68133  1  0  0  0
 69134  1  0  0  0
M  END
$$$$
