### 
### Created by X-TOOL on Mon Sep 10 21:13:04 2018
### 

@<TRIPOS>MOLECULE
3l81_ligand
  132   134     1     0     0
SMALL
GAST_HUCK


@<TRIPOS>ATOM
      1 N         -23.7480    7.1430   36.5360 N.4       1 THR         0.2398
      2 CA        -22.2480    7.1610   36.5650 C.3       1 THR         0.0911
      3 C         -21.6320    6.9800   35.1750 C.2       1 THR         0.2294
      4 O         -20.5130    7.4350   34.9260 O.2       1 THR        -0.3906
      5 CB        -21.6450    6.0390   37.4660 C.3       1 THR         0.1120
      6 OG1       -22.5980    5.6060   38.4420 O.3       1 THR        -0.3840
      7 CG2       -20.3360    6.5170   38.1570 C.3       1 THR        -0.0314
      8 N         -22.3650    6.3120   34.2850 N.am      1 TYR        -0.2593
      9 CA        -21.8010    5.8500   33.0220 C.3       1 TYR         0.1391
     10 C         -22.3830    6.5550   31.8060 C.2       1 TYR         0.2057
     11 O         -23.5590    6.9500   31.8140 O.2       1 TYR        -0.3942
     12 CB        -22.0340    4.3530   32.8860 C.3       1 TYR         0.0164
     13 CG        -21.4820    3.5220   34.0120 C.ar      1 TYR        -0.0493
     14 CD1       -20.1150    3.2710   34.1100 C.ar      1 TYR        -0.0685
     15 CD2       -22.3350    2.9710   34.9750 C.ar      1 TYR        -0.0685
     16 CE1       -19.6000    2.4970   35.1330 C.ar      1 TYR        -0.0398
     17 CE2       -21.8310    2.1860   36.0160 C.ar      1 TYR        -0.0398
     18 CZ        -20.4610    1.9570   36.0840 C.ar      1 TYR         0.0805
     19 OH        -19.9670    1.1820   37.1060 O.3       1 TYR        -0.3376
     20 N         -21.5760    6.6960   30.7560 N.am      1 LYS        -0.2636
     21 CA        -22.0360    7.3140   29.5040 C.3       1 LYS         0.1310
     22 C         -22.5340    6.2380   28.5460 C.2       1 LYS         0.2040
     23 O         -21.8830    5.2140   28.3840 O.2       1 LYS        -0.3944
     24 CB        -20.8830    8.0790   28.8690 C.3       1 LYS        -0.0122
     25 CG        -21.2130    8.7440   27.5700 C.3       1 LYS        -0.0440
     26 CD        -20.1940    9.8130   27.2000 C.3       1 LYS        -0.0124
     27 CE        -20.7210   10.6950   26.0560 C.3       1 LYS        -0.0354
     28 NZ        -19.9030   11.9580   25.8780 N.4       1 LYS         0.2185
     29 N         -23.6710    6.4870   27.9040 N.am      1 PHE        -0.2619
     30 CA        -24.2790    5.5320   26.9580 C.3       1 PHE         0.1404
     31 C         -24.4150    6.1300   25.5660 C.2       1 PHE         0.2061
     32 O         -24.4820    7.3540   25.3990 O.2       1 PHE        -0.3942
     33 CB        -25.6500    5.0430   27.4460 C.3       1 PHE         0.0214
     34 CG        -25.5720    4.2690   28.7010 C.ar      1 PHE        -0.0386
     35 CD1       -25.6330    4.9230   29.9400 C.ar      1 PHE        -0.0601
     36 CD2       -25.4210    2.8810   28.6760 C.ar      1 PHE        -0.0601
     37 CE1       -25.5590    4.1930   31.1410 C.ar      1 PHE        -0.0686
     38 CE2       -25.3050    2.1470   29.8670 C.ar      1 PHE        -0.0686
     39 CZ        -25.3970    2.8070   31.1030 C.ar      1 PHE        -0.0687
     40 N         -24.4410    5.2840   24.5540 N.am      1 PHE        -0.2618
     41 CA        -24.7250    5.7350   23.1960 C.3       1 PHE         0.1404
     42 C         -25.7760    4.8290   22.6070 C.2       1 PHE         0.2060
     43 O         -25.9760    3.7370   23.0860 O.2       1 PHE        -0.3942
     44 CB        -23.4570    5.7120   22.3220 C.3       1 PHE         0.0214
     45 CG        -22.7130    4.3950   22.3280 C.ar      1 PHE        -0.0386
     46 CD1       -23.0650    3.3790   21.4600 C.ar      1 PHE        -0.0601
     47 CD2       -21.6200    4.2150   23.1560 C.ar      1 PHE        -0.0601
     48 CE1       -22.3500    2.1620   21.4800 C.ar      1 PHE        -0.0686
     49 CE2       -20.9020    3.0060   23.1830 C.ar      1 PHE        -0.0686
     50 CZ        -21.2770    1.9920   22.3050 C.ar      1 PHE        -0.0687
     51 N         -26.4380    5.3110   21.5600 N.am      1 GLU        -0.2635
     52 CA        -27.4730    4.5560   20.8620 C.3       1 GLU         0.1324
     53 C         -26.9590    3.8080   19.6400 C.2       1 GLU         0.2035
     54 O         -27.5760    2.8230   19.1920 O.2       1 GLU        -0.3944
     55 CB        -28.6170    5.4900   20.4660 C.3       1 GLU        -0.0008
     56 CG        -29.2130    6.2220   21.6720 C.3       1 GLU         0.0044
     57 CD        -29.7490    5.2750   22.7540 C.2       1 GLU         0.0350
     58 OE1       -30.3220    4.2090   22.4120 O.co2     1 GLU        -0.5690
     59 OE2       -29.5940    5.6110   23.9580 O.co2     1 GLU        -0.5690
     60 N         -25.8320    4.2600   19.1060 N.am      1 GLN        -0.2693
     61 CA        -25.2210    3.5460   17.9830 C.3       1 GLN         0.0964
     62 C         -23.7130    3.7230   17.9750 C.2       1 GLN         0.0602
     63 O         -22.9900    2.8550   17.4570 O.co2     1 GLN        -0.5666
     64 CB        -25.8260    4.0410   16.6530 C.3       1 GLN        -0.0010
     65 CG        -25.7360    5.5560   16.4510 C.3       1 GLN         0.0407
     66 CD        -26.3250    6.0340   15.1350 C.2       1 GLN         0.1737
     67 OE1       -26.1370    5.4080   14.0920 O.2       1 GLN        -0.3973
     68 NE2       -27.0280    7.1680   15.1770 N.am      1 GLN        -0.3009
     69 OXT       -23.2090    4.7540   18.4630 O.co2     1 GLN        -0.5666
     70 H         -24.0843    7.8948   35.9342 H         1 THR         0.2016
     71 H         -24.0691    6.2456   36.1727 H         1 THR         0.2016
     72 H         -24.1068    7.2764   37.4815 H         1 THR         0.2016
     73 H         -22.0040    8.1433   36.9694 H         1 THR         0.1125
     74 H         -21.3986    5.1928   36.8246 H         1 THR         0.0674
     75 H         -22.2079    4.9170   38.9848 H         1 THR         0.2102
     76 H         -20.5619    7.3481   38.8251 H         1 THR         0.0258
     77 H         -19.9079    5.6945   38.7301 H         1 THR         0.0258
     78 H         -19.6241    6.8422   37.3984 H         1 THR         0.0258
     79 H         -23.3449    6.1190   34.4923 H         1 TYR         0.1886
     80 H         -20.7370    6.0852   33.0481 H         1 TYR         0.0821
     81 H         -21.5216    4.0348   31.9781 H         1 TYR         0.0453
     82 H         -23.1133    4.2006   32.8806 H         1 TYR         0.0453
     83 H         -19.4391    3.6928   33.3662 H         1 TYR         0.0530
     84 H         -23.4073    3.1566   34.9124 H         1 TYR         0.0530
     85 H         -18.5278    2.3110   35.1945 H         1 TYR         0.0525
     86 H         -22.5012    1.7601   36.7627 H         1 TYR         0.0525
     87 H         -19.0131    1.1137   37.0220 H         1 TYR         0.2458
     88 H         -20.6130    6.3664   30.8223 H         1 LYS         0.1883
     89 H         -22.8549    8.0010   29.7175 H         1 LYS         0.0800
     90 H         -20.0965    7.3531   28.6627 H         1 LYS         0.0312
     91 H         -20.6036    8.8681   29.5671 H         1 LYS         0.0312
     92 H         -22.1872    9.2226   27.6704 H         1 LYS         0.0269
     93 H         -21.2088    7.9846   26.7881 H         1 LYS         0.0269
     94 H         -19.2751    9.3256   26.8740 H         1 LYS         0.0317
     95 H         -20.0098   10.4405   28.0720 H         1 LYS         0.0317
     96 H         -21.7433   10.9861   26.2975 H         1 LYS         0.0813
     97 H         -20.6607   10.1206   25.1316 H         1 LYS         0.0813
     98 H         -20.2903   12.5072   25.1107 H         1 LYS         0.1994
     99 H         -19.9330   12.5051   26.7383 H         1 LYS         0.1994
    100 H         -18.9370   11.7089   25.6656 H         1 LYS         0.1994
    101 H         -24.1428    7.3755   28.0724 H         1 PHE         0.1885
    102 H         -23.6041    4.6777   26.9060 H         1 PHE         0.0823
    103 H         -26.0628    4.3895   26.6775 H         1 PHE         0.0474
    104 H         -26.2682    5.9207   27.6346 H         1 PHE         0.0474
    105 H         -25.7388    6.0073   29.9732 H         1 PHE         0.0557
    106 H         -25.3928    2.3604   27.7188 H         1 PHE         0.0557
    107 H         -25.6280    4.7088   32.0988 H         1 PHE         0.0599
    108 H         -25.1442    1.0695   29.8325 H         1 PHE         0.0599
    109 H         -25.3420    2.2381   32.0311 H         1 PHE         0.0559
    110 H         -24.2589    4.2950   24.7245 H         1 PHE         0.1885
    111 H         -25.0819    6.7645   23.2264 H         1 PHE         0.0823
    112 H         -22.7782    6.4631   22.7259 H         1 PHE         0.0474
    113 H         -23.7746    5.8937   21.2952 H         1 PHE         0.0474
    114 H         -23.8914    3.5168   20.7627 H         1 PHE         0.0557
    115 H         -21.3065    5.0324   23.8053 H         1 PHE         0.0557
    116 H         -22.6598    1.3463   20.8267 H         1 PHE         0.0599
    117 H         -20.0715    2.8659   23.8749 H         1 PHE         0.0599
    118 H         -20.7118    1.0604   22.2770 H         1 PHE         0.0559
    119 H         -26.2126    6.2495   21.2302 H         1 GLU         0.1883
    120 H         -27.8295    3.7964   21.5577 H         1 GLU         0.0801
    121 H         -29.4043    4.8875   20.0130 H         1 GLU         0.0330
    122 H         -28.2210    6.2373   19.7784 H         1 GLU         0.0330
    123 H         -30.0510    6.8195   21.3131 H         1 GLU         0.0433
    124 H         -28.4184    6.8182   22.1207 H         1 GLU         0.0433
    125 H         -25.3923    5.1025   19.4766 H         1 GLN         0.1875
    126 H         -25.4322    2.4829   18.0985 H         1 GLN         0.0727
    127 H         -26.8840    3.7792   16.6627 H         1 GLN         0.0330
    128 H         -25.2595    3.5740   15.8474 H         1 GLN         0.0330
    129 H         -24.6789    5.8220   16.4501 H         1 GLN         0.0504
    130 H         -26.3063    6.0256   17.2524 H         1 GLN         0.0504
    131 H         -27.4342    7.5482   14.3221 H         1 GLN         0.1814
    132 H         -27.1590    7.6543   16.0640 H         1 GLN         0.1814
@<TRIPOS>BOND
     1    1    2 1  
     2    2    3 1  
     3    2    5 1  
     4    3    4 2  
     5    3    8 am 
     6    5    6 1  
     7    5    7 1  
     8    8    9 1  
     9    9   10 1  
    10    9   12 1  
    11   10   11 2  
    12   10   20 am 
    13   12   13 1  
    14   13   14 ar 
    15   13   15 ar 
    16   14   16 ar 
    17   15   17 ar 
    18   16   18 ar 
    19   17   18 ar 
    20   18   19 1  
    21   20   21 1  
    22   21   22 1  
    23   21   24 1  
    24   22   23 2  
    25   22   29 am 
    26   24   25 1  
    27   25   26 1  
    28   26   27 1  
    29   27   28 1  
    30   29   30 1  
    31   30   31 1  
    32   30   33 1  
    33   31   32 2  
    34   31   40 am 
    35   33   34 1  
    36   34   35 ar 
    37   34   36 ar 
    38   35   37 ar 
    39   36   38 ar 
    40   37   39 ar 
    41   38   39 ar 
    42   40   41 1  
    43   41   42 1  
    44   41   44 1  
    45   42   43 2  
    46   42   51 am 
    47   44   45 1  
    48   45   46 ar 
    49   45   47 ar 
    50   46   48 ar 
    51   47   49 ar 
    52   48   50 ar 
    53   49   50 ar 
    54   51   52 1  
    55   52   53 1  
    56   52   55 1  
    57   53   54 2  
    58   53   60 am 
    59   55   56 1  
    60   56   57 1  
    61   57   58 ar 
    62   57   59 ar 
    63   60   61 1  
    64   61   62 1  
    65   61   64 1  
    66   62   63 ar 
    67   62   69 ar 
    68   64   65 1  
    69   65   66 1  
    70   66   67 2  
    71   66   68 am 
    72    1   70 1  
    73    1   71 1  
    74    1   72 1  
    75    2   73 1  
    76    5   74 1  
    77    6   75 1  
    78    7   76 1  
    79    7   77 1  
    80    7   78 1  
    81    8   79 1  
    82    9   80 1  
    83   12   81 1  
    84   12   82 1  
    85   14   83 1  
    86   15   84 1  
    87   16   85 1  
    88   17   86 1  
    89   19   87 1  
    90   20   88 1  
    91   21   89 1  
    92   24   90 1  
    93   24   91 1  
    94   25   92 1  
    95   25   93 1  
    96   26   94 1  
    97   26   95 1  
    98   27   96 1  
    99   27   97 1  
   100   28   98 1  
   101   28   99 1  
   102   28  100 1  
   103   29  101 1  
   104   30  102 1  
   105   33  103 1  
   106   33  104 1  
   107   35  105 1  
   108   36  106 1  
   109   37  107 1  
   110   38  108 1  
   111   39  109 1  
   112   40  110 1  
   113   41  111 1  
   114   44  112 1  
   115   44  113 1  
   116   46  114 1  
   117   47  115 1  
   118   48  116 1  
   119   49  117 1  
   120   50  118 1  
   121   51  119 1  
   122   52  120 1  
   123   55  121 1  
   124   55  122 1  
   125   56  123 1  
   126   56  124 1  
   127   60  125 1  
   128   61  126 1  
   129   64  127 1  
   130   64  128 1  
   131   65  129 1  
   132   65  130 1  
   133   68  131 1  
   134   68  132 1  
@<TRIPOS>SUBSTRUCTURE
     1 THR         1

