6nvl_ligand
  -I-interpret- 

 57 59  0  0  0  0  0  0  0  0999 V2000
   73.3540   16.1500   42.1800 C   0  0  0  0  0
   73.4300   16.7690   43.4260 C   0  0  0  0  0
   72.5710   17.8050   43.7830 C   0  0  0  0  0
   71.6310   18.2220   42.8360 C   0  0  0  0  0
   71.5490   17.6240   41.5810 C   0  0  0  0  0
   72.4110   16.5880   41.2630 C   0  0  0  0  0
   74.2400   15.1440   41.9120 O   0  0  0  0  0
   70.5910   18.0920   40.7290 O   0  0  0  0  0
   73.8760   14.1420   40.9650 C   0  0  0  0  0
   70.7040   17.8240   39.3350 C   0  0  0  0  0
   74.6200   16.2290   44.5620 Cl  0  0  0  0  0
   70.5200   19.4970   43.2210 Cl  0  0  0  0  0
   72.6750   18.4530   45.1380 C   0  0  0  0  0
   71.9280   17.7000   46.1050 O   0  0  0  0  0
   72.2260   17.8300   47.4410 C   0  0  0  0  0
   72.9660   18.8850   47.9440 C   0  0  0  0  0
   73.2370   18.9860   49.2470 N   0  0  0  0  0
   72.7400   18.0220   50.0510 C   0  0  0  0  0
   72.0140   16.9600   49.6350 N   0  0  0  0  0
   71.7550   16.8790   48.3280 C   0  0  0  0  0
   73.0130   18.0890   51.3860 N   0  0  0  0  0
   73.4460   19.1530   52.2160 C   0  0  0  0  0
   74.6090   19.9120   51.9450 C   0  0  0  0  0
   74.9760   20.9510   52.8310 C   0  0  0  0  0
   74.2360   21.1950   53.9550 C   0  0  0  0  0
   73.1130   20.4390   54.2210 C   0  0  0  0  0
   72.7070   19.4180   53.3750 C   0  0  0  0  0
   71.4740   18.6240   53.7180 C   0  0  0  0  0
   75.3860   19.7110   50.7810 N   0  0  0  0  0
   76.7360   19.6460   50.7110 C   0  0  0  0  0
   77.2650   19.4660   49.3060 C   0  0  0  0  0
   77.1620   20.7110   48.4740 C   0  0  0  0  0
   77.4720   19.7220   51.6920 O   0  0  0  0  0
   72.3476   16.1131   40.2839 H   0  0  0  0  0
   72.9746   13.6324   41.3055 H   0  0  0  0  0
   73.6878   14.6089   39.9982 H   0  0  0  0  0
   74.6883   13.4214   40.8700 H   0  0  0  0  0
   71.6330   18.2519   38.9582 H   0  0  0  0  0
   70.7068   16.7462   39.1726 H   0  0  0  0  0
   69.8584   18.2695   38.8110 H   0  0  0  0  0
   72.2707   19.4637   45.0826 H   0  0  0  0  0
   73.7219   18.4832   45.4401 H   0  0  0  0  0
   73.3357   19.6503   47.2615 H   0  0  0  0  0
   71.1602   16.0465   47.9521 H   0  0  0  0  0
   72.8804   17.2066   51.8801 H   0  0  0  0  0
   75.8536   21.5610   52.6170 H   0  0  0  0  0
   74.5338   21.9876   54.6414 H   0  0  0  0  0
   72.5307   20.6494   55.1181 H   0  0  0  0  0
   70.7384   18.7353   52.9213 H   0  0  0  0  0
   71.7389   17.5721   53.8252 H   0  0  0  0  0
   71.0554   18.9919   54.6548 H   0  0  0  0  0
   74.8767   19.6040   49.9038 H   0  0  0  0  0
   76.6658   18.6943   48.8228 H   0  0  0  0  0
   78.3204   19.2038   49.3805 H   0  0  0  0  0
   76.1166   21.0103   48.3981 H   0  0  0  0  0
   77.7365   21.5092   48.9441 H   0  0  0  0  0
   77.5583   20.5145   47.4778 H   0  0  0  0  0
  1  2  4  0  0  0
  1  6  4  0  0  0
  1  7  1  0  0  0
  2  3  4  0  0  0
  2 11  1  0  0  0
  3  4  4  0  0  0
  3 13  1  0  0  0
  4  5  4  0  0  0
  4 12  1  0  0  0
  5  6  4  0  0  0
  5  8  1  0  0  0
  7  9  1  0  0  0
  8 10  1  0  0  0
 13 14  1  0  0  0
 14 15  1  0  0  0
 15 16  4  0  0  0
 15 20  4  0  0  0
 16 17  4  0  0  0
 17 18  4  0  0  0
 18 19  4  0  0  0
 18 21  1  0  0  0
 19 20  4  0  0  0
 21 22  1  0  0  0
 22 23  4  0  0  0
 22 27  4  0  0  0
 23 24  4  0  0  0
 23 29  1  0  0  0
 24 25  4  0  0  0
 25 26  4  0  0  0
 26 27  4  0  0  0
 27 28  1  0  0  0
 29 30  1  0  0  0
 30 31  1  0  0  0
 30 33  2  0  0  0
 31 32  1  0  0  0
  6 34  1  0  0  0
  9 35  1  0  0  0
  9 36  1  0  0  0
  9 37  1  0  0  0
 10 38  1  0  0  0
 10 39  1  0  0  0
 10 40  1  0  0  0
 13 41  1  0  0  0
 13 42  1  0  0  0
 16 43  1  0  0  0
 20 44  1  0  0  0
 21 45  1  0  0  0
 24 46  1  0  0  0
 25 47  1  0  0  0
 26 48  1  0  0  0
 28 49  1  0  0  0
 28 50  1  0  0  0
 28 51  1  0  0  0
 29 52  1  0  0  0
 31 53  1  0  0  0
 31 54  1  0  0  0
 32 55  1  0  0  0
 32 56  1  0  0  0
 32 57  1  0  0  0
M  END
$$$$
