1ohr_ligand
  -I-interpret- 

 86 89  0  0  0  0  0  0  0  0999 V2000
    2.6450   -4.1530   16.3150 C   0  0  0  0  0
    3.4610   -5.4530   16.5930 C   0  0  0  0  0
    2.6850   -6.6860   16.1660 C   0  0  0  0  0
    2.2720   -6.5480   14.7110 C   0  0  0  0  0
    1.4340   -5.2770   14.5060 C   0  0  0  0  0
    2.2930   -4.0120   14.8260 C   0  0  0  0  0
    4.7380   -2.8460   16.0410 N   0  3  0  0  0
    5.5780   -4.0310   16.3220 C   0  0  0  0  0
    4.8280   -5.3230   15.8890 C   0  0  0  0  0
    3.4830   -2.9590   16.8210 C   0  0  0  0  0
    6.8480   -3.9550   15.5210 C   0  0  0  0  0
    7.8860   -4.4650   16.2330 N   0  0  0  0  0
    9.2890   -4.5340   15.7600 C   0  0  0  0  0
    9.8340   -3.1580   15.4200 C   0  0  0  0  0
    9.3340   -5.4090   14.4700 C   0  0  0  0  0
   10.1210   -5.1180   16.9370 C   0  0  0  0  0
    6.8300   -3.5380   14.3450 O   0  0  0  0  0
    5.3380   -1.5960   16.5180 C   0  0  0  0  0
    4.8200   -0.4460   15.6410 C   0  0  0  0  0
    5.5120   -0.3020   14.2830 C   0  0  0  0  0
    5.0320    0.7290   16.4330 O   0  0  0  0  0
    4.7580    0.7430   13.6060 N   0  0  0  0  0
    6.9320    0.1830   14.3100 C   0  0  0  0  0
    3.8790    0.3930   12.6450 C   0  0  0  0  0
    3.7100   -0.7870   12.3060 O   0  0  0  0  0
    3.1980    1.4880   11.9920 C   0  0  0  0  0
    3.9390    2.5960   11.5220 C   0  0  0  0  0
    3.3240    3.6870   10.9180 C   0  0  0  0  0
    1.9510    3.6590   10.7530 C   0  0  0  0  0
    1.2060    2.5700   11.2290 C   0  0  0  0  0
    1.8060    1.4600   11.8290 C   0  0  0  0  0
   -0.1640    2.6190   11.2010 O   0  0  0  0  0
    0.9350    0.3430   12.3340 C   0  0  0  0  0
    7.7470   -0.2420   12.7580 S   0  0  0  0  0
    7.7040    1.2030   11.8200 C   0  0  0  0  0
    7.9680    1.0620   10.4640 C   0  0  0  0  0
    7.9720    2.2040    9.6860 C   0  0  0  0  0
    7.7140    3.4510   10.2640 C   0  0  0  0  0
    7.4430    3.5800   11.6300 C   0  0  0  0  0
    7.4360    2.4280   12.4120 C   0  0  0  0  0
    1.6918   -4.1891   16.8425 H   0  0  0  0  0
    3.6343   -5.5762   17.6621 H   0  0  0  0  0
    1.7953   -6.7877   16.7874 H   0  0  0  0  0
    3.3140   -7.5686   16.2823 H   0  0  0  0  0
    1.6741   -7.4148   14.4295 H   0  0  0  0  0
    3.1681   -6.4840   14.0937 H   0  0  0  0  0
    0.5732   -5.3039   15.1741 H   0  0  0  0  0
    1.1009   -5.2309   13.4692 H   0  0  0  0  0
    3.1830   -3.9532   14.1995 H   0  0  0  0  0
    1.7526   -3.0882   14.6195 H   0  0  0  0  0
    4.6116   -2.8220   15.0291 H   0  0  0  0  0
    5.7969   -4.0533   17.3896 H   0  0  0  0  0
    4.6572   -5.2767   14.8135 H   0  0  0  0  0
    5.4388   -6.1829   16.1638 H   0  0  0  0  0
    3.7290   -3.1159   17.8712 H   0  0  0  0  0
    2.9055   -2.0423   16.7017 H   0  0  0  0  0
    7.6847   -4.8284   17.1646 H   0  0  0  0  0
    9.2267   -2.7126   14.6321 H   0  0  0  0  0
    9.8006   -2.5260   16.3074 H   0  0  0  0  0
   10.8645   -3.2513   15.0773 H   0  0  0  0  0
    8.9683   -6.4100   14.6986 H   0  0  0  0  0
    8.7043   -4.9569   13.7037 H   0  0  0  0  0
   10.3608   -5.4695   14.1092 H   0  0  0  0  0
   10.0323   -4.4625   17.8033 H   0  0  0  0  0
    9.7445   -6.1092   17.1897 H   0  0  0  0  0
   11.1673   -5.1902   16.6400 H   0  0  0  0  0
    6.4245   -1.6547   16.4537 H   0  0  0  0  0
    5.0650   -1.4240   17.5592 H   0  0  0  0  0
    3.7783   -0.6300   15.3780 H   0  0  0  0  0
    5.5369   -1.2903   13.8239 H   0  0  0  0  0
    4.7296    1.4998   15.9472 H   0  0  0  0  0
    4.8922    1.7232   13.8542 H   0  0  0  0  0
    7.4604   -0.2901   15.1377 H   0  0  0  0  0
    6.9424    1.2652   14.4398 H   0  0  0  0  0
    5.0230    2.5952   11.6362 H   0  0  0  0  0
    3.9094    4.5432   10.5828 H   0  0  0  0  0
    1.4467    4.4852   10.2518 H   0  0  0  0  0
   -0.5197    1.8023   11.5589 H   0  0  0  0  0
    1.2397   -0.5934   11.8666 H   0  0  0  0  0
    1.0411    0.2619   13.4158 H   0  0  0  0  0
   -0.1049    0.5536   12.0844 H   0  0  0  0  0
    8.1655    0.0828   10.0277 H   0  0  0  0  0
    8.1770    2.1326    8.6178 H   0  0  0  0  0
    7.7243    4.3419    9.6361 H   0  0  0  0  0
    7.2426    4.5566   12.0708 H   0  0  0  0  0
    7.2220    2.4885   13.4791 H   0  0  0  0  0
  1 10  1  0  0  0
  1  6  1  0  0  0
  1  2  1  0  0  0
  2  9  1  0  0  0
  2  3  1  0  0  0
  3  4  1  0  0  0
  4  5  1  0  0  0
  5  6  1  0  0  0
  9  8  1  0  0  0
  8 11  1  0  0  0
  8  7  1  0  0  0
  7 18  1  0  0  0
  7 10  1  0  0  0
 18 19  1  0  0  0
 19 21  1  0  0  0
 19 20  1  0  0  0
 20 23  1  0  0  0
 20 22  1  0  0  0
 22 24  1  0  0  0
 24 26  1  0  0  0
 24 25  2  0  0  0
 26 31  4  0  0  0
 26 27  4  0  0  0
 27 28  4  0  0  0
 28 29  4  0  0  0
 29 30  4  0  0  0
 30 32  1  0  0  0
 30 31  4  0  0  0
 31 33  1  0  0  0
 23 34  1  0  0  0
 34 35  1  0  0  0
 35 40  4  0  0  0
 35 36  4  0  0  0
 36 37  4  0  0  0
 37 38  4  0  0  0
 38 39  4  0  0  0
 39 40  4  0  0  0
 11 17  2  0  0  0
 11 12  1  0  0  0
 12 13  1  0  0  0
 13 16  1  0  0  0
 13 15  1  0  0  0
 13 14  1  0  0  0
  1 41  1  0  0  0
  2 42  1  0  0  0
  3 43  1  0  0  0
  3 44  1  0  0  0
  4 45  1  0  0  0
  4 46  1  0  0  0
  5 47  1  0  0  0
  5 48  1  0  0  0
  6 49  1  0  0  0
  6 50  1  0  0  0
  7 51  1  0  0  0
  8 52  1  0  0  0
  9 53  1  0  0  0
  9 54  1  0  0  0
 10 55  1  0  0  0
 10 56  1  0  0  0
 12 57  1  0  0  0
 14 58  1  0  0  0
 14 59  1  0  0  0
 14 60  1  0  0  0
 15 61  1  0  0  0
 15 62  1  0  0  0
 15 63  1  0  0  0
 16 64  1  0  0  0
 16 65  1  0  0  0
 16 66  1  0  0  0
 18 67  1  0  0  0
 18 68  1  0  0  0
 19 69  1  0  0  0
 20 70  1  0  0  0
 21 71  1  0  0  0
 22 72  1  0  0  0
 23 73  1  0  0  0
 23 74  1  0  0  0
 27 75  1  0  0  0
 28 76  1  0  0  0
 29 77  1  0  0  0
 32 78  1  0  0  0
 33 79  1  0  0  0
 33 80  1  0  0  0
 33 81  1  0  0  0
 36 82  1  0  0  0
 37 83  1  0  0  0
 38 84  1  0  0  0
 39 85  1  0  0  0
 40 86  1  0  0  0
M  END
$$$$
