5j74_ligand
  -I-interpret- 

 95 98  0  0  0  0  0  0  0  0999 V2000
   17.2230  -27.3020  -35.2930 C   0  0  0  0  0
   17.5790  -26.3550  -36.3520 N   0  3  0  0  0
   15.9420  -29.3900  -35.2150 O   0  0  0  0  0
   16.3330  -29.8100  -33.9050 C   0  0  0  0  0
   16.4030  -34.9780  -25.5690 N   0  0  0  0  0
   16.5940  -34.6390  -30.4980 O   0  0  0  0  0
   17.5390  -30.7070  -34.0070 C   0  0  0  0  0
   13.3770  -35.6260  -22.7760 N   0  0  0  0  0
   16.5060  -37.0650  -26.4170 O   0  0  0  0  0
   18.3070  -31.8030  -32.0010 C   0  0  0  0  0
    8.5750  -38.2250  -18.9250 N   0  0  0  0  0
    7.7820  -42.9070  -22.7640 O   0  0  0  0  0
   16.9740  -31.9160  -31.3200 C   0  0  0  0  0
   16.6790  -33.7260  -29.6750 C   0  0  0  0  0
   16.3510  -33.9290  -28.2130 C   0  0  0  0  0
   15.7920  -35.3180  -27.8970 C   0  0  0  0  0
   16.2750  -35.8630  -26.5650 C   0  0  0  0  0
   16.8900  -35.3240  -24.2390 C   0  0  0  0  0
   15.7720  -35.7830  -23.3200 C   0  0  0  0  0
   14.5390  -34.8960  -23.3320 C   0  0  0  0  0
    9.7680  -41.5320  -22.9530 O   0  0  0  0  0
    8.4270  -41.6530  -22.4010 S   0  0  0  0  0
    7.5960  -40.4930  -22.6870 O   0  0  0  0  0
    8.6220  -41.6880  -20.6350 C   0  0  0  0  0
    9.0820  -40.3990  -20.1050 C   0  0  0  0  0
    8.0450  -39.5000  -19.4660 C   0  0  0  0  0
    8.1490  -37.7320  -17.6730 C   0  0  0  0  0
    8.7670  -36.5190  -17.3540 C   0  0  0  0  0
    8.4870  -35.8790  -16.1530 C   0  0  0  0  0
    7.5840  -36.4550  -15.2750 C   0  0  0  0  0
    6.9680  -37.6560  -15.5870 C   0  0  0  0  0
    7.2350  -38.2930  -16.7880 C   0  0  0  0  0
    9.8420  -36.0000  -18.6290 S   0  0  0  0  0
    9.4660  -37.4170  -19.5630 C   0  0  0  0  0
   10.0920  -37.6470  -20.9000 C   0  0  0  0  0
   11.2420  -36.9250  -21.5720 C   0  0  0  0  0
   12.0560  -36.0710  -20.8710 C   0  0  0  0  0
   13.1030  -35.4350  -21.4840 C   0  0  0  0  0
   11.5280  -37.1740  -22.9430 C   0  0  0  0  0
   12.6220  -36.5000  -23.5470 C   0  0  0  0  0
   12.9010  -36.7260  -24.9050 C   0  0  0  0  0
   12.1250  -37.5830  -25.6360 C   0  0  0  0  0
   11.0580  -38.2420  -25.0550 C   0  0  0  0  0
   10.7550  -38.0460  -23.7490 C   0  0  0  0  0
   17.1080  -32.5040  -29.9960 N   0  0  0  0  0
   18.3250  -30.6370  -32.8160 O   0  0  0  0  0
   15.8280  -27.9830  -35.4450 C   0  0  0  0  0
   17.1916  -26.7325  -34.3641 H   0  0  0  0  0
   17.9643  -28.1004  -35.3275 H   0  0  0  0  0
   18.5029  -25.9665  -36.1626 H   0  0  0  0  0
   17.5899  -26.8391  -37.2498 H   0  0  0  0  0
   16.8912  -25.6022  -36.3786 H   0  0  0  0  0
   15.5127  -30.3543  -33.4371 H   0  0  0  0  0
   16.5787  -28.9367  -33.3007 H   0  0  0  0  0
   16.1456  -34.0078  -25.7505 H   0  0  0  0  0
   18.1486  -30.3821  -34.8502 H   0  0  0  0  0
   17.2024  -31.7343  -34.1463 H   0  0  0  0  0
   18.4739  -32.6832  -32.6219 H   0  0  0  0  0
   19.0942  -31.7341  -31.2502 H   0  0  0  0  0
    6.9040  -42.9377  -22.3771 H   0  0  0  0  0
   16.3291  -32.5565  -31.9216 H   0  0  0  0  0
   16.5506  -30.9170  -31.2159 H   0  0  0  0  0
   15.5856  -33.2004  -27.9458 H   0  0  0  0  0
   17.2781  -33.8146  -27.6514 H   0  0  0  0  0
   16.1328  -35.9984  -28.6774 H   0  0  0  0  0
   14.7062  -35.2356  -27.8480 H   0  0  0  0  0
   17.3442  -34.4346  -23.8023 H   0  0  0  0  0
   17.6025  -36.1426  -24.3412 H   0  0  0  0  0
   16.1673  -35.7644  -22.3044 H   0  0  0  0  0
   15.4589  -36.7676  -23.6672 H   0  0  0  0  0
   14.7296  -34.0126  -22.7226 H   0  0  0  0  0
   14.3190  -34.6055  -24.3593 H   0  0  0  0  0
    9.3695  -42.4426  -20.3903 H   0  0  0  0  0
    7.6525  -41.9122  -20.1902 H   0  0  0  0  0
    9.4623  -39.8460  -20.9639 H   0  0  0  0  0
    9.7899  -40.6419  -19.3126 H   0  0  0  0  0
    7.3289  -39.2395  -20.2454 H   0  0  0  0  0
    7.6249  -40.0504  -18.6242 H   0  0  0  0  0
    8.9722  -34.9350  -15.9048 H   0  0  0  0  0
    7.3562  -35.9596  -14.3312 H   0  0  0  0  0
    6.2675  -38.1034  -14.8818 H   0  0  0  0  0
    6.7321  -39.2274  -17.0374 H   0  0  0  0  0
    9.6245  -37.9789  -20.4835 H   0  0  0  0  0
    9.2698  -37.3554  -21.5534 H   0  0  0  0  0
   10.5436  -38.6258  -20.7385 H   0  0  0  0  0
   11.8668  -35.8964  -19.8118 H   0  0  0  0  0
   12.8341  -34.3801  -21.4289 H   0  0  0  0  0
   13.9812  -35.8278  -20.9716 H   0  0  0  0  0
   13.7399  -36.2160  -25.3785 H   0  0  0  0  0
   12.3508  -37.7482  -26.6895 H   0  0  0  0  0
   10.4549  -38.9255  -25.6527 H   0  0  0  0  0
    9.9034  -38.5672  -23.3117 H   0  0  0  0  0
   17.5575  -31.9480  -29.2685 H   0  0  0  0  0
   15.4550  -27.8141  -36.4552 H   0  0  0  0  0
   15.1393  -27.5555  -34.7163 H   0  0  0  0  0
  1  2  1  0  0  0
 47  1  1  0  0  0
  4  3  1  0  0  0
  3 47  1  0  0  0
  7  4  1  0  0  0
  5 17  1  0  0  0
 18  5  1  0  0  0
 14  6  2  0  0  0
 46  7  1  0  0  0
  8 20  1  0  0  0
 38  8  1  0  0  0
  8 40  1  0  0  0
 17  9  2  0  0  0
 13 10  1  0  0  0
 10 46  1  0  0  0
 11 26  1  0  0  0
 11 27  1  0  0  0
 34 11  1  0  0  0
 22 12  1  0  0  0
 45 13  1  0  0  0
 15 14  1  0  0  0
 14 45  1  0  0  0
 16 15  1  0  0  0
 17 16  1  0  0  0
 19 18  1  0  0  0
 20 19  1  0  0  0
 22 21  2  0  0  0
 22 23  2  0  0  0
 24 22  1  0  0  0
 25 24  1  0  0  0
 26 25  1  0  0  0
 28 27  4  0  0  0
 27 32  4  0  0  0
 28 29  4  0  0  0
 33 28  1  0  0  0
 29 30  4  0  0  0
 30 31  4  0  0  0
 32 31  4  0  0  0
 34 33  1  0  0  0
 35 34  1  0  0  0
 36 35  1  0  0  0
 37 36  2  0  0  0
 36 39  1  0  0  0
 37 38  1  0  0  0
 39 40  4  0  0  0
 39 44  4  0  0  0
 40 41  4  0  0  0
 41 42  4  0  0  0
 42 43  4  0  0  0
 43 44  4  0  0  0
  1 48  1  0  0  0
  1 49  1  0  0  0
  2 50  1  0  0  0
  2 51  1  0  0  0
  2 52  1  0  0  0
  4 53  1  0  0  0
  4 54  1  0  0  0
  5 55  1  0  0  0
  7 56  1  0  0  0
  7 57  1  0  0  0
 10 58  1  0  0  0
 10 59  1  0  0  0
 12 60  1  0  0  0
 13 61  1  0  0  0
 13 62  1  0  0  0
 15 63  1  0  0  0
 15 64  1  0  0  0
 16 65  1  0  0  0
 16 66  1  0  0  0
 18 67  1  0  0  0
 18 68  1  0  0  0
 19 69  1  0  0  0
 19 70  1  0  0  0
 20 71  1  0  0  0
 20 72  1  0  0  0
 24 73  1  0  0  0
 24 74  1  0  0  0
 25 75  1  0  0  0
 25 76  1  0  0  0
 26 77  1  0  0  0
 26 78  1  0  0  0
 29 79  1  0  0  0
 30 80  1  0  0  0
 31 81  1  0  0  0
 32 82  1  0  0  0
 34 83  1  0  0  0
 35 84  1  0  0  0
 35 85  1  0  0  0
 37 86  1  0  0  0
 38 87  1  0  0  0
 38 88  1  0  0  0
 41 89  1  0  0  0
 42 90  1  0  0  0
 43 91  1  0  0  0
 44 92  1  0  0  0
 45 93  1  0  0  0
 47 94  1  0  0  0
 47 95  1  0  0  0
M  END
$$$$
