### 
### Created by X-TOOL on Mon Sep 10 21:13:28 2018
### 

@<TRIPOS>MOLECULE
5j74_ligand
   94    97     1     0     0
SMALL
GAST_HUCK


@<TRIPOS>ATOM
      1 C          17.2230  -27.3020  -35.2930 C.3       1 6GN        -0.0114
      2 N          17.5790  -26.3550  -36.3520 N.4       1 6GN         0.2202
      3 O          15.9420  -29.3900  -35.2150 O.3       1 6GN        -0.3723
      4 C2         16.3330  -29.8100  -33.9050 C.3       1 6GN         0.0713
      5 N2         16.4030  -34.9780  -25.5690 N.am      1 6GN        -0.2868
      6 O2         16.5940  -34.6390  -30.4980 O.2       1 6GN        -0.3969
      7 C3         17.5390  -30.7070  -34.0070 C.3       1 6GN         0.0711
      8 N3         13.3770  -35.6260  -22.7760 N.pl3     1 6GN        -0.2991
      9 O3         16.5060  -37.0650  -26.4170 O.2       1 6GN        -0.3969
     10 C4         18.3070  -31.8030  -32.0010 C.3       1 6GN         0.0678
     11 N4          8.5750  -38.2250  -18.9250 N.pl3     1 6GN        -0.2962
     12 O4          7.7820  -42.9070  -22.7640 O.co2     1 6GN        -0.4846
     13 C5         16.9740  -31.9160  -31.3200 C.3       1 6GN         0.0543
     14 C6         16.6790  -33.7260  -29.6750 C.2       1 6GN         0.1783
     15 C7         16.3510  -33.9290  -28.2130 C.3       1 6GN         0.0540
     16 C8         15.7920  -35.3180  -27.8970 C.3       1 6GN         0.0540
     17 C9         16.2750  -35.8630  -26.5650 C.2       1 6GN         0.1782
     18 C10        16.8900  -35.3240  -24.2390 C.3       1 6GN         0.0327
     19 C11        15.7720  -35.7830  -23.3200 C.3       1 6GN        -0.0127
     20 C12        14.5390  -34.8960  -23.3320 C.3       1 6GN         0.0312
     21 O6          9.7680  -41.5320  -22.9530 O.co2     1 6GN        -0.4846
     22 S           8.4270  -41.6530  -22.4010 S.o2      1 6GN        -0.1914
     23 O5          7.5960  -40.4930  -22.6870 O.co2     1 6GN        -0.4846
     24 C20         8.6220  -41.6880  -20.6350 C.3       1 6GN         0.0325
     25 C19         9.0820  -40.3990  -20.1050 C.3       1 6GN        -0.0170
     26 C18         8.0450  -39.5000  -19.4660 C.3       1 6GN         0.0281
     27 C21         8.1490  -37.7320  -17.6730 C.ar      1 6GN         0.0544
     28 C26         8.7670  -36.5190  -17.3540 C.ar      1 6GN         0.0356
     29 C25         8.4870  -35.8790  -16.1530 C.ar      1 6GN        -0.0612
     30 C24         7.5840  -36.4550  -15.2750 C.ar      1 6GN        -0.0812
     31 C23         6.9680  -37.6560  -15.5870 C.ar      1 6GN        -0.0806
     32 C22         7.2350  -38.2930  -16.7880 C.ar      1 6GN        -0.0499
     33 S1          9.8420  -36.0000  -18.6290 S.3       1 6GN        -0.0807
     34 C17         9.4660  -37.4170  -19.5630 C.3       1 6GN         0.1003
     35 C16        10.0920  -37.6470  -20.9000 C.3       1 6GN         0.0038
     36 C15        11.2420  -36.9250  -21.5720 C.2       1 6GN        -0.0521
     37 C14        12.0560  -36.0710  -20.8710 C.2       1 6GN        -0.0681
     38 C13        13.1030  -35.4350  -21.4840 C.3       1 6GN         0.0462
     39 C27        11.5280  -37.1740  -22.9430 C.ar      1 6GN        -0.0111
     40 C32        12.6220  -36.5000  -23.5470 C.ar      1 6GN         0.0486
     41 C31        12.9010  -36.7260  -24.9050 C.ar      1 6GN        -0.0458
     42 C30        12.1250  -37.5830  -25.6360 C.ar      1 6GN        -0.0766
     43 C29        11.0580  -38.2420  -25.0550 C.ar      1 6GN        -0.0780
     44 C28        10.7550  -38.0460  -23.7490 C.ar      1 6GN        -0.0697
     45 N1         17.1080  -32.5040  -29.9960 N.am      1 6GN        -0.2846
     46 O1         18.3250  -30.6370  -32.8160 O.3       1 6GN        -0.3755
     47 C1         15.8280  -27.9830  -35.4450 C.3       1 6GN         0.0875
     48 H1         17.2335  -26.7602  -34.3357 H         1 6GN         0.0836
     49 H2         17.9867  -28.0935  -35.2748 H         1 6GN         0.0836
     50 H3         18.4920  -25.9704  -36.1658 H         1 6GN         0.1995
     51 H4         16.9000  -25.6105  -36.3792 H         1 6GN         0.1995
     52 H5         17.5902  -26.8323  -37.2398 H         1 6GN         0.1995
     53 H6         15.5053  -30.3600  -33.4335 H         1 6GN         0.0583
     54 H7         16.5816  -28.9285  -33.2958 H         1 6GN         0.0583
     55 H8         16.1506  -34.0269  -25.7469 H         1 6GN         0.1851
     56 H9         18.1527  -30.3904  -34.8632 H         1 6GN         0.0583
     57 H10        17.2054  -31.7442  -34.1585 H         1 6GN         0.0583
     58 H11        18.4752  -32.6912  -32.6277 H         1 6GN         0.0580
     59 H12        19.1013  -31.7331  -31.2433 H         1 6GN         0.0580
     60 H13        16.3126  -32.5499  -31.9288 H         1 6GN         0.0543
     61 H14        16.5338  -30.9125  -31.2240 H         1 6GN         0.0543
     62 H15        15.6038  -33.1780  -27.9168 H         1 6GN         0.0527
     63 H16        17.2703  -33.7827  -27.6269 H         1 6GN         0.0527
     64 H17        16.1036  -36.0106  -28.6928 H         1 6GN         0.0527
     65 H18        14.6940  -35.2569  -27.8732 H         1 6GN         0.0527
     66 H19        17.3712  -34.4392  -23.7967 H         1 6GN         0.0520
     67 H20        17.6276  -36.1348  -24.3317 H         1 6GN         0.0520
     68 H21        16.1631  -35.8128  -22.2923 H         1 6GN         0.0304
     69 H22        15.4695  -36.7951  -23.6268 H         1 6GN         0.0304
     70 H23        14.7303  -34.0001  -22.7231 H         1 6GN         0.0518
     71 H24        14.3179  -34.5956  -24.3668 H         1 6GN         0.0518
     72 H25         9.3591  -42.4619  -20.3747 H         1 6GN         0.0469
     73 H26         7.6534  -41.9349  -20.1759 H         1 6GN         0.0469
     74 H27         9.5337  -39.8414  -20.9387 H         1 6GN         0.0299
     75 H28         9.8497  -40.6091  -19.3457 H         1 6GN         0.0299
     76 H29         7.2858  -39.2603  -20.2250 H         1 6GN         0.0512
     77 H30         7.5753  -40.0533  -18.6395 H         1 6GN         0.0512
     78 H31         8.9695  -34.9402  -15.9062 H         1 6GN         0.0527
     79 H32         7.3575  -35.9623  -14.3364 H         1 6GN         0.0487
     80 H33         6.2714  -38.1010  -14.8857 H         1 6GN         0.0525
     81 H34         6.7349  -39.2222  -17.0360 H         1 6GN         0.0494
     82 H35         8.6398  -36.8987  -20.0717 H         1 6GN         0.0706
     83 H36         9.2577  -37.5422  -21.6091 H         1 6GN         0.0416
     84 H37        10.4162  -38.6976  -20.8679 H         1 6GN         0.0416
     85 H38        11.8670  -35.8965  -19.8128 H         1 6GN         0.0491
     86 H39        12.9253  -34.3565  -21.3610 H         1 6GN         0.0654
     87 H40        14.0082  -35.7231  -20.9293 H         1 6GN         0.0654
     88 H41        13.7353  -36.2188  -25.3759 H         1 6GN         0.0503
     89 H42        12.3496  -37.7473  -26.6837 H         1 6GN         0.0557
     90 H43        10.4582  -38.9217  -25.6495 H         1 6GN         0.0500
     91 H44         9.9081  -38.5643  -23.3141 H         1 6GN         0.0553
     92 H45        17.5487  -31.9589  -29.2828 H         1 6GN         0.1851
     93 H46        15.4473  -27.8101  -36.4624 H         1 6GN         0.0613
     94 H47        15.1297  -27.5499  -34.7136 H         1 6GN         0.0613
@<TRIPOS>BOND
     1    1    2 1  
     2   47    1 1  
     3    4    3 1  
     4    3   47 1  
     5    7    4 1  
     6    5   17 am 
     7   18    5 1  
     8   14    6 2  
     9   46    7 1  
    10    8   20 1  
    11   38    8 1  
    12    8   40 1  
    13   17    9 2  
    14   13   10 1  
    15   10   46 1  
    16   11   26 1  
    17   11   27 1  
    18   34   11 1  
    19   22   12 ar 
    20   45   13 1  
    21   15   14 1  
    22   14   45 am 
    23   16   15 1  
    24   17   16 1  
    25   19   18 1  
    26   20   19 1  
    27   22   21 ar 
    28   22   23 ar 
    29   24   22 1  
    30   25   24 1  
    31   26   25 1  
    32   28   27 ar 
    33   27   32 ar 
    34   28   29 ar 
    35   33   28 1  
    36   29   30 ar 
    37   30   31 ar 
    38   32   31 ar 
    39   34   33 1  
    40   35   34 1  
    41   36   35 1  
    42   37   36 2  
    43   36   39 1  
    44   37   38 1  
    45   39   40 ar 
    46   39   44 ar 
    47   40   41 ar 
    48   41   42 ar 
    49   42   43 ar 
    50   43   44 ar 
    51    1   48 1  
    52    1   49 1  
    53    2   50 1  
    54    2   51 1  
    55    2   52 1  
    56    4   53 1  
    57    4   54 1  
    58    5   55 1  
    59    7   56 1  
    60    7   57 1  
    61   10   58 1  
    62   10   59 1  
    63   13   60 1  
    64   13   61 1  
    65   15   62 1  
    66   15   63 1  
    67   16   64 1  
    68   16   65 1  
    69   18   66 1  
    70   18   67 1  
    71   19   68 1  
    72   19   69 1  
    73   20   70 1  
    74   20   71 1  
    75   24   72 1  
    76   24   73 1  
    77   25   74 1  
    78   25   75 1  
    79   26   76 1  
    80   26   77 1  
    81   29   78 1  
    82   30   79 1  
    83   31   80 1  
    84   32   81 1  
    85   34   82 1  
    86   35   83 1  
    87   35   84 1  
    88   37   85 1  
    89   38   86 1  
    90   38   87 1  
    91   41   88 1  
    92   42   89 1  
    93   43   90 1  
    94   44   91 1  
    95   45   92 1  
    96   47   93 1  
    97   47   94 1  
@<TRIPOS>SUBSTRUCTURE
     1 6GN         1

