### 
### Created by X-TOOL on Mon Aug  2 16:12:07 2021
### 

@<TRIPOS>MOLECULE
6q9w_ligand
   65    69     1     0     0
SMALL
GAST_HUCK


@<TRIPOS>ATOM
      1 C1         17.9170    6.9770   -7.3980 C.ar      1 HRT         0.0944
      2 C2         16.6240    6.9290   -7.9340 C.ar      1 HRT         0.0203
      3 C11        19.2920    5.8230   -1.9100 C.ar      1 HRT        -0.0017
      4 C12        18.9460    5.9630   -0.5500 C.ar      1 HRT        -0.0551
      5 C13        19.6420    6.8680    0.2700 C.ar      1 HRT        -0.0541
      6 C14        20.6970    7.6480   -0.2420 C.ar      1 HRT         0.0333
      7 C15        21.0600    7.5050   -1.5890 C.ar      1 HRT        -0.0541
      8 C16        20.3600    6.6020   -2.4090 C.ar      1 HRT        -0.0551
      9 C18        19.8300    3.4760   -4.3330 C.2       1 HRT         0.1927
     10 C20        18.5500    4.8170   -2.8310 C.3       1 HRT         0.1423
     11 C21        18.4550    5.3360   -4.2470 C.2       1 HRT         0.1208
     12 C22        19.1950    4.5660   -5.0450 C.2       1 HRT         0.0927
     13 C24        18.2820    6.1590   -6.1920 C.2       1 HRT         0.1390
     14 C26        16.9970    7.3810   -4.4680 C.3       1 HRT         0.0648
     15 C27        16.0030    6.9190   -3.3700 C.3       1 HRT        -0.0345
     16 C28        17.7930    8.6540   -4.0710 C.3       1 HRT        -0.0345
     17 C30        19.7970    2.7140   -1.9670 C.3       1 HRT         0.0793
     18 N3         16.3330    7.6640   -9.0240 N.ar      1 HRT        -0.2556
     19 C4         17.2910    8.4350   -9.5890 C.ar      1 HRT         0.2360
     20 N5         18.5400    8.4810   -9.0900 N.ar      1 HRT        -0.2142
     21 C6         18.8730    7.7790   -8.0030 C.ar      1 HRT         0.1864
     22 O7         20.1530    7.8110   -7.4730 O.3       1 HRT        -0.2924
     23 C8         21.1280    8.6550   -8.1180 C.3       1 HRT         0.0671
     24 O9         17.0470    9.2000  -10.7090 O.3       1 HRT        -0.2825
     25 C10        15.6800    9.2070  -11.1690 C.3       1 HRT         0.0681
     26 CL1        21.5710    8.7820    0.7850 Cl        1 HRT        -0.0768
     27 N19        19.4340    3.6570   -3.0400 N.am      1 HRT        -0.2344
     28 N23        17.8950    6.3110   -4.9480 N.pl3     1 HRT        -0.2287
     29 N25        19.0440    5.1630   -6.3300 N.2       1 HRT        -0.3208
     30 O29        20.5700    2.6410   -4.8400 O.2       1 HRT        -0.4033
     31 C31        21.2040    2.7680   -1.3890 C.ar      1 HRT        -0.0174
     32 C32        21.5600    1.7880   -0.4470 C.ar      1 HRT        -0.0580
     33 C33        22.8310    1.8020    0.1180 C.ar      1 HRT        -0.0680
     34 C34        23.7320    2.8050   -0.2490 C.ar      1 HRT        -0.0548
     35 C35        23.3730    3.7810   -1.1850 C.ar      1 HRT         0.0338
     36 C36        22.1070    3.7660   -1.7560 C.ar      1 HRT        -0.0443
     37 CL2        24.4940    5.0210   -1.6580 Cl        1 HRT        -0.0725
     38 C38        19.4770    1.2420   -2.3450 C.3       1 HRT        -0.0315
     39 H1         15.8646    6.3059   -7.4756 H         1 HRT         0.0874
     40 H2         18.1393    5.3697   -0.1349 H         1 HRT         0.0563
     41 H3         19.3624    6.9671    1.3126 H         1 HRT         0.0606
     42 H4         21.8774    8.0886   -1.9968 H         1 HRT         0.0606
     43 H5         20.6469    6.5011   -3.4495 H         1 HRT         0.0563
     44 H6         17.5690    4.5474   -2.4128 H         1 HRT         0.0938
     45 H7         16.3762    7.6651   -5.3305 H         1 HRT         0.0648
     46 H8         15.3722    7.7673   -3.0661 H         1 HRT         0.0259
     47 H9         16.5643    6.5491   -2.4993 H         1 HRT         0.0259
     48 H10        15.3677    6.1131   -3.7661 H         1 HRT         0.0259
     49 H11        18.4768    8.9284   -4.8878 H         1 HRT         0.0259
     50 H12        18.3736    8.4537   -3.1584 H         1 HRT         0.0259
     51 H13        17.0925    9.4816   -3.8857 H         1 HRT         0.0259
     52 H14        19.1306    2.9756   -1.1319 H         1 HRT         0.0721
     53 H15        22.0889    8.5761   -7.5884 H         1 HRT         0.0592
     54 H16        20.7816    9.6988   -8.0955 H         1 HRT         0.0592
     55 H17        21.2574    8.3340   -9.1621 H         1 HRT         0.0592
     56 H18        15.5969    9.8440  -12.0620 H         1 HRT         0.0591
     57 H19        15.0281    9.6012  -10.3755 H         1 HRT         0.0591
     58 H20        15.3724    8.1812  -11.4204 H         1 HRT         0.0591
     59 H21        20.8464    1.0235   -0.1615 H         1 HRT         0.0559
     60 H22        23.1196    1.0426    0.8357 H         1 HRT         0.0599
     61 H23        24.7200    2.8272    0.1964 H         1 HRT         0.0565
     62 H24        21.8235    4.5220   -2.4793 H         1 HRT         0.0562
     63 H25        19.7648    0.5796   -1.5153 H         1 HRT         0.0274
     64 H26        20.0404    0.9645   -3.2481 H         1 HRT         0.0274
     65 H27        18.3992    1.1393   -2.5392 H         1 HRT         0.0274
@<TRIPOS>BOND
     1    1    2 ar 
     2   13    1 1  
     3    1   21 ar 
     4    2   18 ar 
     5    3    4 ar 
     6    3    8 ar 
     7   10    3 1  
     8    4    5 ar 
     9    5    6 ar 
    10    7    6 ar 
    11    6   26 1  
    12    8    7 ar 
    13   12    9 1  
    14    9   27 am 
    15    9   30 2  
    16   11   10 1  
    17   10   27 1  
    18   11   12 2  
    19   28   11 1  
    20   29   12 1  
    21   28   13 1  
    22   13   29 2  
    23   14   15 1  
    24   14   16 1  
    25   14   28 1  
    26   27   17 1  
    27   17   31 1  
    28   17   38 1  
    29   18   19 ar 
    30   19   20 ar 
    31   19   24 1  
    32   20   21 ar 
    33   21   22 1  
    34   22   23 1  
    35   24   25 1  
    36   31   32 ar 
    37   31   36 ar 
    38   32   33 ar 
    39   33   34 ar 
    40   34   35 ar 
    41   35   36 ar 
    42   35   37 1  
    43    2   39 1  
    44    4   40 1  
    45    5   41 1  
    46    7   42 1  
    47    8   43 1  
    48   10   44 1  
    49   14   45 1  
    50   15   46 1  
    51   15   47 1  
    52   15   48 1  
    53   16   49 1  
    54   16   50 1  
    55   16   51 1  
    56   17   52 1  
    57   23   53 1  
    58   23   54 1  
    59   23   55 1  
    60   25   56 1  
    61   25   57 1  
    62   25   58 1  
    63   32   59 1  
    64   33   60 1  
    65   34   61 1  
    66   36   62 1  
    67   38   63 1  
    68   38   64 1  
    69   38   65 1  
@<TRIPOS>SUBSTRUCTURE
     1 HRT         1

