6q9w_ligand
  -I-interpret- 

 65 69  0  0  0  0  0  0  0  0999 V2000
   17.9170    6.9770   -7.3980 C   0  0  0  0  0
   16.6240    6.9290   -7.9340 C   0  0  0  0  0
   19.2920    5.8230   -1.9100 C   0  0  0  0  0
   18.9460    5.9630   -0.5500 C   0  0  0  0  0
   19.6420    6.8680    0.2700 C   0  0  0  0  0
   20.6970    7.6480   -0.2420 C   0  0  0  0  0
   21.0600    7.5050   -1.5890 C   0  0  0  0  0
   20.3600    6.6020   -2.4090 C   0  0  0  0  0
   19.8300    3.4760   -4.3330 C   0  0  0  0  0
   18.5500    4.8170   -2.8310 C   0  0  0  0  0
   18.4550    5.3360   -4.2470 C   0  0  0  0  0
   19.1950    4.5660   -5.0450 C   0  0  0  0  0
   18.2820    6.1590   -6.1920 C   0  0  0  0  0
   16.9970    7.3810   -4.4680 C   0  0  0  0  0
   16.0030    6.9190   -3.3700 C   0  0  0  0  0
   17.7930    8.6540   -4.0710 C   0  0  0  0  0
   19.7970    2.7140   -1.9670 C   0  0  0  0  0
   16.3330    7.6640   -9.0240 N   0  0  0  0  0
   17.2910    8.4350   -9.5890 C   0  0  0  0  0
   18.5400    8.4810   -9.0900 N   0  0  0  0  0
   18.8730    7.7790   -8.0030 C   0  0  0  0  0
   20.1530    7.8110   -7.4730 O   0  0  0  0  0
   21.1280    8.6550   -8.1180 C   0  0  0  0  0
   17.0470    9.2000  -10.7090 O   0  0  0  0  0
   15.6800    9.2070  -11.1690 C   0  0  0  0  0
   21.5710    8.7820    0.7850 Cl  0  0  0  0  0
   19.4340    3.6570   -3.0400 N   0  0  0  0  0
   17.8950    6.3110   -4.9480 N   0  0  0  0  0
   19.0440    5.1630   -6.3300 N   0  0  0  0  0
   20.5700    2.6410   -4.8400 O   0  0  0  0  0
   21.2040    2.7680   -1.3890 C   0  0  0  0  0
   21.5600    1.7880   -0.4470 C   0  0  0  0  0
   22.8310    1.8020    0.1180 C   0  0  0  0  0
   23.7320    2.8050   -0.2490 C   0  0  0  0  0
   23.3730    3.7810   -1.1850 C   0  0  0  0  0
   22.1070    3.7660   -1.7560 C   0  0  0  0  0
   24.4940    5.0210   -1.6580 Cl  0  0  0  0  0
   19.4770    1.2420   -2.3450 C   0  0  0  0  0
   15.8604    6.3025   -7.4731 H   0  0  0  0  0
   18.1348    5.3664   -0.1326 H   0  0  0  0  0
   19.3608    6.9677    1.3184 H   0  0  0  0  0
   21.8820    8.0918   -1.9991 H   0  0  0  0  0
   20.6484    6.5006   -3.4552 H   0  0  0  0  0
   17.5826    4.6225   -2.3680 H   0  0  0  0  0
   16.3622    7.6489   -5.3126 H   0  0  0  0  0
   16.5522    6.6945   -2.4557 H   0  0  0  0  0
   15.2822    7.7135   -3.1766 H   0  0  0  0  0
   15.4786    6.0256   -3.7090 H   0  0  0  0  0
   17.0978    9.4732   -3.8876 H   0  0  0  0  0
   18.3678    8.4542   -3.1667 H   0  0  0  0  0
   18.4702    8.9249   -4.8810 H   0  0  0  0  0
   19.1574    3.0832   -1.1654 H   0  0  0  0  0
   21.2553    8.3360   -9.1525 H   0  0  0  0  0
   20.7836    9.6889   -8.0951 H   0  0  0  0  0
   22.0796    8.5759   -7.5924 H   0  0  0  0  0
   15.3765    8.1901  -11.4177 H   0  0  0  0  0
   15.0351    9.5978  -10.3819 H   0  0  0  0  0
   15.5990    9.8384  -12.0538 H   0  0  0  0  0
   20.8425    1.0193   -0.1599 H   0  0  0  0  0
   23.1212    1.0384    0.8396 H   0  0  0  0  0
   24.7255    2.8273    0.1989 H   0  0  0  0  0
   21.8220    4.5261   -2.4833 H   0  0  0  0  0
   18.4088    1.1416   -2.5372 H   0  0  0  0  0
   20.0358    0.9683   -3.2399 H   0  0  0  0  0
   19.7626    0.5866   -1.5222 H   0  0  0  0  0
  1  2  4  0  0  0
 13  1  1  0  0  0
  1 21  4  0  0  0
  2 18  4  0  0  0
  3  4  4  0  0  0
  3  8  4  0  0  0
 10  3  1  0  0  0
  4  5  4  0  0  0
  5  6  4  0  0  0
  7  6  4  0  0  0
  6 26  1  0  0  0
  8  7  4  0  0  0
 12  9  1  0  0  0
  9 27  1  0  0  0
  9 30  2  0  0  0
 11 10  1  0  0  0
 10 27  1  0  0  0
 11 12  4  0  0  0
 28 11  4  0  0  0
 29 12  4  0  0  0
 28 13  4  0  0  0
 13 29  4  0  0  0
 14 15  1  0  0  0
 14 16  1  0  0  0
 14 28  1  0  0  0
 27 17  1  0  0  0
 17 31  1  0  0  0
 17 38  1  0  0  0
 18 19  4  0  0  0
 19 20  4  0  0  0
 19 24  1  0  0  0
 20 21  4  0  0  0
 21 22  1  0  0  0
 22 23  1  0  0  0
 24 25  1  0  0  0
 31 32  4  0  0  0
 31 36  4  0  0  0
 32 33  4  0  0  0
 33 34  4  0  0  0
 34 35  4  0  0  0
 35 36  4  0  0  0
 35 37  1  0  0  0
  2 39  1  0  0  0
  4 40  1  0  0  0
  5 41  1  0  0  0
  7 42  1  0  0  0
  8 43  1  0  0  0
 10 44  1  0  0  0
 14 45  1  0  0  0
 15 46  1  0  0  0
 15 47  1  0  0  0
 15 48  1  0  0  0
 16 49  1  0  0  0
 16 50  1  0  0  0
 16 51  1  0  0  0
 17 52  1  0  0  0
 23 53  1  0  0  0
 23 54  1  0  0  0
 23 55  1  0  0  0
 25 56  1  0  0  0
 25 57  1  0  0  0
 25 58  1  0  0  0
 32 59  1  0  0  0
 33 60  1  0  0  0
 34 61  1  0  0  0
 36 62  1  0  0  0
 38 63  1  0  0  0
 38 64  1  0  0  0
 38 65  1  0  0  0
M  END
$$$$
