5eb2_ligand
  -I-interpret- 

 27 28  0  0  0  0  0  0  0  0999 V2000
  -35.7330  -57.2740   -6.4680 N   0  3  0  0  0
  -36.4260  -56.7720   -7.6520 C   0  0  0  0  0
  -37.8890  -57.2380   -7.6900 C   0  0  0  0  0
  -38.2530  -58.1430   -8.4520 O   0  0  0  0  0
  -35.6900  -57.2120   -8.9270 C   0  0  0  0  0
  -36.0930  -56.4370  -10.1580 C   0  0  0  0  0
  -36.9190  -56.8610  -11.1710 C   0  0  0  0  0
  -35.6960  -55.0970  -10.4980 C   0  0  0  0  0
  -37.0510  -55.8670  -12.1170 N   0  0  0  0  0
  -36.3130  -54.7760  -11.7270 C   0  0  0  0  0
  -34.8780  -54.1400   -9.8810 C   0  0  0  0  0
  -36.1340  -53.5360  -12.3540 C   0  0  0  0  0
  -34.7020  -52.9000  -10.5050 C   0  0  0  0  0
  -35.3270  -52.6130  -11.7290 C   0  0  0  0  0
  -38.7420  -56.7170   -6.9600 O   0  0  0  0  0
  -36.2324  -56.9744   -5.6306 H   0  0  0  0  0
  -35.7017  -58.2930   -6.5003 H   0  0  0  0  0
  -34.7827  -56.9039   -6.4492 H   0  0  0  0  0
  -36.4270  -55.6832   -7.6006 H   0  0  0  0  0
  -37.4995  -58.4567   -8.9573 H   0  0  0  0  0
  -35.9407  -58.2580   -9.1037 H   0  0  0  0  0
  -34.6261  -57.0378   -8.7659 H   0  0  0  0  0
  -37.3988  -57.8385  -11.2194 H   0  0  0  0  0
  -34.3879  -54.3580   -8.9321 H   0  0  0  0  0
  -36.6174  -53.3100  -13.3044 H   0  0  0  0  0
  -34.0708  -52.1463  -10.0342 H   0  0  0  0  0
  -35.1699  -51.6396  -12.1936 H   0  0  0  0  0
  1  2  1  0  0  0
  2  3  1  0  0  0
  2  5  1  0  0  0
  3  4  1  0  0  0
  3 15  2  0  0  0
  5  6  1  0  0  0
  6  7  4  0  0  0
  6  8  4  0  0  0
  7  9  4  0  0  0
  8 10  4  0  0  0
  8 11  4  0  0  0
  9 10  4  0  0  0
 10 12  4  0  0  0
 11 13  4  0  0  0
 12 14  4  0  0  0
 13 14  4  0  0  0
  1 16  1  0  0  0
  1 17  1  0  0  0
  1 18  1  0  0  0
  2 19  1  0  0  0
  4 20  1  0  0  0
  5 21  1  0  0  0
  5 22  1  0  0  0
  7 23  1  0  0  0
 11 24  1  0  0  0
 12 25  1  0  0  0
 13 26  1  0  0  0
 14 27  1  0  0  0
M  END
$$$$
