6dji_ligand
  -I-interpret- 

 19 19  0  0  0  0  0  0  0  0999 V2000
    8.1510  -14.1300  -34.5720 C   0  0  0  0  0
    6.8230  -11.9490  -34.8290 C   0  0  0  0  0
    6.9480  -13.4300  -34.4650 C   0  0  0  0  0
    5.8150  -14.0780  -34.0040 C   0  0  0  0  0
    5.8570  -15.4150  -33.6590 C   0  0  0  0  0
    7.0440  -16.1120  -33.7750 C   0  0  0  0  0
    8.1890  -15.4700  -34.2260 C   0  0  0  0  0
    9.4440  -13.4800  -35.0740 C   0  0  0  0  0
    7.4080  -11.0770  -34.1350 O   0  0  0  0  0
    6.1400  -11.6070  -35.8290 O   0  0  0  0  0
    9.3890  -16.1870  -34.3360 O   0  0  0  0  0
    9.4370  -12.4050  -35.7310 O   0  0  0  0  0
   10.5360  -14.0580  -34.8390 O   0  0  0  0  0
    4.8790  -13.5270  -33.9122 H   0  0  0  0  0
    4.9593  -15.9167  -33.2976 H   0  0  0  0  0
    7.0816  -17.1690  -33.5116 H   0  0  0  0  0
    7.8802  -11.5049  -33.4170 H   0  0  0  0  0
    9.2446  -17.0948  -34.0590 H   0  0  0  0  0
    8.5336  -12.0936  -35.8234 H   0  0  0  0  0
  1  3  4  0  0  0
  1  7  4  0  0  0
  1  8  1  0  0  0
  3  2  1  0  0  0
  2  9  1  0  0  0
  2 10  2  0  0  0
  3  4  4  0  0  0
  4  5  4  0  0  0
  5  6  4  0  0  0
  6  7  4  0  0  0
  7 11  1  0  0  0
  8 12  1  0  0  0
  8 13  2  0  0  0
  4 14  1  0  0  0
  5 15  1  0  0  0
  6 16  1  0  0  0
  9 17  1  0  0  0
 11 18  1  0  0  0
 12 19  1  0  0  0
M  END
$$$$
