5f4p_ligand
  -I-interpret- 

 56 58  0  0  0  0  0  0  0  0999 V2000
  -16.9620  -59.5240   22.1640 C   0  0  0  0  0
  -15.1290  -59.4540   18.6920 C   0  0  0  0  0
  -13.4140  -57.7780   18.0590 C   0  0  0  0  0
  -13.0240  -56.3330   17.8260 C   0  0  0  0  0
  -11.2350  -54.6670   17.1630 C   0  0  0  0  0
  -11.4750  -53.6570   18.1010 C   0  0  0  0  0
  -11.0380  -52.3480   17.8350 C   0  0  0  0  0
  -10.3580  -52.0520   16.6300 C   0  0  0  0  0
  -10.1160  -53.0550   15.7010 C   0  0  0  0  0
  -19.2340  -58.7870   23.7450 N   0  3  0  0  0
  -19.6230  -59.3790   24.9630 C   0  0  0  0  0
  -19.4480  -59.7190   22.6800 C   0  0  0  0  0
   -9.8250  -50.4590   16.3040 Cl  0  0  0  0  0
  -13.1320  -62.5650   17.7980 N   0  0  0  0  0
  -13.3160  -62.0980   16.6000 C   0  0  0  0  0
  -14.5930  -61.4690   16.2390 N   0  0  0  0  0
  -15.6520  -61.3600   17.2190 C   0  0  0  0  0
  -15.9200  -59.9090   17.5170 C   0  0  0  0  0
  -17.3540  -59.6710   17.8480 C   0  0  0  0  0
  -17.4220  -59.6340   19.3620 C   0  0  0  0  0
  -18.5160  -59.7050   20.2530 C   0  0  0  0  0
  -18.2710  -59.6460   21.6760 C   0  0  0  0  0
  -15.8440  -59.4560   21.2480 C   0  0  0  0  0
  -16.0900  -59.5100   19.8670 C   0  0  0  0  0
  -14.7540  -58.0960   18.4760 N   0  0  0  0  0
  -12.5810  -58.6870   17.8890 O   0  0  0  0  0
  -13.8630  -55.4380   17.9980 O   0  0  0  0  0
  -11.6690  -56.0180   17.4070 N   0  0  0  0  0
  -10.5610  -54.3810   15.9750 C   0  0  0  0  0
  -12.3850  -62.1920   15.7400 N   0  0  0  0  0
  -11.2770  -51.3500   18.7590 F   0  0  0  0  0
  -16.7859  -59.4802   23.2388 H   0  0  0  0  0
  -14.2369  -60.0579   18.8581 H   0  0  0  0  0
  -11.9968  -53.8836   19.0308 H   0  0  0  0  0
   -9.5914  -52.8308   14.7722 H   0  0  0  0  0
  -18.2465  -58.5352   23.7865 H   0  0  0  0  0
  -19.7874  -57.9461   23.5807 H   0  0  0  0  0
  -20.6789  -59.6451   24.9153 H   0  0  0  0  0
  -19.0284  -60.2760   25.1357 H   0  0  0  0  0
  -19.4615  -58.6722   25.7769 H   0  0  0  0  0
  -20.3768  -59.4721   22.1657 H   0  0  0  0  0
  -19.5106  -60.7271   23.0899 H   0  0  0  0  0
  -12.2446  -63.0038   18.0436 H   0  0  0  0  0
  -13.8749  -62.4929   18.4932 H   0  0  0  0  0
  -14.7337  -61.1082   15.2954 H   0  0  0  0  0
  -15.3500  -61.8673   18.1353 H   0  0  0  0  0
  -16.5577  -61.8213   16.8252 H   0  0  0  0  0
  -15.6415  -59.3586   16.6183 H   0  0  0  0  0
  -17.9926  -60.4542   17.4394 H   0  0  0  0  0
  -17.7150  -58.7404   17.4100 H   0  0  0  0  0
  -19.5325  -59.8031   19.8718 H   0  0  0  0  0
  -14.8254  -59.3642   21.6249 H   0  0  0  0  0
  -15.4351  -57.3499   18.6169 H   0  0  0  0  0
  -11.0025  -56.7798   17.2814 H   0  0  0  0  0
  -10.3739  -55.1758   15.2529 H   0  0  0  0  0
  -11.5001  -62.6320   15.9924 H   0  0  0  0  0
 22  1  4  0  0  0
  1 23  4  0  0  0
  2 18  1  0  0  0
 24  2  1  0  0  0
  2 25  1  0  0  0
  3  4  1  0  0  0
 25  3  1  0  0  0
  3 26  2  0  0  0
  4 27  2  0  0  0
  4 28  1  0  0  0
  5  6  4  0  0  0
 28  5  1  0  0  0
  5 29  4  0  0  0
  6  7  4  0  0  0
  7  8  4  0  0  0
  7 31  1  0  0  0
  9  8  4  0  0  0
  8 13  1  0  0  0
 29  9  4  0  0  0
 10 11  1  0  0  0
 12 10  1  0  0  0
 22 12  1  0  0  0
 15 14  1  0  0  0
 16 15  1  0  0  0
 15 30  2  0  0  0
 17 16  1  0  0  0
 18 17  1  0  0  0
 19 18  1  0  0  0
 20 19  1  0  0  0
 21 20  4  0  0  0
 20 24  4  0  0  0
 21 22  4  0  0  0
 23 24  4  0  0  0
  1 32  1  0  0  0
  2 33  1  0  0  0
  6 34  1  0  0  0
  9 35  1  0  0  0
 10 36  1  0  0  0
 10 37  1  0  0  0
 11 38  1  0  0  0
 11 39  1  0  0  0
 11 40  1  0  0  0
 12 41  1  0  0  0
 12 42  1  0  0  0
 14 43  1  0  0  0
 14 44  1  0  0  0
 16 45  1  0  0  0
 17 46  1  0  0  0
 17 47  1  0  0  0
 18 48  1  0  0  0
 19 49  1  0  0  0
 19 50  1  0  0  0
 21 51  1  0  0  0
 23 52  1  0  0  0
 25 53  1  0  0  0
 28 54  1  0  0  0
 29 55  1  0  0  0
 30 56  1  0  0  0
M  END
$$$$
