5vk0_ligand
  -I-interpret- 

211215  0  0  0  0  0  0  0  0999 V2000
  -16.8430   -5.0710  -19.6490 C   0  0  0  0  0
  -16.6120   -5.6090  -18.5470 O   0  0  0  0  0
  -17.9780   -4.0280  -19.6540 C   0  0  0  0  0
  -17.1960   -6.0810  -20.4290 N   0  3  0  0  0
  -16.9730   -7.5540  -20.3900 C   0  0  0  0  0
  -15.5030   -7.9110  -20.2820 C   0  0  0  0  0
  -14.6230   -7.3940  -21.0080 O   0  0  0  0  0
  -17.6380   -8.2680  -21.5910 C   0  0  0  0  0
  -19.0520   -8.0900  -21.5010 O   0  0  0  0  0
  -17.3240   -9.7470  -21.6220 C   0  0  0  0  0
  -15.2440   -8.8320  -19.3820 N   0  0  0  0  0
  -13.8760   -9.2550  -19.0980 C   0  0  0  0  0
  -13.3200  -10.1460  -20.2100 C   0  0  0  0  0
  -14.0730  -10.7680  -20.9630 O   0  0  0  0  0
  -13.8510  -10.0000  -17.7720 C   0  0  0  0  0
  -14.3600  -11.3260  -17.9280 O   0  0  0  0  0
  -11.9950  -10.2150  -20.3150 N   0  0  0  0  0
  -11.3400  -11.1110  -21.2860 C   0  0  0  0  0
  -11.7210  -12.5160  -20.9040 C   0  0  0  0  0
  -12.1520  -13.2760  -21.7400 O   0  0  0  0  0
   -9.8180  -10.9610  -21.2000 C   0  0  0  0  0
   -9.0240  -11.9150  -22.0750 C   0  0  0  0  0
   -9.0860  -11.8650  -23.4560 C   0  0  0  0  0
   -8.1170  -12.7820  -21.4970 C   0  0  0  0  0
   -8.3050  -12.7000  -24.2320 C   0  0  0  0  0
   -7.3490  -13.6310  -22.2610 C   0  0  0  0  0
   -7.4250  -13.5750  -23.6270 C   0  0  0  0  0
  -11.5340  -12.8130  -19.6170 N   0  0  0  0  0
  -12.0030  -14.0080  -18.9400 C   0  0  0  0  0
  -13.2850  -14.5890  -19.5150 C   0  0  0  0  0
  -13.2860  -15.7200  -19.9570 O   0  0  0  0  0
  -12.1870  -13.7090  -17.4750 C   0  0  0  0  0
  -14.3370  -13.7790  -19.5050 N   0  0  0  0  0
  -15.6950  -14.1630  -19.9460 C   0  0  0  0  0
  -15.7990  -14.3330  -21.4640 C   0  0  0  0  0
  -16.3830  -15.3110  -21.9280 O   0  0  0  0  0
  -16.6980  -13.1040  -19.4440 C   0  0  0  0  0
  -18.1400  -13.2220  -19.9460 C   0  0  0  0  0
  -19.1080  -12.3290  -19.1400 C   0  0  0  0  0
  -20.3580  -12.4860  -19.2610 O   0  0  0  0  0
  -18.6230  -11.4790  -18.3740 O   0  0  0  0  0
  -15.2140  -13.4100  -22.2250 N   0  0  0  0  0
  -15.1750  -13.5190  -23.6920 C   0  0  0  0  0
  -14.5610  -14.8370  -24.1410 C   0  0  0  0  0
  -15.0270  -15.4370  -25.0960 O   0  0  0  0  0
  -14.3710  -12.3850  -24.3300 C   0  0  0  0  0
  -15.1260  -11.0980  -24.5710 C   0  0  0  0  0
  -16.2870  -11.0600  -25.3440 C   0  0  0  0  0
  -14.6330   -9.8950  -24.0810 C   0  0  0  0  0
  -16.9660   -9.8460  -25.5500 C   0  0  0  0  0
  -15.2740   -8.6970  -24.3020 C   0  0  0  0  0
  -16.4370   -8.6680  -25.0280 C   0  0  0  0  0
  -17.0060   -7.4130  -25.2080 O   0  0  0  0  0
  -13.4780  -15.2090  -23.4550 N   0  0  0  0  0
  -12.7750  -16.4630  -23.6280 C   0  0  0  0  0
  -13.5960  -17.5910  -23.0620 C   0  0  0  0  0
  -13.2260  -18.7330  -23.3540 O   0  0  0  0  0
  -11.3720  -16.4450  -22.9420 C   0  0  0  0  0
  -10.4000  -17.5620  -23.4460 C   0  0  0  0  0
  -10.1290  -18.7260  -22.8100 C   0  0  0  0  0
   -9.5920  -17.5820  -24.6570 C   0  0  0  0  0
   -9.2320  -19.4780  -23.5310 N   0  0  0  0  0
   -8.8800  -18.8090  -24.6630 C   0  0  0  0  0
   -9.4030  -16.6950  -25.7290 C   0  0  0  0  0
   -7.9860  -19.1710  -25.7040 C   0  0  0  0  0
   -8.5240  -17.0580  -26.7660 C   0  0  0  0  0
   -7.8250  -18.2850  -26.7350 C   0  0  0  0  0
  -16.6710  -18.6830  -22.2660 C   0  0  0  0  0
  -20.8910  -19.9010  -21.2030 S   0  0  0  0  0
  -14.4160  -17.3950  -22.0650 N   0  0  0  0  0
  -15.3500  -18.3490  -21.4580 C   0  0  0  0  0
  -15.7800  -17.8590  -20.0660 C   0  0  0  0  0
  -16.3060  -18.9950  -19.1440 C   0  0  0  0  0
  -17.3190  -18.6010  -18.0510 C   0  0  0  0  0
  -18.4100  -19.6670  -17.9240 C   0  0  0  0  0
  -19.4400  -19.5350  -19.0240 N   0  0  0  0  0
  -16.6750  -19.7140  -22.9960 O   0  0  0  0  0
  -19.4140  -20.3990  -20.2370 C   0  0  0  0  0
  -16.8800  -17.7800  -23.2070 N   0  3  0  0  0
  -17.8350  -17.7040  -24.3740 C   0  0  0  0  0
  -17.2650  -18.4230  -25.6090 C   0  0  0  0  0
  -17.9830  -19.1430  -26.2920 O   0  0  0  0  0
  -18.2620  -16.2420  -24.6860 C   0  0  0  0  0
  -19.1990  -15.6080  -23.6290 C   0  0  0  0  0
  -19.1740  -14.0680  -23.5900 C   0  0  0  0  0
  -20.6340  -16.1150  -23.8020 C   0  0  0  0  0
  -15.9710  -18.2060  -25.8620 N   0  0  0  0  0
  -15.1690  -18.9660  -26.8420 C   0  0  0  0  0
  -15.1310  -20.5120  -26.6660 C   0  0  0  0  0
  -15.3980  -21.2500  -27.6290 O   0  0  0  0  0
  -13.7500  -18.3780  -26.8370 C   0  0  0  0  0
  -12.7040  -18.9490  -27.7810 C   0  0  0  0  0
  -12.2440  -20.3350  -27.3540 C   0  0  0  0  0
  -13.1430  -18.8540  -29.2380 C   0  0  0  0  0
  -14.7220  -21.0020  -25.5000 N   0  0  0  0  0
  -15.0830  -22.3550  -25.0470 C   0  0  0  0  0
  -16.6310  -22.4320  -24.8080 C   0  0  0  0  0
  -17.3920  -21.7650  -25.4940 O   0  0  0  0  0
  -14.2970  -22.7090  -23.7710 C   0  0  0  0  0
  -12.9790  -22.1680  -23.7500 O   0  0  0  0  0
  -17.0840  -23.2440  -23.8520 N   0  0  0  0  0
  -18.5010  -23.3280  -23.4220 C   0  0  0  0  0
  -19.4060  -23.8570  -24.5500 C   0  0  0  0  0
  -20.0560  -24.9020  -24.3860 O   0  0  0  0  0
  -19.0350  -21.9890  -22.8320 C   0  0  0  0  0
  -18.8890  -21.7230  -21.0180 S   0  0  0  0  0
  -19.7660  -23.2520  -25.6060 N   0  0  0  0  0
  -15.9608   -4.5129  -19.9626 H   0  0  0  0  0
  -16.3458   -4.9380  -17.9141 H   0  0  0  0  0
  -18.1394   -3.6734  -20.6720 H   0  0  0  0  0
  -18.8927   -4.4865  -19.2783 H   0  0  0  0  0
  -17.7016   -3.1891  -19.0152 H   0  0  0  0  0
  -16.6170   -5.8593  -21.2390 H   0  0  0  0  0
  -18.1995   -6.0726  -20.2466 H   0  0  0  0  0
  -17.4568   -7.9158  -19.4828 H   0  0  0  0  0
  -17.2431   -7.8293  -22.5074 H   0  0  0  0  0
  -19.2547   -7.1518  -21.4811 H   0  0  0  0  0
  -17.6949  -10.2151  -20.7102 H   0  0  0  0  0
  -17.8064  -10.2015  -22.4874 H   0  0  0  0  0
  -16.2452   -9.8867  -21.6907 H   0  0  0  0  0
  -16.0153   -9.2608  -18.8706 H   0  0  0  0  0
  -13.2446   -8.3683  -19.0415 H   0  0  0  0  0
  -14.4746   -9.4652  -17.0556 H   0  0  0  0  0
  -12.8212  -10.0571  -17.4193 H   0  0  0  0  0
  -14.3358  -11.7785  -17.0817 H   0  0  0  0  0
  -11.4176   -9.6330  -19.7081 H   0  0  0  0  0
  -11.6511  -10.8716  -22.3028 H   0  0  0  0  0
   -9.5399  -11.1773  -20.1685 H   0  0  0  0  0
   -9.5829   -9.9532  -21.5423 H   0  0  0  0  0
   -9.7601  -11.1573  -23.9386 H   0  0  0  0  0
   -8.0072  -12.7940  -20.4126 H   0  0  0  0  0
   -8.3835  -12.6679  -25.3187 H   0  0  0  0  0
   -6.6819  -14.3462  -21.7798 H   0  0  0  0  0
   -6.7917  -14.2203  -24.2358 H   0  0  0  0  0
  -11.0133  -12.1379  -19.0570 H   0  0  0  0  0
  -11.2384  -14.7698  -19.0922 H   0  0  0  0  0
  -11.2347  -13.3958  -17.0470 H   0  0  0  0  0
  -12.9197  -12.9105  -17.3577 H   0  0  0  0  0
  -12.5393  -14.6051  -16.9641 H   0  0  0  0  0
  -14.1987  -12.8256  -19.1698 H   0  0  0  0  0
  -15.9287  -15.1374  -19.5169 H   0  0  0  0  0
  -16.3309  -12.1466  -19.8136 H   0  0  0  0  0
  -16.7475  -13.2291  -18.3623 H   0  0  0  0  0
  -18.4571  -14.2585  -19.8313 H   0  0  0  0  0
  -18.1659  -12.8998  -20.9870 H   0  0  0  0  0
  -20.5316  -13.1854  -19.8953 H   0  0  0  0  0
  -14.7797  -12.6029  -21.7774 H   0  0  0  0  0
  -16.2130  -13.4608  -24.0194 H   0  0  0  0  0
  -14.0553  -12.7447  -25.3093 H   0  0  0  0  0
  -13.5692  -12.1453  -23.6315 H   0  0  0  0  0
  -16.6701  -11.9773  -25.7911 H   0  0  0  0  0
  -13.7089   -9.9000  -23.5030 H   0  0  0  0  0
  -17.8988   -9.8270  -26.1136 H   0  0  0  0  0
  -14.8578   -7.7730  -23.9006 H   0  0  0  0  0
  -16.4711   -6.7532  -24.7606 H   0  0  0  0  0
  -13.1180  -14.5601  -22.7552 H   0  0  0  0  0
  -12.6234  -16.6098  -24.6974 H   0  0  0  0  0
  -11.5317  -16.6131  -21.8770 H   0  0  0  0  0
  -10.9105  -15.4859  -23.1771 H   0  0  0  0  0
  -10.5629  -19.0261  -21.8562 H   0  0  0  0  0
   -9.9288  -15.7406  -25.7574 H   0  0  0  0  0
   -7.4479  -20.1187  -25.6834 H   0  0  0  0  0
   -8.3800  -16.3807  -27.6078 H   0  0  0  0  0
   -7.1432  -18.5315  -27.5489 H   0  0  0  0  0
  -17.3806  -18.7657  -21.4427 H   0  0  0  0  0
  -14.4057  -16.4603  -21.6567 H   0  0  0  0  0
  -14.7700  -19.2716  -21.4357 H   0  0  0  0  0
  -16.5937  -17.1474  -20.2060 H   0  0  0  0  0
  -14.9024  -17.4267  -19.5853 H   0  0  0  0  0
  -15.4324  -19.3759  -18.6151 H   0  0  0  0  0
  -16.8321  -19.6891  -19.7994 H   0  0  0  0  0
  -17.7808  -17.6513  -18.3211 H   0  0  0  0  0
  -16.7966  -18.5129  -17.0984 H   0  0  0  0  0
  -18.9099  -19.5385  -16.9640 H   0  0  0  0  0
  -17.9448  -20.6498  -18.0010 H   0  0  0  0  0
  -20.1745  -18.8332  -18.9323 H   0  0  0  0  0
  -17.5297  -19.7975  -23.4251 H   0  0  0  0  0
  -16.0050  -17.8790  -23.7217 H   0  0  0  0  0
  -17.2712  -17.0350  -22.6306 H   0  0  0  0  0
  -18.7443  -18.2317  -24.0863 H   0  0  0  0  0
  -18.8111  -16.2638  -25.6273 H   0  0  0  0  0
  -17.3526  -15.6415  -24.7076 H   0  0  0  0  0
  -18.8046  -15.9319  -22.6659 H   0  0  0  0  0
  -18.1638  -13.7280  -23.3619 H   0  0  0  0  0
  -19.4803  -13.6762  -24.5600 H   0  0  0  0  0
  -19.8603  -13.7141  -22.8206 H   0  0  0  0  0
  -20.9941  -15.8504  -24.7962 H   0  0  0  0  0
  -20.6519  -17.1985  -23.6842 H   0  0  0  0  0
  -21.2736  -15.6557  -23.0483 H   0  0  0  0  0
  -15.5043  -17.4632  -25.3417 H   0  0  0  0  0
  -15.6686  -18.8478  -27.8035 H   0  0  0  0  0
  -13.3663  -18.5861  -25.8382 H   0  0  0  0  0
  -13.8767  -17.3433  -27.1554 H   0  0  0  0  0
  -11.8139  -18.3239  -27.7096 H   0  0  0  0  0
  -11.8084  -20.2805  -26.3563 H   0  0  0  0  0
  -13.0979  -21.0123  -27.3425 H   0  0  0  0  0
  -11.4973  -20.7016  -28.0583 H   0  0  0  0  0
  -14.0689  -19.4127  -29.3743 H   0  0  0  0  0
  -13.3062  -17.8085  -29.4995 H   0  0  0  0  0
  -12.3666  -19.2731  -29.8781 H   0  0  0  0  0
  -14.1381  -20.4206  -24.8988 H   0  0  0  0  0
  -14.8196  -23.0839  -25.8134 H   0  0  0  0  0
  -14.2073  -23.7946  -23.7309 H   0  0  0  0  0
  -14.8386  -22.2879  -22.9240 H   0  0  0  0  0
  -12.5428  -22.4225  -22.9335 H   0  0  0  0  0
  -16.4093  -23.8492  -23.3841 H   0  0  0  0  0
  -18.5324  -24.0523  -22.6080 H   0  0  0  0  0
  -20.1053  -21.9894  -23.0383 H   0  0  0  0  0
  -18.4249  -21.2092  -23.2879 H   0  0  0  0  0
  -20.5044  -23.6428  -26.1911 H   0  0  0  0  0
  -19.3169  -22.3749  -25.8696 H   0  0  0  0  0
  1  2  1  0  0  0
  1  3  1  0  0  0
  4  1  1  0  0  0
  5  4  1  0  0  0
  6  5  1  0  0  0
  5  8  1  0  0  0
  6  7  2  0  0  0
 11  6  1  0  0  0
  8  9  1  0  0  0
  8 10  1  0  0  0
 12 11  1  0  0  0
 13 12  1  0  0  0
 12 15  1  0  0  0
 13 14  2  0  0  0
 17 13  1  0  0  0
 15 16  1  0  0  0
 18 17  1  0  0  0
 19 18  1  0  0  0
 18 21  1  0  0  0
 19 20  2  0  0  0
 28 19  1  0  0  0
 21 22  1  0  0  0
 22 23  4  0  0  0
 22 24  4  0  0  0
 23 25  4  0  0  0
 24 26  4  0  0  0
 25 27  4  0  0  0
 26 27  4  0  0  0
 29 28  1  0  0  0
 30 29  1  0  0  0
 29 32  1  0  0  0
 30 31  2  0  0  0
 33 30  1  0  0  0
 34 33  1  0  0  0
 35 34  1  0  0  0
 34 37  1  0  0  0
 35 36  2  0  0  0
 42 35  1  0  0  0
 37 38  1  0  0  0
 38 39  1  0  0  0
 39 40  1  0  0  0
 39 41  2  0  0  0
 43 42  1  0  0  0
 44 43  1  0  0  0
 43 46  1  0  0  0
 44 45  2  0  0  0
 54 44  1  0  0  0
 46 47  1  0  0  0
 47 48  4  0  0  0
 47 49  4  0  0  0
 48 50  4  0  0  0
 49 51  4  0  0  0
 50 52  4  0  0  0
 51 52  4  0  0  0
 52 53  1  0  0  0
 55 54  1  0  0  0
 56 55  1  0  0  0
 55 58  1  0  0  0
 56 57  2  0  0  0
 70 56  1  0  0  0
 58 59  1  0  0  0
 59 60  4  0  0  0
 59 61  4  0  0  0
 60 62  4  0  0  0
 61 63  4  0  0  0
 61 64  4  0  0  0
 63 62  4  0  0  0
 63 65  4  0  0  0
 64 66  4  0  0  0
 65 67  4  0  0  0
 66 67  4  0  0  0
 71 68  1  0  0  0
 68 77  1  0  0  0
 68 79  1  0  0  0
 78 69  2  0  0  0
 71 70  1  0  0  0
 72 71  1  0  0  0
 73 72  1  0  0  0
 74 73  1  0  0  0
 75 74  1  0  0  0
 76 75  1  0  0  0
 76 78  1  0  0  0
 78106  1  0  0  0
 79 80  1  0  0  0
 80 81  1  0  0  0
 80 83  1  0  0  0
 81 82  2  0  0  0
 81 87  1  0  0  0
 83 84  1  0  0  0
 84 85  1  0  0  0
 84 86  1  0  0  0
 87 88  1  0  0  0
 88 89  1  0  0  0
 88 91  1  0  0  0
 89 90  2  0  0  0
 89 95  1  0  0  0
 91 92  1  0  0  0
 92 93  1  0  0  0
 92 94  1  0  0  0
 95 96  1  0  0  0
 96 97  1  0  0  0
 96 99  1  0  0  0
 97 98  2  0  0  0
 97101  1  0  0  0
 99100  1  0  0  0
101102  1  0  0  0
102103  1  0  0  0
102105  1  0  0  0
103104  2  0  0  0
103107  1  0  0  0
105106  1  0  0  0
  1108  1  0  0  0
  2109  1  0  0  0
  3110  1  0  0  0
  3111  1  0  0  0
  3112  1  0  0  0
  4113  1  0  0  0
  4114  1  0  0  0
  5115  1  0  0  0
  8116  1  0  0  0
  9117  1  0  0  0
 10118  1  0  0  0
 10119  1  0  0  0
 10120  1  0  0  0
 11121  1  0  0  0
 12122  1  0  0  0
 15123  1  0  0  0
 15124  1  0  0  0
 16125  1  0  0  0
 17126  1  0  0  0
 18127  1  0  0  0
 21128  1  0  0  0
 21129  1  0  0  0
 23130  1  0  0  0
 24131  1  0  0  0
 25132  1  0  0  0
 26133  1  0  0  0
 27134  1  0  0  0
 28135  1  0  0  0
 29136  1  0  0  0
 32137  1  0  0  0
 32138  1  0  0  0
 32139  1  0  0  0
 33140  1  0  0  0
 34141  1  0  0  0
 37142  1  0  0  0
 37143  1  0  0  0
 38144  1  0  0  0
 38145  1  0  0  0
 40146  1  0  0  0
 42147  1  0  0  0
 43148  1  0  0  0
 46149  1  0  0  0
 46150  1  0  0  0
 48151  1  0  0  0
 49152  1  0  0  0
 50153  1  0  0  0
 51154  1  0  0  0
 53155  1  0  0  0
 54156  1  0  0  0
 55157  1  0  0  0
 58158  1  0  0  0
 58159  1  0  0  0
 60160  1  0  0  0
 64161  1  0  0  0
 65162  1  0  0  0
 66163  1  0  0  0
 67164  1  0  0  0
 68165  1  0  0  0
 70166  1  0  0  0
 71167  1  0  0  0
 72168  1  0  0  0
 72169  1  0  0  0
 73170  1  0  0  0
 73171  1  0  0  0
 74172  1  0  0  0
 74173  1  0  0  0
 75174  1  0  0  0
 75175  1  0  0  0
 76176  1  0  0  0
 77177  1  0  0  0
 79178  1  0  0  0
 79179  1  0  0  0
 80180  1  0  0  0
 83181  1  0  0  0
 83182  1  0  0  0
 84183  1  0  0  0
 85184  1  0  0  0
 85185  1  0  0  0
 85186  1  0  0  0
 86187  1  0  0  0
 86188  1  0  0  0
 86189  1  0  0  0
 87190  1  0  0  0
 88191  1  0  0  0
 91192  1  0  0  0
 91193  1  0  0  0
 92194  1  0  0  0
 93195  1  0  0  0
 93196  1  0  0  0
 93197  1  0  0  0
 94198  1  0  0  0
 94199  1  0  0  0
 94200  1  0  0  0
 95201  1  0  0  0
 96202  1  0  0  0
 99203  1  0  0  0
 99204  1  0  0  0
100205  1  0  0  0
101206  1  0  0  0
102207  1  0  0  0
105208  1  0  0  0
105209  1  0  0  0
107210  1  0  0  0
107211  1  0  0  0
M  END
$$$$
