### 
### Created by X-TOOL on Mon Aug  2 16:12:15 2021
### 

@<TRIPOS>MOLECULE
5vk0_ligand
  211   215     1     0     0
SMALL
GAST_HUCK


@<TRIPOS>ATOM
      1 C         -16.8430   -5.0710  -19.6490 C.3       1 ACE         0.0797
      2 O         -16.6120   -5.6090  -18.5470 O.3       1 ACE        -0.3533
      3 CH3       -17.9780   -4.0280  -19.6540 C.3       1 ACE         0.0048
      4 N         -17.1960   -6.0810  -20.4290 N.4       1 ACE         0.2695
      5 CA        -16.9730   -7.5540  -20.3900 C.3       1 ACE         0.0953
      6 C         -15.5030   -7.9110  -20.2820 C.2       1 ACE         0.2295
      7 O         -14.6230   -7.3940  -21.0080 O.2       1 ACE        -0.3906
      8 CB        -17.6380   -8.2680  -21.5910 C.3       1 ACE         0.1121
      9 OG1       -19.0520   -8.0900  -21.5010 O.3       1 ACE        -0.3840
     10 CG2       -17.3240   -9.7470  -21.6220 C.3       1 ACE        -0.0313
     11 N         -15.2440   -8.8320  -19.3820 N.am      1 ACE        -0.2588
     12 CA        -13.8760   -9.2550  -19.0980 C.3       1 ACE         0.1540
     13 C         -13.3200  -10.1460  -20.2100 C.2       1 ACE         0.2063
     14 O         -14.0730  -10.7680  -20.9630 O.2       1 ACE        -0.3943
     15 CB        -13.8510  -10.0000  -17.7720 C.3       1 ACE         0.0843
     16 OG        -14.3600  -11.3260  -17.9280 O.3       1 ACE        -0.3903
     17 N         -11.9950  -10.2150  -20.3150 N.am      1 ACE        -0.2619
     18 CA        -11.3400  -11.1110  -21.2860 C.3       1 ACE         0.1404
     19 C         -11.7210  -12.5160  -20.9040 C.2       1 ACE         0.2059
     20 O         -12.1520  -13.2760  -21.7400 O.2       1 ACE        -0.3942
     21 CB         -9.8180  -10.9610  -21.2000 C.3       1 ACE         0.0214
     22 CG         -9.0240  -11.9150  -22.0750 C.ar      1 ACE        -0.0386
     23 CD1        -9.0860  -11.8650  -23.4560 C.ar      1 ACE        -0.0601
     24 CD2        -8.1170  -12.7820  -21.4970 C.ar      1 ACE        -0.0601
     25 CE1        -8.3050  -12.7000  -24.2320 C.ar      1 ACE        -0.0686
     26 CE2        -7.3490  -13.6310  -22.2610 C.ar      1 ACE        -0.0686
     27 CZ         -7.4250  -13.5750  -23.6270 C.ar      1 ACE        -0.0687
     28 N         -11.5340  -12.8130  -19.6170 N.am      1 ACE        -0.2639
     29 CA        -12.0030  -14.0080  -18.9400 C.3       1 ACE         0.1282
     30 C         -13.2850  -14.5890  -19.5150 C.2       1 ACE         0.2036
     31 O         -13.2860  -15.7200  -19.9570 O.2       1 ACE        -0.3944
     32 CB        -12.1870  -13.7090  -17.4750 C.3       1 ACE        -0.0244
     33 N         -14.3370  -13.7790  -19.5050 N.am      1 ACE        -0.2636
     34 CA        -15.6950  -14.1630  -19.9460 C.3       1 ACE         0.1325
     35 C         -15.7990  -14.3330  -21.4640 C.2       1 ACE         0.2041
     36 O         -16.3830  -15.3110  -21.9280 O.2       1 ACE        -0.3944
     37 CB        -16.6980  -13.1040  -19.4440 C.3       1 ACE        -0.0008
     38 CG        -18.1400  -13.2220  -19.9460 C.3       1 ACE         0.0044
     39 CD        -19.1080  -12.3290  -19.1400 C.2       1 ACE         0.0350
     40 OE1       -20.3580  -12.4860  -19.2610 O.co2     1 ACE        -0.5690
     41 OE2       -18.6230  -11.4790  -18.3740 O.co2     1 ACE        -0.5690
     42 N         -15.2140  -13.4100  -22.2250 N.am      1 ACE        -0.2621
     43 CA        -15.1750  -13.5190  -23.6920 C.3       1 ACE         0.1390
     44 C         -14.5610  -14.8370  -24.1410 C.2       1 ACE         0.2058
     45 O         -15.0270  -15.4370  -25.0960 O.2       1 ACE        -0.3942
     46 CB        -14.3710  -12.3850  -24.3300 C.3       1 ACE         0.0163
     47 CG        -15.1260  -11.0980  -24.5710 C.ar      1 ACE        -0.0493
     48 CD1       -16.2870  -11.0600  -25.3440 C.ar      1 ACE        -0.0685
     49 CD2       -14.6330   -9.8950  -24.0810 C.ar      1 ACE        -0.0685
     50 CE1       -16.9660   -9.8460  -25.5500 C.ar      1 ACE        -0.0398
     51 CE2       -15.2740   -8.6970  -24.3020 C.ar      1 ACE        -0.0398
     52 CZ        -16.4370   -8.6680  -25.0280 C.ar      1 ACE         0.0805
     53 OH        -17.0060   -7.4130  -25.2080 O.3       1 ACE        -0.3376
     54 N         -13.4780  -15.2090  -23.4550 N.am      1 ACE        -0.2625
     55 CA        -12.7750  -16.4630  -23.6280 C.3       1 ACE         0.1350
     56 C         -13.5960  -17.5910  -23.0620 C.2       1 ACE         0.2034
     57 O         -13.2260  -18.7330  -23.3540 O.2       1 ACE        -0.3944
     58 CB        -11.3720  -16.4450  -22.9420 C.3       1 ACE         0.0042
     59 CG        -10.4000  -17.5620  -23.4460 C.2       1 ACE        -0.0418
     60 CD1       -10.1290  -18.7260  -22.8100 C.2       1 ACE         0.0167
     61 CD2        -9.5920  -17.5820  -24.6570 C.ar      1 ACE        -0.0214
     62 NE1        -9.2320  -19.4780  -23.5310 N.pl3     1 ACE        -0.2890
     63 CE2        -8.8800  -18.8090  -24.6630 C.ar      1 ACE         0.0603
     64 CE3        -9.4030  -16.6950  -25.7290 C.ar      1 ACE        -0.0747
     65 CZ2        -7.9860  -19.1710  -25.7040 C.ar      1 ACE        -0.0443
     66 CZ3        -8.5240  -17.0580  -26.7660 C.ar      1 ACE        -0.0792
     67 CH2        -7.8250  -18.2850  -26.7350 C.ar      1 ACE        -0.0768
     68 C         -16.6710  -18.6830  -22.2660 C.3       1 ACE         0.1056
     69 S         -20.8910  -19.9010  -21.2030 S.2       1 ACE        -0.2718
     70 N         -14.4160  -17.3950  -22.0650 N.am      1 ACE        -0.2739
     71 CA        -15.3500  -18.3490  -21.4580 C.3       1 ACE         0.1105
     72 CB        -15.7800  -17.8590  -20.0660 C.3       1 ACE        -0.0220
     73 CG        -16.3060  -18.9950  -19.1440 C.3       1 ACE        -0.0486
     74 CD        -17.3190  -18.6010  -18.0510 C.3       1 ACE        -0.0304
     75 CE        -18.4100  -19.6670  -17.9240 C.3       1 ACE         0.0379
     76 NZ        -19.4400  -19.5350  -19.0240 N.am      1 ACE        -0.2869
     77 O         -16.6750  -19.7140  -22.9960 O.3       1 ACE        -0.3507
     78 C1        -19.4140  -20.3990  -20.2370 C.2       1 ACE         0.1178
     79 N         -16.8800  -17.7800  -23.2070 N.4       1 ACE         0.2695
     80 CA        -17.8350  -17.7040  -24.3740 C.3       1 ACE         0.0696
     81 C         -17.2650  -18.4230  -25.6090 C.2       1 ACE         0.2269
     82 O         -17.9830  -19.1430  -26.2920 O.2       1 ACE        -0.3907
     83 CB        -18.2620  -16.2420  -24.6860 C.3       1 ACE         0.0103
     84 CG        -19.1990  -15.6080  -23.6290 C.3       1 ACE        -0.0394
     85 CD1       -19.1740  -14.0680  -23.5900 C.3       1 ACE        -0.0623
     86 CD2       -20.6340  -16.1150  -23.8020 C.3       1 ACE        -0.0623
     87 N         -15.9710  -18.2060  -25.8620 N.am      1 ACE        -0.2610
     88 CA        -15.1690  -18.9660  -26.8420 C.3       1 ACE         0.1313
     89 C         -15.1310  -20.5120  -26.6660 C.2       1 ACE         0.2040
     90 O         -15.3980  -21.2500  -27.6290 O.2       1 ACE        -0.3944
     91 CB        -13.7500  -18.3780  -26.8370 C.3       1 ACE        -0.0101
     92 CG        -12.7040  -18.9490  -27.7810 C.3       1 ACE        -0.0425
     93 CD1       -12.2440  -20.3350  -27.3540 C.3       1 ACE        -0.0625
     94 CD2       -13.1430  -18.8540  -29.2380 C.3       1 ACE        -0.0625
     95 N         -14.7220  -21.0020  -25.5000 N.am      1 ACE        -0.2616
     96 CA        -15.0830  -22.3550  -25.0470 C.3       1 ACE         0.1539
     97 C         -16.6310  -22.4320  -24.8080 C.2       1 ACE         0.2062
     98 O         -17.3920  -21.7650  -25.4940 O.2       1 ACE        -0.3943
     99 CB        -14.2970  -22.7090  -23.7710 C.3       1 ACE         0.0843
    100 OG        -12.9790  -22.1680  -23.7500 O.3       1 ACE        -0.3903
    101 N         -17.0840  -23.2440  -23.8520 N.am      1 ACE        -0.2626
    102 CA        -18.5010  -23.3280  -23.4220 C.3       1 ACE         0.1423
    103 C         -19.4060  -23.8570  -24.5500 C.2       1 ACE         0.2002
    104 O         -20.0560  -24.9020  -24.3860 O.2       1 ACE        -0.3947
    105 CB        -19.0350  -21.9890  -22.8320 C.3       1 ACE         0.0557
    106 SG        -18.8890  -21.7230  -21.0180 S.3       1 ACE        -0.0441
    107 N         -19.7660  -23.2520  -25.6060 N.am      1 ACE        -0.2989
    108 H1        -15.9257   -4.5911  -20.0208 H         1 ACE         0.1181
    109 H2        -16.3486   -4.9450  -17.9207 H         1 ACE         0.2154
    110 H3        -18.0961   -3.6195  -20.6685 H         1 ACE         0.0310
    111 H4        -17.7306   -3.2135  -18.9573 H         1 ACE         0.0310
    112 H5        -18.9173   -4.5067  -19.3399 H         1 ACE         0.0310
    113 H6        -16.8152   -5.8186  -21.3247 H         1 ACE         0.2064
    114 H7        -18.2008   -6.0053  -20.4558 H         1 ACE         0.2064
    115 H8        -17.4631   -7.9281  -19.4790 H         1 ACE         0.1126
    116 H9        -17.2712   -7.8109  -22.5219 H         1 ACE         0.0674
    117 H10       -19.3661   -8.4652  -20.6867 H         1 ACE         0.2102
    118 H11       -17.8172  -10.2084  -22.4903 H         1 ACE         0.0258
    119 H12       -17.6904  -10.2191  -20.6985 H         1 ACE         0.0258
    120 H13       -16.2360   -9.8893  -21.6999 H         1 ACE         0.0258
    121 H14       -16.0002   -9.2524  -18.8806 H         1 ACE         0.1885
    122 H15       -13.2407   -8.3607  -19.0176 H         1 ACE         0.0823
    123 H16       -14.4709   -9.4589  -17.0420 H         1 ACE         0.0606
    124 H17       -12.8149  -10.0517  -17.4063 H         1 ACE         0.0606
    125 H18       -14.3361  -11.7738  -17.0905 H         1 ACE         0.2097
    126 H19       -11.4289   -9.6444  -19.7200 H         1 ACE         0.1885
    127 H20       -11.6805  -10.8829  -22.3068 H         1 ACE         0.0823
    128 H21        -9.5180  -11.1281  -20.1550 H         1 ACE         0.0474
    129 H22        -9.5600   -9.9334  -21.4957 H         1 ACE         0.0474
    130 H23        -9.7564  -11.1612  -23.9360 H         1 ACE         0.0557
    131 H24        -8.0078  -12.7939  -20.4186 H         1 ACE         0.0557
    132 H25        -8.3830  -12.6681  -25.3127 H         1 ACE         0.0599
    133 H26        -6.6856  -14.3423  -21.7825 H         1 ACE         0.0599
    134 H27        -6.7952  -14.2167  -24.2325 H         1 ACE         0.0559
    135 H28       -11.0235  -12.1511  -19.0680 H         1 ACE         0.1883
    136 H29       -11.2206  -14.7744  -19.0417 H         1 ACE         0.0797
    137 H30       -12.5425  -14.6126  -16.9582 H         1 ACE         0.0277
    138 H31       -12.9263  -12.9033  -17.3552 H         1 ACE         0.0277
    139 H32       -11.2266  -13.3928  -17.0418 H         1 ACE         0.0277
    140 H33       -14.2014  -12.8443  -19.1764 H         1 ACE         0.1883
    141 H34       -15.9451  -15.1288  -19.4826 H         1 ACE         0.0801
    142 H35       -16.3198  -12.1172  -19.7491 H         1 ACE         0.0330
    143 H36       -16.7226  -13.1638  -18.3459 H         1 ACE         0.0330
    144 H37       -18.4634  -14.2694  -19.8542 H         1 ACE         0.0433
    145 H38       -18.1740  -12.9190  -21.0029 H         1 ACE         0.0433
    146 H39       -14.7882  -12.6187  -21.7862 H         1 ACE         0.1885
    147 H40       -16.2095  -13.4676  -24.0622 H         1 ACE         0.0821
    148 H41       -13.9948  -12.7422  -25.3000 H         1 ACE         0.0453
    149 H42       -13.5220  -12.1593  -23.6680 H         1 ACE         0.0453
    150 H43       -16.6680  -11.9723  -25.7886 H         1 ACE         0.0530
    151 H44       -13.7140   -9.9000  -23.5061 H         1 ACE         0.0530
    152 H45       -17.8936   -9.8271  -26.1105 H         1 ACE         0.0525
    153 H46       -14.8601   -7.7781  -23.9028 H         1 ACE         0.0525
    154 H47       -17.8019   -7.4978  -25.7196 H         1 ACE         0.2458
    155 H48       -13.1251  -14.5728  -22.7689 H         1 ACE         0.1884
    156 H49       -12.6324  -16.6338  -24.7053 H         1 ACE         0.0815
    157 H50       -11.5153  -16.5747  -21.8591 H         1 ACE         0.0397
    158 H51       -10.9053  -15.4679  -23.1357 H         1 ACE         0.0397
    159 H52       -10.5625  -19.0258  -21.8571 H         1 ACE         0.0795
    160 H53        -8.8799  -20.4062  -23.2565 H         1 ACE         0.2216
    161 H54        -9.9259  -15.7459  -25.7572 H         1 ACE         0.0540
    162 H55        -7.4509  -20.1135  -25.6835 H         1 ACE         0.0541
    163 H56        -8.3808  -16.3844  -27.6031 H         1 ACE         0.0510
    164 H57        -7.1470  -18.5301  -27.5445 H         1 ACE         0.0530
    165 H58       -17.5038  -18.7240  -21.5485 H         1 ACE         0.1208
    166 H59       -14.4059  -16.4787  -21.6647 H         1 ACE         0.1858
    167 H60       -14.7978  -19.2929  -21.3392 H         1 ACE         0.0639
    168 H61       -16.5793  -17.1137  -20.1907 H         1 ACE         0.0290
    169 H62       -14.9129  -17.3888  -19.5791 H         1 ACE         0.0290
    170 H63       -15.4360  -19.4443  -18.6428 H         1 ACE         0.0267
    171 H64       -16.7877  -19.7467  -19.7865 H         1 ACE         0.0267
    172 H65       -17.7818  -17.6389  -18.3158 H         1 ACE         0.0287
    173 H66       -16.7944  -18.5032  -17.0891 H         1 ACE         0.0287
    174 H67       -18.9094  -19.5540  -16.9505 H         1 ACE         0.0549
    175 H68       -17.9466  -20.6627  -17.9851 H         1 ACE         0.0549
    176 H69       -20.1601  -18.8469  -18.9341 H         1 ACE         0.2008
    177 H70       -16.5323  -20.4830  -22.4568 H         1 ACE         0.2155
    178 H71       -15.9757  -17.6865  -23.6423 H         1 ACE         0.2064
    179 H72       -17.0888  -16.9446  -22.6831 H         1 ACE         0.2064
    180 H73       -18.7463  -18.2453  -24.0798 H         1 ACE         0.1100
    181 H74       -18.7827  -16.2353  -25.6549 H         1 ACE         0.0348
    182 H75       -17.3535  -15.6256  -24.7537 H         1 ACE         0.0348
    183 H76       -18.8439  -15.9538  -22.6470 H         1 ACE         0.0299
    184 H77       -19.8662  -13.7096  -22.8139 H         1 ACE         0.0232
    185 H78       -19.4830  -13.6713  -24.5683 H         1 ACE         0.0232
    186 H79       -18.1550  -13.7235  -23.3599 H         1 ACE         0.0232
    187 H80       -20.6337  -17.2147  -23.8278 H         1 ACE         0.0232
    188 H81       -21.0492  -15.7263  -24.7435 H         1 ACE         0.0232
    189 H82       -21.2496  -15.7682  -22.9589 H         1 ACE         0.0232
    190 H83       -15.5134  -17.4777  -25.3519 H         1 ACE         0.1884
    191 H84       -15.6121  -18.7793  -27.8313 H         1 ACE         0.0800
    192 H85       -13.3581  -18.4945  -25.8158 H         1 ACE         0.0315
    193 H86       -13.8453  -17.3079  -27.0734 H         1 ACE         0.0315
    194 H87       -11.8206  -18.2998  -27.6910 H         1 ACE         0.0298
    195 H88       -11.4903  -20.7061  -28.0641 H         1 ACE         0.0232
    196 H89       -13.1049  -21.0196  -27.3420 H         1 ACE         0.0232
    197 H90       -11.8041  -20.2814  -26.3472 H         1 ACE         0.0232
    198 H91       -13.4577  -17.8235  -29.4597 H         1 ACE         0.0232
    199 H92       -13.9849  -19.5400  -29.4128 H         1 ACE         0.0232
    200 H93       -12.3032  -19.1298  -29.8927 H         1 ACE         0.0232
    201 H94       -14.1496  -20.4320  -24.9106 H         1 ACE         0.1884
    202 H95       -14.8142  -23.0763  -25.8328 H         1 ACE         0.0823
    203 H96       -14.2255  -23.8042  -23.6980 H         1 ACE         0.0606
    204 H97       -14.8479  -22.3188  -22.9025 H         1 ACE         0.0606
    205 H98       -13.0259  -21.2206  -23.8033 H         1 ACE         0.2097
    206 H99       -16.4225  -23.8373  -23.3933 H         1 ACE         0.1884
    207 H100      -18.5400  -24.0675  -22.6086 H         1 ACE         0.0810
    208 H101      -20.1030  -21.9225  -23.0870 H         1 ACE         0.0458
    209 H102      -18.4883  -21.1728  -23.3269 H         1 ACE         0.0458
    210 H103      -20.3614  -23.7098  -26.2663 H         1 ACE         0.1815
    211 H104      -19.4543  -22.3175  -25.7778 H         1 ACE         0.1815
@<TRIPOS>BOND
     1    1    2 1  
     2    1    3 1  
     3    4    1 1  
     4    5    4 1  
     5    6    5 1  
     6    5    8 1  
     7    6    7 2  
     8   11    6 am 
     9    8    9 1  
    10    8   10 1  
    11   12   11 1  
    12   13   12 1  
    13   12   15 1  
    14   13   14 2  
    15   17   13 am 
    16   15   16 1  
    17   18   17 1  
    18   19   18 1  
    19   18   21 1  
    20   19   20 2  
    21   28   19 am 
    22   21   22 1  
    23   22   23 ar 
    24   22   24 ar 
    25   23   25 ar 
    26   24   26 ar 
    27   25   27 ar 
    28   26   27 ar 
    29   29   28 1  
    30   30   29 1  
    31   29   32 1  
    32   30   31 2  
    33   33   30 am 
    34   34   33 1  
    35   35   34 1  
    36   34   37 1  
    37   35   36 2  
    38   42   35 am 
    39   37   38 1  
    40   38   39 1  
    41   39   40 ar 
    42   39   41 ar 
    43   43   42 1  
    44   44   43 1  
    45   43   46 1  
    46   44   45 2  
    47   54   44 am 
    48   46   47 1  
    49   47   48 ar 
    50   47   49 ar 
    51   48   50 ar 
    52   49   51 ar 
    53   50   52 ar 
    54   51   52 ar 
    55   52   53 1  
    56   55   54 1  
    57   56   55 1  
    58   55   58 1  
    59   56   57 2  
    60   70   56 am 
    61   58   59 1  
    62   59   60 2  
    63   59   61 1  
    64   60   62 1  
    65   61   63 ar 
    66   61   64 ar 
    67   63   62 1  
    68   63   65 ar 
    69   64   66 ar 
    70   65   67 ar 
    71   66   67 ar 
    72   71   68 1  
    73   68   77 1  
    74   68   79 1  
    75   78   69 2  
    76   71   70 1  
    77   72   71 1  
    78   73   72 1  
    79   74   73 1  
    80   75   74 1  
    81   76   75 1  
    82   76   78 am 
    83   78  106 1  
    84   79   80 1  
    85   80   81 1  
    86   80   83 1  
    87   81   82 2  
    88   81   87 am 
    89   83   84 1  
    90   84   85 1  
    91   84   86 1  
    92   87   88 1  
    93   88   89 1  
    94   88   91 1  
    95   89   90 2  
    96   89   95 am 
    97   91   92 1  
    98   92   93 1  
    99   92   94 1  
   100   95   96 1  
   101   96   97 1  
   102   96   99 1  
   103   97   98 2  
   104   97  101 am 
   105   99  100 1  
   106  101  102 1  
   107  102  103 1  
   108  102  105 1  
   109  103  104 2  
   110  103  107 am 
   111  105  106 1  
   112    1  108 1  
   113    2  109 1  
   114    3  110 1  
   115    3  111 1  
   116    3  112 1  
   117    4  113 1  
   118    4  114 1  
   119    5  115 1  
   120    8  116 1  
   121    9  117 1  
   122   10  118 1  
   123   10  119 1  
   124   10  120 1  
   125   11  121 1  
   126   12  122 1  
   127   15  123 1  
   128   15  124 1  
   129   16  125 1  
   130   17  126 1  
   131   18  127 1  
   132   21  128 1  
   133   21  129 1  
   134   23  130 1  
   135   24  131 1  
   136   25  132 1  
   137   26  133 1  
   138   27  134 1  
   139   28  135 1  
   140   29  136 1  
   141   32  137 1  
   142   32  138 1  
   143   32  139 1  
   144   33  140 1  
   145   34  141 1  
   146   37  142 1  
   147   37  143 1  
   148   38  144 1  
   149   38  145 1  
   150   42  146 1  
   151   43  147 1  
   152   46  148 1  
   153   46  149 1  
   154   48  150 1  
   155   49  151 1  
   156   50  152 1  
   157   51  153 1  
   158   53  154 1  
   159   54  155 1  
   160   55  156 1  
   161   58  157 1  
   162   58  158 1  
   163   60  159 1  
   164   62  160 1  
   165   64  161 1  
   166   65  162 1  
   167   66  163 1  
   168   67  164 1  
   169   68  165 1  
   170   70  166 1  
   171   71  167 1  
   172   72  168 1  
   173   72  169 1  
   174   73  170 1  
   175   73  171 1  
   176   74  172 1  
   177   74  173 1  
   178   75  174 1  
   179   75  175 1  
   180   76  176 1  
   181   77  177 1  
   182   79  178 1  
   183   79  179 1  
   184   80  180 1  
   185   83  181 1  
   186   83  182 1  
   187   84  183 1  
   188   85  184 1  
   189   85  185 1  
   190   85  186 1  
   191   86  187 1  
   192   86  188 1  
   193   86  189 1  
   194   87  190 1  
   195   88  191 1  
   196   91  192 1  
   197   91  193 1  
   198   92  194 1  
   199   93  195 1  
   200   93  196 1  
   201   93  197 1  
   202   94  198 1  
   203   94  199 1  
   204   94  200 1  
   205   95  201 1  
   206   96  202 1  
   207   99  203 1  
   208   99  204 1  
   209  100  205 1  
   210  101  206 1  
   211  102  207 1  
   212  105  208 1  
   213  105  209 1  
   214  107  210 1  
   215  107  211 1  
@<TRIPOS>SUBSTRUCTURE
     1 ACE         1

