3t3u_ligand
  -I-interpret- 

 54 58  0  0  0  0  0  0  0  0999 V2000
   21.5610   12.4820   63.8090 N   0  0  0  0  0
   22.7250   13.1140   63.6140 C   0  0  0  0  0
   22.7860   14.4420   63.5800 N   0  0  0  0  0
   21.6650   15.1730   63.7270 C   0  0  0  0  0
   20.4330   14.5580   63.9430 C   0  0  0  0  0
   20.4040   13.1540   63.9870 C   0  0  0  0  0
   11.3180   15.3120   65.6420 C   0  0  0  0  0
   19.2780   12.4500   64.1820 N   0  0  0  0  0
   14.4590   14.0080   67.0670 C   0  0  0  0  0
   17.2700   16.3190   63.5590 C   0  0  0  0  0
   15.8160   14.0710   66.7710 C   0  0  0  0  0
   15.8970   16.2790   63.8460 C   0  0  0  0  0
   14.0360   15.4850   65.2110 C   0  0  0  0  0
   17.6670   14.8430   65.4160 C   0  0  0  0  0
   24.4330   19.0180   60.5210 C   0  0  0  0  0
   22.2180   18.4930   59.7240 C   0  0  0  0  0
   24.0460   18.7430   61.9830 C   0  0  0  0  0
   21.8050   17.9810   61.1280 C   0  0  0  0  0
   22.4990   17.4990   63.5420 C   0  0  0  0  0
   20.2480   16.7590   63.9460 N   0  0  0  0  0
   23.2440   19.5490   59.8300 N   0  3  0  0  0
   12.2270   14.6540   66.5740 O   0  0  0  0  0
   13.5600   14.7260   66.2790 C   0  0  0  0  0
   18.1670   15.5720   64.3270 C   0  0  0  0  0
   19.5360   15.6320   64.0730 C   0  0  0  0  0
   15.4050   15.5250   64.9210 C   0  0  0  0  0
   16.2980   14.8110   65.7070 C   0  0  0  0  0
   22.9870   17.6320   62.0540 C   0  0  0  0  0
   21.4410   16.4820   63.7340 N   0  0  0  0  0
   23.6365   12.5312   63.4811 H   0  0  0  0  0
   11.5561   16.3746   65.5933 H   0  0  0  0  0
   11.4294   14.8676   64.6529 H   0  0  0  0  0
   10.2916   15.1838   65.9858 H   0  0  0  0  0
   19.3094   11.4305   64.1932 H   0  0  0  0  0
   18.3909   12.9345   64.3190 H   0  0  0  0  0
   14.1029   13.4060   67.9030 H   0  0  0  0  0
   17.6369   16.9331   62.7366 H   0  0  0  0  0
   16.5201   13.5213   67.3956 H   0  0  0  0  0
   15.2021   16.8428   63.2236 H   0  0  0  0  0
   13.3365   16.0520   64.5967 H   0  0  0  0  0
   18.3597   14.2892   66.0497 H   0  0  0  0  0
   24.7702   18.0996   60.0405 H   0  0  0  0  0
   25.2494   19.7388   60.4757 H   0  0  0  0  0
   21.3393   18.9061   59.2288 H   0  0  0  0  0
   22.6295   17.6601   59.1539 H   0  0  0  0  0
   23.6364   19.6536   62.4202 H   0  0  0  0  0
   24.9324   18.4255   62.5322 H   0  0  0  0  0
   21.2353   17.0639   60.9784 H   0  0  0  0  0
   21.2486   18.7849   61.6099 H   0  0  0  0  0
   22.0814   18.4623   63.8348 H   0  0  0  0  0
   23.3574   17.1924   64.1398 H   0  0  0  0  0
   23.5070   19.8603   58.8949 H   0  0  0  0  0
   22.8673   20.3347   60.3602 H   0  0  0  0  0
   23.4124   16.6838   61.7252 H   0  0  0  0  0
  1  2  4  0  0  0
  6  1  4  0  0  0
  3  2  4  0  0  0
  4  3  4  0  0  0
  5  4  4  0  0  0
 29  4  4  0  0  0
  5  6  4  0  0  0
 25  5  4  0  0  0
  6  8  1  0  0  0
 22  7  1  0  0  0
 11  9  4  0  0  0
  9 23  4  0  0  0
 10 12  4  0  0  0
 24 10  4  0  0  0
 27 11  4  0  0  0
 12 26  4  0  0  0
 13 23  4  0  0  0
 26 13  4  0  0  0
 24 14  4  0  0  0
 14 27  4  0  0  0
 17 15  1  0  0  0
 15 21  1  0  0  0
 18 16  1  0  0  0
 16 21  1  0  0  0
 28 17  1  0  0  0
 28 18  1  0  0  0
 19 28  1  0  0  0
 29 19  1  0  0  0
 25 20  4  0  0  0
 20 29  4  0  0  0
 23 22  1  0  0  0
 24 25  1  0  0  0
 26 27  4  0  0  0
  2 30  1  0  0  0
  7 31  1  0  0  0
  7 32  1  0  0  0
  7 33  1  0  0  0
  8 34  1  0  0  0
  8 35  1  0  0  0
  9 36  1  0  0  0
 10 37  1  0  0  0
 11 38  1  0  0  0
 12 39  1  0  0  0
 13 40  1  0  0  0
 14 41  1  0  0  0
 15 42  1  0  0  0
 15 43  1  0  0  0
 16 44  1  0  0  0
 16 45  1  0  0  0
 17 46  1  0  0  0
 17 47  1  0  0  0
 18 48  1  0  0  0
 18 49  1  0  0  0
 19 50  1  0  0  0
 19 51  1  0  0  0
 21 52  1  0  0  0
 21 53  1  0  0  0
 28 54  1  0  0  0
M  END
$$$$
