6p3t_ligand
  -I-interpret- 

 42 45  0  0  0  0  0  0  0  0999 V2000
   17.3590  -12.6590   36.2900 O   0  0  0  0  0
   17.7770  -11.6280   37.2450 S   0  0  0  0  0
   17.9580  -12.3690   38.8610 C   0  0  0  0  0
   17.1870  -11.9320   39.9380 C   0  0  0  0  0
   17.3990  -12.5760   41.1610 C   0  0  0  0  0
   18.3640  -13.6260   41.2730 C   0  0  0  0  0
   18.5880  -14.3190   42.5560 N   0  0  0  0  0
   17.8270  -13.9270   43.6900 C   0  0  0  0  0
   16.8120  -12.8290   43.5810 C   0  0  0  0  0
   16.5990  -12.1610   42.3390 N   0  0  0  0  0
   16.1700  -12.4890   44.5120 O   0  0  0  0  0
   18.0230  -14.4950   44.7060 O   0  0  0  0  0
   19.1290  -14.0410   40.1790 C   0  0  0  0  0
   18.9250  -13.4010   38.9590 C   0  0  0  0  0
   19.3320  -10.9480   36.9450 N   0  0  0  0  0
   20.3330  -11.6700   36.1430 C   0  0  0  0  0
   19.9300  -12.2580   34.9330 C   0  0  0  0  0
   20.8670  -12.9750   34.1200 C   0  0  0  0  0
   20.4260  -13.5660   32.8850 C   0  0  0  0  0
   21.3330  -14.2570   32.0790 C   0  0  0  0  0
   22.6670  -14.3710   32.4920 C   0  0  0  0  0
   23.0980  -13.7920   33.6930 C   0  0  0  0  0
   22.1790  -13.0810   34.5260 C   0  0  0  0  0
   22.6090  -12.4890   35.7650 C   0  0  0  0  0
   21.6830  -11.7870   36.5590 C   0  0  0  0  0
   19.6490   -9.6540   37.5290 C   0  0  0  0  0
   16.6360  -10.7090   37.2010 O   0  0  0  0  0
   16.4568  -11.1298   39.8318 H   0  0  0  0  0
   19.2777  -15.0671   42.6278 H   0  0  0  0  0
   15.9101  -11.4127   42.2624 H   0  0  0  0  0
   19.8627  -14.8410   40.2778 H   0  0  0  0  0
   19.5059  -13.6921   38.0839 H   0  0  0  0  0
   18.8932  -12.1680   34.6088 H   0  0  0  0  0
   19.3840  -13.4745   32.5784 H   0  0  0  0  0
   21.0069  -14.7026   31.1392 H   0  0  0  0  0
   23.3780  -14.9166   31.8716 H   0  0  0  0  0
   24.1414  -13.8843   33.9943 H   0  0  0  0  0
   23.6461  -12.5837   36.0868 H   0  0  0  0  0
   22.0047  -11.3323   37.4959 H   0  0  0  0  0
   20.4966   -9.7602   38.2061 H   0  0  0  0  0
   19.9021   -8.9509   36.7355 H   0  0  0  0  0
   18.7850   -9.2847   38.0815 H   0  0  0  0  0
  1  2  2  0  0  0
  2  3  1  0  0  0
  2 15  1  0  0  0
  2 27  2  0  0  0
  3  4  4  0  0  0
  3 14  4  0  0  0
  4  5  4  0  0  0
  5  6  4  0  0  0
  5 10  1  0  0  0
  6  7  1  0  0  0
  6 13  4  0  0  0
  7  8  1  0  0  0
  8  9  1  0  0  0
  8 12  2  0  0  0
  9 10  1  0  0  0
  9 11  2  0  0  0
 13 14  4  0  0  0
 15 16  1  0  0  0
 15 26  1  0  0  0
 16 17  4  0  0  0
 16 25  4  0  0  0
 17 18  4  0  0  0
 18 19  4  0  0  0
 18 23  4  0  0  0
 19 20  4  0  0  0
 20 21  4  0  0  0
 21 22  4  0  0  0
 22 23  4  0  0  0
 23 24  4  0  0  0
 24 25  4  0  0  0
  4 28  1  0  0  0
  7 29  1  0  0  0
 10 30  1  0  0  0
 13 31  1  0  0  0
 14 32  1  0  0  0
 17 33  1  0  0  0
 19 34  1  0  0  0
 20 35  1  0  0  0
 21 36  1  0  0  0
 22 37  1  0  0  0
 24 38  1  0  0  0
 25 39  1  0  0  0
 26 40  1  0  0  0
 26 41  1  0  0  0
 26 42  1  0  0  0
M  END
$$$$
