4g8o_ligand
  -I-interpret- 

 61 63  0  0  0  0  0  0  0  0999 V2000
   31.2210  -22.3020  -92.3710 F   0  0  0  0  0
   30.2060  -23.1570  -92.3030 C   0  0  0  0  0
   29.1320  -22.4140  -92.0610 F   0  0  0  0  0
   30.0490  -23.6310  -93.5300 F   0  0  0  0  0
   30.4160  -24.2390  -91.2890 C   0  0  0  0  0
   29.3490  -24.7510  -90.5580 C   0  0  0  0  0
   29.5490  -25.7670  -89.6310 C   0  0  0  0  0
   30.8210  -26.2880  -89.4210 C   0  0  0  0  0
   31.6870  -24.7630  -91.0750 C   0  0  0  0  0
   31.8850  -25.7790  -90.1500 C   0  0  0  0  0
   33.1800  -26.3010  -89.9600 O   0  0  0  0  0
   33.9840  -25.7200  -89.0100 C   0  0  0  0  0
   33.6500  -24.7690  -88.3370 O   0  0  0  0  0
   35.1710  -26.3440  -88.9320 N   0  0  0  0  0
   36.2050  -25.9360  -87.9930 C   0  0  0  0  0
   37.4320  -26.8180  -88.0930 C   0  0  0  0  0
   37.4700  -27.7570  -89.2180 O   0  0  0  0  0
   38.4760  -27.6420  -90.1090 C   0  0  0  0  0
   38.2860  -28.5380  -91.2880 C   0  0  0  0  0
   37.1270  -29.2950  -91.4340 C   0  0  0  0  0
   36.9360  -30.0690  -92.5730 C   0  0  0  0  0
   35.8100  -30.8130  -92.7180 O   0  0  0  0  0
   37.9270  -30.1230  -93.5550 C   0  0  0  0  0
   37.7510  -30.8990  -94.6590 O   0  0  0  0  0
   39.0660  -29.3280  -93.4300 C   0  0  0  0  0
   40.0260  -29.3780  -94.3860 O   0  0  0  0  0
   39.2430  -28.5380  -92.3020 C   0  0  0  0  0
   39.4050  -26.8830  -89.9730 O   0  0  0  0  0
   37.6840  -27.5610  -86.8060 C   0  0  0  0  0
   39.0880  -27.6080  -86.4760 O   0  0  0  0  0
   39.4670  -28.5230  -85.5710 C   0  0  0  0  0
   38.7840  -29.4650  -85.2490 O   0  0  0  0  0
   40.8210  -28.2430  -84.9970 C   0  0  0  0  0
   41.3500  -29.1140  -84.0510 C   0  0  0  0  0
   42.5880  -28.8590  -83.4690 C   0  0  0  0  0
   43.0580  -29.6180  -82.4540 O   0  0  0  0  0
   43.3120  -27.7330  -83.8560 C   0  0  0  0  0
   44.5230  -27.4760  -83.2890 O   0  0  0  0  0
   42.8390  -26.9230  -84.8830 C   0  0  0  0  0
   43.5910  -25.8650  -85.2670 O   0  0  0  0  0
   41.5780  -27.1540  -85.4280 C   0  0  0  0  0
   28.3468  -24.3517  -90.7137 H   0  0  0  0  0
   28.7034  -26.1579  -89.0650 H   0  0  0  0  0
   30.9793  -27.0847  -88.6941 H   0  0  0  0  0
   32.5344  -24.3725  -91.6384 H   0  0  0  0  0
   35.3541  -27.1320  -89.5532 H   0  0  0  0  0
   35.8038  -26.0190  -86.9829 H   0  0  0  0  0
   36.4976  -24.9126  -88.2277 H   0  0  0  0  0
   38.2315  -26.1040  -88.2905 H   0  0  0  0  0
   36.3669  -29.2809  -90.6529 H   0  0  0  0  0
   35.8426  -31.2808  -93.5557 H   0  0  0  0  0
   38.5201  -30.8225  -95.2284 H   0  0  0  0  0
   40.7380  -28.7771  -94.1546 H   0  0  0  0  0
   40.1331  -27.9157  -92.2089 H   0  0  0  0  0
   37.3276  -28.5839  -86.9272 H   0  0  0  0  0
   37.1621  -27.0399  -86.0034 H   0  0  0  0  0
   40.7903  -30.0039  -83.7629 H   0  0  0  0  0
   43.9204  -29.2928  -82.1855 H   0  0  0  0  0
   44.8858  -26.6699  -83.6635 H   0  0  0  0  0
   43.1460  -25.3990  -85.9787 H   0  0  0  0  0
   41.1830  -26.4836  -86.1913 H   0  0  0  0  0
  1  2  1  0  0  0
  2  3  1  0  0  0
  2  4  1  0  0  0
  2  5  1  0  0  0
  5  6  4  0  0  0
  5  9  4  0  0  0
  6  7  4  0  0  0
  7  8  4  0  0  0
  8 10  4  0  0  0
  9 10  4  0  0  0
 10 11  1  0  0  0
 11 12  1  0  0  0
 12 13  2  0  0  0
 12 14  1  0  0  0
 14 15  1  0  0  0
 15 16  1  0  0  0
 16 17  1  0  0  0
 16 29  1  0  0  0
 17 18  1  0  0  0
 18 19  1  0  0  0
 18 28  2  0  0  0
 19 20  4  0  0  0
 19 27  4  0  0  0
 20 21  4  0  0  0
 21 22  1  0  0  0
 21 23  4  0  0  0
 23 24  1  0  0  0
 23 25  4  0  0  0
 25 26  1  0  0  0
 25 27  4  0  0  0
 29 30  1  0  0  0
 30 31  1  0  0  0
 31 32  2  0  0  0
 31 33  1  0  0  0
 33 34  4  0  0  0
 33 41  4  0  0  0
 34 35  4  0  0  0
 35 36  1  0  0  0
 35 37  4  0  0  0
 37 38  1  0  0  0
 37 39  4  0  0  0
 39 40  1  0  0  0
 39 41  4  0  0  0
  6 42  1  0  0  0
  7 43  1  0  0  0
  8 44  1  0  0  0
  9 45  1  0  0  0
 14 46  1  0  0  0
 15 47  1  0  0  0
 15 48  1  0  0  0
 16 49  1  0  0  0
 20 50  1  0  0  0
 22 51  1  0  0  0
 24 52  1  0  0  0
 26 53  1  0  0  0
 27 54  1  0  0  0
 29 55  1  0  0  0
 29 56  1  0  0  0
 34 57  1  0  0  0
 36 58  1  0  0  0
 38 59  1  0  0  0
 40 60  1  0  0  0
 41 61  1  0  0  0
M  END
$$$$
