### 
### Created by X-TOOL on Mon Sep 10 21:13:16 2018
### 

@<TRIPOS>MOLECULE
4o7b_ligand
   60    64     1     0     0
SMALL
GAST_HUCK


@<TRIPOS>ATOM
      1 C01       121.7470   -5.5350   -6.6150 C.3       1 2RJ        -0.0359
      2 C02       121.4760   -6.5460   -5.5640 C.ar      1 2RJ        -0.0511
      3 C03       121.1230   -6.2480   -4.2070 C.ar      1 2RJ        -0.0092
      4 C04       120.9200   -7.3220   -3.3030 C.ar      1 2RJ         0.1207
      5 C05       121.0350   -8.6670   -3.7250 C.ar      1 2RJ        -0.0400
      6 C06       121.3960   -8.9380   -5.0420 C.ar      1 2RJ        -0.0823
      7 C07       121.5990   -7.8920   -5.9490 C.ar      1 2RJ        -0.0768
      8 O08       120.5190   -7.0970   -2.0150 O.3       1 2RJ        -0.2221
      9 C09       121.4500   -6.8320   -1.0670 C.ar      1 2RJ         0.2605
     10 N10       121.0600   -6.8370    0.2230 N.ar      1 2RJ        -0.2473
     11 C11       121.9450   -6.5830    1.2240 C.ar      1 2RJ         0.0115
     12 C12       123.2850   -6.3500    0.9070 C.ar      1 2RJ        -0.0185
     13 C13       123.6780   -6.3260   -0.4650 C.ar      1 2RJ         0.0756
     14 N14       122.7310   -6.5930   -1.4040 N.ar      1 2RJ        -0.2424
     15 C15       125.0320   -6.1110   -0.8610 C.2       1 2RJ         0.1159
     16 C16       125.9960   -5.2910   -0.2400 C.2       1 2RJ         0.0462
     17 N17       127.1650   -5.4020   -0.8980 N.2       1 2RJ        -0.3026
     18 C18       126.9590   -6.2760   -1.8870 C.2       1 2RJ         0.1086
     19 N19       125.6840   -6.7230   -1.8990 N.pl3     1 2RJ        -0.2316
     20 C20       125.1790   -7.6910   -2.8600 C.3       1 2RJ         0.0804
     21 C21       125.6720   -9.1450   -2.6600 C.3       1 2RJ         0.0186
     22 C22       125.1310  -10.0730   -3.7750 C.3       1 2RJ        -0.0308
     23 N23       125.5210   -9.5820   -5.1130 N.4       1 2RJ         0.2271
     24 C24       125.0360   -8.2110   -5.3710 C.3       1 2RJ        -0.0308
     25 C25       125.5270   -7.2010   -4.2990 C.3       1 2RJ         0.0186
     26 C26       125.9180   -4.3680    0.8300 C.ar      1 2RJ        -0.0208
     27 C27       127.0890   -4.0180    1.5310 C.ar      1 2RJ        -0.0583
     28 C28       127.0430   -3.0730    2.5530 C.ar      1 2RJ        -0.0294
     29 C29       125.8360   -2.4340    2.8870 C.ar      1 2RJ         0.1310
     30 C30       124.6650   -2.7510    2.1900 C.ar      1 2RJ        -0.0294
     31 C31       124.7180   -3.6960    1.1510 C.ar      1 2RJ        -0.0583
     32 F32       125.8130   -1.5540    3.8600 F         1 2RJ        -0.1843
     33 C33       120.9670   -4.8560   -3.7160 C.3       1 2RJ        -0.0348
     34 H         121.9930   -6.0440   -7.5586 H         1 2RJ         0.0373
     35 H         122.5938   -4.9040   -6.3072 H         1 2RJ         0.0373
     36 H         120.8552   -4.9073   -6.7587 H         1 2RJ         0.0373
     37 H         120.8442   -9.4776   -3.0310 H         1 2RJ         0.0483
     38 H         121.5205   -9.9648   -5.3665 H         1 2RJ         0.0518
     39 H         121.8579   -8.1260   -6.9753 H         1 2RJ         0.0457
     40 H         121.6141   -6.5617    2.2560 H         1 2RJ         0.0876
     41 H         124.0159   -6.1897    1.6913 H         1 2RJ         0.0658
     42 H         127.7240   -6.5894   -2.5958 H         1 2RJ         0.1311
     43 H         124.0839   -7.7078   -2.7582 H         1 2RJ         0.0662
     44 H         125.3213   -9.5127   -1.6844 H         1 2RJ         0.0348
     45 H         126.7717   -9.1583   -2.6831 H         1 2RJ         0.0348
     46 H         124.0334  -10.1085   -3.7115 H         1 2RJ         0.0815
     47 H         125.5396  -11.0840   -3.6304 H         1 2RJ         0.0815
     48 H         125.1343  -10.1990   -5.8100 H         1 2RJ         0.2013
     49 H         126.5268   -9.5878   -5.1799 H         1 2RJ         0.2013
     50 H         123.9360   -8.2191   -5.3718 H         1 2RJ         0.0815
     51 H         125.4010   -7.8862   -6.3565 H         1 2RJ         0.0815
     52 H         126.6178   -7.0882   -4.3855 H         1 2RJ         0.0348
     53 H         125.0428   -6.2289   -4.4738 H         1 2RJ         0.0348
     54 H         128.0316   -4.4872    1.2733 H         1 2RJ         0.0595
     55 H         127.9479   -2.8274    3.0970 H         1 2RJ         0.0601
     56 H         123.7271   -2.2730    2.4485 H         1 2RJ         0.0601
     57 H         123.8197   -3.9135    0.5846 H         1 2RJ         0.0595
     58 H         121.1584   -4.1529   -4.5401 H         1 2RJ         0.0355
     59 H         121.6842   -4.6715   -2.9026 H         1 2RJ         0.0355
     60 H         119.9428   -4.7119   -3.3416 H         1 2RJ         0.0355
@<TRIPOS>BOND
     1    1    2 1  
     2    2    3 ar 
     3    2    7 ar 
     4    3    4 ar 
     5    3   33 1  
     6    4    5 ar 
     7    4    8 1  
     8    5    6 ar 
     9    6    7 ar 
    10    8    9 1  
    11    9   10 ar 
    12    9   14 ar 
    13   10   11 ar 
    14   11   12 ar 
    15   12   13 ar 
    16   13   14 ar 
    17   13   15 1  
    18   15   16 2  
    19   15   19 1  
    20   16   17 1  
    21   16   26 1  
    22   17   18 2  
    23   18   19 1  
    24   19   20 1  
    25   20   21 1  
    26   20   25 1  
    27   21   22 1  
    28   22   23 1  
    29   23   24 1  
    30   24   25 1  
    31   26   27 ar 
    32   26   31 ar 
    33   27   28 ar 
    34   28   29 ar 
    35   29   30 ar 
    36   29   32 1  
    37   30   31 ar 
    38    1   34 1  
    39    1   35 1  
    40    1   36 1  
    41    5   37 1  
    42    6   38 1  
    43    7   39 1  
    44   11   40 1  
    45   12   41 1  
    46   18   42 1  
    47   20   43 1  
    48   21   44 1  
    49   21   45 1  
    50   22   46 1  
    51   22   47 1  
    52   23   48 1  
    53   23   49 1  
    54   24   50 1  
    55   24   51 1  
    56   25   52 1  
    57   25   53 1  
    58   27   54 1  
    59   28   55 1  
    60   30   56 1  
    61   31   57 1  
    62   33   58 1  
    63   33   59 1  
    64   33   60 1  
@<TRIPOS>SUBSTRUCTURE
     1 2RJ         1

