4lwc_ligand
  -I-interpret- 

 56 60  0  0  0  0  0  0  0  0999 V2000
   -4.6010   11.3190   -1.9490 C   0  0  0  0  0
   -3.3070   11.6890   -1.7470 C   0  0  0  0  0
   -3.0570   11.3260   -0.3900 C   0  0  0  0  0
   -4.1490   10.8210    0.0820 N   0  0  0  0  0
   -5.0530   10.8070   -0.8210 N   0  0  0  0  0
   -4.3810   10.3200    1.4160 C   0  0  0  0  0
   -1.7460   11.5570    0.3430 C   0  0  0  0  0
   -5.1120   11.1090    2.3480 C   0  0  0  0  0
   -5.3550   10.6530    3.6070 C   0  0  0  0  0
   -4.8750    9.3850    3.9870 C   0  0  0  0  0
   -4.1390    8.5830    3.0470 C   0  0  0  0  0
   -3.8990    9.0270    1.8040 C   0  0  0  0  0
   -3.5480    6.9790    3.5750 Cl  0  0  0  0  0
   -5.1630    8.7730    5.5630 Cl  0  0  0  0  0
   -0.5390   11.2010   -0.2260 C   0  0  0  0  0
    0.6490   11.4370    0.4580 C   0  0  0  0  0
    0.6120   12.0400    1.7210 C   0  0  0  0  0
   -0.6120   12.4140    2.2990 C   0  0  0  0  0
   -1.7770   12.1810    1.6200 C   0  0  0  0  0
    1.9520   12.3320    2.5210 C   0  0  0  0  0
    3.0480   11.6060    1.9170 N   0  0  0  0  0
    3.6360   10.7400    2.9260 C   0  0  0  0  0
    4.7140    9.7620    2.5190 C   0  0  0  0  0
    6.0240    9.8810    3.1100 C   0  0  0  0  0
    7.0010    8.9970    2.7550 C   0  0  0  0  0
    6.6820    7.9990    1.8240 C   0  0  0  0  0
    5.3640    7.8880    1.2280 C   0  0  0  0  0
    4.4030    8.7450    1.5690 C   0  0  0  0  0
    2.9650   10.5260    4.4320 S   0  0  0  0  0
    7.6820    6.9620    1.3370 C   0  0  0  0  0
    8.8620    6.4790    1.9200 C   0  0  0  0  0
    9.3660    5.4900    0.9710 C   0  0  0  0  0
    8.4110    5.4870   -0.0820 C   0  0  0  0  0
    7.4690    6.3410    0.1740 O   0  0  0  0  0
    8.3910    4.6860   -1.3320 C   0  0  0  0  0
    9.2570    3.8370   -1.5510 O   0  0  0  0  0
    7.4510    4.9200   -2.1600 O   0  0  0  0  0
    2.8980    8.5850    0.8680 Cl  0  0  0  0  0
   -5.1630   11.4266   -2.8768 H   0  0  0  0  0
   -2.6219   12.1539   -2.4560 H   0  0  0  0  0
   -5.4816   12.0901    2.0499 H   0  0  0  0  0
   -5.9159   11.2636    4.3146 H   0  0  0  0  0
   -3.3435    8.4112    1.0967 H   0  0  0  0  0
   -0.5173   10.7351   -1.2112 H   0  0  0  0  0
    1.6031   11.1541    0.0133 H   0  0  0  0  0
   -0.6339   12.8863    3.2811 H   0  0  0  0  0
   -2.7305   12.4744    2.0591 H   0  0  0  0  0
    1.8325   12.0110    3.5558 H   0  0  0  0  0
    2.1657   13.4004    2.4905 H   0  0  0  0  0
    3.3558   11.6878    0.9480 H   0  0  0  0  0
    6.2318   10.6695    3.8333 H   0  0  0  0  0
    8.0010    9.0650    3.1833 H   0  0  0  0  0
    5.1599    7.1025    0.5004 H   0  0  0  0  0
    9.3050    6.7758    2.8707 H   0  0  0  0  0
   10.2716    4.8888    1.0520 H   0  0  0  0  0
    6.8825    5.6101   -1.8104 H   0  0  0  0  0
  1  2  4  0  0  0
  1  5  4  0  0  0
  2  3  4  0  0  0
  3  4  4  0  0  0
  3  7  1  0  0  0
  4  5  4  0  0  0
  4  6  1  0  0  0
  6  8  4  0  0  0
  6 12  4  0  0  0
  7 15  4  0  0  0
  7 19  4  0  0  0
  8  9  4  0  0  0
  9 10  4  0  0  0
 10 11  4  0  0  0
 10 14  1  0  0  0
 11 12  4  0  0  0
 11 13  1  0  0  0
 15 16  4  0  0  0
 16 17  4  0  0  0
 17 18  4  0  0  0
 17 20  1  0  0  0
 18 19  4  0  0  0
 20 21  1  0  0  0
 21 22  1  0  0  0
 22 23  1  0  0  0
 22 29  2  0  0  0
 23 24  4  0  0  0
 23 28  4  0  0  0
 24 25  4  0  0  0
 25 26  4  0  0  0
 26 27  4  0  0  0
 26 30  1  0  0  0
 27 28  4  0  0  0
 28 38  1  0  0  0
 30 31  4  0  0  0
 30 34  4  0  0  0
 31 32  4  0  0  0
 32 33  4  0  0  0
 33 34  4  0  0  0
 33 35  1  0  0  0
 35 36  2  0  0  0
 35 37  1  0  0  0
  1 39  1  0  0  0
  2 40  1  0  0  0
  8 41  1  0  0  0
  9 42  1  0  0  0
 12 43  1  0  0  0
 15 44  1  0  0  0
 16 45  1  0  0  0
 18 46  1  0  0  0
 19 47  1  0  0  0
 20 48  1  0  0  0
 20 49  1  0  0  0
 21 50  1  0  0  0
 24 51  1  0  0  0
 25 52  1  0  0  0
 27 53  1  0  0  0
 31 54  1  0  0  0
 32 55  1  0  0  0
 37 56  1  0  0  0
M  END
$$$$
