6iiv_ligand
  -I-interpret- 

 39 40  0  0  0  0  0  0  0  0999 V2000
   26.2690  163.5180  143.8840 C   0  0  0  0  0
   26.3900  165.6720  146.8600 C   0  0  0  0  0
   26.4530  162.2450  144.4330 C   0  0  0  0  0
   26.4730  161.1680  143.5470 C   0  0  0  0  0
   21.2470  159.2570  142.2940 C   0  0  0  0  0
   26.2770  159.8050  144.2060 C   0  0  0  0  0
   23.7530  158.2000  142.8800 C   0  0  0  0  0
   23.2940  158.1950  141.5610 C   0  0  0  0  0
   22.0350  158.7140  141.2740 C   0  0  0  0  0
   21.7100  159.2770  143.6090 C   0  0  0  0  0
   22.9560  158.7230  143.9040 C   0  0  0  0  0
   26.2640  164.6500  144.7010 C   0  0  0  0  0
   27.8660  165.3280  148.6980 O   0  0  0  0  0
   27.7210  165.9020  147.6000 C   0  0  0  0  0
   28.5660  166.6420  147.0620 O   0  0  0  0  0
   26.4260  164.5210  146.0770 C   0  0  0  0  0
   26.5900  163.2440  146.6400 C   0  0  0  0  0
   26.6280  162.1080  145.8220 C   0  0  0  0  0
   26.4820  158.7560  143.2030 N   0  0  0  0  0
   25.3650  157.5650  143.2340 S   0  0  0  0  0
   25.7500  156.5470  142.1590 O   0  0  0  0  0
   25.3830  156.9030  144.6110 O   0  0  0  0  0
   19.6870  159.9270  141.9110 Cl  0  0  0  0  0
   26.1282  163.6273  142.8087 H   0  0  0  0  0
   26.2093  166.5255  146.2065 H   0  0  0  0  0
   25.6005  165.5567  147.6026 H   0  0  0  0  0
   27.4570  161.1579  143.0782 H   0  0  0  0  0
   25.6446  161.3096  142.8529 H   0  0  0  0  0
   25.2674  159.7342  144.6108 H   0  0  0  0  0
   26.9942  159.6826  145.0176 H   0  0  0  0  0
   23.9161  157.7884  140.7637 H   0  0  0  0  0
   21.6615  158.6972  140.2501 H   0  0  0  0  0
   21.1043  159.7212  144.3989 H   0  0  0  0  0
   23.3094  158.6976  144.9348 H   0  0  0  0  0
   26.1328  165.6380  144.2597 H   0  0  0  0  0
   27.0784  164.8164  148.8969 H   0  0  0  0  0
   26.6883  163.1370  147.7203 H   0  0  0  0  0
   26.7923  161.1231  146.2592 H   0  0  0  0  0
   27.2577  158.7688  142.5408 H   0  0  0  0  0
  3  1  4  0  0  0
  1 12  4  0  0  0
  2 14  1  0  0  0
 16  2  1  0  0  0
  4  3  1  0  0  0
  3 18  4  0  0  0
  6  4  1  0  0  0
  9  5  4  0  0  0
 10  5  4  0  0  0
  5 23  1  0  0  0
 19  6  1  0  0  0
  7  8  4  0  0  0
  7 11  4  0  0  0
 20  7  1  0  0  0
  8  9  4  0  0  0
 11 10  4  0  0  0
 12 16  4  0  0  0
 14 13  1  0  0  0
 14 15  2  0  0  0
 17 16  4  0  0  0
 18 17  4  0  0  0
 19 20  1  0  0  0
 20 21  2  0  0  0
 20 22  2  0  0  0
  1 24  1  0  0  0
  2 25  1  0  0  0
  2 26  1  0  0  0
  4 27  1  0  0  0
  4 28  1  0  0  0
  6 29  1  0  0  0
  6 30  1  0  0  0
  8 31  1  0  0  0
  9 32  1  0  0  0
 10 33  1  0  0  0
 11 34  1  0  0  0
 12 35  1  0  0  0
 13 36  1  0  0  0
 17 37  1  0  0  0
 18 38  1  0  0  0
 19 39  1  0  0  0
M  END
$$$$
