6flg_ligand
  -I-interpret- 

166169  0  0  0  0  0  0  0  0999 V2000
   32.4540   23.9980    9.6590 O   0  0  0  0  0
   31.2890   24.4030    9.7170 C   0  0  0  0  0
   30.8400   25.4050   10.7550 C   0  0  0  0  0
   31.7590   25.3130   11.9330 N   0  0  0  0  0
   32.7950   26.1660   12.2430 C   0  0  0  0  0
   33.1520   27.1440   11.5650 O   0  0  0  0  0
   33.4680   25.8800   13.4480 C   0  0  0  0  0
   34.4380   24.8750   13.5290 C   0  0  0  0  0
   35.0800   24.6130   14.7330 C   0  0  0  0  0
   34.7500   25.3600   15.8640 C   0  0  0  0  0
   33.7840   26.3600   15.7860 C   0  0  0  0  0
   33.1450   26.6210   14.5810 C   0  0  0  0  0
   30.3270   24.0100    8.8880 N   0  0  0  0  0
   30.4570   22.8420    8.0200 C   0  0  0  0  0
   31.2260   23.1770    6.7400 C   0  0  0  0  0
   30.8400   24.0760    6.0030 O   0  0  0  0  0
   29.0690   22.2820    7.6240 C   0  0  0  0  0
   29.2170   20.9940    6.8080 C   0  0  0  0  0
   28.2040   22.0610    8.8640 C   0  0  0  0  0
   32.3030   22.4420    6.4820 N   0  0  0  0  0
   33.0030   22.5220    5.1940 C   0  0  0  0  0
   32.1390   21.9260    4.0790 C   0  0  0  0  0
   31.5680   20.8430    4.2450 O   0  0  0  0  0
   34.3460   21.7750    5.2470 C   0  0  0  0  0
   35.6460   22.5470    5.5070 C   0  0  0  0  0
   35.4720   23.7820    6.3760 C   0  0  0  0  0
   36.6750   21.6010    6.1100 C   0  0  0  0  0
   31.2920   22.1440    1.8010 C   0  0  0  0  0
   32.0650   20.9730    1.2180 C   0  0  0  0  0
   32.0530   22.6330    2.9490 N   0  0  0  0  0
   33.2830   20.9500    1.2710 O   0  0  0  0  0
   30.9570   23.2170    0.7530 C   0  0  0  0  0
   32.1860   23.7590    0.0090 C   0  0  0  0  0
   32.1740   23.2790   -1.4490 C   0  0  0  0  0
   31.0310   23.9300   -2.2490 C   0  0  0  0  0
   31.5350   24.3680   -3.5660 N   0  0  0  0  0
   31.5150   23.5910   -4.6770 C   0  0  0  0  0
   31.0820   22.4390   -4.7310 O   0  0  0  0  0
   32.0870   24.2320   -5.9390 C   0  0  0  0  0
   31.5410   25.6520   -6.1850 C   0  0  0  0  0
   31.6360   25.9580   -7.6830 C   0  0  0  0  0
   31.0990   25.1600   -8.4760 O   0  0  0  0  0
   32.2900   26.9700   -7.9980 O   0  0  0  0  0
   29.8930   25.9410   -5.4880 S   0  0  0  0  0
   28.6070   24.9390   -6.3950 C   0  0  0  0  0
   27.9910   25.4630   -7.5460 C   0  0  0  0  0
   27.0000   24.7510   -8.2490 C   0  0  0  0  0
   26.4000   25.2760   -9.4110 C   0  0  0  0  0
   25.4190   24.5670  -10.1050 C   0  0  0  0  0
   25.0370   23.3140   -9.6350 C   0  0  0  0  0
   25.6280   22.7810   -8.4810 C   0  0  0  0  0
   26.6100   23.4920   -7.7810 C   0  0  0  0  0
   27.2090   22.9660   -6.6250 C   0  0  0  0  0
   28.1920   23.6830   -5.9290 C   0  0  0  0  0
   31.3300   20.0000    0.6900 N   0  0  0  0  0
   31.8320   18.6480    0.3860 C   0  0  0  0  0
   32.5980   17.9840    1.5760 C   0  0  0  0  0
   33.3730   17.0420    1.3740 O   0  0  0  0  0
   32.6550   18.6460   -0.9290 C   0  0  0  0  0
   31.9000   19.0820   -2.1980 C   0  0  0  0  0
   30.8840   18.0680   -2.7530 C   0  0  0  0  0
   29.9740   18.5080   -3.4920 O   0  0  0  0  0
   30.9770   16.8440   -2.4880 O   0  0  0  0  0
   32.3310   18.4540    2.8050 N   0  0  0  0  0
   33.0620   18.0570    4.0220 C   0  0  0  0  0
   34.6040   18.1670    3.9620 C   0  0  0  0  0
   35.2870   17.4580    4.6940 O   0  0  0  0  0
   32.6780   16.6260    4.4240 C   0  0  0  0  0
   31.1910   16.3570    4.5550 C   0  0  0  0  0
   30.4150   17.0570    5.4830 C   0  0  0  0  0
   30.5640   15.3730    3.7820 C   0  0  0  0  0
   29.0540   16.8030    5.6200 C   0  0  0  0  0
   29.2080   15.1120    3.9130 C   0  0  0  0  0
   28.4530   15.8320    4.8310 C   0  0  0  0  0
   27.0990   15.5740    4.9750 O   0  0  0  0  0
   35.1510   19.0500    3.1220 N   0  0  0  0  0
   36.6100   19.1600    2.9270 C   0  0  0  0  0
   37.0670   18.5880    1.5960 C   0  0  0  0  0
   37.6460   19.3070    0.7830 O   0  0  0  0  0
   36.8290   17.2920    1.3880 N   0  0  0  0  0
   37.0120   16.6320    0.0750 C   0  0  0  0  0
   35.9950   15.4990   -0.0890 C   0  0  0  0  0
   35.0840   15.5780   -0.9170 O   0  0  0  0  0
   38.4420   16.0440   -0.1390 C   0  0  0  0  0
   39.4040   17.0890   -0.6970 C   0  0  0  0  0
   38.9890   15.4190    1.1430 C   0  0  0  0  0
   36.0620   14.4800    0.6030 O   0  0  0  0  0
   29.8172   25.1883   11.0633 H   0  0  0  0  0
   30.8697   26.4115   10.3377 H   0  0  0  0  0
   31.6012   24.5358   12.5745 H   0  0  0  0  0
   34.6916   24.2941   12.6422 H   0  0  0  0  0
   35.8357   23.8298   14.7934 H   0  0  0  0  0
   35.2499   25.1603   16.8118 H   0  0  0  0  0
   33.5287   26.9395   16.6732 H   0  0  0  0  0
   32.3908   27.4058   14.5225 H   0  0  0  0  0
   29.4605   24.5472    8.8565 H   0  0  0  0  0
   31.0081   22.0927    8.5883 H   0  0  0  0  0
   28.5663   23.0163    6.9946 H   0  0  0  0  0
   29.7848   21.2030    5.9013 H   0  0  0  0  0
   29.7422   20.2468    7.4030 H   0  0  0  0  0
   28.2290   20.6189    6.5411 H   0  0  0  0  0
   28.6964   21.3494    9.5268 H   0  0  0  0  0
   28.0675   23.0092    9.3839 H   0  0  0  0  0
   27.2333   21.6673    8.5628 H   0  0  0  0  0
   32.6525   21.8053    7.1981 H   0  0  0  0  0
   33.1929   23.5750    4.9859 H   0  0  0  0  0
   34.4690   21.3657    4.2443 H   0  0  0  0  0
   34.2514   21.1063    6.1026 H   0  0  0  0  0
   35.9909   22.9236    4.5440 H   0  0  0  0  0
   34.7806   24.4713    5.8913 H   0  0  0  0  0
   35.0732   23.4882    7.3470 H   0  0  0  0  0
   36.4378   24.2689    6.5107 H   0  0  0  0  0
   36.2920   21.2000    7.0484 H   0  0  0  0  0
   36.8661   20.7833    5.4151 H   0  0  0  0  0
   37.6010   22.1447    6.2968 H   0  0  0  0  0
   30.3066   21.8257    2.1412 H   0  0  0  0  0
   32.5285   23.5332    2.8859 H   0  0  0  0  0
   30.4993   24.0546    1.2793 H   0  0  0  0  0
   30.3047   22.7557    0.0116 H   0  0  0  0  0
   33.0896   23.3950    0.4981 H   0  0  0  0  0
   32.1634   24.8486    0.0271 H   0  0  0  0  0
   32.0278   22.1989   -1.4553 H   0  0  0  0  0
   33.1209   23.5574   -1.9116 H   0  0  0  0  0
   30.6512   24.7926   -1.7014 H   0  0  0  0  0
   30.2295   23.2050   -2.3908 H   0  0  0  0  0
   31.9203   25.3091   -3.6445 H   0  0  0  0  0
   31.8010   23.6117   -6.7884 H   0  0  0  0  0
   33.1676   24.3056   -5.8166 H   0  0  0  0  0
   32.1626   26.3610   -5.6381 H   0  0  0  0  0
   30.6568   24.4669   -7.9804 H   0  0  0  0  0
   28.2893   26.4484   -7.9040 H   0  0  0  0  0
   26.7086   26.2560   -9.7750 H   0  0  0  0  0
   24.9598   24.9872  -10.9998 H   0  0  0  0  0
   24.2747   22.7444  -10.1667 H   0  0  0  0  0
   25.3185   21.7989   -8.1236 H   0  0  0  0  0
   26.9046   21.9840   -6.2629 H   0  0  0  0  0
   28.6341   23.2641   -5.0250 H   0  0  0  0  0
   30.3524   20.2024    0.4810 H   0  0  0  0  0
   30.9574   18.0161    0.2319 H   0  0  0  0  0
   32.9635   17.6139   -1.0956 H   0  0  0  0  0
   33.4593   19.3680   -0.7880 H   0  0  0  0  0
   32.6537   19.2190   -2.9734 H   0  0  0  0  0
   31.3313   19.9718   -1.9279 H   0  0  0  0  0
   31.7306   16.6990   -1.9113 H   0  0  0  0  0
   31.5732   19.1296    2.9030 H   0  0  0  0  0
   32.7518   18.7892    4.7675 H   0  0  0  0  0
   33.1108   16.4553    5.4097 H   0  0  0  0  0
   33.0411   15.9740    3.6296 H   0  0  0  0  0
   30.8842   17.8150    6.1102 H   0  0  0  0  0
   31.1520   14.8013    3.0640 H   0  0  0  0  0
   28.4624   17.3639    6.3436 H   0  0  0  0  0
   28.7365   14.3452    3.2983 H   0  0  0  0  0
   26.8394   14.8818    4.3626 H   0  0  0  0  0
   34.5373   19.6717    2.5955 H   0  0  0  0  0
   37.0978   18.5937    3.7204 H   0  0  0  0  0
   36.8717   20.2180    2.9447 H   0  0  0  0  0
   36.5046   16.7271    2.1729 H   0  0  0  0  0
   36.8627   17.4119   -0.6717 H   0  0  0  0  0
   35.1484   16.4148   -1.3831 H   0  0  0  0  0
   38.3540   15.2509   -0.8815 H   0  0  0  0  0
   39.0324   17.4472   -1.6570 H   0  0  0  0  0
   39.4763   17.9236    0.0004 H   0  0  0  0  0
   40.3881   16.6400   -0.8315 H   0  0  0  0  0
   39.0413   16.1790    1.9226 H   0  0  0  0  0
   38.3287   14.6131    1.4632 H   0  0  0  0  0
   39.9859   15.0205    0.9548 H   0  0  0  0  0
  2  1  2  0  0  0
  2  3  1  0  0  0
 13  2  1  0  0  0
  3  4  1  0  0  0
  4  5  1  0  0  0
  5  6  2  0  0  0
  5  7  1  0  0  0
  7  8  4  0  0  0
  7 12  4  0  0  0
  8  9  4  0  0  0
  9 10  4  0  0  0
 11 10  4  0  0  0
 12 11  4  0  0  0
 14 13  1  0  0  0
 15 14  1  0  0  0
 14 17  1  0  0  0
 15 16  2  0  0  0
 20 15  1  0  0  0
 17 18  1  0  0  0
 17 19  1  0  0  0
 21 20  1  0  0  0
 22 21  1  0  0  0
 21 24  1  0  0  0
 22 23  2  0  0  0
 30 22  1  0  0  0
 24 25  1  0  0  0
 25 26  1  0  0  0
 25 27  1  0  0  0
 28 29  1  0  0  0
 28 30  1  0  0  0
 28 32  1  0  0  0
 29 31  2  0  0  0
 29 55  1  0  0  0
 32 33  1  0  0  0
 33 34  1  0  0  0
 34 35  1  0  0  0
 35 36  1  0  0  0
 36 37  1  0  0  0
 37 38  2  0  0  0
 37 39  1  0  0  0
 39 40  1  0  0  0
 40 41  1  0  0  0
 40 44  1  0  0  0
 41 42  1  0  0  0
 41 43  2  0  0  0
 44 45  1  0  0  0
 45 46  4  0  0  0
 45 54  4  0  0  0
 46 47  4  0  0  0
 47 48  4  0  0  0
 47 52  4  0  0  0
 48 49  4  0  0  0
 49 50  4  0  0  0
 50 51  4  0  0  0
 51 52  4  0  0  0
 52 53  4  0  0  0
 53 54  4  0  0  0
 55 56  1  0  0  0
 56 57  1  0  0  0
 56 59  1  0  0  0
 57 58  2  0  0  0
 57 64  1  0  0  0
 59 60  1  0  0  0
 60 61  1  0  0  0
 61 62  2  0  0  0
 61 63  1  0  0  0
 64 65  1  0  0  0
 65 66  1  0  0  0
 65 68  1  0  0  0
 66 67  2  0  0  0
 66 76  1  0  0  0
 68 69  1  0  0  0
 69 70  4  0  0  0
 69 71  4  0  0  0
 70 72  4  0  0  0
 71 73  4  0  0  0
 72 74  4  0  0  0
 73 74  4  0  0  0
 74 75  1  0  0  0
 76 77  1  0  0  0
 77 78  1  0  0  0
 78 79  2  0  0  0
 78 80  1  0  0  0
 80 81  1  0  0  0
 81 82  1  0  0  0
 81 84  1  0  0  0
 82 83  1  0  0  0
 82 87  2  0  0  0
 84 85  1  0  0  0
 84 86  1  0  0  0
  3 88  1  0  0  0
  3 89  1  0  0  0
  4 90  1  0  0  0
  8 91  1  0  0  0
  9 92  1  0  0  0
 10 93  1  0  0  0
 11 94  1  0  0  0
 12 95  1  0  0  0
 13 96  1  0  0  0
 14 97  1  0  0  0
 17 98  1  0  0  0
 18 99  1  0  0  0
 18100  1  0  0  0
 18101  1  0  0  0
 19102  1  0  0  0
 19103  1  0  0  0
 19104  1  0  0  0
 20105  1  0  0  0
 21106  1  0  0  0
 24107  1  0  0  0
 24108  1  0  0  0
 25109  1  0  0  0
 26110  1  0  0  0
 26111  1  0  0  0
 26112  1  0  0  0
 27113  1  0  0  0
 27114  1  0  0  0
 27115  1  0  0  0
 28116  1  0  0  0
 30117  1  0  0  0
 32118  1  0  0  0
 32119  1  0  0  0
 33120  1  0  0  0
 33121  1  0  0  0
 34122  1  0  0  0
 34123  1  0  0  0
 35124  1  0  0  0
 35125  1  0  0  0
 36126  1  0  0  0
 39127  1  0  0  0
 39128  1  0  0  0
 40129  1  0  0  0
 42130  1  0  0  0
 46131  1  0  0  0
 48132  1  0  0  0
 49133  1  0  0  0
 50134  1  0  0  0
 51135  1  0  0  0
 53136  1  0  0  0
 54137  1  0  0  0
 55138  1  0  0  0
 56139  1  0  0  0
 59140  1  0  0  0
 59141  1  0  0  0
 60142  1  0  0  0
 60143  1  0  0  0
 63144  1  0  0  0
 64145  1  0  0  0
 65146  1  0  0  0
 68147  1  0  0  0
 68148  1  0  0  0
 70149  1  0  0  0
 71150  1  0  0  0
 72151  1  0  0  0
 73152  1  0  0  0
 75153  1  0  0  0
 76154  1  0  0  0
 77155  1  0  0  0
 77156  1  0  0  0
 80157  1  0  0  0
 81158  1  0  0  0
 83159  1  0  0  0
 84160  1  0  0  0
 85161  1  0  0  0
 85162  1  0  0  0
 85163  1  0  0  0
 86164  1  0  0  0
 86165  1  0  0  0
 86166  1  0  0  0
M  END
$$$$
