### 
### Created by X-TOOL on Wed Jan  1 15:39:38 2020
### 

@<TRIPOS>MOLECULE
6flg_ligand
  163   166     1     0     0
SMALL
GAST_HUCK


@<TRIPOS>ATOM
      1 O          32.4540   23.9980    9.6590 O.2       1 GZB        -0.3947
      2 C          31.2890   24.4030    9.7170 C.2       1 GZB         0.2007
      3 CA         30.8400   25.4050   10.7550 C.3       1 GZB         0.1197
      4 N          31.7590   25.3130   11.9330 N.am      1 GZB        -0.2676
      5 CAE        32.7950   26.1660   12.2430 C.2       1 GZB         0.2070
      6 OAF        33.1520   27.1440   11.5650 O.2       1 GZB        -0.3845
      7 CAG        33.4680   25.8800   13.4480 C.ar      1 GZB         0.0500
      8 CAH        34.4380   24.8750   13.5290 C.ar      1 GZB        -0.0419
      9 CAI        35.0800   24.6130   14.7330 C.ar      1 GZB        -0.0562
     10 CAJ        34.7500   25.3600   15.8640 C.ar      1 GZB        -0.0575
     11 CAK        33.7840   26.3600   15.7860 C.ar      1 GZB        -0.0562
     12 CAL        33.1450   26.6210   14.5810 C.ar      1 GZB        -0.0419
     13 N          30.3270   24.0100    8.8880 N.am      1 VAL        -0.2637
     14 CA         30.4570   22.8420    8.0200 C.3       1 VAL         0.1332
     15 C          31.2260   23.1770    6.7400 C.2       1 VAL         0.2041
     16 O          30.8400   24.0760    6.0030 O.2       1 VAL        -0.3944
     17 CB         29.0690   22.2820    7.6240 C.3       1 VAL        -0.0063
     18 CG1        29.2170   20.9940    6.8080 C.3       1 VAL        -0.0584
     19 CG2        28.2040   22.0610    8.8640 C.3       1 VAL        -0.0584
     20 N          32.3030   22.4420    6.4820 N.am      1 LEU        -0.2637
     21 CA         33.0030   22.5220    5.1940 C.3       1 LEU         0.1312
     22 C          32.1390   21.9260    4.0790 C.2       1 LEU         0.2039
     23 O          31.5680   20.8430    4.2450 O.2       1 LEU        -0.3944
     24 CB         34.3460   21.7750    5.2470 C.3       1 LEU        -0.0101
     25 CG         35.6460   22.5470    5.5070 C.3       1 LEU        -0.0425
     26 CD1        35.4720   23.7820    6.3760 C.3       1 LEU        -0.0625
     27 CD2        36.6750   21.6010    6.1100 C.3       1 LEU        -0.0625
     28 CA         31.2920   22.1440    1.8010 C.3       1 DQK         0.1310
     29 C          32.0650   20.9730    1.2180 C.2       1 DQK         0.2039
     30 N          32.0530   22.6330    2.9490 N.am      1 DQK        -0.2637
     31 O          33.2830   20.9500    1.2710 O.2       1 DQK        -0.3944
     32 CB         30.9570   23.2170    0.7530 C.3       1 DQK        -0.0123
     33 CAD        32.1860   23.7590    0.0090 C.3       1 DQK        -0.0470
     34 CAE        32.1740   23.2790   -1.4490 C.3       1 DQK        -0.0325
     35 CAF        31.0310   23.9300   -2.2490 C.3       1 DQK         0.0309
     36 NAG        31.5350   24.3680   -3.5660 N.am      1 DQK        -0.2868
     37 CAJ        31.5150   23.5910   -4.6770 C.2       1 DQK         0.1789
     38 OAN        31.0820   22.4390   -4.7310 O.2       1 DQK        -0.3969
     39 CAK        32.0870   24.2320   -5.9390 C.3       1 DQK         0.0628
     40 CAL        31.5410   25.6520   -6.1850 C.3       1 DQK         0.0875
     41 CAM        31.6360   25.9580   -7.6830 C.2       1 DQK         0.0523
     42 OAP        31.0990   25.1600   -8.4760 O.co2     1 DQK        -0.5675
     43 OAO        32.2900   26.9700   -7.9980 O.co2     1 DQK        -0.5675
     44 SAQ        29.8930   25.9410   -5.4880 S.3       1 DQK        -0.0803
     45 CAR        28.6070   24.9390   -6.3950 C.ar      1 DQK         0.0184
     46 CAS        27.9910   25.4630   -7.5460 C.ar      1 DQK        -0.0443
     47 CAT        27.0000   24.7510   -8.2490 C.ar      1 DQK        -0.0251
     48 CAX        26.4000   25.2760   -9.4110 C.ar      1 DQK        -0.0578
     49 CAY        25.4190   24.5670  -10.1050 C.ar      1 DQK        -0.0637
     50 CAZ        25.0370   23.3140   -9.6350 C.ar      1 DQK        -0.0634
     51 CBA        25.6280   22.7810   -8.4810 C.ar      1 DQK        -0.0568
     52 CAU        26.6100   23.4920   -7.7810 C.ar      1 DQK        -0.0222
     53 CAV        27.2090   22.9660   -6.6250 C.ar      1 DQK        -0.0559
     54 CAW        28.1920   23.6830   -5.9290 C.ar      1 DQK        -0.0460
     55 N          31.3300   20.0000    0.6900 N.am      1 GLU        -0.2636
     56 CA         31.8320   18.6480    0.3860 C.3       1 GLU         0.1325
     57 C          32.5980   17.9840    1.5760 C.2       1 GLU         0.2041
     58 O          33.3730   17.0420    1.3740 O.2       1 GLU        -0.3944
     59 CB         32.6550   18.6460   -0.9290 C.3       1 GLU        -0.0008
     60 CG         31.9000   19.0820   -2.1980 C.3       1 GLU         0.0044
     61 CD         30.8840   18.0680   -2.7530 C.2       1 GLU         0.0350
     62 OE1        29.9740   18.5080   -3.4920 O.co2     1 GLU        -0.5690
     63 OE2        30.9770   16.8440   -2.4880 O.co2     1 GLU        -0.5690
     64 N          32.3310   18.4540    2.8050 N.am      1 TYR        -0.2621
     65 CA         33.0620   18.0570    4.0220 C.3       1 TYR         0.1390
     66 C          34.6040   18.1670    3.9620 C.2       1 TYR         0.2055
     67 O          35.2870   17.4580    4.6940 O.2       1 TYR        -0.3942
     68 CB         32.6780   16.6260    4.4240 C.3       1 TYR         0.0163
     69 CG         31.1910   16.3570    4.5550 C.ar      1 TYR        -0.0493
     70 CD1        30.4150   17.0570    5.4830 C.ar      1 TYR        -0.0685
     71 CD2        30.5640   15.3730    3.7820 C.ar      1 TYR        -0.0685
     72 CE1        29.0540   16.8030    5.6200 C.ar      1 TYR        -0.0398
     73 CE2        29.2080   15.1120    3.9130 C.ar      1 TYR        -0.0398
     74 CZ         28.4530   15.8320    4.8310 C.ar      1 TYR         0.0805
     75 OH         27.0990   15.5740    4.9750 O.3       1 TYR        -0.3376
     76 N          35.1510   19.0500    3.1220 N.am      1 GLY        -0.2663
     77 CA         36.6100   19.1600    2.9270 C.3       1 GLY         0.1201
     78 C          37.0670   18.5880    1.5960 C.2       1 GLY         0.2002
     79 O          37.6460   19.3070    0.7830 O.2       1 GLY        -0.3947
     80 N          36.8290   17.2920    1.3880 N.am      1 VAL        -0.2695
     81 CA         37.0120   16.6320    0.0750 C.3       1 VAL         0.0966
     82 C          35.9950   15.4990   -0.0890 C.2       1 VAL         0.0603
     83 O          35.0840   15.5780   -0.9170 O.co2     1 VAL        -0.5666
     84 CB         38.4420   16.0440   -0.1390 C.3       1 VAL        -0.0118
     85 CG1        39.4040   17.0890   -0.6970 C.3       1 VAL        -0.0590
     86 CG2        38.9890   15.4190    1.1430 C.3       1 VAL        -0.0590
     87 OXT        36.0620   14.4800    0.6030 O.co2     1 VAL        -0.5666
     88 H1         29.8105   25.1779   11.0690 H         1 GZB         0.0763
     89 H2         30.8791   26.4198   10.3324 H         1 GZB         0.0763
     90 H3         31.6043   24.5510   12.5619 H         1 GZB         0.1874
     91 H4         34.6902   24.2973   12.6471 H         1 GZB         0.0669
     92 H5         35.8315   23.8341   14.7930 H         1 GZB         0.0629
     93 H6         35.2471   25.1614   16.8066 H         1 GZB         0.0653
     94 H7         33.5301   26.9363   16.6683 H         1 GZB         0.0629
     95 H8         32.3950   27.4015   14.5229 H         1 GZB         0.0669
     96 H9         29.4775   24.5367    8.8572 H         1 VAL         0.1883
     97 H10        31.0085   22.0653    8.5702 H         1 VAL         0.0802
     98 H11        28.5679   23.0285    6.9902 H         1 VAL         0.0343
     99 H12        28.2205   20.6145    6.5380 H         1 VAL         0.0234
    100 H13        29.7469   20.2390    7.4074 H         1 VAL         0.0234
    101 H14        29.7898   21.2036    5.8926 H         1 VAL         0.0234
    102 H15        28.1193   23.0036    9.4247 H         1 VAL         0.0234
    103 H16        28.6677   21.2949    9.5028 H         1 VAL         0.0234
    104 H17        27.2023   21.7255    8.5573 H         1 VAL         0.0234
    105 H18        32.6457   21.8178    7.1841 H         1 LEU         0.1883
    106 H19        33.1964   23.5808    4.9670 H         1 LEU         0.0800
    107 H20        34.4661   21.2693    4.2775 H         1 LEU         0.0315
    108 H21        34.2591   21.0226    6.0447 H         1 LEU         0.0315
    109 H22        36.0263   22.8886    4.5330 H         1 LEU         0.0298
    110 H23        36.4461   24.2744    6.5127 H         1 LEU         0.0232
    111 H24        35.0696   23.4869    7.3563 H         1 LEU         0.0232
    112 H25        34.7744   24.4785    5.8879 H         1 LEU         0.0232
    113 H26        36.7830   20.7169    5.4644 H         1 LEU         0.0232
    114 H27        36.3421   21.2862    7.1100 H         1 LEU         0.0232
    115 H28        37.6435   22.1161    6.1912 H         1 LEU         0.0232
    116 H29        30.3309   21.7630    2.1766 H         1 DQK         0.0800
    117 H30        32.5192   23.5155    2.8872 H         1 DQK         0.1883
    118 H31        30.4612   24.0567    1.2621 H         1 DQK         0.0312
    119 H32        30.2697   22.7785    0.0146 H         1 DQK         0.0312
    120 H33        33.0995   23.3973    0.5036 H         1 DQK         0.0268
    121 H34        32.1684   24.8586    0.0301 H         1 DQK         0.0268
    122 H35        32.0439   22.1868   -1.4645 H         1 DQK         0.0285
    123 H36        33.1333   23.5408   -1.9192 H         1 DQK         0.0285
    124 H37        30.6466   24.8000   -1.6964 H         1 DQK         0.0520
    125 H38        30.2214   23.1991   -2.3915 H         1 DQK         0.0520
    126 H39        31.9128   25.2907   -3.6429 H         1 DQK         0.1851
    127 H40        31.8284   23.6012   -6.8023 H         1 DQK         0.0533
    128 H41        33.1811   24.2880   -5.8403 H         1 DQK         0.0533
    129 H42        32.2160   26.3504   -5.6686 H         1 DQK         0.0630
    130 H43        28.2876   26.4430   -7.9020 H         1 DQK         0.0539
    131 H44        26.7069   26.2506   -9.7730 H         1 DQK         0.0603
    132 H45        24.9623   24.9849  -10.9949 H         1 DQK         0.0611
    133 H46        24.2789   22.7476  -10.1637 H         1 DQK         0.0598
    134 H47        25.3202   21.8043   -8.1255 H         1 DQK         0.0619
    135 H48        26.9062   21.9894   -6.2649 H         1 DQK         0.0620
    136 H49        28.6317   23.2664   -5.0300 H         1 DQK         0.0594
    137 H50        30.3716   20.1985    0.4851 H         1 GLU         0.1883
    138 H51        30.9470   18.0205    0.2045 H         1 GLU         0.0801
    139 H52        33.0257   17.6234   -1.0926 H         1 GLU         0.0330
    140 H53        33.5075   19.3278   -0.7936 H         1 GLU         0.0330
    141 H54        32.6447   19.2782   -2.9834 H         1 GLU         0.0433
    142 H55        31.3580   20.0107   -1.9663 H         1 GLU         0.0433
    143 H56        31.5880   19.1164    2.9010 H         1 TYR         0.1885
    144 H57        32.7280   18.7345    4.8216 H         1 TYR         0.0821
    145 H58        33.1474   16.4101    5.3951 H         1 TYR         0.0453
    146 H59        33.0796   15.9415    3.6623 H         1 TYR         0.0453
    147 H60        30.8816   17.8108    6.1068 H         1 TYR         0.0530
    148 H61        31.1488   14.8045    3.0679 H         1 TYR         0.0530
    149 H62        28.4657   17.3608    6.3396 H         1 TYR         0.0525
    150 H63        28.7391   14.3494    3.3017 H         1 TYR         0.0525
    151 H64        26.7369   16.1495    5.6385 H         1 TYR         0.2458
    152 H65        34.5493   19.6595    2.6058 H         1 GLY         0.1881
    153 H66        37.1157   18.6141    3.7371 H         1 GLY         0.0763
    154 H67        36.8918   20.2224    2.9690 H         1 GLY         0.0763
    155 H68        36.5110   16.7382    2.1575 H         1 VAL         0.1875
    156 H69        36.8327   17.3852   -0.7064 H         1 VAL         0.0729
    157 H70        38.3579   15.2417   -0.8868 H         1 VAL         0.0336
    158 H71        40.3976   16.6370   -0.8332 H         1 VAL         0.0234
    159 H72        39.4779   17.9318    0.0059 H         1 VAL         0.0234
    160 H73        39.0301   17.4513   -1.6660 H         1 VAL         0.0234
    161 H74        38.2752   14.6718    1.5201 H         1 VAL         0.0234
    162 H75        39.1333   16.2033    1.9007 H         1 VAL         0.0234
    163 H76        39.9523   14.9318    0.9314 H         1 VAL         0.0234
@<TRIPOS>BOND
     1    2    1 2  
     2    2    3 1  
     3   13    2 am 
     4    3    4 1  
     5    4    5 am 
     6    5    6 2  
     7    5    7 1  
     8    7    8 ar 
     9    7   12 ar 
    10    8    9 ar 
    11    9   10 ar 
    12   11   10 ar 
    13   12   11 ar 
    14   14   13 1  
    15   15   14 1  
    16   14   17 1  
    17   15   16 2  
    18   20   15 am 
    19   17   18 1  
    20   17   19 1  
    21   21   20 1  
    22   22   21 1  
    23   21   24 1  
    24   22   23 2  
    25   30   22 am 
    26   24   25 1  
    27   25   26 1  
    28   25   27 1  
    29   28   29 1  
    30   28   30 1  
    31   28   32 1  
    32   29   31 2  
    33   29   55 am 
    34   32   33 1  
    35   33   34 1  
    36   34   35 1  
    37   35   36 1  
    38   36   37 am 
    39   37   38 2  
    40   37   39 1  
    41   39   40 1  
    42   40   41 1  
    43   40   44 1  
    44   41   42 ar 
    45   41   43 ar 
    46   44   45 1  
    47   45   46 ar 
    48   45   54 ar 
    49   46   47 ar 
    50   47   48 ar 
    51   47   52 ar 
    52   48   49 ar 
    53   49   50 ar 
    54   50   51 ar 
    55   51   52 ar 
    56   52   53 ar 
    57   53   54 ar 
    58   55   56 1  
    59   56   57 1  
    60   56   59 1  
    61   57   58 2  
    62   57   64 am 
    63   59   60 1  
    64   60   61 1  
    65   61   62 ar 
    66   61   63 ar 
    67   64   65 1  
    68   65   66 1  
    69   65   68 1  
    70   66   67 2  
    71   66   76 am 
    72   68   69 1  
    73   69   70 ar 
    74   69   71 ar 
    75   70   72 ar 
    76   71   73 ar 
    77   72   74 ar 
    78   73   74 ar 
    79   74   75 1  
    80   76   77 1  
    81   77   78 1  
    82   78   79 2  
    83   78   80 am 
    84   80   81 1  
    85   81   82 1  
    86   81   84 1  
    87   82   83 ar 
    88   82   87 ar 
    89   84   85 1  
    90   84   86 1  
    91    3   88 1  
    92    3   89 1  
    93    4   90 1  
    94    8   91 1  
    95    9   92 1  
    96   10   93 1  
    97   11   94 1  
    98   12   95 1  
    99   13   96 1  
   100   14   97 1  
   101   17   98 1  
   102   18   99 1  
   103   18  100 1  
   104   18  101 1  
   105   19  102 1  
   106   19  103 1  
   107   19  104 1  
   108   20  105 1  
   109   21  106 1  
   110   24  107 1  
   111   24  108 1  
   112   25  109 1  
   113   26  110 1  
   114   26  111 1  
   115   26  112 1  
   116   27  113 1  
   117   27  114 1  
   118   27  115 1  
   119   28  116 1  
   120   30  117 1  
   121   32  118 1  
   122   32  119 1  
   123   33  120 1  
   124   33  121 1  
   125   34  122 1  
   126   34  123 1  
   127   35  124 1  
   128   35  125 1  
   129   36  126 1  
   130   39  127 1  
   131   39  128 1  
   132   40  129 1  
   133   46  130 1  
   134   48  131 1  
   135   49  132 1  
   136   50  133 1  
   137   51  134 1  
   138   53  135 1  
   139   54  136 1  
   140   55  137 1  
   141   56  138 1  
   142   59  139 1  
   143   59  140 1  
   144   60  141 1  
   145   60  142 1  
   146   64  143 1  
   147   65  144 1  
   148   68  145 1  
   149   68  146 1  
   150   70  147 1  
   151   71  148 1  
   152   72  149 1  
   153   73  150 1  
   154   75  151 1  
   155   76  152 1  
   156   77  153 1  
   157   77  154 1  
   158   80  155 1  
   159   81  156 1  
   160   84  157 1  
   161   85  158 1  
   162   85  159 1  
   163   85  160 1  
   164   86  161 1  
   165   86  162 1  
   166   86  163 1  
@<TRIPOS>SUBSTRUCTURE
     1 GZB         1

