6afl_ligand
  -I-interpret- 

 34 36  0  0  0  0  0  0  0  0999 V2000
   38.4170  -13.8970  -10.2030 O   0  0  0  0  0
   37.7550  -13.6390  -11.1950 C   0  0  0  0  0
   37.2190  -12.3760  -11.5130 C   0  0  0  0  0
   38.0840  -11.2940  -11.3390 O   0  0  0  0  0
   36.6410  -12.5610  -12.7910 C   0  0  0  0  0
   36.0820  -11.7110  -13.6830 C   0  0  0  0  0
   35.5220  -12.2590  -14.8510 C   0  0  0  0  0
   35.0200  -11.6240  -15.6620 F   0  0  0  0  0
   35.5420  -13.5940  -15.0550 C   0  0  0  0  0
   36.1270  -14.4210  -14.1040 C   0  0  0  0  0
   36.6390  -13.9120  -12.9980 C   0  0  0  0  0
   37.2720  -14.5580  -12.0220 N   0  0  0  0  0
   37.6330  -15.9610  -11.9730 C   0  0  0  0  0
   36.4340  -16.7530  -11.6480 C   0  0  0  0  0
   36.7630  -18.1650  -11.8160 C   0  0  0  0  0
   37.0500  -18.9920  -10.7230 C   0  0  0  0  0
   37.3320  -20.3450  -10.9340 C   0  0  0  0  0
   37.3470  -20.8840  -12.2200 C   0  0  0  0  0
   37.0800  -20.0660  -13.3380 C   0  0  0  0  0
   36.7850  -18.7220  -13.1180 C   0  0  0  0  0
   36.4588  -12.0515  -10.8025 H   0  0  0  0  0
   38.4036  -11.2836  -10.4338 H   0  0  0  0  0
   36.0662  -10.6362  -13.5022 H   0  0  0  0  0
   35.1031  -14.0189  -15.9577 H   0  0  0  0  0
   36.1636  -15.4974  -14.2719 H   0  0  0  0  0
   38.3955  -16.1182  -11.2102 H   0  0  0  0  0
   38.0290  -16.2729  -12.9394 H   0  0  0  0  0
   35.6119  -16.4779  -12.3088 H   0  0  0  0  0
   36.1233  -16.5595  -10.6213 H   0  0  0  0  0
   37.0535  -18.5829   -9.7127 H   0  0  0  0  0
   37.5434  -20.9885  -10.0800 H   0  0  0  0  0
   37.5660  -21.9423  -12.3621 H   0  0  0  0  0
   37.1039  -20.4749  -14.3481 H   0  0  0  0  0
   36.5650  -18.0813  -13.9720 H   0  0  0  0  0
  1  2  2  0  0  0
  2  3  1  0  0  0
  2 12  1  0  0  0
  3  4  1  0  0  0
  3  5  1  0  0  0
  5  6  4  0  0  0
  5 11  4  0  0  0
  6  7  4  0  0  0
  7  8  1  0  0  0
  7  9  4  0  0  0
  9 10  4  0  0  0
 10 11  4  0  0  0
 11 12  1  0  0  0
 12 13  1  0  0  0
 13 14  1  0  0  0
 14 15  1  0  0  0
 15 16  4  0  0  0
 15 20  4  0  0  0
 16 17  4  0  0  0
 17 18  4  0  0  0
 18 19  4  0  0  0
 19 20  4  0  0  0
  3 21  1  0  0  0
  4 22  1  0  0  0
  6 23  1  0  0  0
  9 24  1  0  0  0
 10 25  1  0  0  0
 13 26  1  0  0  0
 13 27  1  0  0  0
 14 28  1  0  0  0
 14 29  1  0  0  0
 16 30  1  0  0  0
 17 31  1  0  0  0
 18 32  1  0  0  0
 19 33  1  0  0  0
 20 34  1  0  0  0
M  END
$$$$
