4us3_ligand
  -I-interpret- 

 27 28  0  0  0  0  0  0  0  0999 V2000
   40.2910   24.1330  137.0810 N   0  3  0  0  0
   39.7790   24.6300  135.8020 C   0  0  0  0  0
   40.4380   25.9360  135.3780 C   0  0  0  0  0
   40.0530   26.4950  134.3380 O   0  0  0  0  0
   38.2390   24.8030  135.8290 C   0  0  0  0  0
   37.5260   23.6780  136.5070 C   0  0  0  0  0
   37.3050   22.4220  136.0140 C   0  0  0  0  0
   36.9730   23.6980  137.8330 C   0  0  0  0  0
   36.6340   21.6600  136.9510 N   0  0  0  0  0
   36.4280   22.4160  138.0780 C   0  0  0  0  0
   36.9010   24.6730  138.8440 C   0  0  0  0  0
   35.7970   22.0860  139.2870 C   0  0  0  0  0
   36.2740   24.3490  140.0430 C   0  0  0  0  0
   35.7350   23.0620  140.2540 C   0  0  0  0  0
   41.3480   26.4410  136.0510 O   0  0  0  0  0
   41.3044   24.0325  137.0242 H   0  0  0  0  0
   40.0547   24.7945  137.8206 H   0  0  0  0  0
   39.8692   23.2272  137.2858 H   0  0  0  0  0
   40.0340   23.8702  135.0632 H   0  0  0  0  0
   39.3486   25.9781  133.9402 H   0  0  0  0  0
   37.8942   24.8346  134.7955 H   0  0  0  0  0
   38.0208   25.7135  136.3870 H   0  0  0  0  0
   37.6126   22.0736  135.0280 H   0  0  0  0  0
   37.3284   25.6640  138.6911 H   0  0  0  0  0
   35.3729   21.0957  139.4532 H   0  0  0  0  0
   36.1981   25.0994  140.8300 H   0  0  0  0  0
   35.2575   22.8357  141.2074 H   0  0  0  0  0
  1  2  1  0  0  0
  2  3  1  0  0  0
  2  5  1  0  0  0
  3  4  1  0  0  0
  3 15  2  0  0  0
  5  6  1  0  0  0
  6  7  4  0  0  0
  6  8  4  0  0  0
  7  9  4  0  0  0
  8 10  4  0  0  0
  8 11  4  0  0  0
  9 10  4  0  0  0
 10 12  4  0  0  0
 11 13  4  0  0  0
 12 14  4  0  0  0
 13 14  4  0  0  0
  1 16  1  0  0  0
  1 17  1  0  0  0
  1 18  1  0  0  0
  2 19  1  0  0  0
  4 20  1  0  0  0
  5 21  1  0  0  0
  5 22  1  0  0  0
  7 23  1  0  0  0
 11 24  1  0  0  0
 12 25  1  0  0  0
 13 26  1  0  0  0
 14 27  1  0  0  0
M  END
$$$$
