4bzn_ligand
  -I-interpret- 

 47 49  0  0  0  0  0  0  0  0999 V2000
   20.4840  -34.0910    4.3330 O   0  0  0  0  0
   21.6070  -33.6510    4.5630 C   0  0  0  0  0
   22.4980  -34.3270    5.2830 N   0  0  0  0  0
   22.2780  -35.6190    5.9390 C   0  0  0  0  0
   23.2200  -36.7280    5.5050 C   0  0  0  0  0
   24.6570  -36.2850    5.7730 C   0  0  0  0  0
   23.0920  -37.0340    4.0210 C   0  0  0  0  0
   22.9140  -37.9910    6.3290 C   0  0  0  0  0
   22.0650  -32.3230    3.9980 C   0  0  0  0  0
   21.3270  -31.9170    2.7130 C   0  0  0  0  0
   21.6940  -32.7610    1.5210 N   0  0  0  0  0
   22.0320  -34.0510    1.4890 C   0  0  0  0  0
   21.6450  -30.4280    2.4400 C   0  0  0  0  0
   21.2300  -30.0700    1.0810 N   0  0  0  0  0
   21.3560  -30.8410   -0.0010 C   0  0  0  0  0
   21.2010  -30.4250   -1.1430 O   0  0  0  0  0
   21.6940  -32.2660    0.2640 C   0  0  0  0  0
   22.0540  -33.2450   -0.6590 C   0  0  0  0  0
   22.2430  -34.3400    0.1530 C   0  0  0  0  0
   22.6920  -35.6830   -0.3510 C   0  0  0  0  0
   22.6970  -36.7910    0.4810 C   0  0  0  0  0
   23.3480  -38.1110   -0.4470 S   0  0  0  0  0
   23.5760  -37.1440   -1.8740 C   0  0  0  0  0
   23.1740  -35.8380   -1.6500 C   0  0  0  0  0
   23.4213  -33.9066    5.3885 H   0  0  0  0  0
   21.2708  -35.9396    5.6727 H   0  0  0  0  0
   22.4453  -35.4632    7.0048 H   0  0  0  0  0
   25.3410  -37.0860    5.4927 H   0  0  0  0  0
   24.8772  -35.3947    5.1840 H   0  0  0  0  0
   24.7746  -36.0593    6.8329 H   0  0  0  0  0
   23.7978  -37.8196    3.7511 H   0  0  0  0  0
   22.0765  -37.3666    3.8062 H   0  0  0  0  0
   23.3103  -36.1343    3.4457 H   0  0  0  0  0
   21.8983  -38.3246    6.1166 H   0  0  0  0  0
   23.6196  -38.7776    6.0615 H   0  0  0  0  0
   23.0081  -37.7623    7.3906 H   0  0  0  0  0
   23.1226  -32.4186    3.7523 H   0  0  0  0  0
   21.8606  -31.5595    4.7486 H   0  0  0  0  0
   20.2592  -32.0754    2.8642 H   0  0  0  0  0
   22.1226  -34.7320    2.3352 H   0  0  0  0  0
   22.7178  -30.2649    2.5428 H   0  0  0  0  0
   21.1050  -29.8081    3.1557 H   0  0  0  0  0
   20.8077  -29.1507    0.9505 H   0  0  0  0  0
   22.1586  -33.1649   -1.7410 H   0  0  0  0  0
   22.3586  -36.8284    1.5165 H   0  0  0  0  0
   23.9800  -37.5151   -2.8159 H   0  0  0  0  0
   23.2272  -35.0390   -2.3895 H   0  0  0  0  0
  1  2  2  0  0  0
  2  3  1  0  0  0
  2  9  1  0  0  0
  3  4  1  0  0  0
  4  5  1  0  0  0
  5  6  1  0  0  0
  5  7  1  0  0  0
  5  8  1  0  0  0
  9 10  1  0  0  0
 10 11  1  0  0  0
 10 13  1  0  0  0
 11 12  4  0  0  0
 11 17  4  0  0  0
 12 19  4  0  0  0
 13 14  1  0  0  0
 14 15  1  0  0  0
 15 16  2  0  0  0
 15 17  1  0  0  0
 17 18  4  0  0  0
 18 19  4  0  0  0
 19 20  1  0  0  0
 20 21  4  0  0  0
 20 24  4  0  0  0
 21 22  4  0  0  0
 22 23  4  0  0  0
 23 24  4  0  0  0
  3 25  1  0  0  0
  4 26  1  0  0  0
  4 27  1  0  0  0
  6 28  1  0  0  0
  6 29  1  0  0  0
  6 30  1  0  0  0
  7 31  1  0  0  0
  7 32  1  0  0  0
  7 33  1  0  0  0
  8 34  1  0  0  0
  8 35  1  0  0  0
  8 36  1  0  0  0
  9 37  1  0  0  0
  9 38  1  0  0  0
 10 39  1  0  0  0
 12 40  1  0  0  0
 13 41  1  0  0  0
 13 42  1  0  0  0
 14 43  1  0  0  0
 18 44  1  0  0  0
 21 45  1  0  0  0
 23 46  1  0  0  0
 24 47  1  0  0  0
M  END
$$$$
