4o0a_ligand
  -I-interpret- 

 62 66  0  0  0  0  0  0  0  0999 V2000
   -7.2470   10.0720   -3.1180 O   0  0  0  0  0
   -6.1360   10.6360   -3.2570 C   0  0  0  0  0
   -5.2320   10.7230   -2.0640 C   0  0  0  0  0
   -5.5910   10.3190   -0.8630 N   0  0  0  0  0
   -4.6200   10.5120   -0.0250 N   0  0  0  0  0
   -4.7230   10.1450    1.3390 C   0  0  0  0  0
   -4.2340    8.9080    1.7170 C   0  0  0  0  0
   -4.3090    8.5000    3.0350 C   0  0  0  0  0
   -3.6680    6.9200    3.3900 Cl  0  0  0  0  0
   -4.8880    9.3220    4.0040 C   0  0  0  0  0
   -4.9840    8.8360    5.6760 Cl  0  0  0  0  0
   -5.3840   10.5580    3.6100 C   0  0  0  0  0
   -5.3050   10.9700    2.2820 C   0  0  0  0  0
   -3.5470   11.0180   -0.6350 C   0  0  0  0  0
   -2.2200   11.4010   -0.0140 C   0  0  0  0  0
   -2.1940   11.9400    1.2580 C   0  0  0  0  0
   -1.0000   12.3230    1.8390 C   0  0  0  0  0
    0.1850   12.1850    1.1480 C   0  0  0  0  0
    1.4620   12.6170    1.8300 C   0  0  0  0  0
    2.5110   11.7420    1.4460 N   0  3  0  0  0
    2.9180   10.8910    2.5090 C   0  0  0  0  0
    3.9450    9.8470    2.0800 C   0  0  0  0  0
    5.0970    9.8830    2.8480 C   0  0  0  0  0
    6.1590    9.0310    2.6010 C   0  0  0  0  0
    6.0560    8.1400    1.5530 C   0  0  0  0  0
    7.1430    7.1750    1.2320 C   0  0  0  0  0
    8.3290    6.9060    1.9120 C   0  0  0  0  0
    8.9750    5.8790    1.1510 C   0  0  0  0  0
    8.0990    5.6390    0.0970 C   0  0  0  0  0
    8.2400    4.6660   -1.0220 C   0  0  0  0  0
    9.2410    3.9130   -1.0560 O   0  0  0  0  0
    7.3040    4.6440   -1.8520 O   0  0  0  0  0
    7.0520    6.4080    0.1740 O   0  0  0  0  0
    4.9180    8.0890    0.7770 C   0  0  0  0  0
    3.8520    8.9390    1.0160 C   0  0  0  0  0
    2.4470    8.8020   -0.0150 Cl  0  0  0  0  0
    1.5810   10.3430    3.5450 S   0  0  0  0  0
    0.1800   11.6520   -0.1410 C   0  0  0  0  0
   -1.0310   11.2700   -0.7200 C   0  0  0  0  0
   -3.9000   11.2000   -2.0030 C   0  0  0  0  0
   -5.7540   11.0990   -4.3570 O   0  0  0  0  0
   -7.3496    9.7900   -2.2061 H   0  0  0  0  0
   -3.7868    8.2510    0.9710 H   0  0  0  0  0
   -5.8413   11.2145    4.3502 H   0  0  0  0  0
   -5.7016   11.9415    1.9872 H   0  0  0  0  0
   -3.1259   12.0645    1.8095 H   0  0  0  0  0
   -0.9951   12.7359    2.8478 H   0  0  0  0  0
    1.3310   12.5807    2.9115 H   0  0  0  0  0
    1.7085   13.6371    1.5355 H   0  0  0  0  0
    3.3122   12.3097    1.1700 H   0  0  0  0  0
    2.1717   11.1561    0.6831 H   0  0  0  0  0
    3.4883   11.5053    3.2058 H   0  0  0  0  0
    5.1688   10.5994    3.6663 H   0  0  0  0  0
    7.0557    9.0632    3.2199 H   0  0  0  0  0
    8.6883    7.3765    2.8272 H   0  0  0  0  0
    9.9318    5.3968    1.3513 H   0  0  0  0  0
    9.8189    4.1173   -0.3172 H   0  0  0  0  0
    4.8565    7.3678   -0.0379 H   0  0  0  0  0
    2.0596    9.5565    4.5048 H   0  0  0  0  0
    1.1136   11.5349   -0.6912 H   0  0  0  0  0
   -1.0439   10.8664   -1.7324 H   0  0  0  0  0
   -3.2909   11.6085   -2.8094 H   0  0  0  0  0
  1  2  1  0  0  0
  2  3  1  0  0  0
  2 41  2  0  0  0
  3  4  4  0  0  0
  3 40  4  0  0  0
  4  5  4  0  0  0
  5  6  1  0  0  0
  5 14  4  0  0  0
  6  7  4  0  0  0
  6 13  4  0  0  0
  7  8  4  0  0  0
  8  9  1  0  0  0
  8 10  4  0  0  0
 10 11  1  0  0  0
 10 12  4  0  0  0
 12 13  4  0  0  0
 14 15  1  0  0  0
 14 40  4  0  0  0
 15 16  4  0  0  0
 15 39  4  0  0  0
 16 17  4  0  0  0
 17 18  4  0  0  0
 18 19  1  0  0  0
 18 38  4  0  0  0
 19 20  1  0  0  0
 20 21  1  0  0  0
 21 22  1  0  0  0
 21 37  1  0  0  0
 22 23  4  0  0  0
 22 35  4  0  0  0
 23 24  4  0  0  0
 24 25  4  0  0  0
 25 26  1  0  0  0
 25 34  4  0  0  0
 26 27  4  0  0  0
 26 33  4  0  0  0
 27 28  4  0  0  0
 28 29  4  0  0  0
 29 30  1  0  0  0
 29 33  4  0  0  0
 30 31  1  0  0  0
 30 32  2  0  0  0
 34 35  4  0  0  0
 35 36  1  0  0  0
 38 39  4  0  0  0
  1 42  1  0  0  0
  7 43  1  0  0  0
 12 44  1  0  0  0
 13 45  1  0  0  0
 16 46  1  0  0  0
 17 47  1  0  0  0
 19 48  1  0  0  0
 19 49  1  0  0  0
 20 50  1  0  0  0
 20 51  1  0  0  0
 21 52  1  0  0  0
 23 53  1  0  0  0
 24 54  1  0  0  0
 27 55  1  0  0  0
 28 56  1  0  0  0
 31 57  1  0  0  0
 34 58  1  0  0  0
 37 59  1  0  0  0
 38 60  1  0  0  0
 39 61  1  0  0  0
 40 62  1  0  0  0
M  END
$$$$
