5dgz_ligand
  -I-interpret- 

 52 56  0  0  0  0  0  0  0  0999 V2000
   44.5980   -1.1100   -1.0340 C   0  0  0  0  0
   44.2710   -1.4510    0.3770 C   0  0  0  0  0
   45.1010   -1.4100    1.3310 N   0  0  0  0  0
   44.4870   -1.7880    2.4830 N   0  0  0  0  0
   43.2040   -2.0890    2.2410 C   0  0  0  0  0
   42.1870   -2.5110    3.0400 C   0  0  0  0  0
   40.9870   -2.7370    2.5060 C   0  0  0  0  0
   40.7520   -2.5460    1.1570 C   0  0  0  0  0
   41.7660   -2.1290    0.3480 C   0  0  0  0  0
   43.0070   -1.8950    0.8920 C   0  0  0  0  0
   39.4120   -2.8310    0.6340 C   0  0  0  0  0
   38.3270   -2.5870    1.4250 C   0  0  0  0  0
   37.1450   -2.8360    1.0090 N   0  0  0  0  0
   36.9430   -3.3410   -0.1620 C   0  0  0  0  0
   37.9510   -3.6360   -1.0290 C   0  0  0  0  0
   37.6480   -4.1490   -2.2180 O   0  0  0  0  0
   38.5510   -4.9950   -2.8760 C   0  0  0  0  0
   37.9050   -5.5470   -4.1290 C   0  0  0  0  0
   36.7350   -6.2860   -3.7140 N   0  3  0  0  0
   37.5000   -4.4230   -5.0860 C   0  0  0  0  0
   38.6930   -3.6890   -5.6200 C   0  0  0  0  0
   39.3650   -3.9440   -6.7250 C   0  0  0  0  0
   40.3870   -3.0870   -6.8580 N   0  0  0  0  0
   40.4060   -2.2310   -5.8220 C   0  0  0  0  0
   41.2270   -1.1850   -5.4960 C   0  0  0  0  0
   40.9810   -0.5000   -4.3550 C   0  0  0  0  0
   39.9240   -0.8300   -3.5510 C   0  0  0  0  0
   39.1120   -1.8580   -3.8570 C   0  0  0  0  0
   39.3440   -2.5680   -5.0020 C   0  0  0  0  0
   39.2280   -3.3800   -0.6210 C   0  0  0  0  0
   44.9435   -0.0775   -1.0862 H   0  0  0  0  0
   45.3821   -1.7755   -1.3949 H   0  0  0  0  0
   43.7071   -1.2280   -1.6508 H   0  0  0  0  0
   42.3520   -2.6628    4.1067 H   0  0  0  0  0
   40.1740   -3.0795    3.1461 H   0  0  0  0  0
   41.5953   -1.9825   -0.7185 H   0  0  0  0  0
   38.4706   -2.1747    2.4237 H   0  0  0  0  0
   35.9171   -3.5407   -0.4713 H   0  0  0  0  0
   38.8246   -5.8180   -2.2158 H   0  0  0  0  0
   39.4448   -4.4326   -3.1459 H   0  0  0  0  0
   38.6095   -6.1858   -4.6616 H   0  0  0  0  0
   36.2710   -6.6748   -4.5350 H   0  0  0  0  0
   37.0158   -7.0427   -3.0904 H   0  0  0  0  0
   36.0950   -5.6604   -3.2247 H   0  0  0  0  0
   36.8788   -3.7143   -4.5384 H   0  0  0  0  0
   36.9654   -4.8651   -5.9267 H   0  0  0  0  0
   39.1238   -4.7391   -7.4305 H   0  0  0  0  0
   42.0610   -0.9098   -6.1416 H   0  0  0  0  0
   41.6338    0.3259   -4.0726 H   0  0  0  0  0
   39.7368   -0.2501   -2.6473 H   0  0  0  0  0
   38.2815   -2.1209   -3.2018 H   0  0  0  0  0
   40.0780   -3.6021   -1.2661 H   0  0  0  0  0
  1  2  1  0  0  0
  2  3  4  0  0  0
  2 10  4  0  0  0
  3  4  4  0  0  0
  4  5  4  0  0  0
  5  6  4  0  0  0
  5 10  4  0  0  0
  6  7  4  0  0  0
  7  8  4  0  0  0
  8  9  4  0  0  0
  8 11  1  0  0  0
  9 10  4  0  0  0
 11 12  4  0  0  0
 11 30  4  0  0  0
 12 13  4  0  0  0
 13 14  4  0  0  0
 14 15  4  0  0  0
 15 16  1  0  0  0
 15 30  4  0  0  0
 16 17  1  0  0  0
 17 18  1  0  0  0
 18 19  1  0  0  0
 18 20  1  0  0  0
 20 21  1  0  0  0
 21 22  4  0  0  0
 21 29  4  0  0  0
 22 23  4  0  0  0
 23 24  4  0  0  0
 24 25  4  0  0  0
 24 29  4  0  0  0
 25 26  4  0  0  0
 26 27  4  0  0  0
 27 28  4  0  0  0
 28 29  4  0  0  0
  1 31  1  0  0  0
  1 32  1  0  0  0
  1 33  1  0  0  0
  6 34  1  0  0  0
  7 35  1  0  0  0
  9 36  1  0  0  0
 12 37  1  0  0  0
 14 38  1  0  0  0
 17 39  1  0  0  0
 17 40  1  0  0  0
 18 41  1  0  0  0
 19 42  1  0  0  0
 19 43  1  0  0  0
 19 44  1  0  0  0
 20 45  1  0  0  0
 20 46  1  0  0  0
 22 47  1  0  0  0
 25 48  1  0  0  0
 26 49  1  0  0  0
 27 50  1  0  0  0
 28 51  1  0  0  0
 30 52  1  0  0  0
M  END
$$$$
