3uwl_ligand
  -I-interpret- 

 57 59  0  0  0  0  0  0  0  0999 V2000
   51.3140  -17.4710   26.6290 C   0  0  0  0  0
   51.6600  -17.4060   25.3430 N   0  0  0  0  0
   51.8750  -16.7650   27.4480 O   0  0  0  0  0
   45.4100  -17.8730   31.9970 N   0  0  0  0  0
   52.8830  -15.0680   22.8810 O   0  0  0  0  0
   45.2120  -16.8120   31.1920 C   0  0  0  0  0
   51.5120  -16.7110   22.7690 O   0  0  0  0  0
   44.8970  -16.9290   29.8710 N   0  0  0  0  0
   43.7070  -21.8460   28.0480 O   0  0  0  0  0
   44.7510  -18.1420   29.2730 C   0  0  0  0  0
   44.4580  -18.2730   28.0510 O   0  0  0  0  0
   44.8840  -20.6340   29.5410 N   0  0  0  0  0
   45.6680  -21.6510   30.2810 C   0  0  0  0  0
   45.4660  -21.5660   31.8000 C   0  0  0  0  0
   45.4890  -20.2040   32.3350 N   0  0  0  0  0
   47.1690  -21.4350   29.9490 C   0  0  0  0  0
   52.6280  -16.4260   24.8270 C   0  0  0  0  0
   54.0860  -16.8590   24.9330 C   0  0  0  0  0
   55.7090  -18.7150   24.5840 C   0  0  0  0  0
   54.2850  -18.2550   24.3430 C   0  0  0  0  0
   52.3420  -16.0540   23.3920 C   0  0  0  0  0
   47.4250  -21.1540   28.5280 N   0  0  0  0  0
   50.2490  -18.4380   27.1150 C   0  0  0  0  0
   49.4330  -19.1510   26.2200 C   0  0  0  0  0
   48.4750  -20.0620   26.6930 C   0  0  0  0  0
   48.3560  -20.2760   28.0740 C   0  0  0  0  0
   49.1820  -19.5750   28.9750 C   0  0  0  0  0
   50.1250  -18.6670   28.5000 C   0  0  0  0  0
   44.9270  -19.3470   30.1210 C   0  0  0  0  0
   45.2770  -19.1310   31.5440 C   0  0  0  0  0
   45.3440  -15.5780   31.7110 N   0  0  0  0  0
   55.9310  -19.3600   25.6330 O   0  0  0  0  0
   56.6000  -18.4560   23.7390 O   0  0  0  0  0
   43.6550  -21.0310   28.9640 C   0  0  0  0  0
   51.2354  -18.0638   24.6892 H   0  0  0  0  0
   53.4985  -14.6812   23.5081 H   0  0  0  0  0
   44.7672  -16.0835   29.3155 H   0  0  0  0  0
   45.3247  -22.6380   29.9710 H   0  0  0  0  0
   46.2907  -22.1070   32.2641 H   0  0  0  0  0
   44.4808  -21.9791   32.0163 H   0  0  0  0  0
   45.6695  -20.0623   33.3289 H   0  0  0  0  0
   47.6943  -22.3567   30.1990 H   0  0  0  0  0
   47.5079  -20.5698   30.5188 H   0  0  0  0  0
   52.4944  -15.5619   25.4779 H   0  0  0  0  0
   54.3698  -16.8795   25.9852 H   0  0  0  0  0
   54.7026  -16.1526   24.3773 H   0  0  0  0  0
   54.0925  -18.2242   23.2706 H   0  0  0  0  0
   53.5954  -18.9505   24.8214 H   0  0  0  0  0
   46.8650  -21.6527   27.8366 H   0  0  0  0  0
   49.5451  -18.9951   25.1470 H   0  0  0  0  0
   47.8311  -20.5968   25.9949 H   0  0  0  0  0
   49.0825  -19.7440   30.0472 H   0  0  0  0  0
   50.7677  -18.1330   29.2000 H   0  0  0  0  0
   45.5891  -15.4618   32.6943 H   0  0  0  0  0
   45.1990  -14.7585   31.1212 H   0  0  0  0  0
   56.2170  -17.9550   23.0152 H   0  0  0  0  0
   42.7045  -20.6310   29.3171 H   0  0  0  0  0
  1  2  1  0  0  0
  1  3  2  0  0  0
 23  1  1  0  0  0
  2 17  1  0  0  0
  4  6  2  0  0  0
 30  4  1  0  0  0
 21  5  1  0  0  0
  8  6  1  0  0  0
  6 31  1  0  0  0
 21  7  2  0  0  0
 10  8  1  0  0  0
 34  9  2  0  0  0
 10 11  2  0  0  0
 29 10  1  0  0  0
 13 12  1  0  0  0
 12 29  1  0  0  0
 12 34  1  0  0  0
 13 14  1  0  0  0
 16 13  1  0  0  0
 14 15  1  0  0  0
 15 30  1  0  0  0
 22 16  1  0  0  0
 17 18  1  0  0  0
 17 21  1  0  0  0
 18 20  1  0  0  0
 20 19  1  0  0  0
 19 32  2  0  0  0
 19 33  1  0  0  0
 26 22  1  0  0  0
 24 23  4  0  0  0
 23 28  4  0  0  0
 25 24  4  0  0  0
 25 26  4  0  0  0
 26 27  4  0  0  0
 27 28  4  0  0  0
 29 30  2  0  0  0
  2 35  1  0  0  0
  5 36  1  0  0  0
  8 37  1  0  0  0
 13 38  1  0  0  0
 14 39  1  0  0  0
 14 40  1  0  0  0
 15 41  1  0  0  0
 16 42  1  0  0  0
 16 43  1  0  0  0
 17 44  1  0  0  0
 18 45  1  0  0  0
 18 46  1  0  0  0
 20 47  1  0  0  0
 20 48  1  0  0  0
 22 49  1  0  0  0
 24 50  1  0  0  0
 25 51  1  0  0  0
 27 52  1  0  0  0
 28 53  1  0  0  0
 31 54  1  0  0  0
 31 55  1  0  0  0
 33 56  1  0  0  0
 34 57  1  0  0  0
M  END
$$$$
