### 
### Created by X-TOOL on Mon Sep 10 21:12:53 2018
### 

@<TRIPOS>MOLECULE
1xhm_ligand
  206   208     1     0     0
SMALL
GAST_HUCK


@<TRIPOS>ATOM
      1 N         -22.4280  -18.7060   21.4910 N.4       1 SER         0.2396
      2 CA        -21.2050  -18.0160   21.9930 C.3       1 SER         0.0885
      3 C         -20.0120  -18.5770   21.2300 C.2       1 SER         0.2290
      4 O         -19.4020  -17.8970   20.4020 O.2       1 SER        -0.3906
      5 CB        -21.0210  -18.2860   23.4920 C.3       1 SER         0.1041
      6 OG        -22.2160  -18.0600   24.2260 O.3       1 SER        -0.3870
      7 N         -19.6990  -19.8340   21.5220 N.am      1 ILE        -0.2607
      8 CA        -18.5970  -20.5400   20.8870 C.3       1 ILE         0.1336
      9 C         -18.9110  -20.7390   19.4060 C.2       1 ILE         0.2040
     10 O         -18.0090  -20.8830   18.5780 O.2       1 ILE        -0.3944
     11 CB        -18.3840  -21.9080   21.5680 C.3       1 ILE        -0.0037
     12 CG1       -18.3370  -21.7050   23.0880 C.3       1 ILE        -0.0491
     13 CG2       -17.0850  -22.5500   21.0840 C.3       1 ILE        -0.0582
     14 CD1       -18.2950  -22.9810   23.8990 C.3       1 ILE        -0.0648
     15 N         -20.2010  -20.7330   19.0830 N.am      1 GLY        -0.2664
     16 CA        -20.6290  -20.9030   17.7090 C.3       1 GLY         0.1201
     17 C         -20.1440  -19.7630   16.8400 C.2       1 GLY         0.2007
     18 O         -19.7810  -19.9670   15.6830 O.2       1 GLY        -0.3947
     19 N         -20.1450  -18.5560   17.3970 N.am      1 LYS        -0.2640
     20 CA        -19.6850  -17.3750   16.6790 C.3       1 LYS         0.1310
     21 C         -18.2580  -17.6300   16.2140 C.2       1 LYS         0.2039
     22 O         -17.9040  -17.3510   15.0700 O.2       1 LYS        -0.3944
     23 CB        -19.7180  -16.1510   17.6070 C.3       1 LYS        -0.0122
     24 CG        -19.0820  -14.8850   17.0410 C.3       1 LYS        -0.0440
     25 CD        -19.8630  -14.3380   15.8690 C.3       1 LYS        -0.0124
     26 CE        -19.2070  -13.0930   15.3050 C.3       1 LYS        -0.0354
     27 NZ        -20.0170  -12.5250   14.2040 N.4       1 LYS         0.2185
     28 N         -17.4440  -18.1670   17.1130 N.am      1 ALA        -0.2640
     29 CA        -16.0600  -18.4620   16.7960 C.3       1 ALA         0.1282
     30 C         -15.9790  -19.5740   15.7530 C.2       1 ALA         0.2037
     31 O         -15.1190  -19.5320   14.8720 O.2       1 ALA        -0.3944
     32 CB        -15.3060  -18.8620   18.0600 C.3       1 ALA        -0.0244
     33 N         -16.8630  -20.5680   15.8440 N.am      1 PHE        -0.2619
     34 CA        -16.8390  -21.6620   14.8720 C.3       1 PHE         0.1404
     35 C         -17.1790  -21.1060   13.4990 C.2       1 PHE         0.2060
     36 O         -16.6620  -21.5670   12.4810 O.2       1 PHE        -0.3942
     37 CB        -17.8410  -22.7770   15.2370 C.3       1 PHE         0.0214
     38 CG        -17.4380  -23.6130   16.4280 C.ar      1 PHE        -0.0386
     39 CD1       -16.1400  -24.0980   16.5610 C.ar      1 PHE        -0.0601
     40 CD2       -18.3620  -23.9220   17.4230 C.ar      1 PHE        -0.0601
     41 CE1       -15.7700  -24.8760   17.6710 C.ar      1 PHE        -0.0686
     42 CE2       -18.0020  -24.6980   18.5340 C.ar      1 PHE        -0.0686
     43 CZ        -16.7050  -25.1730   18.6580 C.ar      1 PHE        -0.0687
     44 N         -18.0590  -20.1140   13.4830 N.am      1 LYS        -0.2636
     45 CA        -18.4750  -19.4740   12.2480 C.3       1 LYS         0.1310
     46 C         -17.2120  -18.8830   11.6240 C.2       1 LYS         0.2039
     47 O         -16.9380  -19.0780   10.4370 O.2       1 LYS        -0.3944
     48 CB        -19.4720  -18.3550   12.5560 C.3       1 LYS        -0.0122
     49 CG        -20.5180  -18.1040   11.4800 C.3       1 LYS        -0.0440
     50 CD        -21.6160  -19.1610   11.5250 C.3       1 LYS        -0.0124
     51 CE        -22.6880  -18.9030   10.4740 C.3       1 LYS        -0.0354
     52 NZ        -23.7960  -19.8950   10.5640 N.4       1 LYS         0.2185
     53 N         -16.4410  -18.1760   12.4460 N.am      1 ILE        -0.2635
     54 CA        -15.2030  -17.5350   12.0080 C.3       1 ILE         0.1335
     55 C         -14.1350  -18.5270   11.5580 C.2       1 ILE         0.2042
     56 O         -13.4300  -18.2860   10.5780 O.2       1 ILE        -0.3944
     57 CB        -14.6020  -16.6690   13.1350 C.3       1 ILE        -0.0037
     58 CG1       -15.6330  -15.6430   13.6010 C.3       1 ILE        -0.0491
     59 CG2       -13.3370  -15.9600   12.6430 C.3       1 ILE        -0.0582
     60 CD1       -15.2180  -14.9060   14.8430 C.3       1 ILE        -0.0648
     61 N         -14.0140  -19.6330   12.2850 N.am      1 LEU        -0.2637
     62 CA        -13.0260  -20.6580   11.9690 C.3       1 LEU         0.1312
     63 C         -13.3430  -21.3980   10.6820 C.2       1 LEU         0.2037
     64 O         -12.5050  -22.1290   10.1500 O.2       1 LEU        -0.3944
     65 CB        -12.9230  -21.6520   13.1190 C.3       1 LEU        -0.0101
     66 CG        -12.3080  -21.0830   14.3960 C.3       1 LEU        -0.0425
     67 CD1       -12.3030  -22.1600   15.4620 C.3       1 LEU        -0.0625
     68 CD2       -10.8880  -20.5900   14.1190 C.3       1 LEU        -0.0625
     69 N         -14.5590  -21.2010   10.1830 N.am      1 GLY        -0.2664
     70 CA        -14.9680  -21.8550    8.9540 C.3       1 GLY         0.1201
     71 C         -15.6320  -23.1880    9.2200 C.2       1 GLY         0.2009
     72 O         -15.0310  -24.2420    9.0190 O.2       1 GLY        -0.3947
     73 N         -16.8730  -23.1390    9.6880 N.am      1 TYR        -0.2624
     74 CA        -17.6410  -24.3410    9.9780 C.3       1 TYR         0.1392
     75 C         -19.0920  -24.1190    9.5620 C.2       1 TYR         0.2082
     76 O         -19.6770  -23.0740    9.8510 O.2       1 TYR        -0.3940
     77 CB        -17.5510  -24.6850   11.4720 C.3       1 TYR         0.0164
     78 CG        -16.2600  -25.3900   11.8760 C.ar      1 TYR        -0.0493
     79 CD1       -15.9670  -26.6730   11.4140 C.ar      1 TYR        -0.0685
     80 CD2       -15.3290  -24.7770   12.7160 C.ar      1 TYR        -0.0685
     81 CE1       -14.7840  -27.3270   11.7780 C.ar      1 TYR        -0.0398
     82 CE2       -14.1410  -25.4240   13.0840 C.ar      1 TYR        -0.0398
     83 CZ        -13.8710  -26.6990   12.6120 C.ar      1 TYR         0.0805
     84 OH        -12.6970  -27.3370   12.9600 O.3       1 TYR        -0.3376
     85 N         -19.6890  -25.1000    8.8640 N.am      1 PRO        -0.2497
     86 CA        -21.0790  -24.9860    8.4130 C.3       1 PRO         0.1337
     87 C         -22.0970  -24.9190    9.5510 C.2       1 PRO         0.2036
     88 O         -21.8840  -25.4850   10.6240 O.2       1 PRO        -0.3944
     89 CB        -21.2550  -26.2290    7.5430 C.3       1 PRO        -0.0104
     90 CG        -20.3650  -27.2210    8.2100 C.3       1 PRO        -0.0281
     91 CD        -19.1220  -26.4010    8.4660 C.3       1 PRO         0.0369
     92 N         -23.2020  -24.2200    9.2990 N.am      1 ASP        -0.2679
     93 CA        -24.2760  -24.0570   10.2740 C.3       1 ASP         0.1057
     94 C         -23.7820  -23.4930   11.6080 C.2       1 ASP         0.0618
     95 O         -24.0740  -24.1040   12.6610 O.co2     1 ASP        -0.5665
     96 CB        -24.9810  -25.3990   10.5030 C.3       1 ASP         0.0351
     97 CG        -25.5550  -25.9830    9.2230 C.2       1 ASP         0.0387
     98 OD1       -26.3280  -25.2740    8.5390 O.co2     1 ASP        -0.5688
     99 OD2       -25.2380  -27.1510    8.9040 O.co2     1 ASP        -0.5688
    100 OXT       -23.1040  -22.4410   11.5980 O.co2     1 ASP        -0.5665
    101 H1        -23.2366  -18.3542   21.9793 H         1 SER         0.2016
    102 H2        -22.3440  -19.6976   21.6511 H         1 SER         0.2016
    103 H3        -22.5302  -18.5325   20.5033 H         1 SER         0.2016
    104 H4        -21.2885  -16.9328   21.8209 H         1 SER         0.1122
    105 H5        -20.2358  -17.6197   23.8787 H         1 SER         0.0640
    106 H6        -20.7134  -19.3332   23.6287 H         1 SER         0.0640
    107 H7        -22.0596  -18.2378   25.1461 H         1 SER         0.2099
    108 H8        -20.2443  -20.3160   22.2079 H         1 ILE         0.1885
    109 H9        -17.6790  -19.9421   20.9857 H         1 ILE         0.0803
    110 H10       -19.2249  -22.5712   21.3167 H         1 ILE         0.0345
    111 H11       -19.2329  -21.1403   23.3854 H         1 ILE         0.0267
    112 H12       -17.4377  -21.1184   23.3269 H         1 ILE         0.0267
    113 H13       -17.1296  -22.6908   19.9940 H         1 ILE         0.0235
    114 H14       -16.9531  -23.5256   21.5746 H         1 ILE         0.0235
    115 H15       -16.2370  -21.8958   21.3348 H         1 ILE         0.0235
    116 H16       -18.2631  -22.7336   24.9703 H         1 ILE         0.0230
    117 H17       -17.3980  -23.5577   23.6291 H         1 ILE         0.0230
    118 H18       -19.1933  -23.5796   23.6875 H         1 ILE         0.0230
    119 H19       -20.8869  -20.6091   19.8000 H         1 GLY         0.1881
    120 H20       -21.7280  -20.9361   17.6769 H         1 GLY         0.0763
    121 H21       -20.2221  -21.8483   17.3207 H         1 GLY         0.0763
    122 H22       -20.4713  -18.4558   18.3370 H         1 LYS         0.1883
    123 H23       -20.3333  -17.1924   15.8093 H         1 LYS         0.0800
    124 H24       -19.1864  -16.4129   18.5337 H         1 LYS         0.0312
    125 H25       -20.7701  -15.9283   17.8382 H         1 LYS         0.0312
    126 H26       -18.0595  -15.1184   16.7092 H         1 LYS         0.0269
    127 H27       -19.0456  -14.1212   17.8317 H         1 LYS         0.0269
    128 H28       -20.8810  -14.0874   16.2020 H         1 LYS         0.0317
    129 H29       -19.9129  -15.1049   15.0820 H         1 LYS         0.0317
    130 H30       -18.2094  -13.3532   14.9216 H         1 LYS         0.0813
    131 H31       -19.1088  -12.3435   16.1041 H         1 LYS         0.0813
    132 H32       -19.5634  -11.6998   13.8444 H         1 LYS         0.1994
    133 H33       -20.9316  -12.2816   14.5507 H         1 LYS         0.1994
    134 H34       -20.1075  -13.2068   13.4671 H         1 LYS         0.1994
    135 H35       -17.7917  -18.3726   18.0278 H         1 ALA         0.1883
    136 H36       -15.5937  -17.5566   16.3802 H         1 ALA         0.0797
    137 H37       -14.2585  -19.0832   17.8075 H         1 ALA         0.0277
    138 H38       -15.7739  -19.7556   18.4988 H         1 ALA         0.0277
    139 H39       -15.3417  -18.0357   18.7853 H         1 ALA         0.0277
    140 H40       -17.5431  -20.5660   16.5771 H         1 PHE         0.1885
    141 H41       -15.8270  -22.0925   14.8486 H         1 PHE         0.0823
    142 H42       -17.9452  -23.4437   14.3683 H         1 PHE         0.0474
    143 H43       -18.8114  -22.3085   15.4582 H         1 PHE         0.0474
    144 H44       -15.4043  -23.8723   15.7975 H         1 PHE         0.0557
    145 H45       -19.3786  -23.5557   17.3370 H         1 PHE         0.0557
    146 H46       -14.7547  -25.2454   17.7587 H         1 PHE         0.0599
    147 H47       -18.7379  -24.9267   19.2964 H         1 PHE         0.0599
    148 H48       -16.4218  -25.7708   19.5168 H         1 PHE         0.0559
    149 H49       -18.4479  -19.7971   14.3480 H         1 LYS         0.1883
    150 H50       -18.9344  -20.2073   11.5688 H         1 LYS         0.0800
    151 H51       -18.9043  -17.4242   12.7021 H         1 LYS         0.0312
    152 H52       -19.9973  -18.6141   13.4871 H         1 LYS         0.0312
    153 H53       -20.0325  -18.1321   10.4934 H         1 LYS         0.0269
    154 H54       -20.9670  -17.1126   11.6396 H         1 LYS         0.0269
    155 H55       -22.0827  -19.1484   12.5210 H         1 LYS         0.0317
    156 H56       -21.1679  -20.1489   11.3424 H         1 LYS         0.0317
    157 H57       -22.2315  -18.9678    9.4753 H         1 LYS         0.0813
    158 H58       -23.0995  -17.8940   10.6243 H         1 LYS         0.0813
    159 H59       -24.4849  -19.6944    9.8560 H         1 LYS         0.1994
    160 H60       -24.2241  -19.8389   11.4748 H         1 LYS         0.1994
    161 H61       -23.4287  -20.8229   10.4219 H         1 LYS         0.1994
    162 H62       -16.7197  -18.0794   13.4015 H         1 ILE         0.1883
    163 H63       -15.4484  -16.8841   11.1559 H         1 ILE         0.0803
    164 H64       -14.3376  -17.3193   13.9818 H         1 ILE         0.0345
    165 H65       -16.5788  -16.1662   13.8050 H         1 ILE         0.0267
    166 H66       -15.7857  -14.9104   12.7948 H         1 ILE         0.0267
    167 H67       -12.6029  -16.7087   12.3105 H         1 ILE         0.0235
    168 H68       -12.9080  -15.3647   13.4625 H         1 ILE         0.0235
    169 H69       -13.5913  -15.2974   11.8026 H         1 ILE         0.0235
    170 H70       -16.0021  -14.1866   15.1217 H         1 ILE         0.0230
    171 H71       -14.2775  -14.3680   14.6532 H         1 ILE         0.0230
    172 H72       -15.0707  -15.6238   15.6634 H         1 ILE         0.0230
    173 H73       -14.6176  -19.7661   13.0711 H         1 LEU         0.1883
    174 H74       -12.0514  -20.1631   11.8457 H         1 LEU         0.0800
    175 H75       -12.3035  -22.4982   12.7871 H         1 LEU         0.0315
    176 H76       -13.9360  -22.0097   13.3556 H         1 LEU         0.0315
    177 H77       -12.9167  -20.2356   14.7442 H         1 LEU         0.0298
    178 H78       -11.8614  -21.7590   16.3862 H         1 LEU         0.0232
    179 H79       -11.7088  -23.0177   15.1139 H         1 LEU         0.0232
    180 H80       -13.3351  -22.4850   15.6598 H         1 LEU         0.0232
    181 H81       -10.9153  -19.8102   13.3436 H         1 LEU         0.0232
    182 H82       -10.2692  -21.4306   13.7719 H         1 LEU         0.0232
    183 H83       -10.4576  -20.1743   15.0420 H         1 LEU         0.0232
    184 H84       -15.1979  -20.5965   10.6589 H         1 GLY         0.1881
    185 H85       -14.0802  -22.0188    8.3255 H         1 GLY         0.0763
    186 H86       -15.6778  -21.2035    8.4233 H         1 GLY         0.0763
    187 H87       -17.2946  -22.2462    9.8467 H         1 TYR         0.1885
    188 H88       -17.2275  -25.1791    9.3978 H         1 TYR         0.0821
    189 H89       -18.3963  -25.3415   11.7261 H         1 TYR         0.0453
    190 H90       -17.6273  -23.7499   12.0463 H         1 TYR         0.0453
    191 H91       -16.6704  -27.1744   10.7591 H         1 TYR         0.0530
    192 H92       -15.5287  -23.7800   13.0916 H         1 TYR         0.0530
    193 H93       -14.5813  -28.3254   11.4076 H         1 TYR         0.0525
    194 H94       -13.4334  -24.9271   13.7378 H         1 TYR         0.0525
    195 H95       -12.6721  -28.1955   12.5540 H         1 TYR         0.2458
    196 H96       -21.1973  -24.0792    7.8017 H         1 PRO         0.0802
    197 H97       -20.9326  -26.0387    6.5087 H         1 PRO         0.0313
    198 H98       -22.3008  -26.5699    7.5443 H         1 PRO         0.0313
    199 H99       -20.1521  -28.0750    7.5501 H         1 PRO         0.0287
    200 H100      -20.8050  -27.5848    9.1502 H         1 PRO         0.0287
    201 H101      -18.5154  -26.8365    9.2737 H         1 PRO         0.0524
    202 H102      -18.5099  -26.3088    7.5567 H         1 PRO         0.0524
    203 H103      -23.3004  -23.7878    8.4026 H         1 ASP         0.1876
    204 H104      -25.0059  -23.3475    9.8570 H         1 ASP         0.0745
    205 H105      -25.8012  -25.2483   11.2203 H         1 ASP         0.0471
    206 H106      -24.2548  -26.1118   10.9208 H         1 ASP         0.0471
@<TRIPOS>BOND
     1    1    2 1  
     2    2    3 1  
     3    2    5 1  
     4    3    4 2  
     5    3    7 am 
     6    5    6 1  
     7    7    8 1  
     8    8    9 1  
     9    8   11 1  
    10    9   10 2  
    11    9   15 am 
    12   11   12 1  
    13   11   13 1  
    14   12   14 1  
    15   15   16 1  
    16   16   17 1  
    17   17   18 2  
    18   17   19 am 
    19   19   20 1  
    20   20   21 1  
    21   20   23 1  
    22   21   22 2  
    23   21   28 am 
    24   23   24 1  
    25   24   25 1  
    26   25   26 1  
    27   26   27 1  
    28   28   29 1  
    29   29   30 1  
    30   29   32 1  
    31   30   31 2  
    32   30   33 am 
    33   33   34 1  
    34   34   35 1  
    35   34   37 1  
    36   35   36 2  
    37   35   44 am 
    38   37   38 1  
    39   38   39 ar 
    40   38   40 ar 
    41   39   41 ar 
    42   40   42 ar 
    43   41   43 ar 
    44   42   43 ar 
    45   44   45 1  
    46   45   46 1  
    47   45   48 1  
    48   46   47 2  
    49   46   53 am 
    50   48   49 1  
    51   49   50 1  
    52   50   51 1  
    53   51   52 1  
    54   53   54 1  
    55   54   55 1  
    56   54   57 1  
    57   55   56 2  
    58   55   61 am 
    59   57   58 1  
    60   57   59 1  
    61   58   60 1  
    62   61   62 1  
    63   62   63 1  
    64   62   65 1  
    65   63   64 2  
    66   63   69 am 
    67   65   66 1  
    68   66   67 1  
    69   66   68 1  
    70   69   70 1  
    71   70   71 1  
    72   71   72 2  
    73   71   73 am 
    74   73   74 1  
    75   74   75 1  
    76   74   77 1  
    77   75   76 2  
    78   75   85 am 
    79   77   78 1  
    80   78   79 ar 
    81   78   80 ar 
    82   79   81 ar 
    83   80   82 ar 
    84   81   83 ar 
    85   82   83 ar 
    86   83   84 1  
    87   85   86 1  
    88   85   91 1  
    89   86   87 1  
    90   86   89 1  
    91   87   88 2  
    92   87   92 am 
    93   89   90 1  
    94   90   91 1  
    95   92   93 1  
    96   93   94 1  
    97   93   96 1  
    98   94   95 ar 
    99   94  100 ar 
   100   96   97 1  
   101   97   98 ar 
   102   97   99 ar 
   103    1  101 1  
   104    1  102 1  
   105    1  103 1  
   106    2  104 1  
   107    5  105 1  
   108    5  106 1  
   109    6  107 1  
   110    7  108 1  
   111    8  109 1  
   112   11  110 1  
   113   12  111 1  
   114   12  112 1  
   115   13  113 1  
   116   13  114 1  
   117   13  115 1  
   118   14  116 1  
   119   14  117 1  
   120   14  118 1  
   121   15  119 1  
   122   16  120 1  
   123   16  121 1  
   124   19  122 1  
   125   20  123 1  
   126   23  124 1  
   127   23  125 1  
   128   24  126 1  
   129   24  127 1  
   130   25  128 1  
   131   25  129 1  
   132   26  130 1  
   133   26  131 1  
   134   27  132 1  
   135   27  133 1  
   136   27  134 1  
   137   28  135 1  
   138   29  136 1  
   139   32  137 1  
   140   32  138 1  
   141   32  139 1  
   142   33  140 1  
   143   34  141 1  
   144   37  142 1  
   145   37  143 1  
   146   39  144 1  
   147   40  145 1  
   148   41  146 1  
   149   42  147 1  
   150   43  148 1  
   151   44  149 1  
   152   45  150 1  
   153   48  151 1  
   154   48  152 1  
   155   49  153 1  
   156   49  154 1  
   157   50  155 1  
   158   50  156 1  
   159   51  157 1  
   160   51  158 1  
   161   52  159 1  
   162   52  160 1  
   163   52  161 1  
   164   53  162 1  
   165   54  163 1  
   166   57  164 1  
   167   58  165 1  
   168   58  166 1  
   169   59  167 1  
   170   59  168 1  
   171   59  169 1  
   172   60  170 1  
   173   60  171 1  
   174   60  172 1  
   175   61  173 1  
   176   62  174 1  
   177   65  175 1  
   178   65  176 1  
   179   66  177 1  
   180   67  178 1  
   181   67  179 1  
   182   67  180 1  
   183   68  181 1  
   184   68  182 1  
   185   68  183 1  
   186   69  184 1  
   187   70  185 1  
   188   70  186 1  
   189   73  187 1  
   190   74  188 1  
   191   77  189 1  
   192   77  190 1  
   193   79  191 1  
   194   80  192 1  
   195   81  193 1  
   196   82  194 1  
   197   84  195 1  
   198   86  196 1  
   199   89  197 1  
   200   89  198 1  
   201   90  199 1  
   202   90  200 1  
   203   91  201 1  
   204   91  202 1  
   205   92  203 1  
   206   93  204 1  
   207   96  205 1  
   208   96  206 1  
@<TRIPOS>SUBSTRUCTURE
     1 SER         1

