1xhm_ligand
  -I-interpret- 

208210  0  0  0  0  0  0  0  0999 V2000
  -22.4280  -18.7060   21.4910 N   0  3  0  0  0
  -21.2050  -18.0160   21.9930 C   0  0  0  0  0
  -20.0120  -18.5770   21.2300 C   0  0  0  0  0
  -19.4020  -17.8970   20.4020 O   0  0  0  0  0
  -21.0210  -18.2860   23.4920 C   0  0  0  0  0
  -22.2160  -18.0600   24.2260 O   0  0  0  0  0
  -19.6990  -19.8340   21.5220 N   0  0  0  0  0
  -18.5970  -20.5400   20.8870 C   0  0  0  0  0
  -18.9110  -20.7390   19.4060 C   0  0  0  0  0
  -18.0090  -20.8830   18.5780 O   0  0  0  0  0
  -18.3840  -21.9080   21.5680 C   0  0  0  0  0
  -18.3370  -21.7050   23.0880 C   0  0  0  0  0
  -17.0850  -22.5500   21.0840 C   0  0  0  0  0
  -18.2950  -22.9810   23.8990 C   0  0  0  0  0
  -20.2010  -20.7330   19.0830 N   0  0  0  0  0
  -20.6290  -20.9030   17.7090 C   0  0  0  0  0
  -20.1440  -19.7630   16.8400 C   0  0  0  0  0
  -19.7810  -19.9670   15.6830 O   0  0  0  0  0
  -20.1450  -18.5560   17.3970 N   0  0  0  0  0
  -19.6850  -17.3750   16.6790 C   0  0  0  0  0
  -18.2580  -17.6300   16.2140 C   0  0  0  0  0
  -17.9040  -17.3510   15.0700 O   0  0  0  0  0
  -19.7180  -16.1510   17.6070 C   0  0  0  0  0
  -19.0820  -14.8850   17.0410 C   0  0  0  0  0
  -19.8630  -14.3380   15.8690 C   0  0  0  0  0
  -19.2070  -13.0930   15.3050 C   0  0  0  0  0
  -20.0170  -12.5250   14.2040 N   0  3  0  0  0
  -17.4440  -18.1670   17.1130 N   0  0  0  0  0
  -16.0600  -18.4620   16.7960 C   0  0  0  0  0
  -15.9790  -19.5740   15.7530 C   0  0  0  0  0
  -15.1190  -19.5320   14.8720 O   0  0  0  0  0
  -15.3060  -18.8620   18.0600 C   0  0  0  0  0
  -16.8630  -20.5680   15.8440 N   0  0  0  0  0
  -16.8390  -21.6620   14.8720 C   0  0  0  0  0
  -17.1790  -21.1060   13.4990 C   0  0  0  0  0
  -16.6620  -21.5670   12.4810 O   0  0  0  0  0
  -17.8410  -22.7770   15.2370 C   0  0  0  0  0
  -17.4380  -23.6130   16.4280 C   0  0  0  0  0
  -16.1400  -24.0980   16.5610 C   0  0  0  0  0
  -18.3620  -23.9220   17.4230 C   0  0  0  0  0
  -15.7700  -24.8760   17.6710 C   0  0  0  0  0
  -18.0020  -24.6980   18.5340 C   0  0  0  0  0
  -16.7050  -25.1730   18.6580 C   0  0  0  0  0
  -18.0590  -20.1140   13.4830 N   0  0  0  0  0
  -18.4750  -19.4740   12.2480 C   0  0  0  0  0
  -17.2120  -18.8830   11.6240 C   0  0  0  0  0
  -16.9380  -19.0780   10.4370 O   0  0  0  0  0
  -19.4720  -18.3550   12.5560 C   0  0  0  0  0
  -20.5180  -18.1040   11.4800 C   0  0  0  0  0
  -21.6160  -19.1610   11.5250 C   0  0  0  0  0
  -22.6880  -18.9030   10.4740 C   0  0  0  0  0
  -23.7960  -19.8950   10.5640 N   0  3  0  0  0
  -16.4410  -18.1760   12.4460 N   0  0  0  0  0
  -15.2030  -17.5350   12.0080 C   0  0  0  0  0
  -14.1350  -18.5270   11.5580 C   0  0  0  0  0
  -13.4300  -18.2860   10.5780 O   0  0  0  0  0
  -14.6020  -16.6690   13.1350 C   0  0  0  0  0
  -15.6330  -15.6430   13.6010 C   0  0  0  0  0
  -13.3370  -15.9600   12.6430 C   0  0  0  0  0
  -15.2180  -14.9060   14.8430 C   0  0  0  0  0
  -14.0140  -19.6330   12.2850 N   0  0  0  0  0
  -13.0260  -20.6580   11.9690 C   0  0  0  0  0
  -13.3430  -21.3980   10.6820 C   0  0  0  0  0
  -12.5050  -22.1290   10.1500 O   0  0  0  0  0
  -12.9230  -21.6520   13.1190 C   0  0  0  0  0
  -12.3080  -21.0830   14.3960 C   0  0  0  0  0
  -12.3030  -22.1600   15.4620 C   0  0  0  0  0
  -10.8880  -20.5900   14.1190 C   0  0  0  0  0
  -14.5590  -21.2010   10.1830 N   0  0  0  0  0
  -14.9680  -21.8550    8.9540 C   0  0  0  0  0
  -15.6320  -23.1880    9.2200 C   0  0  0  0  0
  -15.0310  -24.2420    9.0190 O   0  0  0  0  0
  -16.8730  -23.1390    9.6880 N   0  0  0  0  0
  -17.6410  -24.3410    9.9780 C   0  0  0  0  0
  -19.0920  -24.1190    9.5620 C   0  0  0  0  0
  -19.6770  -23.0740    9.8510 O   0  0  0  0  0
  -17.5510  -24.6850   11.4720 C   0  0  0  0  0
  -16.2600  -25.3900   11.8760 C   0  0  0  0  0
  -15.9670  -26.6730   11.4140 C   0  0  0  0  0
  -15.3290  -24.7770   12.7160 C   0  0  0  0  0
  -14.7840  -27.3270   11.7780 C   0  0  0  0  0
  -14.1410  -25.4240   13.0840 C   0  0  0  0  0
  -13.8710  -26.6990   12.6120 C   0  0  0  0  0
  -12.6970  -27.3370   12.9600 O   0  0  0  0  0
  -19.6890  -25.1000    8.8640 N   0  0  0  0  0
  -21.0790  -24.9860    8.4130 C   0  0  0  0  0
  -22.0970  -24.9190    9.5510 C   0  0  0  0  0
  -21.8840  -25.4850   10.6240 O   0  0  0  0  0
  -21.2550  -26.2290    7.5430 C   0  0  0  0  0
  -20.3650  -27.2210    8.2100 C   0  0  0  0  0
  -19.1220  -26.4010    8.4660 C   0  0  0  0  0
  -23.2020  -24.2200    9.2990 N   0  0  0  0  0
  -24.2760  -24.0570   10.2740 C   0  0  0  0  0
  -23.7820  -23.4930   11.6080 C   0  0  0  0  0
  -24.0740  -24.1040   12.6610 O   0  0  0  0  0
  -24.9810  -25.3990   10.5030 C   0  0  0  0  0
  -25.5550  -25.9830    9.2230 C   0  0  0  0  0
  -26.3280  -25.2740    8.5390 O   0  0  0  0  0
  -25.2380  -27.1510    8.9040 O   0  0  0  0  0
  -23.1040  -22.4410   11.5980 O   0  0  0  0  0
  -22.5380  -18.5182   20.4945 H   0  0  0  0  0
  -22.3357  -19.7107   21.6407 H   0  0  0  0  0
  -23.2438  -18.3593   21.9956 H   0  0  0  0  0
  -21.2937  -16.9399   21.8439 H   0  0  0  0  0
  -20.2568  -17.6062   23.8687 H   0  0  0  0  0
  -20.7375  -19.3310   23.6171 H   0  0  0  0  0
  -22.0580  -18.2397   25.1557 H   0  0  0  0  0
  -20.2552  -20.3256   22.2216 H   0  0  0  0  0
  -17.6847  -19.9522   20.9887 H   0  0  0  0  0
  -19.2086  -22.5725   21.3099 H   0  0  0  0  0
  -19.2535  -21.1843   23.3656 H   0  0  0  0  0
  -17.4174  -21.1619   23.3058 H   0  0  0  0  0
  -17.1328  -22.6946   20.0047 H   0  0  0  0  0
  -16.2462  -21.8980   21.3277 H   0  0  0  0  0
  -16.9524  -23.5138   21.5755 H   0  0  0  0  0
  -19.1855  -23.5733   23.6885 H   0  0  0  0  0
  -17.4059  -23.5515   23.6306 H   0  0  0  0  0
  -18.2635  -22.7346   24.9603 H   0  0  0  0  0
  -20.9007  -20.6067   19.8144 H   0  0  0  0  0
  -21.7186  -20.9208   17.6836 H   0  0  0  0  0
  -20.2107  -21.8342   17.3269 H   0  0  0  0  0
  -20.4778  -18.4538   18.3557 H   0  0  0  0  0
  -20.3328  -17.1790   15.8246 H   0  0  0  0  0
  -19.1449  -16.4176   18.4950 H   0  0  0  0  0
  -20.7689  -15.9206   17.7817 H   0  0  0  0  0
  -18.0774  -15.1314   16.6973 H   0  0  0  0  0
  -19.0688  -14.1288   17.8259 H   0  0  0  0  0
  -20.8653  -14.0787   16.2099 H   0  0  0  0  0
  -19.8957  -15.0978   15.0881 H   0  0  0  0  0
  -18.2237  -13.3589   14.9170 H   0  0  0  0  0
  -19.1222  -12.3503   16.0983 H   0  0  0  0  0
  -19.5571  -11.6901   13.8409 H   0  0  0  0  0
  -20.1079  -13.2157   13.4590 H   0  0  0  0  0
  -20.9422  -12.2791   14.5560 H   0  0  0  0  0
  -17.7986  -18.3767   18.0461 H   0  0  0  0  0
  -15.5970  -17.5664   16.3817 H   0  0  0  0  0
  -15.3422  -18.0425   18.7778 H   0  0  0  0  0
  -15.7706  -19.7474   18.4938 H   0  0  0  0  0
  -14.2682  -19.0809   17.8086 H   0  0  0  0  0
  -17.5567  -20.5660   16.5918 H   0  0  0  0  0
  -15.8410  -22.1002   14.8750 H   0  0  0  0  0
  -17.8986  -23.4482   14.3801 H   0  0  0  0  0
  -18.7822  -22.2900   15.4920 H   0  0  0  0  0
  -15.4003  -23.8711   15.7933 H   0  0  0  0  0
  -19.3842  -23.5537   17.3365 H   0  0  0  0  0
  -14.7491  -25.2475   17.7591 H   0  0  0  0  0
  -18.7420  -24.9280   19.3006 H   0  0  0  0  0
  -16.4202  -25.7741   19.5215 H   0  0  0  0  0
  -18.4557  -19.7908   14.3653 H   0  0  0  0  0
  -18.9579  -20.1825   11.5750 H   0  0  0  0  0
  -18.8924  -17.4366   12.6489 H   0  0  0  0  0
  -20.0125  -18.6561   13.4534 H   0  0  0  0  0
  -20.0326  -18.1464   10.5049 H   0  0  0  0  0
  -20.9678  -17.1262   11.6520 H   0  0  0  0  0
  -22.0842  -19.1289   12.5088 H   0  0  0  0  0
  -21.1657  -20.1334   11.3254 H   0  0  0  0  0
  -22.2305  -18.9869    9.4882 H   0  0  0  0  0
  -23.1020  -17.9088   10.6419 H   0  0  0  0  0
  -24.4924  -19.6910    9.8472 H   0  0  0  0  0
  -23.4231  -20.8334   10.4201 H   0  0  0  0  0
  -24.2284  -19.8373   11.4860 H   0  0  0  0  0
  -16.7253  -18.0775   13.4206 H   0  0  0  0  0
  -15.4850  -16.9210   11.1527 H   0  0  0  0  0
  -14.3344  -17.3128   13.9729 H   0  0  0  0  0
  -16.5534  -16.1807   13.8288 H   0  0  0  0  0
  -15.7494  -14.9077   12.8048 H   0  0  0  0  0
  -12.6021  -16.7035   12.3342 H   0  0  0  0  0
  -13.5865  -15.3204   11.7964 H   0  0  0  0  0
  -12.9251  -15.3533   13.4494 H   0  0  0  0  0
  -15.0723  -15.6183   15.6551 H   0  0  0  0  0
  -14.2860  -14.3734   14.6536 H   0  0  0  0  0
  -15.9957  -14.1935   15.1181 H   0  0  0  0  0
  -14.6297  -19.7687   13.0868 H   0  0  0  0  0
  -12.0729  -20.1492   11.8250 H   0  0  0  0  0
  -12.2723  -22.4600   12.7845 H   0  0  0  0  0
  -13.9389  -21.9612   13.3649 H   0  0  0  0  0
  -12.8979  -20.2357   14.7456 H   0  0  0  0  0
  -13.3262  -22.4812   15.6570 H   0  0  0  0  0
  -11.7140  -23.0093   15.1159 H   0  0  0  0  0
  -11.8653  -21.7615   16.3772 H   0  0  0  0  0
  -10.2781  -21.4220   13.7668 H   0  0  0  0  0
  -10.9173  -19.8112   13.3569 H   0  0  0  0  0
  -10.4594  -20.1865   15.0364 H   0  0  0  0  0
  -15.2107  -20.5845   10.6684 H   0  0  0  0  0
  -14.0795  -22.0302    8.3474 H   0  0  0  0  0
  -15.6853  -21.2107    8.4457 H   0  0  0  0  0
  -17.3030  -22.2284    9.8499 H   0  0  0  0  0
  -17.2314  -25.1800    9.4156 H   0  0  0  0  0
  -18.3722  -25.3663   11.6947 H   0  0  0  0  0
  -17.5884  -23.7441   12.0210 H   0  0  0  0  0
  -16.6743  -27.1772   10.7555 H   0  0  0  0  0
  -15.5298  -23.7744   13.0937 H   0  0  0  0  0
  -14.5802  -28.3309   11.4055 H   0  0  0  0  0
  -13.4295  -24.9243   13.7414 H   0  0  0  0  0
  -12.1836  -26.7673   13.5375 H   0  0  0  0  0
  -21.2629  -24.0524    7.8814 H   0  0  0  0  0
  -20.9954  -26.0582    6.4982 H   0  0  0  0  0
  -22.2911  -26.5613    7.4791 H   0  0  0  0  0
  -20.1803  -28.1105    7.6077 H   0  0  0  0  0
  -20.7955  -27.6486    9.1155 H   0  0  0  0  0
  -18.4666  -26.8352    9.2210 H   0  0  0  0  0
  -18.4614  -26.3374    7.6013 H   0  0  0  0  0
  -23.3023  -23.7792    8.3847 H   0  0  0  0  0
  -24.9774  -23.3325    9.8603 H   0  0  0  0  0
  -24.5960  -24.8802   12.4450 H   0  0  0  0  0
  -25.8064  -25.2307   11.1947 H   0  0  0  0  0
  -24.2451  -26.1025   10.8923 H   0  0  0  0  0
  -26.4347  -24.4189    8.9621 H   0  0  0  0  0
  1  2  1  0  0  0
  2  3  1  0  0  0
  2  5  1  0  0  0
  3  4  2  0  0  0
  3  7  1  0  0  0
  5  6  1  0  0  0
  7  8  1  0  0  0
  8  9  1  0  0  0
  8 11  1  0  0  0
  9 10  2  0  0  0
  9 15  1  0  0  0
 11 12  1  0  0  0
 11 13  1  0  0  0
 12 14  1  0  0  0
 15 16  1  0  0  0
 16 17  1  0  0  0
 17 18  2  0  0  0
 17 19  1  0  0  0
 19 20  1  0  0  0
 20 21  1  0  0  0
 20 23  1  0  0  0
 21 22  2  0  0  0
 21 28  1  0  0  0
 23 24  1  0  0  0
 24 25  1  0  0  0
 25 26  1  0  0  0
 26 27  1  0  0  0
 28 29  1  0  0  0
 29 30  1  0  0  0
 29 32  1  0  0  0
 30 31  2  0  0  0
 30 33  1  0  0  0
 33 34  1  0  0  0
 34 35  1  0  0  0
 34 37  1  0  0  0
 35 36  2  0  0  0
 35 44  1  0  0  0
 37 38  1  0  0  0
 38 39  4  0  0  0
 38 40  4  0  0  0
 39 41  4  0  0  0
 40 42  4  0  0  0
 41 43  4  0  0  0
 42 43  4  0  0  0
 44 45  1  0  0  0
 45 46  1  0  0  0
 45 48  1  0  0  0
 46 47  2  0  0  0
 46 53  1  0  0  0
 48 49  1  0  0  0
 49 50  1  0  0  0
 50 51  1  0  0  0
 51 52  1  0  0  0
 53 54  1  0  0  0
 54 55  1  0  0  0
 54 57  1  0  0  0
 55 56  2  0  0  0
 55 61  1  0  0  0
 57 58  1  0  0  0
 57 59  1  0  0  0
 58 60  1  0  0  0
 61 62  1  0  0  0
 62 63  1  0  0  0
 62 65  1  0  0  0
 63 64  2  0  0  0
 63 69  1  0  0  0
 65 66  1  0  0  0
 66 67  1  0  0  0
 66 68  1  0  0  0
 69 70  1  0  0  0
 70 71  1  0  0  0
 71 72  2  0  0  0
 71 73  1  0  0  0
 73 74  1  0  0  0
 74 75  1  0  0  0
 74 77  1  0  0  0
 75 76  2  0  0  0
 75 85  1  0  0  0
 77 78  1  0  0  0
 78 79  4  0  0  0
 78 80  4  0  0  0
 79 81  4  0  0  0
 80 82  4  0  0  0
 81 83  4  0  0  0
 82 83  4  0  0  0
 83 84  1  0  0  0
 85 86  1  0  0  0
 85 91  1  0  0  0
 86 87  1  0  0  0
 86 89  1  0  0  0
 87 88  2  0  0  0
 87 92  1  0  0  0
 89 90  1  0  0  0
 90 91  1  0  0  0
 92 93  1  0  0  0
 93 94  1  0  0  0
 93 96  1  0  0  0
 94 95  1  0  0  0
 94100  2  0  0  0
 96 97  1  0  0  0
 97 98  1  0  0  0
 97 99  2  0  0  0
  1101  1  0  0  0
  1102  1  0  0  0
  1103  1  0  0  0
  2104  1  0  0  0
  5105  1  0  0  0
  5106  1  0  0  0
  6107  1  0  0  0
  7108  1  0  0  0
  8109  1  0  0  0
 11110  1  0  0  0
 12111  1  0  0  0
 12112  1  0  0  0
 13113  1  0  0  0
 13114  1  0  0  0
 13115  1  0  0  0
 14116  1  0  0  0
 14117  1  0  0  0
 14118  1  0  0  0
 15119  1  0  0  0
 16120  1  0  0  0
 16121  1  0  0  0
 19122  1  0  0  0
 20123  1  0  0  0
 23124  1  0  0  0
 23125  1  0  0  0
 24126  1  0  0  0
 24127  1  0  0  0
 25128  1  0  0  0
 25129  1  0  0  0
 26130  1  0  0  0
 26131  1  0  0  0
 27132  1  0  0  0
 27133  1  0  0  0
 27134  1  0  0  0
 28135  1  0  0  0
 29136  1  0  0  0
 32137  1  0  0  0
 32138  1  0  0  0
 32139  1  0  0  0
 33140  1  0  0  0
 34141  1  0  0  0
 37142  1  0  0  0
 37143  1  0  0  0
 39144  1  0  0  0
 40145  1  0  0  0
 41146  1  0  0  0
 42147  1  0  0  0
 43148  1  0  0  0
 44149  1  0  0  0
 45150  1  0  0  0
 48151  1  0  0  0
 48152  1  0  0  0
 49153  1  0  0  0
 49154  1  0  0  0
 50155  1  0  0  0
 50156  1  0  0  0
 51157  1  0  0  0
 51158  1  0  0  0
 52159  1  0  0  0
 52160  1  0  0  0
 52161  1  0  0  0
 53162  1  0  0  0
 54163  1  0  0  0
 57164  1  0  0  0
 58165  1  0  0  0
 58166  1  0  0  0
 59167  1  0  0  0
 59168  1  0  0  0
 59169  1  0  0  0
 60170  1  0  0  0
 60171  1  0  0  0
 60172  1  0  0  0
 61173  1  0  0  0
 62174  1  0  0  0
 65175  1  0  0  0
 65176  1  0  0  0
 66177  1  0  0  0
 67178  1  0  0  0
 67179  1  0  0  0
 67180  1  0  0  0
 68181  1  0  0  0
 68182  1  0  0  0
 68183  1  0  0  0
 69184  1  0  0  0
 70185  1  0  0  0
 70186  1  0  0  0
 73187  1  0  0  0
 74188  1  0  0  0
 77189  1  0  0  0
 77190  1  0  0  0
 79191  1  0  0  0
 80192  1  0  0  0
 81193  1  0  0  0
 82194  1  0  0  0
 84195  1  0  0  0
 86196  1  0  0  0
 89197  1  0  0  0
 89198  1  0  0  0
 90199  1  0  0  0
 90200  1  0  0  0
 91201  1  0  0  0
 91202  1  0  0  0
 92203  1  0  0  0
 93204  1  0  0  0
 95205  1  0  0  0
 96206  1  0  0  0
 96207  1  0  0  0
 98208  1  0  0  0
M  END
$$$$
