1fig_ligand
  -I-interpret- 

 28 29  0  0  0  0  0  0  0  0999 V2000
   14.4280   47.5500    9.3180 C   0  0  0  0  0
   14.4650   49.0020    9.8230 C   0  0  0  0  0
   13.7930   49.9960    9.2200 C   0  0  0  0  0
   12.8690   49.7480    8.1380 C   0  0  0  0  0
   13.4740   50.2480    6.9200 O   0  0  0  0  0
   12.5490   48.2730    7.9050 C   0  0  0  0  0
   13.8150   47.4930    7.9810 C   0  0  0  0  0
   11.5280   47.7600    8.8750 O   0  0  0  0  0
   11.9130   47.1500   10.2250 C   0  0  0  0  0
   13.5060   46.6700   10.2510 C   0  0  0  0  0
   15.8850   47.0170    9.1670 C   0  0  0  0  0
   16.4160   46.3840   10.0720 O   0  0  0  0  0
   16.5540   47.2070    8.1490 O   0  0  0  0  0
   11.4160   47.7780   11.5670 C   0  0  0  0  0
   10.6750   47.1150   12.3230 O   0  0  0  0  0
   11.6990   48.9450   11.8560 O   0  0  0  0  0
   15.0607   49.2337   10.7059 H   0  0  0  0  0
   13.9495   51.0206    9.5572 H   0  0  0  0  0
   11.9355   50.2425    8.4067 H   0  0  0  0  0
   13.6899   51.1770    7.0293 H   0  0  0  0  0
   12.1084   48.1570    6.9148 H   0  0  0  0  0
   13.5836   46.4511    7.7596 H   0  0  0  0  0
   14.5192   47.9217    7.2680 H   0  0  0  0  0
   11.2548   46.2812   10.2380 H   0  0  0  0  0
   13.8691   46.7757   11.2733 H   0  0  0  0  0
   13.5502   45.6426    9.8896 H   0  0  0  0  0
   16.0360   47.7100    7.5163 H   0  0  0  0  0
   10.5536   46.2350   11.9591 H   0  0  0  0  0
  1  2  1  0  0  0
  1  7  1  0  0  0
  1 10  1  0  0  0
  1 11  1  0  0  0
  2  3  2  0  0  0
  3  4  1  0  0  0
  4  5  1  0  0  0
  4  6  1  0  0  0
  6  7  1  0  0  0
  6  8  1  0  0  0
  8  9  1  0  0  0
  9 10  1  0  0  0
  9 14  1  0  0  0
 11 12  2  0  0  0
 11 13  1  0  0  0
 14 15  1  0  0  0
 14 16  2  0  0  0
  2 17  1  0  0  0
  3 18  1  0  0  0
  4 19  1  0  0  0
  5 20  1  0  0  0
  6 21  1  0  0  0
  7 22  1  0  0  0
  7 23  1  0  0  0
  9 24  1  0  0  0
 10 25  1  0  0  0
 10 26  1  0  0  0
 13 27  1  0  0  0
 15 28  1  0  0  0
M  END
$$$$
