5wqd_ligand
  -I-interpret- 

211213  0  0  0  0  0  0  0  0999 V2000
   26.1550   26.4430  154.3340 N   0  3  0  0  0
   25.5000   27.3320  153.3820 C   0  0  0  0  0
   24.3750   28.1310  154.0360 C   0  0  0  0  0
   23.4490   28.5720  153.3550 O   0  0  0  0  0
   24.9390   26.5370  152.1990 C   0  0  0  0  0
   25.9610   26.1480  151.1400 C   0  0  0  0  0
   25.2740   25.4750  149.9580 C   0  0  0  0  0
   26.1590   25.3220  148.8060 N   0  0  0  0  0
   25.7790   24.8200  147.6350 C   0  0  0  0  0
   24.5250   24.4260  147.4570 N   0  0  0  0  0
   26.6500   24.7150  146.6410 N   0  0  0  0  0
   24.4550   28.3230  155.3500 N   0  0  0  0  0
   23.3580   28.9440  156.0890 C   0  0  0  0  0
   23.3930   30.4580  155.8790 C   0  0  0  0  0
   22.3730   31.0260  155.4610 O   0  0  0  0  0
   23.3900   28.5510  157.5770 C   0  0  0  0  0
   23.7350   27.0670  157.7250 C   0  0  0  0  0
   22.0580   28.8620  158.2380 C   0  0  0  0  0
   23.9340   26.6250  159.1570 C   0  0  0  0  0
   24.5000   31.1590  156.1320 N   0  0  0  0  0
   24.6120   32.5500  155.6480 C   0  0  0  0  0
   25.4170   32.6950  154.3620 C   0  0  0  0  0
   25.6290   33.8320  153.9270 O   0  0  0  0  0
   25.3360   33.2320  156.8120 C   0  0  0  0  0
   26.2710   32.1870  157.3000 C   0  0  0  0  0
   25.6330   30.8380  157.0240 C   0  0  0  0  0
   25.8670   31.5870  153.7670 N   0  0  0  0  0
   26.6130   31.6550  152.5160 C   0  0  0  0  0
   25.7320   32.1660  151.3830 C   0  0  0  0  0
   26.1590   33.0090  150.5850 O   0  0  0  0  0
   27.1830   30.2740  152.1830 C   0  0  0  0  0
   28.3360   30.3310  151.2010 C   0  0  0  0  0
   28.4230   31.2370  150.3720 O   0  0  0  0  0
   29.2300   29.3520  151.2870 N   0  0  0  0  0
   24.4970   31.6730  151.3020 N   0  0  0  0  0
   23.5450   32.1370  150.3020 C   0  0  0  0  0
   22.2810   32.6500  150.9800 C   0  0  0  0  0
   21.1680   32.3090  150.5660 O   0  0  0  0  0
   23.2050   31.0150  149.3160 C   0  0  0  0  0
   24.3990   30.4710  148.5620 C   0  0  0  0  0
   25.1590   29.4300  149.0830 C   0  0  0  0  0
   24.7690   31.0000  147.3330 C   0  0  0  0  0
   26.2510   28.9300  148.3980 C   0  0  0  0  0
   25.8600   30.5070  146.6420 C   0  0  0  0  0
   26.5970   29.4720  147.1790 C   0  0  0  0  0
   27.6840   28.9780  146.4950 O   0  0  0  0  0
   22.4500   33.4750  152.0150 N   0  0  0  0  0
   21.3340   33.9490  152.8260 C   0  0  0  0  0
   20.2630   34.6080  151.9680 C   0  0  0  0  0
   20.5340   35.5710  151.2460 O   0  0  0  0  0
   21.8440   34.9320  153.8830 C   0  0  0  0  0
   20.7430   35.6650  154.6370 C   0  0  0  0  0
   20.2230   34.8800  155.8250 C   0  0  0  0  0
   20.8180   33.8820  156.2330 O   0  0  0  0  0
   19.1060   35.3270  156.3860 N   0  0  0  0  0
   19.0430   34.0790  152.0550 N   0  0  0  0  0
   17.9110   34.5880  151.2900 C   0  0  0  0  0
   16.9690   35.4510  152.1140 C   0  0  0  0  0
   16.3760   36.3900  151.5740 O   0  0  0  0  0
   17.1140   33.4260  150.6870 C   0  0  0  0  0
   17.8710   32.4500  149.7850 C   0  0  0  0  0
   16.9580   31.3180  149.3420 C   0  0  0  0  0
   18.4570   33.1730  148.5840 C   0  0  0  0  0
   16.8160   35.1560  153.4080 N   0  0  0  0  0
   15.8700   35.8580  154.2600 C   0  0  0  0  0
   16.5300   37.0510  154.9440 C   0  0  0  0  0
   17.7240   37.0160  155.2560 O   0  0  0  0  0
   15.3070   34.9130  155.3180 C   0  0  0  0  0
   14.4870   33.9180  154.7290 O   0  0  0  0  0
   15.7760   38.1160  155.1860 N   0  0  0  0  0
   16.3060   39.2630  155.9230 C   0  0  0  0  0
   16.1990   39.0140  157.4240 C   0  0  0  0  0
   15.7990   37.9430  157.8760 O   0  0  0  0  0
   15.4060   40.4230  155.4760 C   0  0  0  0  0
   14.2620   39.7900  154.6800 C   0  0  0  0  0
   14.3590   38.3070  154.8460 C   0  0  0  0  0
   16.5680   40.0340  158.1960 N   0  0  0  0  0
   16.4500   39.9920  159.6510 C   0  0  0  0  0
   15.9050   41.3370  160.1120 C   0  0  0  0  0
   16.5730   42.3650  159.9580 O   0  0  0  0  0
   17.7910   39.6860  160.3190 C   0  0  0  0  0
   18.2910   38.4330  159.8360 O   0  0  0  0  0
   17.6180   39.5950  161.8230 C   0  0  0  0  0
   14.6950   41.3280  160.6660 N   0  0  0  0  0
   14.0600   42.5530  161.1330 C   0  0  0  0  0
   14.8970   43.2000  162.2290 C   0  0  0  0  0
   15.2250   42.5590  163.2330 O   0  0  0  0  0
   12.6520   42.2460  161.6420 C   0  0  0  0  0
   12.0060   43.3720  162.4300 C   0  0  0  0  0
   11.5220   44.4850  161.5170 C   0  0  0  0  0
   11.0550   45.6880  162.3190 C   0  0  0  0  0
   12.1600   46.2760  163.1280 N   0  3  0  0  0
   15.2480   44.4670  162.0290 N   0  0  0  0  0
   16.0590   45.2070  162.9890 C   0  0  0  0  0
   15.3230   45.3740  164.3150 C   0  0  0  0  0
   14.0910   45.3680  164.3570 O   0  0  0  0  0
   16.4420   46.5800  162.4270 C   0  0  0  0  0
   16.8720   46.6530  160.9600 C   0  0  0  0  0
   17.0950   48.1000  160.5450 C   0  0  0  0  0
   18.1240   45.8220  160.7150 C   0  0  0  0  0
   15.9470   45.5180  165.3680 O   0  0  0  0  0
   26.5210   26.9909  155.1127 H   0  0  0  0  0
   25.4793   25.7632  154.6829 H   0  0  0  0  0
   26.9213   25.9552  153.8701 H   0  0  0  0  0
   26.2555   28.0318  153.0250 H   0  0  0  0  0
   24.2072   27.1788  151.7083 H   0  0  0  0  0
   24.5398   25.6081  152.6062 H   0  0  0  0  0
   26.6768   25.4519  151.5771 H   0  0  0  0  0
   26.4684   27.0470  150.7901 H   0  0  0  0  0
   24.4357   26.1026  149.6557 H   0  0  0  0  0
   24.9605   24.4802  150.2744 H   0  0  0  0  0
   27.1296   25.6190  148.9063 H   0  0  0  0  0
   24.2334   24.0436  146.5575 H   0  0  0  0  0
   23.8523   24.5054  148.2196 H   0  0  0  0  0
   27.6143   25.0197  146.7736 H   0  0  0  0  0
   25.2954   28.0321  155.8495 H   0  0  0  0  0
   22.4086   28.5736  155.7023 H   0  0  0  0  0
   24.1621   29.1362  158.0765 H   0  0  0  0  0
   24.6752   26.8985  157.1998 H   0  0  0  0  0
   22.8970   26.4974  157.3231 H   0  0  0  0  0
   21.8544   29.9298  158.1574 H   0  0  0  0  0
   21.2670   28.3013  157.7399 H   0  0  0  0  0
   22.1003   28.5772  159.2893 H   0  0  0  0  0
   24.7515   27.1931  159.6010 H   0  0  0  0  0
   23.0183   26.8021  159.7212 H   0  0  0  0  0
   24.1752   25.5622  159.1777 H   0  0  0  0  0
   23.6400   32.9714  155.3915 H   0  0  0  0  0
   24.6503   33.5736  157.5874 H   0  0  0  0  0
   25.8507   34.1431  156.5070 H   0  0  0  0  0
   26.4559   32.3097  158.3672 H   0  0  0  0  0
   27.2307   32.2661  156.7893 H   0  0  0  0  0
   26.3310   30.1341  156.5709 H   0  0  0  0  0
   25.3127   30.3362  157.9371 H   0  0  0  0  0
   25.6859   30.6788  154.1946 H   0  0  0  0  0
   27.4366   32.3591  152.6346 H   0  0  0  0  0
   26.3862   29.6870  151.7262 H   0  0  0  0  0
   27.5565   29.8366  153.1089 H   0  0  0  0  0
   30.0270   29.3318  150.6507 H   0  0  0  0  0
   29.1194   28.6206  151.9893 H   0  0  0  0  0
   24.2094   30.9487  151.9601 H   0  0  0  0  0
   24.0007   32.9546  149.7434 H   0  0  0  0  0
   22.5201   31.4317  148.5775 H   0  0  0  0  0
   22.7879   30.1918  149.8961 H   0  0  0  0  0
   24.8894   29.0007  150.0479 H   0  0  0  0  0
   24.1893   31.8181  146.9056 H   0  0  0  0  0
   26.8349   28.1118  148.8197 H   0  0  0  0  0
   26.1364   30.9338  145.6779 H   0  0  0  0  0
   27.7884   29.4599  145.6713 H   0  0  0  0  0
   23.3934   33.7854  152.2474 H   0  0  0  0  0
   20.8812   33.0884  153.3184 H   0  0  0  0  0
   22.4341   35.6862  153.3624 H   0  0  0  0  0
   22.4052   34.3529  154.6163 H   0  0  0  0  0
   19.9120   35.8190  153.9486 H   0  0  0  0  0
   21.1596   36.6002  155.0110 H   0  0  0  0  0
   18.7076   34.8391  157.1882 H   0  0  0  0  0
   18.6462   36.1584  156.0148 H   0  0  0  0  0
   18.8954   33.2873  152.6810 H   0  0  0  0  0
   18.3339   35.2163  150.5061 H   0  0  0  0  0
   16.3555   33.8857  150.0534 H   0  0  0  0  0
   16.7662   32.8354  151.5346 H   0  0  0  0  0
   18.6946   32.0214  150.3560 H   0  0  0  0  0
   16.5943   30.7820  150.2187 H   0  0  0  0  0
   16.1131   31.7293  148.7897 H   0  0  0  0  0
   17.5143   30.6339  148.7011 H   0  0  0  0  0
   17.6524   33.6325  148.0100 H   0  0  0  0  0
   19.1468   33.9442  148.9268 H   0  0  0  0  0
   18.9908   32.4591  147.9567 H   0  0  0  0  0
   17.3834   34.4113  153.8128 H   0  0  0  0  0
   15.0587   36.2213  153.6291 H   0  0  0  0  0
   14.7046   35.4921  156.0179 H   0  0  0  0  0
   16.1379   34.4241  155.8266 H   0  0  0  0  0
   14.1466   33.3385  155.4145 H   0  0  0  0  0
   17.3599   39.4611  155.7275 H   0  0  0  0  0
   15.9592   41.1394  154.8687 H   0  0  0  0  0
   15.0282   40.9812  156.3326 H   0  0  0  0  0
   14.3381   40.0596  153.6266 H   0  0  0  0  0
   13.3005   40.1506  155.0456 H   0  0  0  0  0
   13.6816   37.9175  155.6060 H   0  0  0  0  0
   14.0562   37.7572  153.9549 H   0  0  0  0  0
   16.9459   40.8732  157.7563 H   0  0  0  0  0
   15.7729   39.1884  159.9407 H   0  0  0  0  0
   18.4913   40.4868  160.0815 H   0  0  0  0  0
   19.1328   38.2423  160.2562 H   0  0  0  0  0
   17.2382   40.5439  162.2018 H   0  0  0  0  0
   16.9114   38.7992  162.0587 H   0  0  0  0  0
   18.5805   39.3767  162.2856 H   0  0  0  0  0
   14.2002   40.4417  160.7660 H   0  0  0  0  0
   13.9872   43.2540  160.3015 H   0  0  0  0  0
   12.7359   41.3932  162.3157 H   0  0  0  0  0
   12.0276   42.0716  160.7657 H   0  0  0  0  0
   12.7480   43.7846  163.1135 H   0  0  0  0  0
   11.1476   42.9688  162.9673 H   0  0  0  0  0
   10.6840   44.1126  160.9278 H   0  0  0  0  0
   12.3477   44.7932  160.8756 H   0  0  0  0  0
   10.2681   45.3620  162.9992 H   0  0  0  0  0
   10.6987   46.4470  161.6225 H   0  0  0  0  0
   11.8078   47.0783  163.6501 H   0  0  0  0  0
   12.5141   45.5745  163.7783 H   0  0  0  0  0
   12.9117   46.5762  162.5073 H   0  0  0  0  0
   14.9402   44.9361  161.1772 H   0  0  0  0  0
   16.9679   44.6328  163.1688 H   0  0  0  0  0
   13.7423   45.2484  163.4706 H   0  0  0  0  0
   17.3114   46.8985  163.0021 H   0  0  0  0  0
   15.5388   47.1862  162.4969 H   0  0  0  0  0
   16.0711   46.2369  160.3489 H   0  0  0  0  0
   16.1687   48.6601  160.6727 H   0  0  0  0  0
   17.8752   48.5389  161.1669 H   0  0  0  0  0
   17.4003   48.1338  159.4992 H   0  0  0  0  0
   18.9361   46.1990  161.3366 H   0  0  0  0  0
   17.9232   44.7812  160.9692 H   0  0  0  0  0
   18.4058   45.8929  159.6644 H   0  0  0  0  0
  1  2  1  0  0  0
  2  3  1  0  0  0
  2  5  1  0  0  0
  3  4  2  0  0  0
  3 12  1  0  0  0
  5  6  1  0  0  0
  6  7  1  0  0  0
  7  8  1  0  0  0
  8  9  1  0  0  0
  9 10  1  0  0  0
  9 11  2  0  0  0
 12 13  1  0  0  0
 13 14  1  0  0  0
 13 16  1  0  0  0
 14 15  2  0  0  0
 14 20  1  0  0  0
 16 17  1  0  0  0
 16 18  1  0  0  0
 17 19  1  0  0  0
 20 21  1  0  0  0
 20 26  1  0  0  0
 21 22  1  0  0  0
 21 24  1  0  0  0
 22 23  2  0  0  0
 22 27  1  0  0  0
 24 25  1  0  0  0
 25 26  1  0  0  0
 27 28  1  0  0  0
 28 29  1  0  0  0
 28 31  1  0  0  0
 29 30  2  0  0  0
 29 35  1  0  0  0
 31 32  1  0  0  0
 32 33  2  0  0  0
 32 34  1  0  0  0
 35 36  1  0  0  0
 36 37  1  0  0  0
 36 39  1  0  0  0
 37 38  2  0  0  0
 37 47  1  0  0  0
 39 40  1  0  0  0
 40 41  4  0  0  0
 40 42  4  0  0  0
 41 43  4  0  0  0
 42 44  4  0  0  0
 43 45  4  0  0  0
 44 45  4  0  0  0
 45 46  1  0  0  0
 47 48  1  0  0  0
 48 49  1  0  0  0
 48 51  1  0  0  0
 49 50  2  0  0  0
 49 56  1  0  0  0
 51 52  1  0  0  0
 52 53  1  0  0  0
 53 54  2  0  0  0
 53 55  1  0  0  0
 56 57  1  0  0  0
 57 58  1  0  0  0
 57 60  1  0  0  0
 58 59  2  0  0  0
 58 64  1  0  0  0
 60 61  1  0  0  0
 61 62  1  0  0  0
 61 63  1  0  0  0
 64 65  1  0  0  0
 65 66  1  0  0  0
 65 68  1  0  0  0
 66 67  2  0  0  0
 66 70  1  0  0  0
 68 69  1  0  0  0
 70 71  1  0  0  0
 70 76  1  0  0  0
 71 72  1  0  0  0
 71 74  1  0  0  0
 72 73  2  0  0  0
 72 77  1  0  0  0
 74 75  1  0  0  0
 75 76  1  0  0  0
 77 78  1  0  0  0
 78 79  1  0  0  0
 78 81  1  0  0  0
 79 80  2  0  0  0
 79 84  1  0  0  0
 81 82  1  0  0  0
 81 83  1  0  0  0
 84 85  1  0  0  0
 85 86  1  0  0  0
 85 88  1  0  0  0
 86 87  2  0  0  0
 86 93  1  0  0  0
 88 89  1  0  0  0
 89 90  1  0  0  0
 90 91  1  0  0  0
 91 92  1  0  0  0
 93 94  1  0  0  0
 94 95  1  0  0  0
 94 97  1  0  0  0
 95 96  1  0  0  0
 95101  2  0  0  0
 97 98  1  0  0  0
 98 99  1  0  0  0
 98100  1  0  0  0
  1102  1  0  0  0
  1103  1  0  0  0
  1104  1  0  0  0
  2105  1  0  0  0
  5106  1  0  0  0
  5107  1  0  0  0
  6108  1  0  0  0
  6109  1  0  0  0
  7110  1  0  0  0
  7111  1  0  0  0
  8112  1  0  0  0
 10113  1  0  0  0
 10114  1  0  0  0
 11115  1  0  0  0
 12116  1  0  0  0
 13117  1  0  0  0
 16118  1  0  0  0
 17119  1  0  0  0
 17120  1  0  0  0
 18121  1  0  0  0
 18122  1  0  0  0
 18123  1  0  0  0
 19124  1  0  0  0
 19125  1  0  0  0
 19126  1  0  0  0
 21127  1  0  0  0
 24128  1  0  0  0
 24129  1  0  0  0
 25130  1  0  0  0
 25131  1  0  0  0
 26132  1  0  0  0
 26133  1  0  0  0
 27134  1  0  0  0
 28135  1  0  0  0
 31136  1  0  0  0
 31137  1  0  0  0
 34138  1  0  0  0
 34139  1  0  0  0
 35140  1  0  0  0
 36141  1  0  0  0
 39142  1  0  0  0
 39143  1  0  0  0
 41144  1  0  0  0
 42145  1  0  0  0
 43146  1  0  0  0
 44147  1  0  0  0
 46148  1  0  0  0
 47149  1  0  0  0
 48150  1  0  0  0
 51151  1  0  0  0
 51152  1  0  0  0
 52153  1  0  0  0
 52154  1  0  0  0
 55155  1  0  0  0
 55156  1  0  0  0
 56157  1  0  0  0
 57158  1  0  0  0
 60159  1  0  0  0
 60160  1  0  0  0
 61161  1  0  0  0
 62162  1  0  0  0
 62163  1  0  0  0
 62164  1  0  0  0
 63165  1  0  0  0
 63166  1  0  0  0
 63167  1  0  0  0
 64168  1  0  0  0
 65169  1  0  0  0
 68170  1  0  0  0
 68171  1  0  0  0
 69172  1  0  0  0
 71173  1  0  0  0
 74174  1  0  0  0
 74175  1  0  0  0
 75176  1  0  0  0
 75177  1  0  0  0
 76178  1  0  0  0
 76179  1  0  0  0
 77180  1  0  0  0
 78181  1  0  0  0
 81182  1  0  0  0
 82183  1  0  0  0
 83184  1  0  0  0
 83185  1  0  0  0
 83186  1  0  0  0
 84187  1  0  0  0
 85188  1  0  0  0
 88189  1  0  0  0
 88190  1  0  0  0
 89191  1  0  0  0
 89192  1  0  0  0
 90193  1  0  0  0
 90194  1  0  0  0
 91195  1  0  0  0
 91196  1  0  0  0
 92197  1  0  0  0
 92198  1  0  0  0
 92199  1  0  0  0
 93200  1  0  0  0
 94201  1  0  0  0
 96202  1  0  0  0
 97203  1  0  0  0
 97204  1  0  0  0
 98205  1  0  0  0
 99206  1  0  0  0
 99207  1  0  0  0
 99208  1  0  0  0
100209  1  0  0  0
100210  1  0  0  0
100211  1  0  0  0
M  END
$$$$
