### 
### Created by X-TOOL on Mon Sep 10 21:13:34 2018
### 

@<TRIPOS>MOLECULE
5wqd_ligand
  211   213     1     0     0
SMALL
GAST_HUCK


@<TRIPOS>ATOM
      1 N          26.1550   26.4430  154.3340 N.4       1 ARG         0.2379
      2 CA         25.5000   27.3320  153.3820 C.3       1 ARG         0.0651
      3 C          24.3750   28.1310  154.0360 C.2       1 ARG         0.2267
      4 O          23.4490   28.5720  153.3550 O.2       1 ARG        -0.3907
      5 CB         24.9390   26.5370  152.1990 C.3       1 ARG         0.0110
      6 CG         25.9610   26.1480  151.1400 C.3       1 ARG        -0.0125
      7 CD         25.2740   25.4750  149.9580 C.3       1 ARG         0.0629
      8 NE         26.1590   25.3220  148.8060 N.pl3     1 ARG        -0.2723
      9 CZ         25.7790   24.8200  147.6350 C.cat     1 ARG         0.2882
     10 NH1        24.5250   24.4260  147.4570 N.pl3     1 ARG        -0.2849
     11 NH2        26.6500   24.7150  146.6410 N.pl3     1 ARG        -0.2849
     12 N          24.4550   28.3230  155.3500 N.am      1 ILE        -0.2607
     13 CA         23.3580   28.9440  156.0890 C.3       1 ILE         0.1338
     14 C          23.3930   30.4580  155.8790 C.2       1 ILE         0.2067
     15 O          22.3730   31.0260  155.4610 O.2       1 ILE        -0.3942
     16 CB         23.3900   28.5510  157.5770 C.3       1 ILE        -0.0037
     17 CG1        23.7350   27.0670  157.7250 C.3       1 ILE        -0.0491
     18 CG2        22.0580   28.8620  158.2380 C.3       1 ILE        -0.0582
     19 CD1        23.9340   26.6250  159.1570 C.3       1 ILE        -0.0648
     20 N          24.5000   31.1590  156.1320 N.am      1 PRO        -0.2498
     21 CA         24.6120   32.5500  155.6480 C.3       1 PRO         0.1338
     22 C          25.4170   32.6950  154.3620 C.2       1 PRO         0.2042
     23 O          25.6290   33.8320  153.9270 O.2       1 PRO        -0.3944
     24 CB         25.3360   33.2320  156.8120 C.3       1 PRO        -0.0104
     25 CG         26.2710   32.1870  157.3000 C.3       1 PRO        -0.0281
     26 CD         25.6330   30.8380  157.0240 C.3       1 PRO         0.0369
     27 N          25.8670   31.5870  153.7670 N.am      1 ASN        -0.2616
     28 CA         26.6130   31.6550  152.5160 C.3       1 ASN         0.1476
     29 C          25.7320   32.1660  151.3830 C.2       1 ASN         0.2064
     30 O          26.1590   33.0090  150.5850 O.2       1 ASN        -0.3942
     31 CB         27.1830   30.2740  152.1830 C.3       1 ASN         0.0773
     32 CG         28.3360   30.3310  151.2010 C.2       1 ASN         0.1780
     33 OD1        28.4230   31.2370  150.3720 O.2       1 ASN        -0.3970
     34 ND2        29.2300   29.3520  151.2870 N.am      1 ASN        -0.3007
     35 N          24.4970   31.6730  151.3020 N.am      1 TYR        -0.2620
     36 CA         23.5450   32.1370  150.3020 C.3       1 TYR         0.1390
     37 C          22.2810   32.6500  150.9800 C.2       1 TYR         0.2057
     38 O          21.1680   32.3090  150.5660 O.2       1 TYR        -0.3942
     39 CB         23.2050   31.0150  149.3160 C.3       1 TYR         0.0163
     40 CG         24.3990   30.4710  148.5620 C.ar      1 TYR        -0.0493
     41 CD1        25.1590   29.4300  149.0830 C.ar      1 TYR        -0.0685
     42 CD2        24.7690   31.0000  147.3330 C.ar      1 TYR        -0.0685
     43 CE1        26.2510   28.9300  148.3980 C.ar      1 TYR        -0.0398
     44 CE2        25.8600   30.5070  146.6420 C.ar      1 TYR        -0.0398
     45 CZ         26.5970   29.4720  147.1790 C.ar      1 TYR         0.0805
     46 OH         27.6840   28.9780  146.4950 O.3       1 TYR        -0.3376
     47 N          22.4500   33.4750  152.0150 N.am      1 GLN        -0.2634
     48 CA         21.3340   33.9490  152.8260 C.3       1 GLN         0.1330
     49 C          20.2630   34.6080  151.9680 C.2       1 GLN         0.2040
     50 O          20.5340   35.5710  151.2460 O.2       1 GLN        -0.3944
     51 CB         21.8440   34.9320  153.8830 C.3       1 GLN         0.0045
     52 CG         20.7430   35.6650  154.6370 C.3       1 GLN         0.0412
     53 CD         20.2230   34.8800  155.8250 C.2       1 GLN         0.1737
     54 OE1        20.8180   33.8820  156.2330 O.2       1 GLN        -0.3973
     55 NE2        19.1060   35.3270  156.3860 N.am      1 GLN        -0.3009
     56 N          19.0430   34.0790  152.0550 N.am      1 LEU        -0.2637
     57 CA         17.9110   34.5880  151.2900 C.3       1 LEU         0.1312
     58 C          16.9690   35.4510  152.1140 C.2       1 LEU         0.2040
     59 O          16.3760   36.3900  151.5740 O.2       1 LEU        -0.3944
     60 CB         17.1140   33.4260  150.6870 C.3       1 LEU        -0.0101
     61 CG         17.8710   32.4500  149.7850 C.3       1 LEU        -0.0425
     62 CD1        16.9580   31.3180  149.3420 C.3       1 LEU        -0.0625
     63 CD2        18.4570   33.1730  148.5840 C.3       1 LEU        -0.0625
     64 N          16.8160   35.1560  153.4080 N.am      1 SER        -0.2616
     65 CA         15.8700   35.8580  154.2600 C.3       1 SER         0.1541
     66 C          16.5300   37.0510  154.9440 C.2       1 SER         0.2087
     67 O          17.7240   37.0160  155.2560 O.2       1 SER        -0.3941
     68 CB         15.3070   34.9130  155.3180 C.3       1 SER         0.0843
     69 OG         14.4870   33.9180  154.7290 O.3       1 SER        -0.3903
     70 N          15.7760   38.1160  155.1860 N.am      1 PRO        -0.2498
     71 CA         16.3060   39.2630  155.9230 C.3       1 PRO         0.1338
     72 C          16.1990   39.0140  157.4240 C.2       1 PRO         0.2042
     73 O          15.7990   37.9430  157.8760 O.2       1 PRO        -0.3944
     74 CB         15.4060   40.4230  155.4760 C.3       1 PRO        -0.0104
     75 CG         14.2620   39.7900  154.6800 C.3       1 PRO        -0.0281
     76 CD         14.3590   38.3070  154.8460 C.3       1 PRO         0.0369
     77 N          16.5680   40.0340  158.1960 N.am      1 THR        -0.2613
     78 CA         16.4500   39.9920  159.6510 C.3       1 THR         0.1565
     79 C          15.9050   41.3370  160.1120 C.2       1 THR         0.2065
     80 O          16.5730   42.3650  159.9580 O.2       1 THR        -0.3943
     81 CB         17.7910   39.6860  160.3190 C.3       1 THR         0.0924
     82 OG1        18.2910   38.4330  159.8360 O.3       1 THR        -0.3874
     83 CG2        17.6180   39.5950  161.8230 C.3       1 THR        -0.0346
     84 N          14.6950   41.3280  160.6660 N.am      1 LYS        -0.2637
     85 CA         14.0600   42.5530  161.1330 C.3       1 LYS         0.1309
     86 C          14.8970   43.2000  162.2290 C.2       1 LYS         0.2033
     87 O          15.2250   42.5590  163.2330 O.2       1 LYS        -0.3944
     88 CB         12.6520   42.2460  161.6420 C.3       1 LYS        -0.0122
     89 CG         12.0060   43.3720  162.4300 C.3       1 LYS        -0.0440
     90 CD         11.5220   44.4850  161.5170 C.3       1 LYS        -0.0124
     91 CE         11.0550   45.6880  162.3190 C.3       1 LYS        -0.0354
     92 NZ         12.1600   46.2760  163.1280 N.4       1 LYS         0.2185
     93 N          15.2480   44.4670  162.0290 N.am      1 LEU        -0.2695
     94 CA         16.0590   45.2070  162.9890 C.3       1 LEU         0.0946
     95 C          15.3230   45.3740  164.3150 C.2       1 LEU         0.0601
     96 O          14.0910   45.3680  164.3570 O.co2     1 LEU        -0.5666
     97 CB         16.4420   46.5800  162.4270 C.3       1 LEU        -0.0156
     98 CG         16.8720   46.6530  160.9600 C.3       1 LEU        -0.0431
     99 CD1        17.0950   48.1000  160.5450 C.3       1 LEU        -0.0625
    100 CD2        18.1240   45.8220  160.7150 C.3       1 LEU        -0.0625
    101 OXT        15.9470   45.5180  165.3680 O.co2     1 LEU        -0.5666
    102 H1         26.8895   25.9339  153.8677 H         1 ARG         0.2015
    103 H2         25.4801   25.7935  154.7064 H         1 ARG         0.2015
    104 H3         26.5484   26.9870  155.0859 H         1 ARG         0.2015
    105 H4         26.2517   28.0399  153.0028 H         1 ARG         0.1098
    106 H5         24.1627   27.1480  151.7152 H         1 ARG         0.0347
    107 H6         24.4874   25.6142  152.5920 H         1 ARG         0.0347
    108 H7         26.6905   25.4517  151.5792 H         1 ARG         0.0302
    109 H8         26.4814   27.0516  150.7898 H         1 ARG         0.0302
    110 H9         24.4091   26.0854  149.6590 H         1 ARG         0.0689
    111 H10        24.9289   24.4788  150.2717 H         1 ARG         0.0689
    112 H11        27.1392   25.6219  148.9073 H         1 ARG         0.2642
    113 H12        24.2312   24.0372  146.5496 H         1 ARG         0.2615
    114 H13        23.8450   24.5089  148.2262 H         1 ARG         0.2615
    115 H14        27.6245   25.0200  146.7758 H         1 ARG         0.2615
    116 H15        26.3522   24.3284  145.7339 H         1 ARG         0.2615
    117 H16        25.2789   28.0378  155.8397 H         1 ILE         0.1885
    118 H17        22.4120   28.5696  155.6709 H         1 ILE         0.0803
    119 H18        24.1717   29.1416  158.0771 H         1 ILE         0.0345
    120 H19        24.6637   26.8701  157.1694 H         1 ILE         0.0267
    121 H20        22.9154   26.4757  157.2906 H         1 ILE         0.0267
    122 H21        21.8308   29.9317  158.1195 H         1 ILE         0.0235
    123 H22        22.1134   28.6154  159.3085 H         1 ILE         0.0235
    124 H23        21.2653   28.2642  157.7645 H         1 ILE         0.0235
    125 H24        24.1775   25.5525  159.1792 H         1 ILE         0.0230
    126 H25        23.0105   26.8032  159.7275 H         1 ILE         0.0230
    127 H26        24.7588   27.1976  159.6062 H         1 ILE         0.0230
    128 H27        23.6134   32.9841  155.4919 H         1 PRO         0.0802
    129 H28        24.6259   33.5230  157.6001 H         1 PRO         0.0313
    130 H29        25.8851   34.1204  156.4669 H         1 PRO         0.0313
    131 H30        26.4394   32.3086  158.3802 H         1 PRO         0.0287
    132 H31        27.2309   32.2641  156.7683 H         1 PRO         0.0287
    133 H32        26.3445   30.1628  156.5261 H         1 PRO         0.0524
    134 H33        25.2784   30.3743  157.9563 H         1 PRO         0.0524
    135 H34        25.6894   30.6966  154.1862 H         1 ASN         0.1885
    136 H35        27.4499   32.3570  152.6457 H         1 ASN         0.0826
    137 H36        26.3814   29.6595  151.7472 H         1 ASN         0.0551
    138 H37        27.5379   29.8074  153.1137 H         1 ASN         0.0551
    139 H38        30.0137   29.3346  150.6661 H         1 ASN         0.1814
    140 H39        29.1192   28.6325  151.9727 H         1 ASN         0.1814
    141 H40        24.2151   30.9629  151.9472 H         1 TYR         0.1885
    142 H41        24.0029   32.9656  149.7419 H         1 TYR         0.0821
    143 H42        22.4831   31.4058  148.5838 H         1 TYR         0.0453
    144 H43        22.7460   30.1885  149.8783 H         1 TYR         0.0453
    145 H44        24.8909   29.0030  150.0426 H         1 TYR         0.0530
    146 H45        24.1925   31.8136  146.9079 H         1 TYR         0.0530
    147 H46        26.8317   28.1163  148.8173 H         1 TYR         0.0525
    148 H47        26.1349   30.9315  145.6832 H         1 TYR         0.0525
    149 H48        27.4016   28.6472  145.6504 H         1 TYR         0.2458
    150 H49        23.3749   33.7793  152.2429 H         1 GLN         0.1883
    151 H50        20.8843   33.0850  153.3370 H         1 GLN         0.0801
    152 H51        22.4758   35.6802  153.3819 H         1 GLN         0.0337
    153 H52        22.4474   34.3718  154.6124 H         1 GLN         0.0337
    154 H53        19.9077   35.8516  153.9460 H         1 GLN         0.0504
    155 H54        21.1422   36.6246  154.9972 H         1 GLN         0.0504
    156 H55        18.7160   34.8494  157.1733 H         1 GLN         0.1814
    157 H56        18.6545   36.1414  156.0213 H         1 GLN         0.1814
    158 H57        18.8983   33.3029  152.6687 H         1 LEU         0.1883
    159 H58        18.3093   35.2044  150.4706 H         1 LEU         0.0800
    160 H59        16.2965   33.8595  150.0922 H         1 LEU         0.0315
    161 H60        16.6928   32.8460  151.5214 H         1 LEU         0.0315
    162 H61        18.7002   32.0174  150.3640 H         1 LEU         0.0298
    163 H62        17.5183   30.6269  148.6951 H         1 LEU         0.0232
    164 H63        16.1049   31.7318  148.7844 H         1 LEU         0.0232
    165 H64        16.5903   30.7762  150.2259 H         1 LEU         0.0232
    166 H65        19.1126   33.9859  148.9294 H         1 LEU         0.0232
    167 H66        17.6425   33.5925  147.9752 H         1 LEU         0.0232
    168 H67        19.0402   32.4641  147.9779 H         1 LEU         0.0232
    169 H68        17.3723   34.4259  153.8049 H         1 SER         0.1884
    170 H69        15.0422   36.2241  153.6349 H         1 SER         0.0823
    171 H70        14.7085   35.4930  156.0359 H         1 SER         0.0606
    172 H71        16.1407   34.4258  155.8448 H         1 SER         0.0606
    173 H72        14.1502   33.3445  155.4073 H         1 SER         0.2097
    174 H73        17.3553   39.4566  155.6558 H         1 PRO         0.0802
    175 H74        15.9710   41.1222  154.8421 H         1 PRO         0.0313
    176 H75        15.0110   40.9591  156.3515 H         1 PRO         0.0313
    177 H76        14.3543   40.0547  153.6163 H         1 PRO         0.0287
    178 H77        13.2954   40.1476  155.0644 H         1 PRO         0.0287
    179 H78        13.7048   37.9544  155.6569 H         1 PRO         0.0524
    180 H79        14.1004   37.7850  153.9129 H         1 PRO         0.0524
    181 H80        16.9385   40.8568  157.7649 H         1 THR         0.1884
    182 H81        15.7376   39.2012  159.9286 H         1 THR         0.0826
    183 H82        18.5073   40.4859  160.0803 H         1 THR         0.0639
    184 H83        19.1240   38.2443  160.2518 H         1 THR         0.2101
    185 H84        18.5888   39.3748  162.2911 H         1 THR         0.0257
    186 H85        16.9051   38.7922  162.0622 H         1 THR         0.0257
    187 H86        17.2348   40.5521  162.2066 H         1 THR         0.0257
    188 H87        14.2099   40.4591  160.7641 H         1 LYS         0.1883
    189 H88        13.9843   43.2551  160.2896 H         1 LYS         0.0800
    190 H89        12.7074   41.3602  162.2918 H         1 LYS         0.0312
    191 H90        12.0138   42.0246  160.7739 H         1 LYS         0.0312
    192 H91        12.7433   43.7835  163.1350 H         1 LYS         0.0269
    193 H92        11.1482   42.9703  162.9893 H         1 LYS         0.0269
    194 H93        10.6847   44.1120  160.9089 H         1 LYS         0.0317
    195 H94        12.3465   44.7919  160.8568 H         1 LYS         0.0317
    196 H95        10.2469   45.3731  162.9956 H         1 LYS         0.0813
    197 H96        10.6754   46.4528  161.6255 H         1 LYS         0.0813
    198 H97        11.8130   47.0691  163.6445 H         1 LYS         0.1994
    199 H98        12.9035   46.5731  162.5156 H         1 LYS         0.1994
    200 H99        12.5108   45.5836  163.7711 H         1 LYS         0.1994
    201 H100       14.9463   44.9269  161.1939 H         1 LEU         0.1875
    202 H101       16.9811   44.6363  163.1734 H         1 LEU         0.0726
    203 H102       17.2764   46.9622  163.0334 H         1 LEU         0.0308
    204 H103       15.5696   47.2392  162.5468 H         1 LEU         0.0308
    205 H104       16.0607   46.2389  160.3433 H         1 LEU         0.0297
    206 H105       17.4031   48.1354  159.4896 H         1 LEU         0.0232
    207 H106       17.8823   48.5441  161.1719 H         1 LEU         0.0232
    208 H107       16.1608   48.6664  160.6734 H         1 LEU         0.0232
    209 H108       17.9395   44.7819  161.0218 H         1 LEU         0.0232
    210 H109       18.9585   46.2346  161.3010 H         1 LEU         0.0232
    211 H110       18.3785   45.8491  159.6452 H         1 LEU         0.0232
@<TRIPOS>BOND
     1    1    2 1  
     2    2    3 1  
     3    2    5 1  
     4    3    4 2  
     5    3   12 am 
     6    5    6 1  
     7    6    7 1  
     8    7    8 1  
     9    8    9 ar 
    10    9   10 ar 
    11    9   11 ar 
    12   12   13 1  
    13   13   14 1  
    14   13   16 1  
    15   14   15 2  
    16   14   20 am 
    17   16   17 1  
    18   16   18 1  
    19   17   19 1  
    20   20   21 1  
    21   20   26 1  
    22   21   22 1  
    23   21   24 1  
    24   22   23 2  
    25   22   27 am 
    26   24   25 1  
    27   25   26 1  
    28   27   28 1  
    29   28   29 1  
    30   28   31 1  
    31   29   30 2  
    32   29   35 am 
    33   31   32 1  
    34   32   33 2  
    35   32   34 am 
    36   35   36 1  
    37   36   37 1  
    38   36   39 1  
    39   37   38 2  
    40   37   47 am 
    41   39   40 1  
    42   40   41 ar 
    43   40   42 ar 
    44   41   43 ar 
    45   42   44 ar 
    46   43   45 ar 
    47   44   45 ar 
    48   45   46 1  
    49   47   48 1  
    50   48   49 1  
    51   48   51 1  
    52   49   50 2  
    53   49   56 am 
    54   51   52 1  
    55   52   53 1  
    56   53   54 2  
    57   53   55 am 
    58   56   57 1  
    59   57   58 1  
    60   57   60 1  
    61   58   59 2  
    62   58   64 am 
    63   60   61 1  
    64   61   62 1  
    65   61   63 1  
    66   64   65 1  
    67   65   66 1  
    68   65   68 1  
    69   66   67 2  
    70   66   70 am 
    71   68   69 1  
    72   70   71 1  
    73   70   76 1  
    74   71   72 1  
    75   71   74 1  
    76   72   73 2  
    77   72   77 am 
    78   74   75 1  
    79   75   76 1  
    80   77   78 1  
    81   78   79 1  
    82   78   81 1  
    83   79   80 2  
    84   79   84 am 
    85   81   82 1  
    86   81   83 1  
    87   84   85 1  
    88   85   86 1  
    89   85   88 1  
    90   86   87 2  
    91   86   93 am 
    92   88   89 1  
    93   89   90 1  
    94   90   91 1  
    95   91   92 1  
    96   93   94 1  
    97   94   95 1  
    98   94   97 1  
    99   95   96 ar 
   100   95  101 ar 
   101   97   98 1  
   102   98   99 1  
   103   98  100 1  
   104    1  102 1  
   105    1  103 1  
   106    1  104 1  
   107    2  105 1  
   108    5  106 1  
   109    5  107 1  
   110    6  108 1  
   111    6  109 1  
   112    7  110 1  
   113    7  111 1  
   114    8  112 1  
   115   10  113 1  
   116   10  114 1  
   117   11  115 1  
   118   11  116 1  
   119   12  117 1  
   120   13  118 1  
   121   16  119 1  
   122   17  120 1  
   123   17  121 1  
   124   18  122 1  
   125   18  123 1  
   126   18  124 1  
   127   19  125 1  
   128   19  126 1  
   129   19  127 1  
   130   21  128 1  
   131   24  129 1  
   132   24  130 1  
   133   25  131 1  
   134   25  132 1  
   135   26  133 1  
   136   26  134 1  
   137   27  135 1  
   138   28  136 1  
   139   31  137 1  
   140   31  138 1  
   141   34  139 1  
   142   34  140 1  
   143   35  141 1  
   144   36  142 1  
   145   39  143 1  
   146   39  144 1  
   147   41  145 1  
   148   42  146 1  
   149   43  147 1  
   150   44  148 1  
   151   46  149 1  
   152   47  150 1  
   153   48  151 1  
   154   51  152 1  
   155   51  153 1  
   156   52  154 1  
   157   52  155 1  
   158   55  156 1  
   159   55  157 1  
   160   56  158 1  
   161   57  159 1  
   162   60  160 1  
   163   60  161 1  
   164   61  162 1  
   165   62  163 1  
   166   62  164 1  
   167   62  165 1  
   168   63  166 1  
   169   63  167 1  
   170   63  168 1  
   171   64  169 1  
   172   65  170 1  
   173   68  171 1  
   174   68  172 1  
   175   69  173 1  
   176   71  174 1  
   177   74  175 1  
   178   74  176 1  
   179   75  177 1  
   180   75  178 1  
   181   76  179 1  
   182   76  180 1  
   183   77  181 1  
   184   78  182 1  
   185   81  183 1  
   186   82  184 1  
   187   83  185 1  
   188   83  186 1  
   189   83  187 1  
   190   84  188 1  
   191   85  189 1  
   192   88  190 1  
   193   88  191 1  
   194   89  192 1  
   195   89  193 1  
   196   90  194 1  
   197   90  195 1  
   198   91  196 1  
   199   91  197 1  
   200   92  198 1  
   201   92  199 1  
   202   92  200 1  
   203   93  201 1  
   204   94  202 1  
   205   97  203 1  
   206   97  204 1  
   207   98  205 1  
   208   99  206 1  
   209   99  207 1  
   210   99  208 1  
   211  100  209 1  
   212  100  210 1  
   213  100  211 1  
@<TRIPOS>SUBSTRUCTURE
     1 ARG         1

