6cv8_ligand
  -I-interpret- 

 39 39  0  0  0  0  0  0  0  0999 V2000
   11.4450    9.9740    0.8250 C   0  0  0  0  0
   11.6560   10.6670    2.1900 C   0  0  0  0  0
   11.4740   12.1920    2.0470 C   0  0  0  0  0
   10.0770   12.5300    1.4810 C   0  0  0  0  0
    9.8640   11.8300    0.1220 C   0  0  0  0  0
   10.0490   10.3030    0.2620 C   0  0  0  0  0
   11.5600    8.5720    0.9780 O   0  0  0  0  0
   10.7410   10.1710    3.1400 O   0  0  0  0  0
   11.6530   12.7950    3.3010 O   0  0  0  0  0
    9.9880   13.9290    1.2900 O   0  0  0  0  0
    8.5470   12.0880   -0.3270 O   0  0  0  0  0
    9.9090    9.6860   -0.9940 O   0  0  0  0  0
   13.1240    8.0200    0.4130 P   0  0  0  0  0
   13.3830    8.4090   -1.2610 O   0  0  0  0  0
   14.2200    8.7300    1.2540 O   0  0  0  0  0
   13.2970    6.3150    0.6850 O   0  0  0  0  0
    8.7000   14.6020    2.2700 P   0  0  0  0  0
    7.3520   14.0310    1.7500 O   0  0  0  0  0
    8.8510   14.1690    3.9440 O   0  0  0  0  0
    8.6200   16.3250    2.0830 O   0  0  0  0  0
    8.5720   13.0500   -1.7920 P   0  0  0  0  0
    9.1880   12.1810   -2.9220 O   0  0  0  0  0
    6.9610   13.4550   -2.2910 O   0  0  0  0  0
    9.5450   14.4780   -1.6290 O   0  0  0  0  0
   12.2052   10.3372    0.1335 H   0  0  0  0  0
   12.6703   10.4558    2.5287 H   0  0  0  0  0
   12.2169   12.5755    1.3476 H   0  0  0  0  0
    9.3164   12.1878    2.1828 H   0  0  0  0  0
   10.5957   12.2137   -0.5890 H   0  0  0  0  0
    9.2879    9.9301    0.9474 H   0  0  0  0  0
   10.8556    9.2219    3.2278 H   0  0  0  0  0
   12.5245   12.5758    3.6388 H   0  0  0  0  0
   10.0253    8.7379   -0.8983 H   0  0  0  0  0
   12.7129    7.9774   -1.7960 H   0  0  0  0  0
   12.6326    5.8422    0.1784 H   0  0  0  0  0
    9.6788   14.5119    4.2886 H   0  0  0  0  0
    9.4386   16.7179    2.3947 H   0  0  0  0  0
    6.5442   13.9949   -1.6154 H   0  0  0  0  0
    9.1831   15.0329   -0.9342 H   0  0  0  0  0
  1  2  1  0  0  0
  1  6  1  0  0  0
  1  7  1  0  0  0
  2  3  1  0  0  0
  2  8  1  0  0  0
  3  4  1  0  0  0
  3  9  1  0  0  0
  4  5  1  0  0  0
  4 10  1  0  0  0
  5  6  1  0  0  0
  5 11  1  0  0  0
  6 12  1  0  0  0
  7 13  1  0  0  0
 10 17  1  0  0  0
 11 21  1  0  0  0
 13 14  1  0  0  0
 13 15  2  0  0  0
 13 16  1  0  0  0
 17 18  2  0  0  0
 17 19  1  0  0  0
 17 20  1  0  0  0
 21 22  2  0  0  0
 21 23  1  0  0  0
 21 24  1  0  0  0
  1 25  1  0  0  0
  2 26  1  0  0  0
  3 27  1  0  0  0
  4 28  1  0  0  0
  5 29  1  0  0  0
  6 30  1  0  0  0
  8 31  1  0  0  0
  9 32  1  0  0  0
 12 33  1  0  0  0
 14 34  1  0  0  0
 16 35  1  0  0  0
 19 36  1  0  0  0
 20 37  1  0  0  0
 23 38  1  0  0  0
 24 39  1  0  0  0
M  END
$$$$
