### 
### Created by X-TOOL on Wed Jan  1 15:39:38 2020
### 

@<TRIPOS>MOLECULE
6cv8_ligand
   33    33     1     0     0
SMALL
GAST_HUCK


@<TRIPOS>ATOM
      1 C1         11.4450    9.9740    0.8250 C.3       1 I3P         0.1460
      2 C2         11.6560   10.6670    2.1900 C.3       1 I3P         0.1168
      3 C3         11.4740   12.1920    2.0470 C.3       1 I3P         0.1172
      4 C4         10.0770   12.5300    1.4810 C.3       1 I3P         0.1503
      5 C5          9.8640   11.8300    0.1220 C.3       1 I3P         0.1506
      6 C6         10.0490   10.3030    0.2620 C.3       1 I3P         0.1215
      7 O1         11.5600    8.5720    0.9780 O.3       1 I3P        -0.2676
      8 O2         10.7410   10.1710    3.1400 O.3       1 I3P        -0.3861
      9 O3         11.6530   12.7950    3.3010 O.3       1 I3P        -0.3861
     10 O4          9.9880   13.9290    1.2900 O.3       1 I3P        -0.2672
     11 O5          8.5470   12.0880   -0.3270 O.3       1 I3P        -0.2672
     12 O6          9.9090    9.6860   -0.9940 O.3       1 I3P        -0.3858
     13 P1         13.1240    8.0200    0.4130 P.3       1 I3P         0.2013
     14 O11        13.3830    8.4090   -1.2610 O.co2     1 I3P        -0.5537
     15 O12        14.2200    8.7300    1.2540 O.co2     1 I3P        -0.5537
     16 O13        13.2970    6.3150    0.6850 O.co2     1 I3P        -0.5537
     17 P4          8.7000   14.6020    2.2700 P.3       1 I3P         0.2013
     18 O41         7.3520   14.0310    1.7500 O.co2     1 I3P        -0.5537
     19 O42         8.8510   14.1690    3.9440 O.co2     1 I3P        -0.5537
     20 O43         8.6200   16.3250    2.0830 O.co2     1 I3P        -0.5537
     21 P5          8.5720   13.0500   -1.7920 P.3       1 I3P         0.2013
     22 O51         9.1880   12.1810   -2.9220 O.co2     1 I3P        -0.5537
     23 O52         6.9610   13.4550   -2.2910 O.co2     1 I3P        -0.5537
     24 O53         9.5450   14.4780   -1.6290 O.co2     1 I3P        -0.5537
     25 H1         12.2119   10.3280    0.1204 H         1 I3P         0.0703
     26 H2         12.6788   10.4601    2.5380 H         1 I3P         0.0650
     27 H3         12.2359   12.5773    1.3534 H         1 I3P         0.0650
     28 H4          9.3035   12.1999    2.1900 H         1 I3P         0.0706
     29 H5         10.5887   12.2210   -0.6073 H         1 I3P         0.0706
     30 H6          9.2822    9.9117    0.9468 H         1 I3P         0.0654
     31 H7         10.8988   10.5890    3.9783 H         1 I3P         0.2100
     32 H8         10.9898   12.4763    3.9020 H         1 I3P         0.2100
     33 H9         10.0241    8.7477   -0.8993 H         1 I3P         0.2100
@<TRIPOS>BOND
     1    1    2 1  
     2    1    6 1  
     3    1    7 1  
     4    2    3 1  
     5    2    8 1  
     6    3    4 1  
     7    3    9 1  
     8    4    5 1  
     9    4   10 1  
    10    5    6 1  
    11    5   11 1  
    12    6   12 1  
    13    7   13 1  
    14   10   17 1  
    15   11   21 1  
    16   13   14 ar 
    17   13   15 ar 
    18   13   16 ar 
    19   17   18 ar 
    20   17   19 ar 
    21   17   20 ar 
    22   21   22 ar 
    23   21   23 ar 
    24   21   24 ar 
    25    1   25 1  
    26    2   26 1  
    27    3   27 1  
    28    4   28 1  
    29    5   29 1  
    30    6   30 1  
    31    8   31 1  
    32    9   32 1  
    33   12   33 1  
@<TRIPOS>SUBSTRUCTURE
     1 I3P         1

