1ow7_ligand
  -I-interpret- 

192191  0  0  0  0  0  0  0  0999 V2000
   24.8960   35.5430   19.8820 N   0  3  0  0  0
   24.7200   34.1090   20.2440 C   0  0  0  0  0
   25.0020   33.2030   19.0510 C   0  0  0  0  0
   24.9120   31.9860   19.1650 O   0  0  0  0  0
   23.2810   33.8390   20.8200 C   0  0  0  0  0
   23.1730   34.4490   22.1130 O   0  0  0  0  0
   23.0010   32.3450   20.9810 C   0  0  0  0  0
   25.3460   33.7800   17.9020 N   0  0  0  0  0
   25.6650   32.9450   16.7450 C   0  0  0  0  0
   27.1410   32.5560   16.9180 C   0  0  0  0  0
   27.5560   31.4690   16.5080 O   0  0  0  0  0
   25.4270   33.7020   15.4210 C   0  0  0  0  0
   24.8600   32.8140   14.3030 C   0  0  0  0  0
   24.6000   33.5880   13.0020 C   0  0  0  0  0
   23.4280   34.4640   13.0730 N   0  0  0  0  0
   22.9100   35.1200   12.0320 C   0  0  0  0  0
   23.4560   35.0070   10.8270 N   0  0  0  0  0
   21.8370   35.8870   12.1910 N   0  0  0  0  0
   27.9100   33.4450   17.5590 N   0  0  0  0  0
   29.3320   33.2260   17.8410 C   0  0  0  0  0
   29.4730   32.3200   19.0790 C   0  0  0  0  0
   30.3990   31.5070   19.1690 O   0  0  0  0  0
   30.0380   34.5740   18.0560 C   0  0  0  0  0
   29.8590   35.5100   16.8610 C   0  0  0  0  0
   31.0030   36.5140   16.6670 C   0  0  0  0  0
   31.1180   37.4940   17.4420 O   0  0  0  0  0
   31.7990   36.3140   15.7240 O   0  0  0  0  0
   28.5560   32.4840   20.0330 N   0  0  0  0  0
   28.5120   31.6540   21.2360 C   0  0  0  0  0
   28.0220   30.2570   20.7940 C   0  0  0  0  0
   28.2480   29.2570   21.4790 O   0  0  0  0  0
   27.5210   32.2510   22.2510 C   0  0  0  0  0
   27.0630   31.3520   23.4080 C   0  0  0  0  0
   28.1940   31.1610   24.3710 C   0  0  0  0  0
   25.8950   31.9560   24.1340 C   0  0  0  0  0
   27.3430   30.1990   19.6480 N   0  0  0  0  0
   26.8160   28.9430   19.1260 C   0  0  0  0  0
   27.8590   28.1790   18.3290 C   0  0  0  0  0
   27.7040   26.9840   18.0530 O   0  0  0  0  0
   25.5560   29.1920   18.2870 C   0  0  0  0  0
   24.3060   29.3340   19.1510 C   0  0  0  0  0
   24.1960   28.5700   20.1370 O   0  0  0  0  0
   23.4430   30.1880   18.8450 O   0  0  0  0  0
   28.9130   28.8870   17.9400 N   0  0  0  0  0
   30.0260   28.2740   17.2280 C   0  0  0  0  0
   30.6740   27.4460   18.3370 C   0  0  0  0  0
   31.0940   26.3050   18.1280 O   0  0  0  0  0
   30.9860   29.3620   16.7290 C   0  0  0  0  0
   30.4350   30.1790   15.5660 C   0  0  0  0  0
   30.7280   29.5460   14.2160 C   0  0  0  0  0
   31.8220   29.8210   13.6730 O   0  0  0  0  0
   29.8810   28.7710   13.7080 O   0  0  0  0  0
   30.7210   28.0470   19.5260 N   0  0  0  0  0
   31.2750   27.4200   20.7230 C   0  0  0  0  0
   30.4130   26.2530   21.1840 C   0  0  0  0  0
   30.8910   25.1290   21.3200 O   0  0  0  0  0
   31.3460   28.4160   21.8750 C   0  0  0  0  0
   32.2470   29.6260   21.7430 C   0  0  0  0  0
   32.1020   30.4580   22.9920 C   0  0  0  0  0
   33.6790   29.1900   21.5380 C   0  0  0  0  0
   29.1440   26.5270   21.4610 N   0  0  0  0  0
   28.2600   25.4700   21.9130 C   0  0  0  0  0
   28.3770   24.2620   20.9890 C   0  0  0  0  0
   28.2500   23.1130   21.4280 O   0  0  0  0  0
   26.8190   25.9790   21.9690 C   0  0  0  0  0
   26.5630   26.8540   23.1810 C   0  0  0  0  0
   27.2340   26.1000   24.6880 S   0  0  0  0  0
   25.9950   24.8890   25.0500 C   0  0  0  0  0
   28.6450   24.5320   19.7130 N   0  0  0  0  0
   28.7950   23.4860   18.7070 C   0  0  0  0  0
   30.1090   22.7020   18.8500 C   0  0  0  0  0
   30.1520   21.5120   18.5450 O   0  0  0  0  0
   28.6950   24.0920   17.3100 C   0  0  0  0  0
   31.1730   23.3640   19.3100 N   0  0  0  0  0
   32.4880   22.7280   19.4890 C   0  0  0  0  0
   32.4650   21.5200   20.4270 C   0  0  0  0  0
   33.3490   20.6580   20.3620 O   0  0  0  0  0
   33.5060   23.7310   20.0390 C   0  0  0  0  0
   33.6770   24.8400   19.1820 O   0  0  0  0  0
   31.4700   21.4670   21.3090 N   0  0  0  0  0
   31.3500   20.3670   22.2640 C   0  0  0  0  0
   30.3340   19.3460   21.7470 C   0  0  0  0  0
   30.1630   18.2680   22.3250 O   0  0  0  0  0
   30.8990   20.9150   23.6190 C   0  0  0  0  0
   31.6470   22.1560   24.1010 C   0  0  0  0  0
   30.6880   23.0760   24.8230 C   0  0  0  0  0
   32.8040   21.7460   24.9910 C   0  0  0  0  0
   29.6690   19.7200   20.6530 N   0  0  0  0  0
   28.6540   18.9130   19.9750 C   0  0  0  0  0
   27.2760   18.9110   20.6530 C   0  0  0  0  0
   26.5850   19.9520   20.5490 O   0  0  0  0  0
   29.1640   17.4760   19.7920 C   0  0  0  0  0
   30.3290   17.4400   18.9770 O   0  0  0  0  0
   26.9120   17.8830   21.2700 O   0  0  0  0  0
   25.8359   35.6863   19.5127 H   0  0  0  0  0
   24.2083   35.8006   19.1741 H   0  0  0  0  0
   24.7639   36.1207   20.7122 H   0  0  0  0  0
   25.4439   33.8760   21.0249 H   0  0  0  0  0
   22.5608   34.2565   20.1163 H   0  0  0  0  0
   23.3453   35.3903   22.0369 H   0  0  0  0  0
   23.7302   31.9117   21.6655 H   0  0  0  0  0
   21.9970   32.2060   21.3819 H   0  0  0  0  0
   23.0768   31.8557   20.0099 H   0  0  0  0  0
   25.3868   34.7966   17.8292 H   0  0  0  0  0
   25.0241   32.0647   16.6947 H   0  0  0  0  0
   26.3910   34.0814   15.0819 H   0  0  0  0  0
   24.6973   34.4873   15.6184 H   0  0  0  0  0
   23.9077   32.4109   14.6475 H   0  0  0  0  0
   25.5945   32.0378   14.0884 H   0  0  0  0  0
   24.4174   32.8567   12.2146 H   0  0  0  0  0
   25.4702   34.2167   12.8133 H   0  0  0  0  0
   22.9767   34.5808   13.9802 H   0  0  0  0  0
   24.2764   34.4161   10.6922 H   0  0  0  0  0
   21.4408   36.3818   11.3919 H   0  0  0  0  0
   21.4093   35.9811   13.1122 H   0  0  0  0  0
   27.4848   34.3195   17.8669 H   0  0  0  0  0
   29.8051   32.7310   16.9929 H   0  0  0  0  0
   31.1037   34.3844   18.1842 H   0  0  0  0  0
   29.6007   35.0522   18.9325 H   0  0  0  0  0
   28.9524   36.0880   17.0399 H   0  0  0  0  0
   29.8253   34.8862   15.9678 H   0  0  0  0  0
   30.4138   37.4692   18.0940 H   0  0  0  0  0
   27.8570   33.2181   19.9190 H   0  0  0  0  0
   29.4924   31.5999   21.7092 H   0  0  0  0  0
   26.6196   32.4784   21.6818 H   0  0  0  0  0
   28.0457   33.0848   22.7175 H   0  0  0  0  0
   26.7552   30.3925   22.9923 H   0  0  0  0  0
   29.0326   30.6921   23.8562 H   0  0  0  0  0
   28.5028   32.1298   24.7636 H   0  0  0  0  0
   27.8669   30.5225   25.1916 H   0  0  0  0  0
   26.1828   32.9262   24.5390 H   0  0  0  0  0
   25.0637   32.0825   23.4404 H   0  0  0  0  0
   25.5939   31.2961   24.9476 H   0  0  0  0  0
   27.1875   31.0582   19.1208 H   0  0  0  0  0
   26.5450   28.3211   19.9792 H   0  0  0  0  0
   25.4152   28.3375   17.6252 H   0  0  0  0  0
   25.6943   30.1220   17.7356 H   0  0  0  0  0
   24.9662   27.9991   20.1855 H   0  0  0  0  0
   28.9439   29.8857   18.1451 H   0  0  0  0  0
   29.7440   27.6932   16.3498 H   0  0  0  0  0
   31.8895   28.8634   16.3779 H   0  0  0  0  0
   31.1585   30.0493   17.5572 H   0  0  0  0  0
   30.9132   31.1583   15.5880 H   0  0  0  0  0
   29.3527   30.2380   15.6808 H   0  0  0  0  0
   29.1206   28.7038   14.2902 H   0  0  0  0  0
   30.3507   28.9942   19.6038 H   0  0  0  0  0
   32.2725   27.0693   20.4580 H   0  0  0  0  0
   31.7560   27.8499   22.7114 H   0  0  0  0  0
   30.3383   28.8233   21.9572 H   0  0  0  0  0
   31.9616   30.2217   20.8759 H   0  0  0  0  0
   31.0639   30.7725   23.0990 H   0  0  0  0  0
   32.3944   29.8646   23.8583 H   0  0  0  0  0
   32.7433   31.3363   22.9184 H   0  0  0  0  0
   34.0022   28.5951   22.3923 H   0  0  0  0  0
   33.7488   28.5915   20.6297 H   0  0  0  0  0
   34.3155   30.0699   21.4447 H   0  0  0  0  0
   28.7916   27.4785   21.3562 H   0  0  0  0  0
   28.5518   25.1625   22.9172 H   0  0  0  0  0
   26.1577   25.1147   22.0307 H   0  0  0  0  0
   26.6372   26.5772   21.0761 H   0  0  0  0  0
   25.4865   26.9745   23.3019 H   0  0  0  0  0
   27.0523   27.8155   23.0255 H   0  0  0  0  0
   25.0370   25.3858   25.2035 H   0  0  0  0  0
   25.9149   24.1924   24.2155 H   0  0  0  0  0
   26.2728   24.3456   25.9532 H   0  0  0  0  0
   28.7493   25.5059   19.4284 H   0  0  0  0  0
   27.9850   22.7737   18.8637 H   0  0  0  0  0
   27.7224   24.5695   17.1913 H   0  0  0  0  0
   29.4834   24.8333   17.1796 H   0  0  0  0  0
   28.8080   23.3046   16.5648 H   0  0  0  0  0
   31.0704   24.3508   19.5471 H   0  0  0  0  0
   32.7726   22.3808   18.4958 H   0  0  0  0  0
   34.4660   23.2234   20.1331 H   0  0  0  0  0
   33.1386   24.0964   20.9980 H   0  0  0  0  0
   34.3209   25.4413   19.5633 H   0  0  0  0  0
   30.7738   22.2124   21.3189 H   0  0  0  0  0
   32.3170   19.8776   22.3802 H   0  0  0  0  0
   31.0889   20.1311   24.3522 H   0  0  0  0  0
   29.8538   21.2036   23.5074 H   0  0  0  0  0
   32.0579   22.6967   23.2484 H   0  0  0  0  0
   29.8904   23.3739   24.1424 H   0  0  0  0  0
   30.2607   22.5539   25.6791 H   0  0  0  0  0
   31.2241   23.9609   25.1660 H   0  0  0  0  0
   32.4218   21.1980   25.8522 H   0  0  0  0  0
   33.4864   21.1097   24.4275 H   0  0  0  0  0
   33.3327   22.6366   25.3308 H   0  0  0  0  0
   29.8839   20.6364   20.2599 H   0  0  0  0  0
   28.4957   19.3880   19.0068 H   0  0  0  0  0
   27.0663   20.6041   20.0345 H   0  0  0  0  0
   28.3833   16.8903   19.3067 H   0  0  0  0  0
   29.4138   17.0694   20.7720 H   0  0  0  0  0
   30.6232   16.5312   18.8812 H   0  0  0  0  0
  1  2  1  0  0  0
  2  3  1  0  0  0
  2  5  1  0  0  0
  3  4  2  0  0  0
  3  8  1  0  0  0
  5  6  1  0  0  0
  5  7  1  0  0  0
  8  9  1  0  0  0
  9 10  1  0  0  0
  9 12  1  0  0  0
 10 11  2  0  0  0
 10 19  1  0  0  0
 12 13  1  0  0  0
 13 14  1  0  0  0
 14 15  1  0  0  0
 15 16  1  0  0  0
 16 17  2  0  0  0
 16 18  1  0  0  0
 19 20  1  0  0  0
 20 21  1  0  0  0
 20 23  1  0  0  0
 21 22  2  0  0  0
 21 28  1  0  0  0
 23 24  1  0  0  0
 24 25  1  0  0  0
 25 26  1  0  0  0
 25 27  2  0  0  0
 28 29  1  0  0  0
 29 30  1  0  0  0
 29 32  1  0  0  0
 30 31  2  0  0  0
 30 36  1  0  0  0
 32 33  1  0  0  0
 33 34  1  0  0  0
 33 35  1  0  0  0
 36 37  1  0  0  0
 37 38  1  0  0  0
 37 40  1  0  0  0
 38 39  2  0  0  0
 38 44  1  0  0  0
 40 41  1  0  0  0
 41 42  1  0  0  0
 41 43  2  0  0  0
 44 45  1  0  0  0
 45 46  1  0  0  0
 45 48  1  0  0  0
 46 47  2  0  0  0
 46 53  1  0  0  0
 48 49  1  0  0  0
 49 50  1  0  0  0
 50 51  2  0  0  0
 50 52  1  0  0  0
 53 54  1  0  0  0
 54 55  1  0  0  0
 54 57  1  0  0  0
 55 56  2  0  0  0
 55 61  1  0  0  0
 57 58  1  0  0  0
 58 59  1  0  0  0
 58 60  1  0  0  0
 61 62  1  0  0  0
 62 63  1  0  0  0
 62 65  1  0  0  0
 63 64  2  0  0  0
 63 69  1  0  0  0
 65 66  1  0  0  0
 66 67  1  0  0  0
 67 68  1  0  0  0
 69 70  1  0  0  0
 70 71  1  0  0  0
 70 73  1  0  0  0
 71 72  2  0  0  0
 71 74  1  0  0  0
 74 75  1  0  0  0
 75 76  1  0  0  0
 75 78  1  0  0  0
 76 77  2  0  0  0
 76 80  1  0  0  0
 78 79  1  0  0  0
 80 81  1  0  0  0
 81 82  1  0  0  0
 81 84  1  0  0  0
 82 83  2  0  0  0
 82 88  1  0  0  0
 84 85  1  0  0  0
 85 86  1  0  0  0
 85 87  1  0  0  0
 88 89  1  0  0  0
 89 90  1  0  0  0
 89 92  1  0  0  0
 90 91  1  0  0  0
 90 94  2  0  0  0
 92 93  1  0  0  0
  1 95  1  0  0  0
  1 96  1  0  0  0
  1 97  1  0  0  0
  2 98  1  0  0  0
  5 99  1  0  0  0
  6100  1  0  0  0
  7101  1  0  0  0
  7102  1  0  0  0
  7103  1  0  0  0
  8104  1  0  0  0
  9105  1  0  0  0
 12106  1  0  0  0
 12107  1  0  0  0
 13108  1  0  0  0
 13109  1  0  0  0
 14110  1  0  0  0
 14111  1  0  0  0
 15112  1  0  0  0
 17113  1  0  0  0
 18114  1  0  0  0
 18115  1  0  0  0
 19116  1  0  0  0
 20117  1  0  0  0
 23118  1  0  0  0
 23119  1  0  0  0
 24120  1  0  0  0
 24121  1  0  0  0
 26122  1  0  0  0
 28123  1  0  0  0
 29124  1  0  0  0
 32125  1  0  0  0
 32126  1  0  0  0
 33127  1  0  0  0
 34128  1  0  0  0
 34129  1  0  0  0
 34130  1  0  0  0
 35131  1  0  0  0
 35132  1  0  0  0
 35133  1  0  0  0
 36134  1  0  0  0
 37135  1  0  0  0
 40136  1  0  0  0
 40137  1  0  0  0
 42138  1  0  0  0
 44139  1  0  0  0
 45140  1  0  0  0
 48141  1  0  0  0
 48142  1  0  0  0
 49143  1  0  0  0
 49144  1  0  0  0
 52145  1  0  0  0
 53146  1  0  0  0
 54147  1  0  0  0
 57148  1  0  0  0
 57149  1  0  0  0
 58150  1  0  0  0
 59151  1  0  0  0
 59152  1  0  0  0
 59153  1  0  0  0
 60154  1  0  0  0
 60155  1  0  0  0
 60156  1  0  0  0
 61157  1  0  0  0
 62158  1  0  0  0
 65159  1  0  0  0
 65160  1  0  0  0
 66161  1  0  0  0
 66162  1  0  0  0
 68163  1  0  0  0
 68164  1  0  0  0
 68165  1  0  0  0
 69166  1  0  0  0
 70167  1  0  0  0
 73168  1  0  0  0
 73169  1  0  0  0
 73170  1  0  0  0
 74171  1  0  0  0
 75172  1  0  0  0
 78173  1  0  0  0
 78174  1  0  0  0
 79175  1  0  0  0
 80176  1  0  0  0
 81177  1  0  0  0
 84178  1  0  0  0
 84179  1  0  0  0
 85180  1  0  0  0
 86181  1  0  0  0
 86182  1  0  0  0
 86183  1  0  0  0
 87184  1  0  0  0
 87185  1  0  0  0
 87186  1  0  0  0
 88187  1  0  0  0
 89188  1  0  0  0
 91189  1  0  0  0
 92190  1  0  0  0
 92191  1  0  0  0
 93192  1  0  0  0
M  END
$$$$
