### 
### Created by X-TOOL on Mon Sep 10 21:12:50 2018
### 

@<TRIPOS>MOLECULE
1ow7_ligand
  189   188     1     0     0
SMALL
GAST_HUCK


@<TRIPOS>ATOM
      1 N          24.8960   35.5430   19.8820 N.4       1 THR         0.2398
      2 CA         24.7200   34.1090   20.2440 C.3       1 THR         0.0910
      3 C          25.0020   33.2030   19.0510 C.2       1 THR         0.2293
      4 O          24.9120   31.9860   19.1650 O.2       1 THR        -0.3906
      5 CB         23.2810   33.8390   20.8200 C.3       1 THR         0.1120
      6 OG1        23.1730   34.4490   22.1130 O.3       1 THR        -0.3840
      7 CG2        23.0010   32.3450   20.9810 C.3       1 THR        -0.0314
      8 N          25.3460   33.7800   17.9020 N.am      1 ARG        -0.2609
      9 CA         25.6650   32.9450   16.7450 C.3       1 ARG         0.1312
     10 C          27.1410   32.5560   16.9180 C.2       1 ARG         0.2039
     11 O          27.5560   31.4690   16.5080 O.2       1 ARG        -0.3944
     12 CB         25.4270   33.7020   15.4210 C.3       1 ARG        -0.0092
     13 CG         24.8600   32.8140   14.3030 C.3       1 ARG        -0.0156
     14 CD         24.6000   33.5880   13.0020 C.3       1 ARG         0.0627
     15 NE         23.4280   34.4640   13.0730 N.pl3     1 ARG        -0.2723
     16 CZ         22.9100   35.1200   12.0320 C.cat     1 ARG         0.2882
     17 NH1        23.4560   35.0070   10.8270 N.pl3     1 ARG        -0.2849
     18 NH2        21.8370   35.8870   12.1910 N.pl3     1 ARG        -0.2849
     19 N          27.9100   33.4450   17.5590 N.am      1 GLU        -0.2636
     20 CA         29.3320   33.2260   17.8410 C.3       1 GLU         0.1325
     21 C          29.4730   32.3200   19.0790 C.2       1 GLU         0.2040
     22 O          30.3990   31.5070   19.1690 O.2       1 GLU        -0.3944
     23 CB         30.0380   34.5740   18.0560 C.3       1 GLU        -0.0008
     24 CG         29.8590   35.5100   16.8610 C.3       1 GLU         0.0044
     25 CD         31.0030   36.5140   16.6670 C.2       1 GLU         0.0350
     26 OE1        31.1180   37.4940   17.4420 O.co2     1 GLU        -0.5690
     27 OE2        31.7990   36.3140   15.7240 O.co2     1 GLU        -0.5690
     28 N          28.5560   32.4840   20.0330 N.am      1 LEU        -0.2637
     29 CA         28.5120   31.6540   21.2360 C.3       1 LEU         0.1312
     30 C          28.0220   30.2570   20.7940 C.2       1 LEU         0.2040
     31 O          28.2480   29.2570   21.4790 O.2       1 LEU        -0.3944
     32 CB         27.5210   32.2510   22.2510 C.3       1 LEU        -0.0101
     33 CG         27.0630   31.3520   23.4080 C.3       1 LEU        -0.0425
     34 CD1        28.1940   31.1610   24.3710 C.3       1 LEU        -0.0625
     35 CD2        25.8950   31.9560   24.1340 C.3       1 LEU        -0.0625
     36 N          27.3430   30.1990   19.6480 N.am      1 ASP        -0.2622
     37 CA         26.8160   28.9430   19.1260 C.3       1 ASP         0.1423
     38 C          27.8590   28.1790   18.3290 C.2       1 ASP         0.2056
     39 O          27.7040   26.9840   18.0530 O.2       1 ASP        -0.3943
     40 CB         25.5560   29.1920   18.2870 C.3       1 ASP         0.0406
     41 CG         24.3060   29.3340   19.1510 C.2       1 ASP         0.0393
     42 OD1        24.1960   28.5700   20.1370 O.co2     1 ASP        -0.5688
     43 OD2        23.4430   30.1880   18.8450 O.co2     1 ASP        -0.5688
     44 N          28.9130   28.8870   17.9400 N.am      1 GLU        -0.2635
     45 CA         30.0260   28.2740   17.2280 C.3       1 GLU         0.1325
     46 C          30.6740   27.4460   18.3370 C.2       1 GLU         0.2040
     47 O          31.0940   26.3050   18.1280 O.2       1 GLU        -0.3944
     48 CB         30.9860   29.3620   16.7290 C.3       1 GLU        -0.0008
     49 CG         30.4350   30.1790   15.5660 C.3       1 GLU         0.0044
     50 CD         30.7280   29.5460   14.2160 C.2       1 GLU         0.0350
     51 OE1        31.8220   29.8210   13.6730 O.co2     1 GLU        -0.5690
     52 OE2        29.8810   28.7710   13.7080 O.co2     1 GLU        -0.5690
     53 N          30.7210   28.0470   19.5260 N.am      1 LEU        -0.2637
     54 CA         31.2750   27.4200   20.7230 C.3       1 LEU         0.1312
     55 C          30.4130   26.2530   21.1840 C.2       1 LEU         0.2039
     56 O          30.8910   25.1290   21.3200 O.2       1 LEU        -0.3944
     57 CB         31.3460   28.4160   21.8750 C.3       1 LEU        -0.0101
     58 CG         32.2470   29.6260   21.7430 C.3       1 LEU        -0.0425
     59 CD1        32.1020   30.4580   22.9920 C.3       1 LEU        -0.0625
     60 CD2        33.6790   29.1900   21.5380 C.3       1 LEU        -0.0625
     61 N          29.1440   26.5270   21.4610 N.am      1 MET        -0.2637
     62 CA         28.2600   25.4700   21.9130 C.3       1 MET         0.1317
     63 C          28.3770   24.2620   20.9890 C.2       1 MET         0.2039
     64 O          28.2500   23.1130   21.4280 O.2       1 MET        -0.3944
     65 CB         26.8190   25.9790   21.9690 C.3       1 MET        -0.0034
     66 CG         26.5630   26.8540   23.1810 C.3       1 MET        -0.0024
     67 SD         27.2340   26.1000   24.6880 S.3       1 MET        -0.1639
     68 CE         25.9950   24.8890   25.0500 C.3       1 MET        -0.0181
     69 N          28.6450   24.5320   19.7130 N.am      1 ALA        -0.2640
     70 CA         28.7950   23.4860   18.7070 C.3       1 ALA         0.1282
     71 C          30.1090   22.7020   18.8500 C.2       1 ALA         0.2037
     72 O          30.1520   21.5120   18.5450 O.2       1 ALA        -0.3944
     73 CB         28.6950   24.0920   17.3100 C.3       1 ALA        -0.0244
     74 N          31.1730   23.3640   19.3100 N.am      1 SER        -0.2616
     75 CA         32.4880   22.7280   19.4890 C.3       1 SER         0.1539
     76 C          32.4650   21.5200   20.4270 C.2       1 SER         0.2062
     77 O          33.3490   20.6580   20.3620 O.2       1 SER        -0.3943
     78 CB         33.5060   23.7310   20.0390 C.3       1 SER         0.0843
     79 OG         33.6770   24.8400   19.1820 O.3       1 SER        -0.3903
     80 N          31.4700   21.4670   21.3090 N.am      1 LEU        -0.2637
     81 CA         31.3500   20.3670   22.2640 C.3       1 LEU         0.1312
     82 C          30.3340   19.3460   21.7470 C.2       1 LEU         0.2034
     83 O          30.1630   18.2680   22.3250 O.2       1 LEU        -0.3944
     84 CB         30.8990   20.9150   23.6190 C.3       1 LEU        -0.0101
     85 CG         31.6470   22.1560   24.1010 C.3       1 LEU        -0.0425
     86 CD1        30.6880   23.0760   24.8230 C.3       1 LEU        -0.0625
     87 CD2        32.8040   21.7460   24.9910 C.3       1 LEU        -0.0625
     88 N          29.6690   19.7200   20.6530 N.am      1 SER        -0.2672
     89 CA         28.6540   18.9130   19.9750 C.3       1 SER         0.1173
     90 C          27.2760   18.9110   20.6530 C.2       1 SER         0.0623
     91 O          26.5850   19.9520   20.5490 O.co2     1 SER        -0.5665
     92 CB         29.1640   17.4760   19.7920 C.3       1 SER         0.0789
     93 OG         30.3290   17.4400   18.9770 O.3       1 SER        -0.3910
     94 OXT        26.9120   17.8830   21.2700 O.co2     1 SER        -0.5665
     95 H1         25.8246   35.6858   19.5168 H         1 THR         0.2016
     96 H2         24.7657   36.1149   20.7017 H         1 THR         0.2016
     97 H3         24.2169   35.7988   19.1824 H         1 THR         0.2016
     98 H4         25.4496   33.8687   21.0313 H         1 THR         0.1125
     99 H5         22.5355   34.2753   20.1389 H         1 THR         0.0674
    100 H6         22.3056   34.2891   22.4659 H         1 THR         0.2102
    101 H7         21.9877   32.2033   21.3850 H         1 THR         0.0258
    102 H8         23.7358   31.9066   21.6722 H         1 THR         0.0258
    103 H9         23.0778   31.8499   20.0017 H         1 THR         0.0258
    104 H10        25.3860   34.7767   17.8306 H         1 ARG         0.1884
    105 H11        25.0376   32.0415   16.7512 H         1 ARG         0.0800
    106 H12        26.3860   34.1202   15.0813 H         1 ARG         0.0313
    107 H13        24.7166   34.5203   15.6102 H         1 ARG         0.0313
    108 H14        23.9110   32.3777   14.6479 H         1 ARG         0.0301
    109 H15        25.5797   32.0086   14.0948 H         1 ARG         0.0301
    110 H16        24.4451   32.8629   12.1894 H         1 ARG         0.0689
    111 H17        25.4836   34.2044   12.7800 H         1 ARG         0.0689
    112 H18        22.9722   34.5819   13.9891 H         1 ARG         0.2642
    113 H19        23.0511   35.5160   10.0283 H         1 ARG         0.2615
    114 H20        24.2845   34.4103   10.6909 H         1 ARG         0.2615
    115 H21        21.4051   35.9820   13.1213 H         1 ARG         0.2615
    116 H22        21.4369   36.3867   11.3840 H         1 ARG         0.2615
    117 H23        27.4931   34.3023   17.8609 H         1 GLU         0.1883
    118 H24        29.7939   32.7214   16.9796 H         1 GLU         0.0801
    119 H25        31.1123   34.3923   18.2072 H         1 GLU         0.0330
    120 H26        29.6181   35.0563   18.9510 H         1 GLU         0.0330
    121 H27        28.9257   36.0747   17.0027 H         1 GLU         0.0433
    122 H28        29.7817   34.8962   15.9514 H         1 GLU         0.0433
    123 H29        27.8707   33.2037   19.9212 H         1 LEU         0.1883
    124 H30        29.5118   31.5844   21.6892 H         1 LEU         0.0800
    125 H31        26.6222   32.5548   21.6943 H         1 LEU         0.0315
    126 H32        27.9966   33.1392   22.6924 H         1 LEU         0.0315
    127 H33        26.7637   30.3746   23.0016 H         1 LEU         0.0298
    128 H34        27.8651   30.5168   25.1997 H         1 LEU         0.0232
    129 H35        28.5066   32.1381   24.7680 H         1 LEU         0.0232
    130 H36        29.0410   30.6878   23.8527 H         1 LEU         0.0232
    131 H37        25.0607   32.0988   23.4315 H         1 LEU         0.0232
    132 H38        26.1888   32.9281   24.5566 H         1 LEU         0.0232
    133 H39        25.5800   31.2835   24.9455 H         1 LEU         0.0232
    134 H40        27.1905   31.0414   19.1311 H         1 ASP         0.1884
    135 H41        26.5306   28.3181   19.9851 H         1 ASP         0.0819
    136 H42        25.4161   28.3457   17.5983 H         1 ASP         0.0478
    137 H43        25.6932   30.1172   17.7080 H         1 ASP         0.0478
    138 H44        28.9433   29.8661   18.1411 H         1 GLU         0.1883
    139 H45        29.6888   27.6475   16.3891 H         1 GLU         0.0801
    140 H46        31.9189   28.8790   16.4028 H         1 GLU         0.0330
    141 H47        31.1995   30.0461   17.5635 H         1 GLU         0.0330
    142 H48        30.8903   31.1800   15.5918 H         1 GLU         0.0433
    143 H49        29.3450   30.2687   15.6838 H         1 GLU         0.0433
    144 H50        30.3580   28.9757   19.6023 H         1 LEU         0.1883
    145 H51        32.2870   27.0559   20.4923 H         1 LEU         0.0800
    146 H52        31.6813   27.8594   22.7625 H         1 LEU         0.0315
    147 H53        30.3252   28.7905   22.0411 H         1 LEU         0.0315
    148 H54        31.9316   30.2222   20.8741 H         1 LEU         0.0298
    149 H55        32.7488   31.3448   22.9190 H         1 LEU         0.0232
    150 H56        32.3968   29.8602   23.8671 H         1 LEU         0.0232
    151 H57        31.0547   30.7761   23.1012 H         1 LEU         0.0232
    152 H58        33.7508   28.5866   20.6211 H         1 LEU         0.0232
    153 H59        34.0061   28.5888   22.3991 H         1 LEU         0.0232
    154 H60        34.3226   30.0771   21.4444 H         1 LEU         0.0232
    155 H61        28.7985   27.4598   21.3583 H         1 MET         0.1883
    156 H62        28.5625   25.1660   22.9259 H         1 MET         0.0800
    157 H63        26.1399   25.1145   22.0074 H         1 MET         0.0320
    158 H64        26.6155   26.5651   21.0606 H         1 MET         0.0320
    159 H65        25.4783   26.9920   23.3012 H         1 MET         0.0378
    160 H66        27.0420   27.8319   23.0252 H         1 MET         0.0378
    161 H67        26.2742   24.3399   25.9613 H         1 MET         0.0340
    162 H68        25.9132   24.1853   24.2086 H         1 MET         0.0340
    163 H69        25.0277   25.3891   25.2052 H         1 MET         0.0340
    164 H70        28.7472   25.4868   19.4339 H         1 ALA         0.1883
    165 H71        27.9655   22.7752   18.8357 H         1 ALA         0.0797
    166 H72        28.8089   23.2982   16.5570 H         1 ALA         0.0277
    167 H73        29.4902   24.8403   17.1771 H         1 ALA         0.0277
    168 H74        27.7138   24.5742   17.1888 H         1 ALA         0.0277
    169 H75        31.0724   24.3314   19.5424 H         1 SER         0.1884
    170 H76        32.8284   22.3865   18.5003 H         1 SER         0.0823
    171 H77        34.4744   23.2234   20.1592 H         1 SER         0.0606
    172 H78        33.1563   24.0903   21.0181 H         1 SER         0.0606
    173 H79        32.8462   25.2888   19.0771 H         1 SER         0.2097
    174 H80        30.7875   22.1978   21.3187 H         1 LEU         0.1883
    175 H81        32.3282   19.8772   22.3791 H         1 LEU         0.0800
    176 H82        31.0363   20.1224   24.3692 H         1 LEU         0.0315
    177 H83        29.8313   21.1689   23.5449 H         1 LEU         0.0315
    178 H84        32.0515   22.6889   23.2278 H         1 LEU         0.0298
    179 H85        31.2279   23.9695   25.1697 H         1 LEU         0.0232
    180 H86        30.2561   22.5503   25.6873 H         1 LEU         0.0232
    181 H87        29.8826   23.3775   24.1372 H         1 LEU         0.0232
    182 H88        33.4777   21.0794   24.4327 H         1 LEU         0.0232
    183 H89        32.4173   21.2191   25.8757 H         1 LEU         0.0232
    184 H90        33.3565   22.6420   25.3102 H         1 LEU         0.0232
    185 H91        29.8797   20.6184   20.2676 H         1 SER         0.1876
    186 H92        28.5151   19.3491   18.9747 H         1 SER         0.0749
    187 H93        28.3756   16.8740   19.3166 H         1 SER         0.0599
    188 H94        29.4039   17.0527   20.7785 H         1 SER         0.0599
    189 H95        30.6201   16.5406   18.8822 H         1 SER         0.2096
@<TRIPOS>BOND
     1    1    2 1  
     2    2    3 1  
     3    2    5 1  
     4    3    4 2  
     5    3    8 am 
     6    5    6 1  
     7    5    7 1  
     8    8    9 1  
     9    9   10 1  
    10    9   12 1  
    11   10   11 2  
    12   10   19 am 
    13   12   13 1  
    14   13   14 1  
    15   14   15 1  
    16   15   16 ar 
    17   16   17 ar 
    18   16   18 ar 
    19   19   20 1  
    20   20   21 1  
    21   20   23 1  
    22   21   22 2  
    23   21   28 am 
    24   23   24 1  
    25   24   25 1  
    26   25   26 ar 
    27   25   27 ar 
    28   28   29 1  
    29   29   30 1  
    30   29   32 1  
    31   30   31 2  
    32   30   36 am 
    33   32   33 1  
    34   33   34 1  
    35   33   35 1  
    36   36   37 1  
    37   37   38 1  
    38   37   40 1  
    39   38   39 2  
    40   38   44 am 
    41   40   41 1  
    42   41   42 ar 
    43   41   43 ar 
    44   44   45 1  
    45   45   46 1  
    46   45   48 1  
    47   46   47 2  
    48   46   53 am 
    49   48   49 1  
    50   49   50 1  
    51   50   51 ar 
    52   50   52 ar 
    53   53   54 1  
    54   54   55 1  
    55   54   57 1  
    56   55   56 2  
    57   55   61 am 
    58   57   58 1  
    59   58   59 1  
    60   58   60 1  
    61   61   62 1  
    62   62   63 1  
    63   62   65 1  
    64   63   64 2  
    65   63   69 am 
    66   65   66 1  
    67   66   67 1  
    68   67   68 1  
    69   69   70 1  
    70   70   71 1  
    71   70   73 1  
    72   71   72 2  
    73   71   74 am 
    74   74   75 1  
    75   75   76 1  
    76   75   78 1  
    77   76   77 2  
    78   76   80 am 
    79   78   79 1  
    80   80   81 1  
    81   81   82 1  
    82   81   84 1  
    83   82   83 2  
    84   82   88 am 
    85   84   85 1  
    86   85   86 1  
    87   85   87 1  
    88   88   89 1  
    89   89   90 1  
    90   89   92 1  
    91   90   91 ar 
    92   90   94 ar 
    93   92   93 1  
    94    1   95 1  
    95    1   96 1  
    96    1   97 1  
    97    2   98 1  
    98    5   99 1  
    99    6  100 1  
   100    7  101 1  
   101    7  102 1  
   102    7  103 1  
   103    8  104 1  
   104    9  105 1  
   105   12  106 1  
   106   12  107 1  
   107   13  108 1  
   108   13  109 1  
   109   14  110 1  
   110   14  111 1  
   111   15  112 1  
   112   17  113 1  
   113   17  114 1  
   114   18  115 1  
   115   18  116 1  
   116   19  117 1  
   117   20  118 1  
   118   23  119 1  
   119   23  120 1  
   120   24  121 1  
   121   24  122 1  
   122   28  123 1  
   123   29  124 1  
   124   32  125 1  
   125   32  126 1  
   126   33  127 1  
   127   34  128 1  
   128   34  129 1  
   129   34  130 1  
   130   35  131 1  
   131   35  132 1  
   132   35  133 1  
   133   36  134 1  
   134   37  135 1  
   135   40  136 1  
   136   40  137 1  
   137   44  138 1  
   138   45  139 1  
   139   48  140 1  
   140   48  141 1  
   141   49  142 1  
   142   49  143 1  
   143   53  144 1  
   144   54  145 1  
   145   57  146 1  
   146   57  147 1  
   147   58  148 1  
   148   59  149 1  
   149   59  150 1  
   150   59  151 1  
   151   60  152 1  
   152   60  153 1  
   153   60  154 1  
   154   61  155 1  
   155   62  156 1  
   156   65  157 1  
   157   65  158 1  
   158   66  159 1  
   159   66  160 1  
   160   68  161 1  
   161   68  162 1  
   162   68  163 1  
   163   69  164 1  
   164   70  165 1  
   165   73  166 1  
   166   73  167 1  
   167   73  168 1  
   168   74  169 1  
   169   75  170 1  
   170   78  171 1  
   171   78  172 1  
   172   79  173 1  
   173   80  174 1  
   174   81  175 1  
   175   84  176 1  
   176   84  177 1  
   177   85  178 1  
   178   86  179 1  
   179   86  180 1  
   180   86  181 1  
   181   87  182 1  
   182   87  183 1  
   183   87  184 1  
   184   88  185 1  
   185   89  186 1  
   186   92  187 1  
   187   92  188 1  
   188   93  189 1  
@<TRIPOS>SUBSTRUCTURE
     1 THR         1

