2wih_ligand
  -I-interpret- 

 67 71  0  0  0  0  0  0  0  0999 V2000
  -15.9130  200.9020  114.1660 O   0  0  0  0  0
  -15.2110  201.6130  114.8390 C   0  0  0  0  0
  -15.3640  201.8670  116.1430 N   0  0  0  0  0
  -16.3810  201.3650  117.0520 C   0  0  0  0  0
  -14.0830  202.2570  114.1740 C   0  0  0  0  0
  -12.9810  202.5980  114.8120 N   0  0  0  0  0
  -12.1130  203.1850  113.9230 N   0  0  0  0  0
  -10.8340  203.6060  114.5430 C   0  0  0  0  0
  -12.6140  203.2340  112.6960 C   0  0  0  0  0
  -13.9670  202.6330  112.7350 C   0  0  0  0  0
  -12.0410  203.8020  111.4510 C   0  0  0  0  0
  -12.8610  203.8550  110.3050 C   0  0  0  0  0
  -14.3240  203.3730  110.2980 C   0  0  0  0  0
  -14.8330  202.5140  111.4660 C   0  0  0  0  0
  -16.3020  202.8570  111.7020 C   0  0  0  0  0
  -14.7320  201.0740  111.0440 C   0  0  0  0  0
  -10.7650  204.2700  111.4250 N   0  0  0  0  0
  -10.2070  204.8070  110.3170 C   0  0  0  0  0
  -10.9730  204.8600  109.1750 N   0  0  0  0  0
  -12.2690  204.4110  109.1540 C   0  0  0  0  0
   -8.9410  205.2890  110.3210 N   0  0  0  0  0
   -8.0090  205.3720  111.3390 C   0  0  0  0  0
   -8.3700  205.6860  112.6930 C   0  0  0  0  0
   -7.4070  205.7870  113.7010 C   0  0  0  0  0
   -6.0400  205.5790  113.3840 C   0  0  0  0  0
   -5.6540  205.2630  112.0330 C   0  0  0  0  0
   -6.6360  205.1610  111.0230 C   0  0  0  0  0
   -5.0560  205.6870  114.3790 N   0  0  0  0  0
   -4.9830  206.8790  115.2350 C   0  0  0  0  0
   -5.0720  206.2830  116.6340 C   0  0  0  0  0
   -4.0110  205.2680  116.6620 N   0  3  0  0  0
   -2.7900  205.4890  117.4260 C   0  0  0  0  0
   -4.1570  204.0360  115.8970 C   0  0  0  0  0
   -4.0870  204.5650  114.4650 C   0  0  0  0  0
  -14.6753  202.4969  116.5545 H   0  0  0  0  0
  -17.3657  201.6692  116.6972 H   0  0  0  0  0
  -16.3272  200.2770  117.0902 H   0  0  0  0  0
  -16.2100  201.7737  118.0479 H   0  0  0  0  0
  -11.0354  204.3299  115.3326 H   0  0  0  0  0
  -10.3327  202.7353  114.9658 H   0  0  0  0  0
  -10.1967  204.0612  113.7849 H   0  0  0  0  0
  -14.4026  202.7293  109.4219 H   0  0  0  0  0
  -14.9195  204.2849  110.3407 H   0  0  0  0  0
  -16.7169  202.1789  112.4477 H   0  0  0  0  0
  -16.3812  203.8839  112.0588 H   0  0  0  0  0
  -16.8529  202.7522  110.7673 H   0  0  0  0  0
  -13.6898  200.8288  110.8397 H   0  0  0  0  0
  -15.1069  200.4352  111.8437 H   0  0  0  0  0
  -15.3264  200.9180  110.1438 H   0  0  0  0  0
  -12.8488  204.4855  108.2340 H   0  0  0  0  0
   -8.6218  205.6514  109.4226 H   0  0  0  0  0
   -9.4189  205.8493  112.9403 H   0  0  0  0  0
   -7.7040  206.0237  114.7227 H   0  0  0  0  0
   -4.6037  205.1025  111.7899 H   0  0  0  0  0
   -6.3431  204.9207  110.0010 H   0  0  0  0  0
   -5.7704  207.6037  115.0276 H   0  0  0  0  0
   -4.0778  207.4651  115.0763 H   0  0  0  0  0
   -6.0543  205.8566  116.8375 H   0  0  0  0  0
   -4.9409  207.0363  117.4108 H   0  0  0  0  0
   -4.6345  205.3686  117.4629 H   0  0  0  0  0
   -2.2846  206.3791  117.0513 H   0  0  0  0  0
   -3.0410  205.6277  118.4776 H   0  0  0  0  0
   -2.1343  204.6249  117.3186 H   0  0  0  0  0
   -5.0729  203.4879  116.1182 H   0  0  0  0  0
   -3.4003  203.2854  116.1251 H   0  0  0  0  0
   -3.0789  204.9020  114.2235 H   0  0  0  0  0
   -4.3339  203.7818  113.7483 H   0  0  0  0  0
  1  2  2  0  0  0
  2  3  1  0  0  0
  2  5  1  0  0  0
  3  4  1  0  0  0
  5  6  4  0  0  0
  5 10  4  0  0  0
  6  7  4  0  0  0
  7  8  1  0  0  0
  7  9  4  0  0  0
  9 10  4  0  0  0
  9 11  1  0  0  0
 10 14  1  0  0  0
 11 12  4  0  0  0
 11 17  4  0  0  0
 12 13  1  0  0  0
 12 20  4  0  0  0
 13 14  1  0  0  0
 14 15  1  0  0  0
 14 16  1  0  0  0
 17 18  4  0  0  0
 18 19  4  0  0  0
 18 21  1  0  0  0
 19 20  4  0  0  0
 21 22  1  0  0  0
 22 23  4  0  0  0
 22 27  4  0  0  0
 23 24  4  0  0  0
 24 25  4  0  0  0
 25 26  4  0  0  0
 25 28  1  0  0  0
 26 27  4  0  0  0
 28 29  1  0  0  0
 28 34  1  0  0  0
 29 30  1  0  0  0
 30 31  1  0  0  0
 31 32  1  0  0  0
 31 33  1  0  0  0
 33 34  1  0  0  0
  3 35  1  0  0  0
  4 36  1  0  0  0
  4 37  1  0  0  0
  4 38  1  0  0  0
  8 39  1  0  0  0
  8 40  1  0  0  0
  8 41  1  0  0  0
 13 42  1  0  0  0
 13 43  1  0  0  0
 15 44  1  0  0  0
 15 45  1  0  0  0
 15 46  1  0  0  0
 16 47  1  0  0  0
 16 48  1  0  0  0
 16 49  1  0  0  0
 20 50  1  0  0  0
 21 51  1  0  0  0
 23 52  1  0  0  0
 24 53  1  0  0  0
 26 54  1  0  0  0
 27 55  1  0  0  0
 29 56  1  0  0  0
 29 57  1  0  0  0
 30 58  1  0  0  0
 30 59  1  0  0  0
 31 60  1  0  0  0
 32 61  1  0  0  0
 32 62  1  0  0  0
 32 63  1  0  0  0
 33 64  1  0  0  0
 33 65  1  0  0  0
 34 66  1  0  0  0
 34 67  1  0  0  0
M  END
$$$$
