3qps_ligand
  -I-interpret- 

 69 72  0  0  0  0  0  0  0  0999 V2000
   -9.1180   -4.9580  -15.7460 C   0  0  0  0  0
   -8.2860   -5.6610  -16.8050 C   0  0  0  0  0
   -7.2720   -4.6610  -17.3140 C   0  0  0  0  0
   -7.9710   -3.6980  -18.1100 O   0  0  0  0  0
   -6.6010   -3.9660  -16.1290 C   0  0  0  0  0
   -6.8370   -4.5940  -14.7470 C   0  0  0  0  0
   -6.2040   -3.6960  -13.6790 C   0  0  0  0  0
   -6.7590   -3.9900  -12.2840 C   0  0  0  0  0
   -6.0120   -3.2840  -11.2890 O   0  0  0  0  0
   -8.2580   -3.6680  -12.2110 C   0  0  0  0  0
   -8.8440   -3.6850  -13.6210 C   0  0  0  0  0
   -8.3170   -4.8480  -14.4560 C   0  0  0  0  0
  -10.3690   -3.6570  -13.5620 C   0  0  0  0  0
  -10.9200   -2.4050  -12.8490 C   0  0  0  0  0
  -11.0300   -1.2660  -13.7330 O   0  0  0  0  0
  -10.1630   -2.1130  -11.5290 C   0  0  0  0  0
   -8.6500   -2.3080  -11.6260 C   0  0  0  0  0
   -8.2090   -1.9310  -10.2170 C   0  0  0  0  0
   -9.1180   -0.7250   -9.9060 C   0  0  0  0  0
  -10.2240   -0.6910  -10.9690 C   0  0  0  0  0
  -10.6920   -3.0470  -10.4390 C   0  0  0  0  0
   -8.4690   -6.1720  -13.7020 C   0  0  0  0  0
  -11.5820   -0.2880  -10.3820 C   0  0  0  0  0
  -12.4040    0.5580  -11.3600 C   0  0  0  0  0
  -11.4270    0.4360   -9.0430 C   0  0  0  0  0
  -11.8010    1.9220   -9.1080 C   0  0  0  0  0
   -9.6140    2.7860   -8.7310 O   0  0  0  0  0
  -10.6220    2.8000   -9.4860 C   0  0  0  0  0
  -10.9130    3.8180  -10.1540 O   0  0  0  0  0
  -10.0264   -5.5310  -15.5602 H   0  0  0  0  0
   -9.3800   -3.9594  -16.0956 H   0  0  0  0  0
   -8.9193   -6.0136  -17.6191 H   0  0  0  0  0
   -7.7865   -6.5335  -16.3839 H   0  0  0  0  0
   -6.5041   -5.1581  -17.9067 H   0  0  0  0  0
   -8.3896   -4.1409  -18.8517 H   0  0  0  0  0
   -7.0283   -2.9643  -16.0836 H   0  0  0  0  0
   -5.5279   -4.0266  -16.3101 H   0  0  0  0  0
   -6.3625   -5.5752  -14.7324 H   0  0  0  0  0
   -6.4317   -2.6590  -13.9258 H   0  0  0  0  0
   -5.1305   -3.8847  -13.6664 H   0  0  0  0  0
   -6.6499   -5.0558  -12.0832 H   0  0  0  0  0
   -6.3728   -3.4793  -10.4211 H   0  0  0  0  0
   -8.6439   -4.4322  -11.5363 H   0  0  0  0  0
   -8.5113   -2.7816  -14.1322 H   0  0  0  0  0
  -10.6962   -4.5313  -12.9993 H   0  0  0  0  0
  -10.7414   -3.6474  -14.5864 H   0  0  0  0  0
  -11.9460   -2.6243  -12.5536 H   0  0  0  0  0
  -11.3759   -0.5155  -13.2445 H   0  0  0  0  0
   -8.1177   -1.6935  -12.3520 H   0  0  0  0  0
   -7.1463   -1.6993  -10.1456 H   0  0  0  0  0
   -8.3136   -2.7456   -9.5003 H   0  0  0  0  0
   -8.5423    0.2003   -9.9268 H   0  0  0  0  0
   -9.5507   -0.8219   -8.9103 H   0  0  0  0  0
  -10.0874    0.0624  -11.7448 H   0  0  0  0  0
  -11.7589   -2.8729  -10.2994 H   0  0  0  0  0
  -10.5276   -4.0822  -10.7381 H   0  0  0  0  0
  -10.1651   -2.8491   -9.5056 H   0  0  0  0  0
   -7.9060   -6.1245  -12.7699 H   0  0  0  0  0
   -9.5227   -6.3451  -13.4831 H   0  0  0  0  0
   -8.0862   -6.9856  -14.3182 H   0  0  0  0  0
  -12.1291   -1.2139  -10.2047 H   0  0  0  0  0
  -11.8545    1.4677  -11.6022 H   0  0  0  0  0
  -12.5831   -0.0132  -12.2709 H   0  0  0  0  0
  -13.3571    0.8192  -10.9002 H   0  0  0  0  0
  -10.3776    0.3733   -8.7548 H   0  0  0  0  0
  -12.1001   -0.0417   -8.3311 H   0  0  0  0  0
  -12.1448    2.2266   -8.1195 H   0  0  0  0  0
  -12.5697    2.0430   -9.8713 H   0  0  0  0  0
   -9.5486    1.9295   -8.3023 H   0  0  0  0  0
  1  2  1  0  0  0
  1 12  1  0  0  0
  2  3  1  0  0  0
  3  4  1  0  0  0
  3  5  1  0  0  0
  5  6  1  0  0  0
  6  7  1  0  0  0
  6 12  1  0  0  0
  7  8  1  0  0  0
  8  9  1  0  0  0
  8 10  1  0  0  0
 10 11  1  0  0  0
 10 17  1  0  0  0
 11 12  1  0  0  0
 11 13  1  0  0  0
 12 22  1  0  0  0
 13 14  1  0  0  0
 14 15  1  0  0  0
 14 16  1  0  0  0
 16 17  1  0  0  0
 16 20  1  0  0  0
 16 21  1  0  0  0
 17 18  1  0  0  0
 18 19  1  0  0  0
 19 20  1  0  0  0
 20 23  1  0  0  0
 23 24  1  0  0  0
 23 25  1  0  0  0
 25 26  1  0  0  0
 26 28  1  0  0  0
 28 27  1  0  0  0
 28 29  2  0  0  0
  1 30  1  0  0  0
  1 31  1  0  0  0
  2 32  1  0  0  0
  2 33  1  0  0  0
  3 34  1  0  0  0
  4 35  1  0  0  0
  5 36  1  0  0  0
  5 37  1  0  0  0
  6 38  1  0  0  0
  7 39  1  0  0  0
  7 40  1  0  0  0
  8 41  1  0  0  0
  9 42  1  0  0  0
 10 43  1  0  0  0
 11 44  1  0  0  0
 13 45  1  0  0  0
 13 46  1  0  0  0
 14 47  1  0  0  0
 15 48  1  0  0  0
 17 49  1  0  0  0
 18 50  1  0  0  0
 18 51  1  0  0  0
 19 52  1  0  0  0
 19 53  1  0  0  0
 20 54  1  0  0  0
 21 55  1  0  0  0
 21 56  1  0  0  0
 21 57  1  0  0  0
 22 58  1  0  0  0
 22 59  1  0  0  0
 22 60  1  0  0  0
 23 61  1  0  0  0
 24 62  1  0  0  0
 24 63  1  0  0  0
 24 64  1  0  0  0
 25 65  1  0  0  0
 25 66  1  0  0  0
 26 67  1  0  0  0
 26 68  1  0  0  0
 27 69  1  0  0  0
M  END
$$$$
