5wkh_ligand
  -I-interpret- 

143143  0  0  0  0  0  0  0  0999 V2000
   19.7020    4.9910   24.0970 N   0  3  0  0  0
   20.0400    3.6740   23.5910 C   0  0  0  0  0
   21.3500    3.7550   22.8520 C   0  0  0  0  0
   21.4760    4.5790   21.9460 O   0  0  0  0  0
   22.3420    2.9340   23.2690 N   0  0  0  0  0
   23.6850    2.9060   22.6890 C   0  0  0  0  0
   23.7020    2.2840   21.3080 C   0  0  0  0  0
   22.8490    1.4390   21.0080 O   0  0  0  0  0
   24.6960    2.1690   23.5890 C   0  0  0  0  0
   24.2740    0.8290   23.8460 O   0  0  0  0  0
   25.0070    2.8990   24.8550 C   0  0  0  0  0
   24.7140    2.6770   20.4890 N   0  0  0  0  0
   24.9690    2.1760   19.1450 C   0  0  0  0  0
   25.3810    0.7140   19.2100 C   0  0  0  0  0
   26.1680    0.3170   20.0720 O   0  0  0  0  0
   26.0720    2.9930   18.4750 C   0  0  0  0  0
   26.6300    2.3850   17.3150 O   0  0  0  0  0
   24.8310   -0.0770   18.3090 N   0  0  0  0  0
   25.1610   -1.4870   18.2110 C   0  0  0  0  0
   25.8550   -1.7550   16.8980 C   0  0  0  0  0
   26.5370   -2.7700   16.7470 O   0  0  0  0  0
   25.6710   -0.8350   15.9310 N   0  0  0  0  0
   26.2620   -0.9470   14.6070 C   0  0  0  0  0
   26.7170    0.4060   14.0270 C   0  0  0  0  0
   25.9240    1.3480   13.9940 O   0  0  0  0  0
   25.3220   -1.6950   13.6570 C   0  0  0  0  0
   24.8730   -0.9120   12.5570 O   0  0  0  0  0
   27.9760    0.5240   13.5430 N   0  0  0  0  0
   29.0300   -0.4880   13.5230 C   0  0  0  0  0
   29.8980   -0.4930   14.7820 C   0  0  0  0  0
   30.0760    0.5390   15.4440 O   0  0  0  0  0
   29.8130   -0.1280   12.2570 C   0  0  0  0  0
   29.7170    1.3730   12.1760 C   0  0  0  0  0
   28.4590    1.7800   12.9390 C   0  0  0  0  0
   30.4000   -1.6860   15.1210 N   0  0  0  0  0
   31.3480   -1.9770   16.1820 C   0  0  0  0  0
   32.3660   -2.8590   15.4560 C   0  0  0  0  0
   32.2060   -4.0820   15.3830 O   0  0  0  0  0
   30.7200   -2.6200   17.4470 C   0  0  0  0  0
   29.6910   -1.6590   18.1030 C   0  0  0  0  0
   31.8270   -2.9870   18.4460 C   0  0  0  0  0
   28.8430   -2.2020   19.3070 C   0  0  0  0  0
   33.3330   -2.1940   14.7920 N   0  0  0  0  0
   34.3800   -2.8040   13.9700 C   0  0  0  0  0
   35.7410   -2.2950   14.3850 C   0  0  0  0  0
   35.8530   -1.1620   14.8590 O   0  0  0  0  0
   34.1280   -2.5560   12.4560 C   0  0  0  0  0
   33.7250   -1.0890   12.1900 C   0  0  0  0  0
   33.0950   -3.5310   11.9060 C   0  0  0  0  0
   33.7650   -0.6610   10.7880 C   0  0  0  0  0
   36.7820   -3.1090   14.1630 N   0  0  0  0  0
   38.1540   -2.7500   14.5050 C   0  0  0  0  0
   38.7210   -1.5990   13.6750 C   0  0  0  0  0
   38.2870   -1.3710   12.5420 O   0  0  0  0  0
   39.0660   -3.9600   14.4520 C   0  0  0  0  0
   38.9050   -4.9110   15.6070 C   0  0  0  0  0
   38.6870   -6.1150   15.4160 O   0  0  0  0  0
   39.0770   -4.4030   16.8310 N   0  0  0  0  0
   39.6860   -0.8680   14.2780 N   0  0  0  0  0
   40.4010    0.2940   13.7260 C   0  0  0  0  0
   41.7010   -0.1170   13.0080 C   0  0  0  0  0
   42.3380   -1.1170   13.4200 O   0  0  0  0  0
   40.7070    1.3220   14.8390 C   0  0  0  0  0
   39.5080    2.1730   15.2200 C   0  0  0  0  0
   39.7880    3.2010   16.3040 C   0  0  0  0  0
   39.4760    2.6830   17.6390 N   0  0  0  0  0
   38.2750    2.7340   18.2150 C   0  0  0  0  0
   37.2460    3.2790   17.5760 N   0  0  0  0  0
   38.0920    2.2280   19.4270 N   0  0  0  0  0
   42.0880    0.5770   12.0430 O   0  0  0  0  0
   18.8153    4.9438   24.5990 H   0  0  0  0  0
   20.4358    5.3094   24.7299 H   0  0  0  0  0
   19.6180    5.6425   23.3167 H   0  0  0  0  0
   19.2576    3.3273   22.9159 H   0  0  0  0  0
   20.1284    2.9726   24.4207 H   0  0  0  0  0
   22.1404    2.2937   24.0369 H   0  0  0  0  0
   23.9860    3.9504   22.6066 H   0  0  0  0  0
   25.6316    2.1331   23.0310 H   0  0  0  0  0
   24.0828    0.3898   23.0140 H   0  0  0  0  0
   24.1161    2.9321   25.4821 H   0  0  0  0  0
   25.8066    2.3810   25.3846 H   0  0  0  0  0
   25.3244    3.9146   24.6187 H   0  0  0  0  0
   25.3523    3.3868   20.8482 H   0  0  0  0  0
   24.0558    2.2685   18.5571 H   0  0  0  0  0
   26.8783    3.0986   19.2008 H   0  0  0  0  0
   25.6255    3.9359   18.1593 H   0  0  0  0  0
   27.3121    2.9553   16.9529 H   0  0  0  0  0
   24.1503    0.3158   17.6588 H   0  0  0  0  0
   24.2463   -2.0774   18.2641 H   0  0  0  0  0
   25.8223   -1.7619   19.0327 H   0  0  0  0  0
   25.0902   -0.0222   16.1372 H   0  0  0  0  0
   27.1739   -1.5342   14.7155 H   0  0  0  0  0
   24.4415   -1.9827   14.2315 H   0  0  0  0  0
   25.8775   -2.5395   13.2490 H   0  0  0  0  0
   24.2911   -1.4404   12.0059 H   0  0  0  0  0
   28.6367   -1.5045   13.5116 H   0  0  0  0  0
   29.4063   -0.6142   11.3702 H   0  0  0  0  0
   30.8464   -0.4718   12.3013 H   0  0  0  0  0
   29.6622    1.7011   11.1380 H   0  0  0  0  0
   30.6005    1.8405   12.6106 H   0  0  0  0  0
   28.6635    2.5438   13.6893 H   0  0  0  0  0
   27.7132    2.2350   12.2872 H   0  0  0  0  0
   30.0800   -2.4830   14.5708 H   0  0  0  0  0
   31.7911   -1.0839   16.6225 H   0  0  0  0  0
   30.1912   -3.5266   17.1528 H   0  0  0  0  0
   28.9686   -1.4291   17.3198 H   0  0  0  0  0
   30.2802   -0.8374   18.5104 H   0  0  0  0  0
   32.5126   -3.6962   17.9823 H   0  0  0  0  0
   32.3712   -2.0864   18.7303 H   0  0  0  0  0
   31.3801   -3.4380   19.3320 H   0  0  0  0  0
   28.2604   -3.0633   18.9802 H   0  0  0  0  0
   29.5110   -2.4992   20.1154 H   0  0  0  0  0
   28.1708   -1.4193   19.6585 H   0  0  0  0  0
   33.3353   -1.1769   14.8691 H   0  0  0  0  0
   34.3523   -3.8814   14.1326 H   0  0  0  0  0
   35.0631   -2.7368   11.9259 H   0  0  0  0  0
   34.4474   -0.4698   12.7218 H   0  0  0  0  0
   32.6884   -0.9910   12.5126 H   0  0  0  0  0
   33.4542   -4.5516   12.0380 H   0  0  0  0  0
   32.1548   -3.4031   12.4424 H   0  0  0  0  0
   32.9394   -3.3335   10.8454 H   0  0  0  0  0
   34.7788   -0.7738   10.4038 H   0  0  0  0  0
   33.0824   -1.2764   10.2020 H   0  0  0  0  0
   33.4634    0.3842   10.7198 H   0  0  0  0  0
   36.6076   -4.0190   13.7365 H   0  0  0  0  0
   38.1135   -2.3828   15.5305 H   0  0  0  0  0
   40.0907   -3.5897   14.4830 H   0  0  0  0  0
   38.8136   -4.5113   13.5462 H   0  0  0  0  0
   39.0305   -5.0127   17.6474 H   0  0  0  0  0
   39.2548   -3.4056   16.9489 H   0  0  0  0  0
   39.9477   -1.1542   15.2214 H   0  0  0  0  0
   39.7469    0.7544   12.9855 H   0  0  0  0  0
   41.8734   -1.5066   14.1643 H   0  0  0  0  0
   41.4800    1.9926   14.4635 H   0  0  0  0  0
   41.0103    0.7656   15.7259 H   0  0  0  0  0
   38.7462    1.4972   15.6086 H   0  0  0  0  0
   39.2086    2.7223   14.3274 H   0  0  0  0  0
   39.1605    4.0730   16.1196 H   0  0  0  0  0
   40.8484    3.4515   16.2729 H   0  0  0  0  0
   40.2345    2.2512   18.1668 H   0  0  0  0  0
   36.3271    3.3051   18.0180 H   0  0  0  0  0
   37.3747    3.6714   16.6433 H   0  0  0  0  0
   38.8723    1.7972   19.9230 H   0  0  0  0  0
  1  2  1  0  0  0
  2  3  1  0  0  0
  3  4  2  0  0  0
  3  5  1  0  0  0
  5  6  1  0  0  0
  6  7  1  0  0  0
  6  9  1  0  0  0
  7  8  2  0  0  0
  7 12  1  0  0  0
  9 10  1  0  0  0
  9 11  1  0  0  0
 12 13  1  0  0  0
 13 14  1  0  0  0
 13 16  1  0  0  0
 14 15  2  0  0  0
 14 18  1  0  0  0
 16 17  1  0  0  0
 18 19  1  0  0  0
 19 20  1  0  0  0
 20 21  2  0  0  0
 20 22  1  0  0  0
 22 23  1  0  0  0
 23 24  1  0  0  0
 23 26  1  0  0  0
 24 25  2  0  0  0
 24 28  1  0  0  0
 26 27  1  0  0  0
 28 29  1  0  0  0
 28 34  1  0  0  0
 29 30  1  0  0  0
 29 32  1  0  0  0
 30 31  2  0  0  0
 30 35  1  0  0  0
 32 33  1  0  0  0
 33 34  1  0  0  0
 35 36  1  0  0  0
 36 37  1  0  0  0
 36 39  1  0  0  0
 37 38  2  0  0  0
 37 43  1  0  0  0
 39 40  1  0  0  0
 39 41  1  0  0  0
 40 42  1  0  0  0
 43 44  1  0  0  0
 44 45  1  0  0  0
 44 47  1  0  0  0
 45 46  2  0  0  0
 45 51  1  0  0  0
 47 48  1  0  0  0
 47 49  1  0  0  0
 48 50  1  0  0  0
 51 52  1  0  0  0
 52 53  1  0  0  0
 52 55  1  0  0  0
 53 54  2  0  0  0
 53 59  1  0  0  0
 55 56  1  0  0  0
 56 57  2  0  0  0
 56 58  1  0  0  0
 59 60  1  0  0  0
 60 61  1  0  0  0
 60 63  1  0  0  0
 61 62  1  0  0  0
 61 70  2  0  0  0
 63 64  1  0  0  0
 64 65  1  0  0  0
 65 66  1  0  0  0
 66 67  1  0  0  0
 67 68  1  0  0  0
 67 69  2  0  0  0
  1 71  1  0  0  0
  1 72  1  0  0  0
  1 73  1  0  0  0
  2 74  1  0  0  0
  2 75  1  0  0  0
  5 76  1  0  0  0
  6 77  1  0  0  0
  9 78  1  0  0  0
 10 79  1  0  0  0
 11 80  1  0  0  0
 11 81  1  0  0  0
 11 82  1  0  0  0
 12 83  1  0  0  0
 13 84  1  0  0  0
 16 85  1  0  0  0
 16 86  1  0  0  0
 17 87  1  0  0  0
 18 88  1  0  0  0
 19 89  1  0  0  0
 19 90  1  0  0  0
 22 91  1  0  0  0
 23 92  1  0  0  0
 26 93  1  0  0  0
 26 94  1  0  0  0
 27 95  1  0  0  0
 29 96  1  0  0  0
 32 97  1  0  0  0
 32 98  1  0  0  0
 33 99  1  0  0  0
 33100  1  0  0  0
 34101  1  0  0  0
 34102  1  0  0  0
 35103  1  0  0  0
 36104  1  0  0  0
 39105  1  0  0  0
 40106  1  0  0  0
 40107  1  0  0  0
 41108  1  0  0  0
 41109  1  0  0  0
 41110  1  0  0  0
 42111  1  0  0  0
 42112  1  0  0  0
 42113  1  0  0  0
 43114  1  0  0  0
 44115  1  0  0  0
 47116  1  0  0  0
 48117  1  0  0  0
 48118  1  0  0  0
 49119  1  0  0  0
 49120  1  0  0  0
 49121  1  0  0  0
 50122  1  0  0  0
 50123  1  0  0  0
 50124  1  0  0  0
 51125  1  0  0  0
 52126  1  0  0  0
 55127  1  0  0  0
 55128  1  0  0  0
 58129  1  0  0  0
 58130  1  0  0  0
 59131  1  0  0  0
 60132  1  0  0  0
 62133  1  0  0  0
 63134  1  0  0  0
 63135  1  0  0  0
 64136  1  0  0  0
 64137  1  0  0  0
 65138  1  0  0  0
 65139  1  0  0  0
 66140  1  0  0  0
 68141  1  0  0  0
 68142  1  0  0  0
 69143  1  0  0  0
M  END
$$$$
