### 
### Created by X-TOOL on Mon Sep 10 21:13:32 2018
### 

@<TRIPOS>MOLECULE
5wkh_ligand
  143   143     1     0     0
SMALL
GAST_HUCK


@<TRIPOS>ATOM
      1 N          19.7020    4.9910   24.0970 N.4       1 GLY         0.2357
      2 CA         20.0400    3.6740   23.5910 C.3       1 GLY         0.0545
      3 C          21.3500    3.7550   22.8520 C.2       1 GLY         0.2237
      4 O          21.4760    4.5790   21.9460 O.2       1 GLY        -0.3910
      5 N          22.3420    2.9340   23.2690 N.am      1 THR        -0.2589
      6 CA         23.6850    2.9060   22.6890 C.3       1 THR         0.1566
      7 C          23.7020    2.2840   21.3080 C.2       1 THR         0.2065
      8 O          22.8490    1.4390   21.0080 O.2       1 THR        -0.3943
      9 CB         24.6960    2.1690   23.5890 C.3       1 THR         0.0924
     10 OG1        24.2740    0.8290   23.8460 O.3       1 THR        -0.3874
     11 CG2        25.0070    2.8990   24.8550 C.3       1 THR        -0.0346
     12 N          24.7140    2.6770   20.4890 N.am      1 SER        -0.2615
     13 CA         24.9690    2.1760   19.1450 C.3       1 SER         0.1539
     14 C          25.3810    0.7140   19.2100 C.2       1 SER         0.2060
     15 O          26.1680    0.3170   20.0720 O.2       1 SER        -0.3943
     16 CB         26.0720    2.9930   18.4750 C.3       1 SER         0.0843
     17 OG         26.6300    2.3850   17.3150 O.3       1 SER        -0.3903
     18 N          24.8310   -0.0770   18.3090 N.am      1 GLY        -0.2663
     19 CA         25.1610   -1.4870   18.2110 C.3       1 GLY         0.1201
     20 C          25.8550   -1.7550   16.8980 C.2       1 GLY         0.2008
     21 O          26.5370   -2.7700   16.7470 O.2       1 GLY        -0.3947
     22 N          25.6710   -0.8350   15.9310 N.am      1 SER        -0.2618
     23 CA         26.2620   -0.9470   14.6070 C.3       1 SER         0.1541
     24 C          26.7170    0.4060   14.0270 C.2       1 SER         0.2087
     25 O          25.9240    1.3480   13.9940 O.2       1 SER        -0.3941
     26 CB         25.3220   -1.6950   13.6570 C.3       1 SER         0.0843
     27 OG         24.8730   -0.9120   12.5570 O.3       1 SER        -0.3903
     28 N          27.9760    0.5240   13.5430 N.am      1 PRO        -0.2498
     29 CA         29.0300   -0.4880   13.5230 C.3       1 PRO         0.1338
     30 C          29.8980   -0.4930   14.7820 C.2       1 PRO         0.2041
     31 O          30.0760    0.5390   15.4440 O.2       1 PRO        -0.3944
     32 CB         29.8130   -0.1280   12.2570 C.3       1 PRO        -0.0104
     33 CG         29.7170    1.3730   12.1760 C.3       1 PRO        -0.0281
     34 CD         28.4590    1.7800   12.9390 C.3       1 PRO         0.0369
     35 N          30.4000   -1.6860   15.1210 N.am      1 ILE        -0.2635
     36 CA         31.3480   -1.9770   16.1820 C.3       1 ILE         0.1335
     37 C          32.3660   -2.8590   15.4560 C.2       1 ILE         0.2042
     38 O          32.2060   -4.0820   15.3830 O.2       1 ILE        -0.3944
     39 CB         30.7200   -2.6200   17.4470 C.3       1 ILE        -0.0037
     40 CG1        29.6910   -1.6590   18.1030 C.3       1 ILE        -0.0491
     41 CG2        31.8270   -2.9870   18.4460 C.3       1 ILE        -0.0582
     42 CD1        28.8430   -2.2020   19.3070 C.3       1 ILE        -0.0648
     43 N          33.3330   -2.1940   14.7920 N.am      1 ILE        -0.2635
     44 CA         34.3800   -2.8040   13.9700 C.3       1 ILE         0.1335
     45 C          35.7410   -2.2950   14.3850 C.2       1 ILE         0.2043
     46 O          35.8530   -1.1620   14.8590 O.2       1 ILE        -0.3944
     47 CB         34.1280   -2.5560   12.4560 C.3       1 ILE        -0.0037
     48 CG1        33.7250   -1.0890   12.1900 C.3       1 ILE        -0.0491
     49 CG2        33.0950   -3.5310   11.9060 C.3       1 ILE        -0.0582
     50 CD1        33.7650   -0.6610   10.7880 C.3       1 ILE        -0.0648
     51 N          36.7820   -3.1090   14.1630 N.am      1 ASN        -0.2616
     52 CA         38.1540   -2.7500   14.5050 C.3       1 ASN         0.1475
     53 C          38.7210   -1.5990   13.6750 C.2       1 ASN         0.2057
     54 O          38.2870   -1.3710   12.5420 O.2       1 ASN        -0.3942
     55 CB         39.0660   -3.9600   14.4520 C.3       1 ASN         0.0773
     56 CG         38.9050   -4.9110   15.6070 C.2       1 ASN         0.1780
     57 OD1        38.6870   -6.1150   15.4160 O.2       1 ASN        -0.3970
     58 ND2        39.0770   -4.4030   16.8310 N.am      1 ASN        -0.3007
     59 N          39.6860   -0.8680   14.2780 N.am      1 ARG        -0.2693
     60 CA         40.4010    0.2940   13.7260 C.3       1 ARG         0.0945
     61 C          41.7010   -0.1170   13.0080 C.2       1 ARG         0.0601
     62 O          42.3380   -1.1170   13.4200 O.co2     1 ARG        -0.5666
     63 CB         40.7070    1.3220   14.8390 C.3       1 ARG        -0.0148
     64 CG         39.5080    2.1730   15.2200 C.3       1 ARG        -0.0162
     65 CD         39.7880    3.2010   16.3040 C.3       1 ARG         0.0627
     66 NE         39.4760    2.6830   17.6390 N.pl3     1 ARG        -0.2723
     67 CZ         38.2750    2.7340   18.2150 C.cat     1 ARG         0.2882
     68 NH1        37.2460    3.2790   17.5760 N.pl3     1 ARG        -0.2849
     69 NH2        38.0920    2.2280   19.4270 N.pl3     1 ARG        -0.2849
     70 OXT        42.0880    0.5770   12.0430 O.co2     1 ARG        -0.5666
     71 H1         18.8258    4.9455   24.5933 H         1 GLY         0.2012
     72 H2         19.6187    5.6357   23.3267 H         1 GLY         0.2012
     73 H3         20.4265    5.3067   24.7226 H         1 GLY         0.2012
     74 H4         19.2512    3.3280   22.9068 H         1 GLY         0.1061
     75 H5         20.1328    2.9689   24.4302 H         1 GLY         0.1061
     76 H6         22.1443    2.3062   24.0219 H         1 THR         0.1885
     77 H7         24.0192    3.9495   22.5921 H         1 THR         0.0826
     78 H8         25.6369    2.1078   23.0226 H         1 THR         0.0639
     79 H9         23.4305    0.8421   24.2829 H         1 THR         0.2101
     80 H10        25.7312    2.3180   25.4448 H         1 THR         0.0257
     81 H11        24.0835    3.0331   25.4373 H         1 THR         0.0257
     82 H12        25.4353    3.8833   24.6150 H         1 THR         0.0257
     83 H13        25.3398    3.3729   20.8412 H         1 SER         0.1884
     84 H14        24.0478    2.2637   18.5503 H         1 SER         0.0823
     85 H15        26.8797    3.1458   19.2059 H         1 SER         0.0606
     86 H16        25.6511    3.9669   18.1846 H         1 SER         0.0606
     87 H17        27.3050    2.9493   16.9567 H         1 SER         0.2097
     88 H18        24.1637    0.3081   17.6715 H         1 GLY         0.1881
     89 H19        24.2384   -2.0835   18.2657 H         1 GLY         0.0763
     90 H20        25.8274   -1.7654   19.0407 H         1 GLY         0.0763
     91 H21        25.1016   -0.0382   16.1331 H         1 SER         0.1884
     92 H22        27.1678   -1.5619   14.7141 H         1 SER         0.0823
     93 H23        24.4425   -2.0256   14.2289 H         1 SER         0.0606
     94 H24        25.8544   -2.5731   13.2628 H         1 SER         0.0606
     95 H25        24.4016   -0.1536   12.8811 H         1 SER         0.2097
     96 H26        28.5850   -1.4884   13.4174 H         1 PRO         0.0802
     97 H27        29.3588   -0.5961   11.3713 H         1 PRO         0.0313
     98 H28        30.8620   -0.4475   12.3433 H         1 PRO         0.0313
     99 H29        29.6415    1.6909   11.1257 H         1 PRO         0.0287
    100 H30        30.6037    1.8339   12.6358 H         1 PRO         0.0287
    101 H31        28.6977    2.5199   13.7171 H         1 PRO         0.0524
    102 H32        27.7062    2.1977   12.2543 H         1 PRO         0.0524
    103 H33        30.0862   -2.4674   14.5816 H         1 ILE         0.1883
    104 H34        31.8353   -1.0449   16.5040 H         1 ILE         0.0803
    105 H35        30.1958   -3.5401   17.1492 H         1 ILE         0.0345
    106 H36        28.9850   -1.3497   17.3182 H         1 ILE         0.0267
    107 H37        30.2465   -0.7807   18.4634 H         1 ILE         0.0267
    108 H38        32.5450   -3.6670   17.9642 H         1 ILE         0.0235
    109 H39        31.3817   -3.4838   19.3206 H         1 ILE         0.0235
    110 H40        32.3473   -2.0732   18.7688 H         1 ILE         0.0235
    111 H41        28.1642   -1.4129   19.6627 H         1 ILE         0.0230
    112 H42        29.5160   -2.5022   20.1236 H         1 ILE         0.0230
    113 H43        28.2545   -3.0713   18.9785 H         1 ILE         0.0230
    114 H44        33.3353   -1.1969   14.8676 H         1 ILE         0.1883
    115 H45        34.3562   -3.8902   14.1418 H         1 ILE         0.0803
    116 H46        35.0739   -2.7410   11.9259 H         1 ILE         0.0345
    117 H47        34.4084   -0.4424   12.7600 H         1 ILE         0.0267
    118 H48        32.6972   -0.9494   12.5564 H         1 ILE         0.0267
    119 H49        33.4166   -4.5621   12.1144 H         1 ILE         0.0235
    120 H50        32.9992   -3.3894   10.8194 H         1 ILE         0.0235
    121 H51        32.1233   -3.3457   12.3871 H         1 ILE         0.0235
    122 H52        33.4608    0.3938   10.7178 H         1 ILE         0.0230
    123 H53        33.0765   -1.2813   10.1954 H         1 ILE         0.0230
    124 H54        34.7877   -0.7743   10.3990 H         1 ILE         0.0230
    125 H55        36.6110   -4.0011   13.7448 H         1 ASN         0.1885
    126 H56        38.1358   -2.4041   15.5490 H         1 ASN         0.0826
    127 H57        40.1073   -3.6057   14.4407 H         1 ASN         0.0551
    128 H58        38.8554   -4.5091   13.5224 H         1 ASN         0.0551
    129 H59        38.9816   -4.9909   17.6343 H         1 ASN         0.1814
    130 H60        39.3011   -3.4350   16.9436 H         1 ASN         0.1814
    131 H61        39.9426   -1.1486   15.2029 H         1 ARG         0.1875
    132 H62        39.7434    0.7743   12.9865 H         1 ARG         0.0726
    133 H63        41.5095    1.9875   14.4881 H         1 ARG         0.0307
    134 H64        41.0464    0.7778   15.7327 H         1 ARG         0.0307
    135 H65        38.7109    1.5044   15.5773 H         1 ARG         0.0301
    136 H66        39.1643    2.7057   14.3210 H         1 ARG         0.0301
    137 H67        39.1731    4.0934   16.1158 H         1 ARG         0.0689
    138 H68        40.8527    3.4751   16.2684 H         1 ARG         0.0689
    139 H69        40.2420    2.2470   18.1720 H         1 ARG         0.2642
    140 H70        36.3206    3.3153   18.0267 H         1 ARG         0.2615
    141 H71        37.3735    3.6654   16.6298 H         1 ARG         0.2615
    142 H72        38.8824    1.8028   19.9323 H         1 ARG         0.2615
    143 H73        37.1594    2.2602   19.8631 H         1 ARG         0.2615
@<TRIPOS>BOND
     1    1    2 1  
     2    2    3 1  
     3    3    4 2  
     4    3    5 am 
     5    5    6 1  
     6    6    7 1  
     7    6    9 1  
     8    7    8 2  
     9    7   12 am 
    10    9   10 1  
    11    9   11 1  
    12   12   13 1  
    13   13   14 1  
    14   13   16 1  
    15   14   15 2  
    16   14   18 am 
    17   16   17 1  
    18   18   19 1  
    19   19   20 1  
    20   20   21 2  
    21   20   22 am 
    22   22   23 1  
    23   23   24 1  
    24   23   26 1  
    25   24   25 2  
    26   24   28 am 
    27   26   27 1  
    28   28   29 1  
    29   28   34 1  
    30   29   30 1  
    31   29   32 1  
    32   30   31 2  
    33   30   35 am 
    34   32   33 1  
    35   33   34 1  
    36   35   36 1  
    37   36   37 1  
    38   36   39 1  
    39   37   38 2  
    40   37   43 am 
    41   39   40 1  
    42   39   41 1  
    43   40   42 1  
    44   43   44 1  
    45   44   45 1  
    46   44   47 1  
    47   45   46 2  
    48   45   51 am 
    49   47   48 1  
    50   47   49 1  
    51   48   50 1  
    52   51   52 1  
    53   52   53 1  
    54   52   55 1  
    55   53   54 2  
    56   53   59 am 
    57   55   56 1  
    58   56   57 2  
    59   56   58 am 
    60   59   60 1  
    61   60   61 1  
    62   60   63 1  
    63   61   62 ar 
    64   61   70 ar 
    65   63   64 1  
    66   64   65 1  
    67   65   66 1  
    68   66   67 ar 
    69   67   68 ar 
    70   67   69 ar 
    71    1   71 1  
    72    1   72 1  
    73    1   73 1  
    74    2   74 1  
    75    2   75 1  
    76    5   76 1  
    77    6   77 1  
    78    9   78 1  
    79   10   79 1  
    80   11   80 1  
    81   11   81 1  
    82   11   82 1  
    83   12   83 1  
    84   13   84 1  
    85   16   85 1  
    86   16   86 1  
    87   17   87 1  
    88   18   88 1  
    89   19   89 1  
    90   19   90 1  
    91   22   91 1  
    92   23   92 1  
    93   26   93 1  
    94   26   94 1  
    95   27   95 1  
    96   29   96 1  
    97   32   97 1  
    98   32   98 1  
    99   33   99 1  
   100   33  100 1  
   101   34  101 1  
   102   34  102 1  
   103   35  103 1  
   104   36  104 1  
   105   39  105 1  
   106   40  106 1  
   107   40  107 1  
   108   41  108 1  
   109   41  109 1  
   110   41  110 1  
   111   42  111 1  
   112   42  112 1  
   113   42  113 1  
   114   43  114 1  
   115   44  115 1  
   116   47  116 1  
   117   48  117 1  
   118   48  118 1  
   119   49  119 1  
   120   49  120 1  
   121   49  121 1  
   122   50  122 1  
   123   50  123 1  
   124   50  124 1  
   125   51  125 1  
   126   52  126 1  
   127   55  127 1  
   128   55  128 1  
   129   58  129 1  
   130   58  130 1  
   131   59  131 1  
   132   60  132 1  
   133   63  133 1  
   134   63  134 1  
   135   64  135 1  
   136   64  136 1  
   137   65  137 1  
   138   65  138 1  
   139   66  139 1  
   140   68  140 1  
   141   68  141 1  
   142   69  142 1  
   143   69  143 1  
@<TRIPOS>SUBSTRUCTURE
     1 GLY         1

