4mg6_ligand
  -I-interpret- 

 43 44  0  0  0  0  0  0  0  0999 V2000
   25.2020    3.0030    3.4950 C   0  0  0  0  0
   24.9670    2.7260    4.9800 C   0  0  0  0  0
   23.4750    2.4860    5.2310 C   0  0  0  0  0
   23.0800    3.0340    6.6060 C   0  0  0  0  0
   21.6560    3.2070    6.6630 O   0  0  0  0  0
   21.3560    4.4620    7.0970 C   0  0  0  0  0
   22.2060    5.2820    7.4300 O   0  0  0  0  0
   19.9990    4.7650    7.1890 C   0  0  0  0  0
   19.3670    4.6430    8.4210 C   0  0  0  0  0
   18.0160    4.9340    8.5560 C   0  0  0  0  0
   17.2850    5.3600    7.4570 C   0  0  0  0  0
   17.9120    5.4920    6.2280 C   0  0  0  0  0
   19.2620    5.1970    6.0860 C   0  0  0  0  0
   19.8320    5.3450    4.8270 C   0  0  0  0  0
   19.1210    5.5880    3.8520 O   0  0  0  0  0
   21.1870    5.2260    4.7690 O   0  0  0  0  0
   21.6310    5.6610    3.4860 C   0  0  0  0  0
   22.5590    6.6820    3.6330 C   0  0  0  0  0
   22.2710    7.7820    4.4320 C   0  0  0  0  0
   23.2040    8.8050    4.5740 C   0  0  0  0  0
   24.4300    8.7320    3.9250 C   0  0  0  0  0
   24.7170    7.6300    3.1290 C   0  0  0  0  0
   23.7850    6.6060    2.9860 C   0  0  0  0  0
   24.8700    2.1455    2.9098 H   0  0  0  0  0
   24.6383    3.8874    3.1980 H   0  0  0  0  0
   26.2647    3.1730    3.3221 H   0  0  0  0  0
   25.2981    3.5845    5.5644 H   0  0  0  0  0
   25.5300    1.8408    5.2758 H   0  0  0  0  0
   23.2740    1.4151    5.2006 H   0  0  0  0  0
   22.8954    2.9962    4.4617 H   0  0  0  0  0
   23.5688    3.9947    6.7676 H   0  0  0  0  0
   23.3913    2.3318    7.3794 H   0  0  0  0  0
   19.9377    4.3156    9.2900 H   0  0  0  0  0
   17.5299    4.8276    9.5258 H   0  0  0  0  0
   16.2243    5.5895    7.5592 H   0  0  0  0  0
   17.3400    5.8307    5.3642 H   0  0  0  0  0
   20.7786    6.0274    2.9140 H   0  0  0  0  0
   22.0939    4.8251    2.9616 H   0  0  0  0  0
   21.3130    7.8437    4.9483 H   0  0  0  0  0
   22.9714    9.6681    5.1978 H   0  0  0  0  0
   25.1608    9.5326    4.0393 H   0  0  0  0  0
   25.6758    7.5670    2.6144 H   0  0  0  0  0
   24.0185    5.7418    2.3641 H   0  0  0  0  0
  1  2  1  0  0  0
  2  3  1  0  0  0
  3  4  1  0  0  0
  4  5  1  0  0  0
  5  6  1  0  0  0
  6  7  2  0  0  0
  6  8  1  0  0  0
  8  9  4  0  0  0
  8 13  4  0  0  0
  9 10  4  0  0  0
 10 11  4  0  0  0
 11 12  4  0  0  0
 12 13  4  0  0  0
 13 14  1  0  0  0
 14 15  2  0  0  0
 14 16  1  0  0  0
 16 17  1  0  0  0
 17 18  1  0  0  0
 18 19  4  0  0  0
 18 23  4  0  0  0
 19 20  4  0  0  0
 20 21  4  0  0  0
 21 22  4  0  0  0
 22 23  4  0  0  0
  1 24  1  0  0  0
  1 25  1  0  0  0
  1 26  1  0  0  0
  2 27  1  0  0  0
  2 28  1  0  0  0
  3 29  1  0  0  0
  3 30  1  0  0  0
  4 31  1  0  0  0
  4 32  1  0  0  0
  9 33  1  0  0  0
 10 34  1  0  0  0
 11 35  1  0  0  0
 12 36  1  0  0  0
 17 37  1  0  0  0
 17 38  1  0  0  0
 19 39  1  0  0  0
 20 40  1  0  0  0
 21 41  1  0  0  0
 22 42  1  0  0  0
 23 43  1  0  0  0
M  END
$$$$
