3e0q_ligand
  -I-interpret- 

 20 20  0  0  0  0  0  0  0  0999 V2000
   18.7720    2.4490   28.8170 Br  0  0  0  0  0
   17.0920    2.4990   29.7970 C   0  0  0  0  0
   16.4420    3.8340   30.0990 C   0  0  0  0  0
   16.9690    4.9840   29.7310 O   0  0  0  0  0
   15.2500    3.9180   30.8390 N   0  0  0  0  0
   14.5520    2.6820   31.2870 C   0  0  0  0  0
   13.3930    2.8480   31.9670 O   0  0  0  0  0
   15.1170    1.3350   31.0160 N   0  3  0  0  0
   16.3780    1.2450   30.2750 C   0  0  0  0  0
   16.8960   -0.0540   30.0690 N   0  3  0  0  0
   17.8979    1.8021   29.5668 H   0  0  0  0  0
   14.8607    4.8319   31.0705 H   0  0  0  0  0
   14.6981    1.6815   30.8798 H   0  0  0  0  0
   13.1968    3.7850   32.0387 H   0  0  0  0  0
   14.4268    0.8687   30.4273 H   0  0  0  0  0
   15.3174    0.9391   31.9344 H   0  0  0  0  0
   16.8134    1.8271   29.4628 H   0  0  0  0  0
   17.7695    0.0086   29.5460 H   0  0  0  0  0
   17.0696   -0.4966   30.9714 H   0  0  0  0  0
   16.2214   -0.6080   29.5415 H   0  0  0  0  0
  1  2  1  0  0  0
  2  3  1  0  0  0
  2  9  1  0  0  0
  3  4  2  0  0  0
  3  5  1  0  0  0
  5  6  1  0  0  0
  6  7  1  0  0  0
  6  8  1  0  0  0
  8  9  1  0  0  0
  9 10  1  0  0  0
  2 11  1  0  0  0
  5 12  1  0  0  0
  6 13  1  0  0  0
  7 14  1  0  0  0
  8 15  1  0  0  0
  8 16  1  0  0  0
  9 17  1  0  0  0
 10 18  1  0  0  0
 10 19  1  0  0  0
 10 20  1  0  0  0
M  END
$$$$
