4uce_ligand
  -I-interpret- 

 28 29  0  0  0  0  0  0  0  0999 V2000
  -15.8530   14.6120  -20.6030 F   0  0  0  0  0
  -17.1440   14.5540  -20.2010 C   0  0  0  0  0
  -17.7380   15.7040  -19.7650 C   0  0  0  0  0
  -17.8080   13.3630  -20.2920 C   0  0  0  0  0
  -19.1520   13.3390  -19.9640 C   0  0  0  0  0
  -19.8010   14.4840  -19.5120 C   0  0  0  0  0
  -19.0660   15.6550  -19.3930 C   0  0  0  0  0
  -21.2680   14.4550  -19.1500 C   0  0  0  0  0
  -22.0130   15.6100  -19.6650 N   0  0  0  0  0
  -21.9350   16.7940  -18.9740 N   0  0  0  0  0
  -22.7780   17.6150  -19.6250 C   0  0  0  0  0
  -23.1790   19.0040  -19.1220 C   0  0  0  0  0
  -23.4050   19.8580  -20.0100 O   0  0  0  0  0
  -23.2960   19.1840  -17.8830 O   0  0  0  0  0
  -23.3490   16.9880  -20.7280 C   0  0  0  0  0
  -22.8700   15.7000  -20.7220 C   0  0  0  0  0
  -23.3280   14.5690  -21.6650 C   0  0  0  0  0
  -23.3730   13.3900  -21.2340 O   0  0  0  0  0
  -23.6770   14.9250  -22.8120 O   0  0  0  0  0
  -17.1771   16.6371  -19.7122 H   0  0  0  0  0
  -17.2934   12.4576  -20.6139 H   0  0  0  0  0
  -19.7113   12.4085  -20.0612 H   0  0  0  0  0
  -19.5456   16.5511  -18.9991 H   0  0  0  0  0
  -21.3405   14.4731  -18.0626 H   0  0  0  0  0
  -21.7003   13.5582  -19.5939 H   0  0  0  0  0
  -23.0637   18.3757  -17.4200 H   0  0  0  0  0
  -24.0364   17.4288  -21.4500 H   0  0  0  0  0
  -23.0538   13.3690  -20.3289 H   0  0  0  0  0
  1  2  1  0  0  0
  2  3  4  0  0  0
  2  4  4  0  0  0
  3  7  4  0  0  0
  4  5  4  0  0  0
  5  6  4  0  0  0
  6  7  4  0  0  0
  6  8  1  0  0  0
  8  9  1  0  0  0
  9 10  4  0  0  0
  9 16  4  0  0  0
 10 11  4  0  0  0
 11 12  1  0  0  0
 11 15  4  0  0  0
 12 13  2  0  0  0
 12 14  1  0  0  0
 15 16  4  0  0  0
 16 17  1  0  0  0
 17 18  1  0  0  0
 17 19  2  0  0  0
  3 20  1  0  0  0
  4 21  1  0  0  0
  5 22  1  0  0  0
  7 23  1  0  0  0
  8 24  1  0  0  0
  8 25  1  0  0  0
 14 26  1  0  0  0
 15 27  1  0  0  0
 18 28  1  0  0  0
M  END
$$$$
