5nin_ligand
  -I-interpret- 

181182  0  0  0  0  0  0  0  0999 V2000
   -1.5280  -35.8230  -14.8960 N   0  3  0  0  0
   -2.5050  -34.8210  -15.3080 C   0  0  0  0  0
   -1.8960  -33.4100  -15.3620 C   0  0  0  0  0
   -2.3290  -32.5740  -16.1320 O   0  0  0  0  0
   -3.7050  -34.8460  -14.3670 C   0  0  0  0  0
   -0.8650  -33.1610  -14.5650 N   0  0  0  0  0
   -0.2540  -31.8410  -14.5060 C   0  0  0  0  0
    1.0540  -31.7450  -15.2740 C   0  0  0  0  0
    1.6990  -30.6950  -15.2430 O   0  0  0  0  0
   -0.0530  -31.4670  -13.0450 C   0  0  0  0  0
   -1.2970  -30.9320  -12.4550 C   0  0  0  0  0
   -2.4000  -31.6460  -12.0390 C   0  0  0  0  0
   -1.5970  -29.5680  -12.2300 C   0  0  0  0  0
   -3.3520  -30.7920  -11.5540 N   0  0  0  0  0
   -2.8810  -29.5090  -11.6510 C   0  0  0  0  0
   -0.8840  -28.3790  -12.4130 C   0  0  0  0  0
   -3.4750  -28.3130  -11.2880 C   0  0  0  0  0
   -1.4800  -27.1920  -12.0460 C   0  0  0  0  0
   -2.7570  -27.1640  -11.4960 C   0  0  0  0  0
    1.4430  -32.7970  -15.9940 N   0  0  0  0  0
    2.7600  -32.8100  -16.6150 C   0  0  0  0  0
    2.9040  -31.6980  -17.6430 C   0  0  0  0  0
    3.9640  -31.0710  -17.7520 O   0  0  0  0  0
    3.0180  -34.1730  -17.2650 C   0  0  0  0  0
    1.8530  -31.4320  -18.4070 N   0  0  0  0  0
    1.9760  -30.4190  -19.4410 C   0  0  0  0  0
    2.0320  -29.0070  -18.8630 C   0  0  0  0  0
    2.6070  -28.1240  -19.4990 O   0  0  0  0  0
    0.8330  -30.5560  -20.4550 C   0  0  0  0  0
   -0.3780  -30.2040  -19.8820 O   0  0  0  0  0
    1.4710  -28.7580  -17.6640 N   0  0  0  0  0
    1.6790  -27.4530  -17.0520 C   0  0  0  0  0
    3.0340  -27.3630  -16.3580 C   0  0  0  0  0
    3.7060  -26.3180  -16.4160 O   0  0  0  0  0
    0.5410  -27.1320  -16.0820 C   0  0  0  0  0
   -0.8450  -27.0930  -16.7310 C   0  0  0  0  0
   -1.8540  -26.6390  -15.7140 C   0  0  0  0  0
   -0.8750  -26.1410  -17.9200 C   0  0  0  0  0
    3.4820  -28.4550  -15.7480 N   0  0  0  0  0
    4.7690  -28.4420  -15.0580 C   0  0  0  0  0
    5.9010  -28.1470  -16.0240 C   0  0  0  0  0
    6.8720  -27.4790  -15.6540 O   0  0  0  0  0
    4.9980  -29.7840  -14.3670 C   0  0  0  0  0
    4.1510  -30.0270  -13.1520 C   0  0  0  0  0
    4.5350  -31.3930  -12.6230 C   0  0  0  0  0
    3.6150  -31.8860  -11.5520 C   0  0  0  0  0
    4.1010  -33.2200  -11.0990 N   0  3  0  0  0
    5.7770  -28.6150  -17.2760 N   0  0  0  0  0
    6.7780  -28.3830  -18.3120 C   0  0  0  0  0
    6.8940  -26.9170  -18.7050 C   0  0  0  0  0
    7.8230  -26.5560  -19.4280 O   0  0  0  0  0
    6.4380  -29.2020  -19.5720 C   0  0  0  0  0
    6.8800  -30.6410  -19.5260 C   0  0  0  0  0
    6.7080  -31.2900  -20.9090 C   0  0  0  0  0
    5.3260  -31.5700  -21.2850 N   0  0  0  0  0
    4.6800  -32.6950  -21.0210 C   0  0  0  0  0
    5.2550  -33.6750  -20.3340 N   0  0  0  0  0
    3.4300  -32.8380  -21.4220 N   0  0  0  0  0
    5.9520  -26.0760  -18.2980 N   0  0  0  0  0
    5.9960  -24.6540  -18.6330 C   0  0  0  0  0
    6.9330  -23.8360  -17.7490 C   0  0  0  0  0
    7.1830  -22.6670  -18.0710 O   0  0  0  0  0
    4.5750  -24.0840  -18.5610 C   0  0  0  0  0
    3.5960  -24.7550  -19.5250 C   0  0  0  0  0
    2.2020  -24.1720  -19.3840 C   0  0  0  0  0
    4.0670  -24.6880  -20.9940 C   0  0  0  0  0
    7.4810  -24.4160  -16.6790 N   0  0  0  0  0
    8.4000  -23.7240  -15.7890 C   0  0  0  0  0
    9.5940  -24.6360  -15.5290 C   0  0  0  0  0
    9.5590  -25.8340  -15.7940 O   0  0  0  0  0
    7.7490  -23.3060  -14.4510 C   0  0  0  0  0
    6.5020  -22.5050  -14.6950 C   0  0  0  0  0
    7.4700  -24.5340  -13.5720 C   0  0  0  0  0
   10.6570  -24.0520  -14.9850 N   0  0  0  0  0
   11.7990  -24.8130  -14.4900 C   0  0  0  0  0
   11.6850  -24.9790  -12.9770 C   0  0  0  0  0
   10.9230  -24.2770  -12.3080 O   0  0  0  0  0
   13.1160  -24.1080  -14.8340 C   0  0  0  0  0
   13.1990  -22.8910  -14.0830 O   0  0  0  0  0
   13.1820  -23.7870  -16.3220 C   0  0  0  0  0
   12.4550  -25.9170  -12.4360 N   0  0  0  0  0
   12.4440  -26.1640  -10.9870 C   0  0  0  0  0
   13.5680  -25.4130  -10.2560 C   0  0  0  0  0
   14.6840  -25.3180  -10.7690 O   0  0  0  0  0
   12.5520  -27.6650  -10.7070 C   0  0  0  0  0
   13.3570  -24.9030   -9.1540 O   0  0  0  0  0
   -0.7298  -35.7989  -15.5306 H   0  0  0  0  0
   -1.2152  -35.6209  -13.9464 H   0  0  0  0  0
   -1.9583  -36.7474  -14.9240 H   0  0  0  0  0
   -2.8308  -35.0714  -16.3176 H   0  0  0  0  0
   -3.3858  -34.5577  -13.3655 H   0  0  0  0  0
   -4.4602  -34.1460  -14.7246 H   0  0  0  0  0
   -4.1237  -35.8521  -14.3408 H   0  0  0  0  0
   -0.4927  -33.9101  -13.9814 H   0  0  0  0  0
   -0.9285  -31.1373  -14.9938 H   0  0  0  0  0
    0.7187  -30.6996  -12.9852 H   0  0  0  0  0
    0.2373  -32.3613  -12.4935 H   0  0  0  0  0
   -2.4990  -32.7303  -12.0891 H   0  0  0  0  0
    0.1204  -28.3909  -12.8363 H   0  0  0  0  0
   -4.4744  -28.2857  -10.8538 H   0  0  0  0  0
   -0.9397  -26.2563  -12.1897 H   0  0  0  0  0
   -3.1977  -26.2050  -11.2237 H   0  0  0  0  0
    0.8173  -33.5941  -16.1102 H   0  0  0  0  0
    3.5021  -32.6367  -15.8356 H   0  0  0  0  0
    2.9716  -34.9517  -16.5037 H   0  0  0  0  0
    2.2599  -34.3608  -18.0254 H   0  0  0  0  0
    4.0054  -34.1728  -17.7267 H   0  0  0  0  0
    0.9734  -31.9302  -18.2709 H   0  0  0  0  0
    2.9235  -30.5841  -19.9540 H   0  0  0  0  0
    0.7776  -31.5937  -20.7840 H   0  0  0  0  0
    1.0292  -29.8926  -21.2974 H   0  0  0  0  0
   -1.0777  -30.2969  -20.5327 H   0  0  0  0  0
    0.9114  -29.4695  -17.1939 H   0  0  0  0  0
    1.6771  -26.7075  -17.8472 H   0  0  0  0  0
    0.7344  -26.1387  -15.6770 H   0  0  0  0  0
    0.5234  -27.9243  -15.3336 H   0  0  0  0  0
   -1.0832  -28.0953  -17.0870 H   0  0  0  0  0
   -1.8614  -27.3354  -14.8755 H   0  0  0  0  0
   -1.5874  -25.6435  -15.3589 H   0  0  0  0  0
   -2.8424  -26.6100  -16.1726 H   0  0  0  0  0
   -0.6206  -25.1354  -17.5852 H   0  0  0  0  0
   -0.1520  -26.4707  -18.6661 H   0  0  0  0  0
   -1.8738  -26.1382  -18.3564 H   0  0  0  0  0
    2.9232  -29.3082  -15.7617 H   0  0  0  0  0
    4.7520  -27.6506  -14.3087 H   0  0  0  0  0
    6.0356  -29.7921  -14.0331 H   0  0  0  0  0
    4.7391  -30.5575  -15.0900 H   0  0  0  0  0
    3.0909  -29.9906  -13.4029 H   0  0  0  0  0
    4.3196  -29.2566  -12.3995 H   0  0  0  0  0
    5.5330  -31.3132  -12.1920 H   0  0  0  0  0
    4.4840  -32.0967  -13.4538 H   0  0  0  0  0
    2.5994  -31.9686  -11.9390 H   0  0  0  0  0
    3.6046  -31.1870  -10.7157 H   0  0  0  0  0
    3.4854  -33.5741  -10.3669 H   0  0  0  0  0
    4.1002  -33.8667  -11.8878 H   0  0  0  0  0
    5.0489  -33.1290  -10.7334 H   0  0  0  0  0
    4.9462  -29.1568  -17.5137 H   0  0  0  0  0
    7.7333  -28.6965  -17.8910 H   0  0  0  0  0
    6.9637  -28.7353  -20.4050 H   0  0  0  0  0
    5.3519  -29.2067  -19.6637 H   0  0  0  0  0
    6.2713  -31.1795  -18.7996 H   0  0  0  0  0
    7.9305  -30.6839  -19.2385 H   0  0  0  0  0
    7.2277  -32.2476  -20.8764 H   0  0  0  0  0
    7.0986  -30.5834  -21.6413 H   0  0  0  0  0
    4.8189  -30.8432  -21.7899 H   0  0  0  0  0
    4.7318  -34.5246  -20.1223 H   0  0  0  0  0
    6.2199  -33.5782  -20.0179 H   0  0  0  0  0
    2.9685  -32.0845  -21.9315 H   0  0  0  0  0
    5.1775  -26.4308  -17.7371 H   0  0  0  0  0
    6.4008  -24.5774  -19.6421 H   0  0  0  0  0
    4.6316  -23.0302  -18.8340 H   0  0  0  0  0
    4.2058  -24.2541  -17.5496 H   0  0  0  0  0
    3.5635  -25.8086  -19.2477 H   0  0  0  0  0
    1.8473  -24.3243  -18.3647 H   0  0  0  0  0
    2.2319  -23.1049  -19.6041 H   0  0  0  0  0
    1.5291  -24.6696  -20.0824 H   0  0  0  0  0
    4.1704  -23.6452  -21.2939 H   0  0  0  0  0
    5.0289  -25.1918  -21.0891 H   0  0  0  0  0
    3.3330  -25.1799  -21.6323 H   0  0  0  0  0
    7.2449  -25.3874  -16.4765 H   0  0  0  0  0
    8.7105  -22.8001  -16.2769 H   0  0  0  0  0
    8.4495  -22.6694  -13.9105 H   0  0  0  0  0
    6.7529  -21.6079  -15.2610 H   0  0  0  0  0
    5.7905  -23.1062  -15.2611 H   0  0  0  0  0
    6.0608  -22.2217  -13.7394 H   0  0  0  0  0
    6.7934  -25.2086  -14.0966 H   0  0  0  0  0
    8.4073  -25.0489  -13.3613 H   0  0  0  0  0
    7.0120  -24.2130  -12.6364 H   0  0  0  0  0
   10.6749  -23.0348  -14.9110 H   0  0  0  0  0
   11.7971  -25.7919  -14.9695 H   0  0  0  0  0
   13.9476  -24.7668  -14.5839 H   0  0  0  0  0
   14.0215  -22.4425  -14.2925 H   0  0  0  0  0
   13.1165  -24.7118  -16.8951 H   0  0  0  0  0
   12.3515  -23.1333  -16.5885 H   0  0  0  0  0
   14.1250  -23.2871  -16.5431 H   0  0  0  0  0
   13.0633  -26.4745  -13.0356 H   0  0  0  0  0
   11.4965  -25.7849  -10.6040 H   0  0  0  0  0
   11.7073  -28.1803  -11.1643 H   0  0  0  0  0
   13.4826  -28.0458  -11.1278 H   0  0  0  0  0
   12.5427  -27.8340   -9.6302 H   0  0  0  0  0
   12.4465  -25.0652   -8.8966 H   0  0  0  0  0
  1  2  1  0  0  0
  2  3  1  0  0  0
  2  5  1  0  0  0
  3  4  2  0  0  0
  3  6  1  0  0  0
  6  7  1  0  0  0
  7  8  1  0  0  0
  7 10  1  0  0  0
  8  9  2  0  0  0
  8 20  1  0  0  0
 10 11  1  0  0  0
 11 12  4  0  0  0
 11 13  4  0  0  0
 12 14  4  0  0  0
 13 15  4  0  0  0
 13 16  4  0  0  0
 14 15  4  0  0  0
 15 17  4  0  0  0
 16 18  4  0  0  0
 17 19  4  0  0  0
 18 19  4  0  0  0
 20 21  1  0  0  0
 21 22  1  0  0  0
 21 24  1  0  0  0
 22 23  2  0  0  0
 22 25  1  0  0  0
 25 26  1  0  0  0
 26 27  1  0  0  0
 26 29  1  0  0  0
 27 28  2  0  0  0
 27 31  1  0  0  0
 29 30  1  0  0  0
 31 32  1  0  0  0
 32 33  1  0  0  0
 32 35  1  0  0  0
 33 34  2  0  0  0
 33 39  1  0  0  0
 35 36  1  0  0  0
 36 37  1  0  0  0
 36 38  1  0  0  0
 39 40  1  0  0  0
 40 41  1  0  0  0
 40 43  1  0  0  0
 41 42  2  0  0  0
 41 48  1  0  0  0
 43 44  1  0  0  0
 44 45  1  0  0  0
 45 46  1  0  0  0
 46 47  1  0  0  0
 48 49  1  0  0  0
 49 50  1  0  0  0
 49 52  1  0  0  0
 50 51  2  0  0  0
 50 59  1  0  0  0
 52 53  1  0  0  0
 53 54  1  0  0  0
 54 55  1  0  0  0
 55 56  1  0  0  0
 56 57  1  0  0  0
 56 58  2  0  0  0
 59 60  1  0  0  0
 60 61  1  0  0  0
 60 63  1  0  0  0
 61 62  2  0  0  0
 61 67  1  0  0  0
 63 64  1  0  0  0
 64 65  1  0  0  0
 64 66  1  0  0  0
 67 68  1  0  0  0
 68 69  1  0  0  0
 68 71  1  0  0  0
 69 70  2  0  0  0
 69 74  1  0  0  0
 71 72  1  0  0  0
 71 73  1  0  0  0
 74 75  1  0  0  0
 75 76  1  0  0  0
 75 78  1  0  0  0
 76 77  2  0  0  0
 76 81  1  0  0  0
 78 79  1  0  0  0
 78 80  1  0  0  0
 81 82  1  0  0  0
 82 83  1  0  0  0
 82 85  1  0  0  0
 83 84  2  0  0  0
 83 86  1  0  0  0
  1 87  1  0  0  0
  1 88  1  0  0  0
  1 89  1  0  0  0
  2 90  1  0  0  0
  5 91  1  0  0  0
  5 92  1  0  0  0
  5 93  1  0  0  0
  6 94  1  0  0  0
  7 95  1  0  0  0
 10 96  1  0  0  0
 10 97  1  0  0  0
 12 98  1  0  0  0
 16 99  1  0  0  0
 17100  1  0  0  0
 18101  1  0  0  0
 19102  1  0  0  0
 20103  1  0  0  0
 21104  1  0  0  0
 24105  1  0  0  0
 24106  1  0  0  0
 24107  1  0  0  0
 25108  1  0  0  0
 26109  1  0  0  0
 29110  1  0  0  0
 29111  1  0  0  0
 30112  1  0  0  0
 31113  1  0  0  0
 32114  1  0  0  0
 35115  1  0  0  0
 35116  1  0  0  0
 36117  1  0  0  0
 37118  1  0  0  0
 37119  1  0  0  0
 37120  1  0  0  0
 38121  1  0  0  0
 38122  1  0  0  0
 38123  1  0  0  0
 39124  1  0  0  0
 40125  1  0  0  0
 43126  1  0  0  0
 43127  1  0  0  0
 44128  1  0  0  0
 44129  1  0  0  0
 45130  1  0  0  0
 45131  1  0  0  0
 46132  1  0  0  0
 46133  1  0  0  0
 47134  1  0  0  0
 47135  1  0  0  0
 47136  1  0  0  0
 48137  1  0  0  0
 49138  1  0  0  0
 52139  1  0  0  0
 52140  1  0  0  0
 53141  1  0  0  0
 53142  1  0  0  0
 54143  1  0  0  0
 54144  1  0  0  0
 55145  1  0  0  0
 57146  1  0  0  0
 57147  1  0  0  0
 58148  1  0  0  0
 59149  1  0  0  0
 60150  1  0  0  0
 63151  1  0  0  0
 63152  1  0  0  0
 64153  1  0  0  0
 65154  1  0  0  0
 65155  1  0  0  0
 65156  1  0  0  0
 66157  1  0  0  0
 66158  1  0  0  0
 66159  1  0  0  0
 67160  1  0  0  0
 68161  1  0  0  0
 71162  1  0  0  0
 72163  1  0  0  0
 72164  1  0  0  0
 72165  1  0  0  0
 73166  1  0  0  0
 73167  1  0  0  0
 73168  1  0  0  0
 74169  1  0  0  0
 75170  1  0  0  0
 78171  1  0  0  0
 79172  1  0  0  0
 80173  1  0  0  0
 80174  1  0  0  0
 80175  1  0  0  0
 81176  1  0  0  0
 82177  1  0  0  0
 85178  1  0  0  0
 85179  1  0  0  0
 85180  1  0  0  0
 86181  1  0  0  0
M  END
$$$$
