### 
### Created by X-TOOL on Mon Sep 10 21:13:31 2018
### 

@<TRIPOS>MOLECULE
5nin_ligand
  182   183     1     0     0
SMALL
GAST_HUCK


@<TRIPOS>ATOM
      1 N          -1.5280  -35.8230  -14.8960 N.4       1 ALA         0.2377
      2 CA         -2.5050  -34.8210  -15.3080 C.3       1 ALA         0.0621
      3 C          -1.8960  -33.4100  -15.3620 C.2       1 ALA         0.2265
      4 O          -2.3290  -32.5740  -16.1320 O.2       1 ALA        -0.3907
      5 CB         -3.7050  -34.8460  -14.3670 C.3       1 ALA        -0.0040
      6 N          -0.8650  -33.1610  -14.5650 N.am      1 TRP        -0.2600
      7 CA         -0.2540  -31.8410  -14.5060 C.3       1 TRP         0.1353
      8 C           1.0540  -31.7450  -15.2740 C.2       1 TRP         0.2052
      9 O           1.6990  -30.6950  -15.2430 O.2       1 TRP        -0.3942
     10 CB         -0.0530  -31.4670  -13.0450 C.3       1 TRP         0.0042
     11 CG         -1.2970  -30.9320  -12.4550 C.2       1 TRP        -0.0418
     12 CD1        -2.4000  -31.6460  -12.0390 C.2       1 TRP         0.0167
     13 CD2        -1.5970  -29.5680  -12.2300 C.ar      1 TRP        -0.0214
     14 NE1        -3.3520  -30.7920  -11.5540 N.pl3     1 TRP        -0.2890
     15 CE2        -2.8810  -29.5090  -11.6510 C.ar      1 TRP         0.0603
     16 CE3        -0.8840  -28.3790  -12.4130 C.ar      1 TRP        -0.0747
     17 CZ2        -3.4750  -28.3130  -11.2880 C.ar      1 TRP        -0.0443
     18 CZ3        -1.4800  -27.1920  -12.0460 C.ar      1 TRP        -0.0792
     19 CH2        -2.7570  -27.1640  -11.4960 C.ar      1 TRP        -0.0768
     20 N           1.4430  -32.7970  -15.9940 N.am      1 ALA        -0.2639
     21 CA          2.7600  -32.8100  -16.6150 C.3       1 ALA         0.1282
     22 C           2.9040  -31.6980  -17.6430 C.2       1 ALA         0.2037
     23 O           3.9640  -31.0710  -17.7520 O.2       1 ALA        -0.3944
     24 CB          3.0180  -34.1730  -17.2650 C.3       1 ALA        -0.0244
     25 N           1.8530  -31.4320  -18.4070 N.am      1 SER        -0.2616
     26 CA          1.9760  -30.4190  -19.4410 C.3       1 SER         0.1539
     27 C           2.0320  -29.0070  -18.8630 C.2       1 SER         0.2062
     28 O           2.6070  -28.1240  -19.4990 O.2       1 SER        -0.3943
     29 CB          0.8330  -30.5560  -20.4550 C.3       1 SER         0.0843
     30 OG         -0.3780  -30.2040  -19.8820 O.3       1 SER        -0.3903
     31 N           1.4710  -28.7580  -17.6640 N.am      1 LEU        -0.2636
     32 CA          1.6790  -27.4530  -17.0520 C.3       1 LEU         0.1312
     33 C           3.0340  -27.3630  -16.3580 C.2       1 LEU         0.2039
     34 O           3.7060  -26.3180  -16.4160 O.2       1 LEU        -0.3944
     35 CB          0.5410  -27.1320  -16.0820 C.3       1 LEU        -0.0101
     36 CG         -0.8450  -27.0930  -16.7310 C.3       1 LEU        -0.0425
     37 CD1        -1.8540  -26.6390  -15.7140 C.3       1 LEU        -0.0625
     38 CD2        -0.8750  -26.1410  -17.9200 C.3       1 LEU        -0.0625
     39 N           3.4820  -28.4550  -15.7480 N.am      1 LYS        -0.2637
     40 CA          4.7690  -28.4420  -15.0580 C.3       1 LYS         0.1310
     41 C           5.9010  -28.1470  -16.0240 C.2       1 LYS         0.2039
     42 O           6.8720  -27.4790  -15.6540 O.2       1 LYS        -0.3944
     43 CB          4.9980  -29.7840  -14.3670 C.3       1 LYS        -0.0122
     44 CG          4.1510  -30.0270  -13.1520 C.3       1 LYS        -0.0440
     45 CD          4.5350  -31.3930  -12.6230 C.3       1 LYS        -0.0124
     46 CE          3.6150  -31.8860  -11.5520 C.3       1 LYS        -0.0354
     47 NZ          4.1010  -33.2200  -11.0990 N.4       1 LYS         0.2185
     48 N           5.7770  -28.6150  -17.2760 N.am      1 ARG        -0.2637
     49 CA          6.7780  -28.3830  -18.3120 C.3       1 ARG         0.1311
     50 C           6.8940  -26.9170  -18.7050 C.2       1 ARG         0.2039
     51 O           7.8230  -26.5560  -19.4280 O.2       1 ARG        -0.3944
     52 CB          6.4380  -29.2020  -19.5720 C.3       1 ARG        -0.0092
     53 CG          6.8800  -30.6410  -19.5260 C.3       1 ARG        -0.0156
     54 CD          6.7080  -31.2900  -20.9090 C.3       1 ARG         0.0627
     55 NE          5.3260  -31.5700  -21.2850 N.pl3     1 ARG        -0.2723
     56 CZ          4.6800  -32.6950  -21.0210 C.cat     1 ARG         0.2882
     57 NH1         5.2550  -33.6750  -20.3340 N.pl3     1 ARG        -0.2849
     58 NH2         3.4300  -32.8380  -21.4220 N.pl3     1 ARG        -0.2849
     59 N           5.9520  -26.0760  -18.2980 N.am      1 LEU        -0.2637
     60 CA          5.9960  -24.6540  -18.6330 C.3       1 LEU         0.1312
     61 C           6.9330  -23.8360  -17.7490 C.2       1 LEU         0.2039
     62 O           7.1830  -22.6670  -18.0710 O.2       1 LEU        -0.3944
     63 CB          4.5750  -24.0840  -18.5610 C.3       1 LEU        -0.0101
     64 CG          3.5960  -24.7550  -19.5250 C.3       1 LEU        -0.0425
     65 CD1         2.2020  -24.1720  -19.3840 C.3       1 LEU        -0.0625
     66 CD2         4.0670  -24.6880  -20.9940 C.3       1 LEU        -0.0625
     67 N           7.4810  -24.4160  -16.6790 N.am      1 VAL        -0.2635
     68 CA          8.4000  -23.7240  -15.7890 C.3       1 VAL         0.1333
     69 C           9.5940  -24.6360  -15.5290 C.2       1 VAL         0.2042
     70 O           9.5590  -25.8340  -15.7940 O.2       1 VAL        -0.3944
     71 CB          7.7490  -23.3060  -14.4510 C.3       1 VAL        -0.0063
     72 CG1         6.5020  -22.5050  -14.6950 C.3       1 VAL        -0.0584
     73 CG2         7.4700  -24.5340  -13.5720 C.3       1 VAL        -0.0584
     74 N          10.6570  -24.0520  -14.9850 N.am      1 THR        -0.2613
     75 CA         11.7990  -24.8130  -14.4900 C.3       1 THR         0.1564
     76 C          11.6850  -24.9790  -12.9770 C.2       1 THR         0.2059
     77 O          10.9230  -24.2770  -12.3080 O.2       1 THR        -0.3943
     78 CB         13.1160  -24.1080  -14.8340 C.3       1 THR         0.0924
     79 OG1        13.1990  -22.8910  -14.0830 O.3       1 THR        -0.3874
     80 CG2        13.1820  -23.7870  -16.3220 C.3       1 THR        -0.0346
     81 N          12.4550  -25.9170  -12.4360 N.am      1 ARG        -0.2697
     82 CA         12.4440  -26.1640  -10.9870 C.3       1 ARG         0.0916
     83 C          13.5680  -25.4130  -10.2560 C.2       1 ARG         0.0598
     84 O          14.6840  -25.3180  -10.7690 O.co2     1 ARG        -0.5666
     85 CB         12.5520  -27.6650  -10.7070 C.3       1 ARG        -0.0300
     86 OXT        13.3570  -24.9030   -9.1540 O.co2     1 ARG        -0.5666
     87 H1         -1.9664  -36.7304  -14.8737 H         1 ALA         0.2015
     88 H2         -1.1800  -35.5953  -13.9778 H         1 ALA         0.2015
     89 H3         -0.7627  -35.8357  -15.5519 H         1 ALA         0.2015
     90 H4         -2.8522  -35.0794  -16.3193 H         1 ALA         0.1095
     91 H5         -4.4360  -34.0880  -14.6848 H         1 ALA         0.0310
     92 H6         -3.3718  -34.6268  -13.3419 H         1 ALA         0.0310
     93 H7         -4.1728  -35.8412  -14.3956 H         1 ALA         0.0310
     94 H8         -0.5000  -33.8954  -13.9928 H         1 TRP         0.1886
     95 H9         -0.9550  -31.1227  -14.9561 H         1 TRP         0.0815
     96 H10         0.7349  -30.7026  -12.9753 H         1 TRP         0.0397
     97 H11         0.2540  -32.3622  -12.4843 H         1 TRP         0.0397
     98 H12        -2.4989  -32.7293  -12.0890 H         1 TRP         0.0795
     99 H13        -4.2705  -31.0676  -11.1782 H         1 TRP         0.2216
    100 H14         0.1148  -28.3908  -12.8340 H         1 TRP         0.0540
    101 H15        -4.4689  -28.2858  -10.8562 H         1 TRP         0.0541
    102 H16        -0.9427  -26.2614  -12.1889 H         1 TRP         0.0510
    103 H17        -3.1953  -26.2103  -11.2252 H         1 TRP         0.0530
    104 H18         0.8295  -33.5785  -16.1079 H         1 ALA         0.1883
    105 H19         3.5130  -32.6503  -15.8292 H         1 ALA         0.0797
    106 H20         4.0142  -34.1741  -17.7314 H         1 ALA         0.0277
    107 H21         2.2536  -34.3637  -18.0327 H         1 ALA         0.0277
    108 H22         2.9715  -34.9598  -16.4977 H         1 ALA         0.0277
    109 H23         0.9906  -31.9204  -18.2736 H         1 SER         0.1884
    110 H24         2.9226  -30.5969  -19.9723 H         1 SER         0.0823
    111 H25         0.7793  -31.5994  -20.7991 H         1 SER         0.0606
    112 H26         1.0311  -29.8967  -21.3129 H         1 SER         0.0606
    113 H27        -0.5544  -30.7733  -19.1422 H         1 SER         0.2097
    114 H28         0.9224  -29.4556  -17.2031 H         1 LEU         0.1883
    115 H29         1.6637  -26.6995  -17.8532 H         1 LEU         0.0800
    116 H30         0.7388  -26.1481  -15.6318 H         1 LEU         0.0315
    117 H31         0.5317  -27.9003  -15.2948 H         1 LEU         0.0315
    118 H32        -1.1051  -28.1043  -17.0769 H         1 LEU         0.0298
    119 H33        -2.8520  -26.6093  -16.1756 H         1 LEU         0.0232
    120 H34        -1.5861  -25.6344  -15.3548 H         1 LEU         0.0232
    121 H35        -1.8625  -27.3410  -14.8672 H         1 LEU         0.0232
    122 H36        -0.1386  -26.4669  -18.6693 H         1 LEU         0.0232
    123 H37        -0.6282  -25.1238  -17.5817 H         1 LEU         0.0232
    124 H38        -1.8798  -26.1449  -18.3676 H         1 LEU         0.0232
    125 H39         2.9342  -29.2915  -15.7615 H         1 LYS         0.1883
    126 H40         4.7485  -27.6510  -14.2938 H         1 LYS         0.0800
    127 H41         6.0537  -29.8346  -14.0621 H         1 LYS         0.0312
    128 H42         4.7876  -30.5821  -15.0942 H         1 LYS         0.0312
    129 H43         3.0850  -30.0109  -13.4230 H         1 LYS         0.0269
    130 H44         4.3478  -29.2566  -12.3919 H         1 LYS         0.0269
    131 H45         5.5533  -31.3355  -12.2109 H         1 LYS         0.0317
    132 H46         4.5170  -32.1096  -13.4574 H         1 LYS         0.0317
    133 H47         2.5940  -31.9774  -11.9510 H         1 LYS         0.0813
    134 H48         3.6166  -31.1823  -10.7066 H         1 LYS         0.0813
    135 H49         3.4933  -33.5710  -10.3754 H         1 LYS         0.1994
    136 H50         5.0377  -33.1313  -10.7374 H         1 LYS         0.1994
    137 H51         4.1006  -33.8600  -11.8778 H         1 LYS         0.1994
    138 H52         4.9624  -29.1462  -17.5090 H         1 ARG         0.1883
    139 H53         7.7522  -28.7152  -17.9240 H         1 ARG         0.0800
    140 H54         6.9239  -28.7218  -20.4341 H         1 ARG         0.0313
    141 H55         5.3467  -29.1831  -19.7087 H         1 ARG         0.0313
    142 H56         6.2704  -31.1857  -18.7900 H         1 ARG         0.0301
    143 H57         7.9388  -30.6873  -19.2314 H         1 ARG         0.0301
    144 H58         7.2630  -32.2397  -20.9130 H         1 ARG         0.0689
    145 H59         7.1367  -30.6116  -21.6613 H         1 ARG         0.0689
    146 H60         4.8139  -30.8360  -21.7949 H         1 ARG         0.2642
    147 H61         4.7342  -34.5421  -20.1397 H         1 ARG         0.2615
    148 H62         6.2219  -33.5681  -19.9954 H         1 ARG         0.2615
    149 H63         2.9712  -32.0860  -21.9558 H         1 ARG         0.2615
    150 H64         2.9138  -33.7015  -21.2010 H         1 ARG         0.2615
    151 H65         5.1926  -26.4239  -17.7481 H         1 LEU         0.1883
    152 H66         6.3563  -24.5648  -19.6685 H         1 LEU         0.0800
    153 H67         4.6182  -23.0112  -18.8003 H         1 LEU         0.0315
    154 H68         4.1989  -24.2162  -17.5358 H         1 LEU         0.0315
    155 H69         3.5421  -25.8178  -19.2467 H         1 LEU         0.0298
    156 H70         1.5219  -24.6734  -20.0884 H         1 LEU         0.0232
    157 H71         2.2308  -23.0950  -19.6059 H         1 LEU         0.0232
    158 H72         1.8428  -24.3251  -18.3556 H         1 LEU         0.0232
    159 H73         5.0777  -25.1147  -21.0748 H         1 LEU         0.0232
    160 H74         4.0840  -23.6395  -21.3262 H         1 LEU         0.0232
    161 H75         3.3749  -25.2622  -21.6275 H         1 LEU         0.0232
    162 H76         7.2495  -25.3684  -16.4805 H         1 VAL         0.1883
    163 H77         8.7509  -22.8125  -16.2950 H         1 VAL         0.0802
    164 H78         8.4616  -22.6633  -13.9133 H         1 VAL         0.0343
    165 H79         6.0558  -22.2185  -13.7312 H         1 VAL         0.0234
    166 H80         5.7831  -23.1106  -15.2663 H         1 VAL         0.0234
    167 H81         6.7539  -21.5992  -15.2661 H         1 VAL         0.0234
    168 H82         8.4043  -25.0933  -13.4163 H         1 VAL         0.0234
    169 H83         6.7336  -25.1818  -14.0700 H         1 VAL         0.0234
    170 H84         7.0724  -24.2065  -12.6001 H         1 VAL         0.0234
    171 H85        10.6745  -23.0548  -14.9124 H         1 THR         0.1884
    172 H86        11.7950  -25.8066  -14.9619 H         1 THR         0.0826
    173 H87        13.9587  -24.7630  -14.5679 H         1 THR         0.0639
    174 H88        14.0130  -22.4472  -14.2903 H         1 THR         0.2101
    175 H89        14.1333  -23.2824  -16.5464 H         1 THR         0.0257
    176 H90        12.3444  -23.1272  -16.5923 H         1 THR         0.0257
    177 H91        13.1160  -24.7196  -16.9016 H         1 THR         0.0257
    178 H92        13.0514  -26.4635  -13.0239 H         1 ARG         0.1875
    179 H93        11.4829  -25.8052  -10.5902 H         1 ARG         0.0723
    180 H94        12.5427  -27.8369   -9.6206 H         1 ARG         0.0270
    181 H95        13.4908  -28.0505  -11.1312 H         1 ARG         0.0270
    182 H96        11.7000  -28.1862  -11.1679 H         1 ARG         0.0270
@<TRIPOS>BOND
     1    1    2 1  
     2    2    3 1  
     3    2    5 1  
     4    3    4 2  
     5    3    6 am 
     6    6    7 1  
     7    7    8 1  
     8    7   10 1  
     9    8    9 2  
    10    8   20 am 
    11   10   11 1  
    12   11   12 2  
    13   11   13 1  
    14   12   14 1  
    15   13   15 ar 
    16   13   16 ar 
    17   14   15 1  
    18   15   17 ar 
    19   16   18 ar 
    20   17   19 ar 
    21   18   19 ar 
    22   20   21 1  
    23   21   22 1  
    24   21   24 1  
    25   22   23 2  
    26   22   25 am 
    27   25   26 1  
    28   26   27 1  
    29   26   29 1  
    30   27   28 2  
    31   27   31 am 
    32   29   30 1  
    33   31   32 1  
    34   32   33 1  
    35   32   35 1  
    36   33   34 2  
    37   33   39 am 
    38   35   36 1  
    39   36   37 1  
    40   36   38 1  
    41   39   40 1  
    42   40   41 1  
    43   40   43 1  
    44   41   42 2  
    45   41   48 am 
    46   43   44 1  
    47   44   45 1  
    48   45   46 1  
    49   46   47 1  
    50   48   49 1  
    51   49   50 1  
    52   49   52 1  
    53   50   51 2  
    54   50   59 am 
    55   52   53 1  
    56   53   54 1  
    57   54   55 1  
    58   55   56 ar 
    59   56   57 ar 
    60   56   58 ar 
    61   59   60 1  
    62   60   61 1  
    63   60   63 1  
    64   61   62 2  
    65   61   67 am 
    66   63   64 1  
    67   64   65 1  
    68   64   66 1  
    69   67   68 1  
    70   68   69 1  
    71   68   71 1  
    72   69   70 2  
    73   69   74 am 
    74   71   72 1  
    75   71   73 1  
    76   74   75 1  
    77   75   76 1  
    78   75   78 1  
    79   76   77 2  
    80   76   81 am 
    81   78   79 1  
    82   78   80 1  
    83   81   82 1  
    84   82   83 1  
    85   82   85 1  
    86   83   84 ar 
    87   83   86 ar 
    88    1   87 1  
    89    1   88 1  
    90    1   89 1  
    91    2   90 1  
    92    5   91 1  
    93    5   92 1  
    94    5   93 1  
    95    6   94 1  
    96    7   95 1  
    97   10   96 1  
    98   10   97 1  
    99   12   98 1  
   100   14   99 1  
   101   16  100 1  
   102   17  101 1  
   103   18  102 1  
   104   19  103 1  
   105   20  104 1  
   106   21  105 1  
   107   24  106 1  
   108   24  107 1  
   109   24  108 1  
   110   25  109 1  
   111   26  110 1  
   112   29  111 1  
   113   29  112 1  
   114   30  113 1  
   115   31  114 1  
   116   32  115 1  
   117   35  116 1  
   118   35  117 1  
   119   36  118 1  
   120   37  119 1  
   121   37  120 1  
   122   37  121 1  
   123   38  122 1  
   124   38  123 1  
   125   38  124 1  
   126   39  125 1  
   127   40  126 1  
   128   43  127 1  
   129   43  128 1  
   130   44  129 1  
   131   44  130 1  
   132   45  131 1  
   133   45  132 1  
   134   46  133 1  
   135   46  134 1  
   136   47  135 1  
   137   47  136 1  
   138   47  137 1  
   139   48  138 1  
   140   49  139 1  
   141   52  140 1  
   142   52  141 1  
   143   53  142 1  
   144   53  143 1  
   145   54  144 1  
   146   54  145 1  
   147   55  146 1  
   148   57  147 1  
   149   57  148 1  
   150   58  149 1  
   151   58  150 1  
   152   59  151 1  
   153   60  152 1  
   154   63  153 1  
   155   63  154 1  
   156   64  155 1  
   157   65  156 1  
   158   65  157 1  
   159   65  158 1  
   160   66  159 1  
   161   66  160 1  
   162   66  161 1  
   163   67  162 1  
   164   68  163 1  
   165   71  164 1  
   166   72  165 1  
   167   72  166 1  
   168   72  167 1  
   169   73  168 1  
   170   73  169 1  
   171   73  170 1  
   172   74  171 1  
   173   75  172 1  
   174   78  173 1  
   175   79  174 1  
   176   80  175 1  
   177   80  176 1  
   178   80  177 1  
   179   81  178 1  
   180   82  179 1  
   181   85  180 1  
   182   85  181 1  
   183   85  182 1  
@<TRIPOS>SUBSTRUCTURE
     1 ALA         1

