3og7_ligand
  -I-interpret- 

 50 53  0  0  0  0  0  0  0  0999 V2000
    9.4540   -4.1760  -21.7350 C   0  0  0  0  0
    1.9340   -1.2310  -18.3570 C   0  0  0  0  0
    1.5160   -2.3160  -20.5970 C   0  0  0  0  0
   -0.8450   -3.0530  -20.4180 C   0  0  0  0  0
   -2.2070   -2.7780  -20.3740 C   0  0  0  0  0
   -2.6580   -1.4610  -20.4690 C   0  0  0  0  0
   -0.3870   -0.7200  -20.6490 C   0  0  0  0  0
    6.1300   -2.5620  -19.5770 C   0  0  0  0  0
    6.3090   -1.9530  -18.3330 C   0  0  0  0  0
    5.3540   -1.3930  -17.5580 N   0  0  0  0  0
    4.8250   -2.6070  -20.0890 C   0  0  0  0  0
    2.9990   -0.9880  -17.5350 N   0  0  0  0  0
    2.3650   -1.8860  -19.4910 C   0  0  0  0  0
    3.7810   -2.0440  -19.3350 C   0  0  0  0  0
    4.1330   -1.4740  -18.1140 C   0  0  0  0  0
    7.2690   -3.1240  -20.3170 C   0  0  0  0  0
    0.0730   -2.0290  -20.5490 C   0  0  0  0  0
   -1.7420   -0.4200  -20.6080 C   0  0  0  0  0
    0.4770    0.2870  -20.7820 F   0  0  0  0  0
   -0.4260   -4.3170  -20.3250 F   0  0  0  0  0
   -3.1160   -3.8770  -20.2300 N   0  0  0  0  0
   -4.8030   -3.5710  -20.1630 S   0  0  0  0  0
   -5.5100   -4.8280  -20.0310 O   0  0  0  0  0
   -5.2060   -2.5980  -21.1570 O   0  0  0  0  0
   -4.9970   -2.7740  -18.5710 C   0  0  0  0  0
   -5.0160   -3.7200  -17.3780 C   0  0  0  0  0
   -4.2770   -3.0960  -16.2050 C   0  0  0  0  0
    7.1460   -4.3190  -21.0470 C   0  0  0  0  0
    8.2320   -4.8460  -21.7510 C   0  0  0  0  0
    9.6030   -2.9860  -21.0240 C   0  0  0  0  0
    8.5140   -2.4650  -20.3230 C   0  0  0  0  0
   10.7950   -4.8200  -22.6010 Cl  0  0  0  0  0
    1.9420   -2.8980  -21.5920 O   0  0  0  0  0
    0.9019   -0.9499  -18.1478 H   0  0  0  0  0
   -3.7261   -1.2465  -20.4345 H   0  0  0  0  0
    7.3276   -1.9266  -17.9459 H   0  0  0  0  0
    4.6240   -3.0705  -21.0548 H   0  0  0  0  0
   -2.0836    0.6124  -20.6833 H   0  0  0  0  0
   -2.7632   -4.8320  -20.1679 H   0  0  0  0  0
   -5.9621   -2.2676  -18.5873 H   0  0  0  0  0
   -4.1364   -2.1181  -18.4397 H   0  0  0  0  0
   -4.5259   -4.6537  -17.6539 H   0  0  0  0  0
   -6.0495   -3.9109  -17.0891 H   0  0  0  0  0
   -3.2435   -2.9004  -16.4909 H   0  0  0  0  0
   -4.7621   -2.1600  -15.9280 H   0  0  0  0  0
   -4.2974   -3.7818  -15.3580 H   0  0  0  0  0
    6.1898   -4.8420  -21.0642 H   0  0  0  0  0
    8.1240   -5.7758  -22.3095 H   0  0  0  0  0
   10.5615   -2.4670  -21.0156 H   0  0  0  0  0
    8.6290   -1.5323  -19.7708 H   0  0  0  0  0
 29  1  4  0  0  0
  1 30  4  0  0  0
  1 32  1  0  0  0
 12  2  4  0  0  0
 13  2  4  0  0  0
 13  3  1  0  0  0
  3 17  1  0  0  0
  3 33  2  0  0  0
  4  5  4  0  0  0
 17  4  4  0  0  0
  4 20  1  0  0  0
  5  6  4  0  0  0
  5 21  1  0  0  0
 18  6  4  0  0  0
 17  7  4  0  0  0
  7 18  4  0  0  0
  7 19  1  0  0  0
  8  9  4  0  0  0
  8 11  4  0  0  0
 16  8  1  0  0  0
  9 10  4  0  0  0
 10 15  4  0  0  0
 11 14  4  0  0  0
 15 12  4  0  0  0
 14 13  4  0  0  0
 14 15  4  0  0  0
 28 16  4  0  0  0
 16 31  4  0  0  0
 21 22  1  0  0  0
 22 23  2  0  0  0
 22 24  2  0  0  0
 22 25  1  0  0  0
 25 26  1  0  0  0
 26 27  1  0  0  0
 28 29  4  0  0  0
 30 31  4  0  0  0
  2 34  1  0  0  0
  6 35  1  0  0  0
  9 36  1  0  0  0
 11 37  1  0  0  0
 18 38  1  0  0  0
 21 39  1  0  0  0
 25 40  1  0  0  0
 25 41  1  0  0  0
 26 42  1  0  0  0
 26 43  1  0  0  0
 27 44  1  0  0  0
 27 45  1  0  0  0
 27 46  1  0  0  0
 28 47  1  0  0  0
 29 48  1  0  0  0
 30 49  1  0  0  0
 31 50  1  0  0  0
M  END
$$$$
