5ayy_ligand
  -I-interpret- 

 17 17  0  0  0  0  0  0  0  0999 V2000
  109.2750   43.5000   13.4170 N   0  0  0  0  0
  108.4720   42.4800   13.0940 C   0  0  0  0  0
  108.8040   41.7220   11.8710 C   0  0  0  0  0
  109.9160   42.0860   11.1130 C   0  0  0  0  0
  110.6940   43.1550   11.4990 C   0  0  0  0  0
  110.3460   43.8400   12.6560 C   0  0  0  0  0
  107.3050   42.1570   13.9530 C   0  0  0  0  0
  107.4910   41.5430   15.0200 O   0  0  0  0  0
  106.1870   42.5140   13.5550 O   0  0  0  0  0
  107.9940   40.5500   11.4240 C   0  0  0  0  0
  107.5290   39.7630   12.2660 O   0  0  0  0  0
  107.8410   40.3470   10.2050 O   0  0  0  0  0
  110.1699   41.5241   10.2141 H   0  0  0  0  0
  111.5612   43.4559   10.9111 H   0  0  0  0  0
  110.9589   44.6864   12.9659 H   0  0  0  0  0
  108.4288   41.3686   15.1282 H   0  0  0  0  0
  108.2635   41.0520    9.7088 H   0  0  0  0  0
  1  2  4  0  0  0
  1  6  4  0  0  0
  2  3  4  0  0  0
  2  7  1  0  0  0
  3  4  4  0  0  0
  3 10  1  0  0  0
  4  5  4  0  0  0
  5  6  4  0  0  0
  7  8  1  0  0  0
  7  9  2  0  0  0
 10 11  2  0  0  0
 10 12  1  0  0  0
  4 13  1  0  0  0
  5 14  1  0  0  0
  6 15  1  0  0  0
  8 16  1  0  0  0
 12 17  1  0  0  0
M  END
$$$$
