1sln_ligand
  -I-interpret- 

 70 71  0  0  0  0  0  0  0  0999 V2000
  -20.8810   92.7570   80.0450 C   0  0  0  0  0
  -20.6740   91.7610   81.2030 C   0  0  0  0  0
  -21.4490   92.1930   82.4460 C   0  0  0  0  0
  -22.5710   92.6880   82.2780 O   0  0  0  0  0
  -20.9680   92.0520   83.6000 O   0  0  0  0  0
  -19.2180   91.5520   81.4010 N   0  3  0  0  0
  -18.4830   92.7610   81.7960 C   0  0  0  0  0
  -17.6010   92.4470   83.0160 C   0  0  0  0  0
  -16.6970   93.5990   83.4310 C   0  0  0  0  0
  -15.9460   93.4590   84.7170 C   0  0  0  0  0
  -16.1080   94.3990   85.7320 C   0  0  0  0  0
  -15.4040   94.2980   86.9130 C   0  0  0  0  0
  -14.5200   93.2530   87.1000 C   0  0  0  0  0
  -14.3430   92.3040   86.0990 C   0  0  0  0  0
  -15.0570   92.4120   84.9130 C   0  0  0  0  0
  -17.6120   93.1920   80.6250 C   0  0  0  0  0
  -17.0520   92.3480   79.9240 O   0  0  0  0  0
  -17.5090   94.4990   80.4140 N   0  0  0  0  0
  -16.6880   95.0260   79.3340 C   0  0  0  0  0
  -17.3250   96.2500   78.7240 C   0  0  0  0  0
  -18.7080   96.0660   78.2300 C   0  0  0  0  0
  -19.1180   97.3930   77.7240 C   0  0  0  0  0
  -20.4800   97.4260   77.2320 N   0  0  0  0  0
  -21.2060   98.5430   77.2000 C   0  0  0  0  0
  -22.4510   98.5220   76.7260 N   0  0  0  0  0
  -20.6810   99.6840   77.6540 N   0  0  0  0  0
  -15.3180   95.4410   79.8410 C   0  0  0  0  0
  -15.1850   95.8800   80.9810 O   0  0  0  0  0
  -14.3380   95.4060   78.9360 N   0  0  0  0  0
  -13.0100   95.7090   79.0520 C   0  0  0  0  0
  -12.1430   95.2530   78.0650 C   0  0  0  0  0
  -10.7660   95.4940   78.1530 C   0  0  0  0  0
  -10.2570   96.1960   79.2290 C   0  0  0  0  0
  -11.1100   96.6600   80.2160 C   0  0  0  0  0
  -12.4840   96.4150   80.1230 C   0  0  0  0  0
  -21.9409   92.8070   79.7955 H   0  0  0  0  0
  -20.5311   93.7435   80.3490 H   0  0  0  0  0
  -20.3169   92.4224   79.1744 H   0  0  0  0  0
  -21.0941   90.7849   80.9602 H   0  0  0  0  0
  -20.0964   91.6547   83.5358 H   0  0  0  0  0
  -18.8341   91.2456   80.5071 H   0  0  0  0  0
  -19.1116   90.8753   82.1568 H   0  0  0  0  0
  -19.1762   93.5599   82.0592 H   0  0  0  0  0
  -16.9579   91.6093   82.7460 H   0  0  0  0  0
  -18.2663   92.2371   83.8535 H   0  0  0  0  0
  -17.3574   94.4552   83.5687 H   0  0  0  0  0
  -15.9365   93.6699   82.6534 H   0  0  0  0  0
  -16.8022   95.2273   85.5903 H   0  0  0  0  0
  -15.5446   95.0413   87.6978 H   0  0  0  0  0
  -13.9611   93.1723   88.0323 H   0  0  0  0  0
  -13.6464   91.4785   86.2449 H   0  0  0  0  0
  -14.9178   91.6676   84.1290 H   0  0  0  0  0
  -18.0145   95.1454   81.0199 H   0  0  0  0  0
  -16.5953   94.2305   78.5946 H   0  0  0  0  0
  -16.7185   96.5184   77.8590 H   0  0  0  0  0
  -17.3732   97.0015   79.5121 H   0  0  0  0  0
  -19.3731   95.7129   79.0181 H   0  0  0  0  0
  -18.7591   95.3051   77.4512 H   0  0  0  0  0
  -18.4617   97.6438   76.8907 H   0  0  0  0  0
  -19.0517   98.0959   78.5545 H   0  0  0  0  0
  -20.9003   96.5593   76.8965 H   0  0  0  0  0
  -22.8524   97.6483   76.3855 H   0  0  0  0  0
  -21.2333  100.5414   77.6382 H   0  0  0  0  0
  -19.7277   99.6981   78.0165 H   0  0  0  0  0
  -14.6270   95.1038   78.0056 H   0  0  0  0  0
  -12.5397   94.7014   77.2127 H   0  0  0  0  0
  -10.0970   95.1284   77.3740 H   0  0  0  0  0
   -9.1857   96.3841   79.3006 H   0  0  0  0  0
  -10.7112   97.2157   81.0647 H   0  0  0  0  0
  -13.1500   96.7841   80.9029 H   0  0  0  0  0
  1  2  1  0  0  0
  2  6  1  0  0  0
  2  3  1  0  0  0
  3  5  1  0  0  0
  3  4  2  0  0  0
  6  7  1  0  0  0
  7 16  1  0  0  0
  7  8  1  0  0  0
  8  9  1  0  0  0
  9 10  1  0  0  0
 10 15  4  0  0  0
 10 11  4  0  0  0
 11 12  4  0  0  0
 12 13  4  0  0  0
 13 14  4  0  0  0
 14 15  4  0  0  0
 16 18  1  0  0  0
 16 17  2  0  0  0
 18 19  1  0  0  0
 19 27  1  0  0  0
 19 20  1  0  0  0
 20 21  1  0  0  0
 21 22  1  0  0  0
 22 23  1  0  0  0
 23 24  1  0  0  0
 24 26  1  0  0  0
 24 25  2  0  0  0
 27 29  1  0  0  0
 27 28  2  0  0  0
 29 30  1  0  0  0
 30 35  4  0  0  0
 30 31  4  0  0  0
 31 32  4  0  0  0
 32 33  4  0  0  0
 33 34  4  0  0  0
 34 35  4  0  0  0
  1 36  1  0  0  0
  1 37  1  0  0  0
  1 38  1  0  0  0
  2 39  1  0  0  0
  5 40  1  0  0  0
  6 41  1  0  0  0
  6 42  1  0  0  0
  7 43  1  0  0  0
  8 44  1  0  0  0
  8 45  1  0  0  0
  9 46  1  0  0  0
  9 47  1  0  0  0
 11 48  1  0  0  0
 12 49  1  0  0  0
 13 50  1  0  0  0
 14 51  1  0  0  0
 15 52  1  0  0  0
 18 53  1  0  0  0
 19 54  1  0  0  0
 20 55  1  0  0  0
 20 56  1  0  0  0
 21 57  1  0  0  0
 21 58  1  0  0  0
 22 59  1  0  0  0
 22 60  1  0  0  0
 23 61  1  0  0  0
 25 62  1  0  0  0
 26 63  1  0  0  0
 26 64  1  0  0  0
 29 65  1  0  0  0
 31 66  1  0  0  0
 32 67  1  0  0  0
 33 68  1  0  0  0
 34 69  1  0  0  0
 35 70  1  0  0  0
M  END
$$$$
