5u00_ligand
  -I-interpret- 

 43 46  0  0  0  0  0  0  0  0999 V2000
    6.3380    4.5450    8.6240 N   0  0  0  0  0
    7.5590    5.1210    8.6900 C   0  0  0  0  0
    7.9610    4.8090    6.3520 C   0  0  0  0  0
    9.3690    6.0610    9.2080 C   0  0  0  0  0
    8.9240    5.0100    5.2390 C   0  0  0  0  0
    9.7580    4.3370    2.9960 C   0  0  0  0  0
   11.1640    8.4920    4.8420 C   0  0  0  0  0
   11.0760    9.8460    4.6210 C   0  0  0  0  0
   11.7840   10.2190    6.8650 C   0  0  0  0  0
   11.5650    7.9940    6.0670 C   0  0  0  0  0
   11.3800   10.7070    5.6480 C   0  0  0  0  0
   11.8880    8.8650    7.1090 C   0  0  0  0  0
    6.7530    4.2360    6.2380 C   0  0  0  0  0
    5.9600    4.1280    7.4650 C   0  0  0  0  0
   10.8470    7.6330    3.6810 C   0  0  0  0  0
    8.7650    4.0360    4.0880 C   0  0  0  0  0
    8.9340    6.4590    4.7870 C   0  0  0  0  0
    9.7720    5.7880    2.5710 C   0  0  0  0  0
    4.6090    3.4830    7.3440 C   0  0  0  0  0
    8.1880    5.6260    9.7330 N   0  0  0  0  0
    9.5180    5.8590    7.8960 N   0  0  0  0  0
    8.3550    5.2530    7.5890 N   0  0  0  0  0
    9.8550    6.6850    3.6990 N   0  0  0  0  0
   11.5410    7.8140    2.6930 O   0  0  0  0  0
   12.0740   11.1310    7.8280 F   0  0  0  0  0
   10.9900    3.9700    3.4730 F   0  0  0  0  0
    9.5460    3.5440    1.9040 F   0  0  0  0  0
   12.5080    8.2310    9.0200 I   0  0  0  0  0
   10.1369    6.5396    9.8158 H   0  0  0  0  0
    9.9084    4.7768    5.6447 H   0  0  0  0  0
   10.7703   10.2301    3.6478 H   0  0  0  0  0
   11.6294    6.9168    6.2203 H   0  0  0  0  0
   11.2998   11.7832    5.4950 H   0  0  0  0  0
    6.3808    3.8696    5.2813 H   0  0  0  0  0
    7.7571    4.1293    3.6837 H   0  0  0  0  0
    8.9401    3.0247    4.4550 H   0  0  0  0  0
    9.2476    7.0748    5.6299 H   0  0  0  0  0
    7.9320    6.7130    4.4412 H   0  0  0  0  0
    8.8428    5.9952    2.0402 H   0  0  0  0  0
   10.6486    5.9495    1.9437 H   0  0  0  0  0
    4.5695    2.6024    7.9852 H   0  0  0  0  0
    3.8404    4.1923    7.6509 H   0  0  0  0  0
    4.4402    3.1879    6.3084 H   0  0  0  0  0
  2  1  4  0  0  0
 14  1  4  0  0  0
  2 20  4  0  0  0
 22  2  4  0  0  0
  5  3  1  0  0  0
  3 13  4  0  0  0
  3 22  4  0  0  0
 20  4  4  0  0  0
  4 21  4  0  0  0
  5 16  1  0  0  0
 17  5  1  0  0  0
 16  6  1  0  0  0
  6 18  1  0  0  0
  6 26  1  0  0  0
  6 27  1  0  0  0
  7  8  4  0  0  0
  7 10  4  0  0  0
 15  7  1  0  0  0
  8 11  4  0  0  0
 11  9  4  0  0  0
 12  9  4  0  0  0
  9 25  1  0  0  0
 10 12  4  0  0  0
 12 28  1  0  0  0
 13 14  4  0  0  0
 14 19  1  0  0  0
 23 15  1  0  0  0
 15 24  2  0  0  0
 17 23  1  0  0  0
 18 23  1  0  0  0
 21 22  4  0  0  0
  4 29  1  0  0  0
  5 30  1  0  0  0
  8 31  1  0  0  0
 10 32  1  0  0  0
 11 33  1  0  0  0
 13 34  1  0  0  0
 16 35  1  0  0  0
 16 36  1  0  0  0
 17 37  1  0  0  0
 17 38  1  0  0  0
 18 39  1  0  0  0
 18 40  1  0  0  0
 19 41  1  0  0  0
 19 42  1  0  0  0
 19 43  1  0  0  0
M  END
$$$$
