5ii1_ligand
  -I-interpret- 

 22 24  0  0  0  0  0  0  0  0999 V2000
   34.6920   27.4140    1.5210 C   0  0  0  0  0
   35.8750   26.6190    0.9720 C   0  0  0  0  0
   36.2620   25.3120    1.2710 C   0  0  0  0  0
   35.8250   24.2570    2.1120 C   0  0  0  0  0
   34.6740   24.3730    2.9060 C   0  0  0  0  0
   34.2430   23.3350    3.7230 C   0  0  0  0  0
   34.9700   22.1360    3.7120 C   0  0  0  0  0
   36.1080   21.9970    2.9300 C   0  0  0  0  0
   36.5470   23.0450    2.1120 C   0  0  0  0  0
   37.6940   22.9400    1.2900 C   0  0  0  0  0
   38.3800   21.9310    1.2120 O   0  0  0  0  0
   38.1160   24.0040    0.5090 O   0  0  0  0  0
   37.4060   25.1690    0.4910 C   0  0  0  0  0
   37.6190   26.3140   -0.1640 N   0  0  0  0  0
   36.7350   27.1330    0.1090 N   0  0  0  0  0
   33.7639   26.8968    1.2774 H   0  0  0  0  0
   34.7866   27.5030    2.6032 H   0  0  0  0  0
   34.6842   28.4076    1.0728 H   0  0  0  0  0
   34.1032   25.3013    2.8813 H   0  0  0  0  0
   33.3629   23.4497    4.3558 H   0  0  0  0  0
   34.6362   21.3003    4.3271 H   0  0  0  0  0
   36.6664   21.0612    2.9529 H   0  0  0  0  0
  1  2  1  0  0  0
  2  3  4  0  0  0
  2 15  4  0  0  0
  3  4  1  0  0  0
  3 13  4  0  0  0
  4  5  4  0  0  0
  4  9  4  0  0  0
  5  6  4  0  0  0
  6  7  4  0  0  0
  7  8  4  0  0  0
  8  9  4  0  0  0
  9 10  1  0  0  0
 10 11  2  0  0  0
 10 12  1  0  0  0
 12 13  1  0  0  0
 13 14  4  0  0  0
 14 15  4  0  0  0
  1 16  1  0  0  0
  1 17  1  0  0  0
  1 18  1  0  0  0
  5 19  1  0  0  0
  6 20  1  0  0  0
  7 21  1  0  0  0
  8 22  1  0  0  0
M  END
$$$$
