2fjm_ligand
  -I-interpret- 

 71 75  0  0  0  0  0  0  0  0999 V2000
   26.8300   29.0640   22.2870 O   0  0  0  0  0
   26.0380   29.9010   21.8760 C   0  0  0  0  0
   26.1150   31.2570   22.4140 O   0  0  0  0  0
   27.0540   31.6250   23.4380 C   0  0  0  0  0
   24.9480   29.5460   20.8810 C   0  0  0  0  0
   24.7260   28.2150   20.5020 C   0  0  0  0  0
   23.6980   27.9060   19.6050 C   0  0  0  0  0
   24.1420   30.5620   20.3590 C   0  0  0  0  0
   23.1180   30.2600   19.4610 C   0  0  0  0  0
   22.8920   28.9290   19.0830 C   0  0  0  0  0
   21.7690   28.5760   18.1350 C   0  0  0  0  0
   20.9150   27.5180   18.7970 N   0  0  0  0  0
   20.3670   26.4750   18.0470 N   0  0  0  0  0
   19.6390   25.7330   18.9760 N   0  0  0  0  0
   19.7350   26.3150   20.1980 C   0  0  0  0  0
   19.1880   25.9380   21.4260 C   0  0  0  0  0
   20.5380   27.4580   20.1020 C   0  0  0  0  0
   20.7870   28.2190   21.2570 C   0  0  0  0  0
   20.2350   27.8400   22.4900 C   0  0  0  0  0
   19.4300   26.7010   22.5720 C   0  0  0  0  0
   22.4130   28.0040   16.8480 C   0  0  0  0  0
   23.1850   28.9740   15.9740 C   0  0  0  0  0
   22.5210   29.7220   14.9980 C   0  0  0  0  0
   23.2290   30.5840   14.1720 C   0  0  0  0  0
   24.6180   30.7120   14.2890 C   0  0  0  0  0
   25.3620   31.6660   13.3910 C   0  0  0  0  0
   24.5770   32.7210   13.2200 F   0  0  0  0  0
   25.8490   30.9770   11.7260 P   0  0  0  0  0
   26.8700   29.9050   11.9240 O   0  0  0  0  0
   24.5690   30.4540   11.1440 O   0  0  0  0  0
   26.4000   32.2290   11.1070 O   0  0  0  0  0
   26.4540   32.1090   14.0000 F   0  0  0  0  0
   25.2810   29.9650   15.2600 C   0  0  0  0  0
   24.5760   29.0830   16.0880 C   0  0  0  0  0
   20.8560   29.7900   17.8740 C   0  0  0  0  0
   19.6220   29.4730   17.0270 C   0  0  0  0  0
   19.1760   30.3060   16.0720 C   0  0  0  0  0
   17.9620   30.0230   15.2460 C   0  0  0  0  0
   17.4150   31.0450   14.4760 C   0  0  0  0  0
   16.2820   30.8160   13.6890 C   0  0  0  0  0
   15.6750   29.5620   13.6840 C   0  0  0  0  0
   16.2170   28.5240   14.4550 C   0  0  0  0  0
   17.3510   28.7610   15.2400 C   0  0  0  0  0
   26.8735   31.0225   24.3282 H   0  0  0  0  0
   28.0682   31.4503   23.0789 H   0  0  0  0  0
   26.9299   32.6804   23.6807 H   0  0  0  0  0
   25.3541   27.4210   20.9060 H   0  0  0  0  0
   23.5232   26.8709   19.3117 H   0  0  0  0  0
   24.3147   31.5966   20.6555 H   0  0  0  0  0
   22.4952   31.0568   19.0543 H   0  0  0  0  0
   18.5686   25.0435   21.4915 H   0  0  0  0  0
   21.4129   29.1092   21.1945 H   0  0  0  0  0
   20.4339   28.4332   23.3825 H   0  0  0  0  0
   18.9922   26.4084   23.5263 H   0  0  0  0  0
   21.5857   27.6455   16.2355 H   0  0  0  0  0
   23.1388   27.2629   17.1827 H   0  0  0  0  0
   21.4410   29.6280   14.8848 H   0  0  0  0  0
   22.6963   31.1690   13.4223 H   0  0  0  0  0
   23.9482   31.1783   11.0366 H   0  0  0  0  0
   25.6949   32.8730   11.0085 H   0  0  0  0  0
   26.3598   30.0682   15.3764 H   0  0  0  0  0
   25.1109   28.4805   16.8222 H   0  0  0  0  0
   21.4449   30.5240   17.3238 H   0  0  0  0  0
   20.5006   30.1405   18.8430 H   0  0  0  0  0
   19.0868   28.5401   17.2043 H   0  0  0  0  0
   19.7242   31.2306   15.8909 H   0  0  0  0  0
   17.8741   32.0335   14.4864 H   0  0  0  0  0
   15.8728   31.6206   13.0780 H   0  0  0  0  0
   14.7823   29.3886   13.0831 H   0  0  0  0  0
   15.7568   27.5360   14.4430 H   0  0  0  0  0
   17.7626   27.9581   15.8517 H   0  0  0  0  0
  1  2  2  0  0  0
  2  3  1  0  0  0
  2  5  1  0  0  0
  3  4  1  0  0  0
  5  6  4  0  0  0
  5  8  4  0  0  0
  6  7  4  0  0  0
  7 10  4  0  0  0
  8  9  4  0  0  0
  9 10  4  0  0  0
 10 11  1  0  0  0
 11 12  1  0  0  0
 11 21  1  0  0  0
 11 35  1  0  0  0
 12 13  4  0  0  0
 12 17  4  0  0  0
 13 14  4  0  0  0
 14 15  4  0  0  0
 15 16  4  0  0  0
 15 17  4  0  0  0
 16 20  4  0  0  0
 17 18  4  0  0  0
 18 19  4  0  0  0
 19 20  4  0  0  0
 21 22  1  0  0  0
 22 23  4  0  0  0
 22 34  4  0  0  0
 23 24  4  0  0  0
 24 25  4  0  0  0
 25 26  1  0  0  0
 25 33  4  0  0  0
 26 27  1  0  0  0
 26 28  1  0  0  0
 26 32  1  0  0  0
 28 29  2  0  0  0
 28 30  1  0  0  0
 28 31  1  0  0  0
 33 34  4  0  0  0
 35 36  1  0  0  0
 36 37  2  0  0  0
 37 38  1  0  0  0
 38 39  4  0  0  0
 38 43  4  0  0  0
 39 40  4  0  0  0
 40 41  4  0  0  0
 41 42  4  0  0  0
 42 43  4  0  0  0
  4 44  1  0  0  0
  4 45  1  0  0  0
  4 46  1  0  0  0
  6 47  1  0  0  0
  7 48  1  0  0  0
  8 49  1  0  0  0
  9 50  1  0  0  0
 16 51  1  0  0  0
 18 52  1  0  0  0
 19 53  1  0  0  0
 20 54  1  0  0  0
 21 55  1  0  0  0
 21 56  1  0  0  0
 23 57  1  0  0  0
 24 58  1  0  0  0
 30 59  1  0  0  0
 31 60  1  0  0  0
 33 61  1  0  0  0
 34 62  1  0  0  0
 35 63  1  0  0  0
 35 64  1  0  0  0
 36 65  1  0  0  0
 37 66  1  0  0  0
 39 67  1  0  0  0
 40 68  1  0  0  0
 41 69  1  0  0  0
 42 70  1  0  0  0
 43 71  1  0  0  0
M  END
$$$$
