### 
### Created by X-TOOL on Mon Sep 10 21:12:54 2018
### 

@<TRIPOS>MOLECULE
2fjm_ligand
   69    73     1     0     0
SMALL
GAST_HUCK


@<TRIPOS>ATOM
      1 O71        26.8300   29.0640   22.2870 O.2       1 073        -0.3437
      2 C65        26.0380   29.9010   21.8760 C.2       1 073         0.2830
      3 O66        26.1150   31.2570   22.4140 O.3       1 073        -0.2774
      4 C67        27.0540   31.6250   23.4380 C.3       1 073         0.0650
      5 C58        24.9480   29.5460   20.8810 C.ar      1 073         0.0893
      6 C57        24.7260   28.2150   20.5020 C.ar      1 073        -0.0129
      7 C56        23.6980   27.9060   19.6050 C.ar      1 073        -0.0322
      8 C59        24.1420   30.5620   20.3590 C.ar      1 073        -0.0129
      9 C60        23.1180   30.2600   19.4610 C.ar      1 073        -0.0322
     10 C55        22.8920   28.9290   19.0830 C.ar      1 073        -0.0078
     11 C11        21.7690   28.5760   18.1350 C.3       1 073         0.1144
     12 N12        20.9150   27.5180   18.7970 N.pl3     1 073        -0.1782
     13 N23        20.3670   26.4750   18.0470 N.2       1 073        -0.0825
     14 N22        19.6390   25.7330   18.9760 N.2       1 073        -0.2001
     15 C18        19.7350   26.3150   20.1980 C.ar      1 073         0.0753
     16 C17        19.1880   25.9380   21.4260 C.ar      1 073        -0.0506
     17 C19        20.5380   27.4580   20.1020 C.ar      1 073         0.1062
     18 C20        20.7870   28.2190   21.2570 C.ar      1 073        -0.0323
     19 C21        20.2350   27.8400   22.4900 C.ar      1 073        -0.0695
     20 C16        19.4300   26.7010   22.5720 C.ar      1 073        -0.0707
     21 C13        22.4130   28.0040   16.8480 C.3       1 073         0.0107
     22 C2         23.1850   28.9740   15.9740 C.ar      1 073        -0.0159
     23 C3         22.5210   29.7220   14.9980 C.ar      1 073        -0.0289
     24 C4         23.2290   30.5840   14.1720 C.ar      1 073        -0.0385
     25 C5         24.6180   30.7120   14.2890 C.ar      1 073         0.0219
     26 C28        25.3620   31.6660   13.3910 C.3       1 073         0.2931
     27 F30        24.5770   32.7210   13.2200 F         1 073        -0.2419
     28 P31        25.8490   30.9770   11.7260 P.3       1 073         0.0966
     29 O34        26.8700   29.9050   11.9240 O.co2     1 073        -0.5668
     30 O33        24.5690   30.4540   11.1440 O.co2     1 073        -0.5668
     31 O32        26.4000   32.2290   11.1070 O.co2     1 073        -0.5668
     32 F29        26.4540   32.1090   14.0000 F         1 073        -0.2419
     33 C6         25.2810   29.9650   15.2600 C.ar      1 073        -0.0385
     34 C1         24.5760   29.0830   16.0880 C.ar      1 073        -0.0289
     35 C37        20.8560   29.7900   17.8740 C.3       1 073        -0.0058
     36 C38        19.6220   29.4730   17.0270 C.2       1 073        -0.0784
     37 C41        19.1760   30.3060   16.0720 C.2       1 073        -0.0674
     38 C43        17.9620   30.0230   15.2460 C.ar      1 073        -0.0410
     39 C49        17.4150   31.0450   14.4760 C.ar      1 073        -0.0619
     40 C48        16.2820   30.8160   13.6890 C.ar      1 073        -0.0664
     41 C47        15.6750   29.5620   13.6840 C.ar      1 073        -0.0664
     42 C46        16.2170   28.5240   14.4550 C.ar      1 073        -0.0664
     43 C45        17.3510   28.7610   15.2400 C.ar      1 073        -0.0619
     44 H1         26.9297   32.6899   23.6838 H         1 073         0.0575
     45 H2         28.0780   31.4492   23.0768 H         1 073         0.0575
     46 H3         26.8729   31.0176   24.3370 H         1 073         0.0575
     47 H4         25.3506   27.4254   20.9038 H         1 073         0.0744
     48 H5         23.5242   26.8766   19.3133 H         1 073         0.0856
     49 H6         24.3138   31.5909   20.6539 H         1 073         0.0744
     50 H7         22.4987   31.0524   19.0565 H         1 073         0.0856
     51 H8         18.5720   25.0484   21.4911 H         1 073         0.0596
     52 H9         21.4094   29.1043   21.1949 H         1 073         0.0566
     53 H10        20.4328   28.4300   23.3776 H         1 073         0.0580
     54 H11        18.9946   26.4100   23.5211 H         1 073         0.0540
     55 H12        21.6060   27.5756   16.2354 H         1 073         0.0440
     56 H13        23.1068   27.2059   17.1507 H         1 073         0.0440
     57 H14        21.4469   29.6285   14.8854 H         1 073         0.0652
     58 H15        22.6992   31.1658   13.4264 H         1 073         0.0835
     59 H16        26.3539   30.0676   15.3758 H         1 073         0.0835
     60 H17        25.1079   28.4839   16.8182 H         1 073         0.0652
     61 H18        21.4446   30.5591   17.3525 H         1 073         0.0407
     62 H19        20.5174   30.1825   18.8442 H         1 073         0.0407
     63 H20        19.0873   28.5410   17.2042 H         1 073         0.0728
     64 H21        19.7237   31.2297   15.8911 H         1 073         0.0430
     65 H22        17.8716   32.0281   14.4864 H         1 073         0.0579
     66 H23        15.8750   31.6161   13.0814 H         1 073         0.0605
     67 H24        14.7872   29.3895   13.0864 H         1 073         0.0579
     68 H25        15.7593   27.5414   14.4431 H         1 073         0.0605
     69 H26        17.7603   27.9626   15.8483 H         1 073         0.0579
@<TRIPOS>BOND
     1    1    2 2  
     2    2    3 1  
     3    2    5 1  
     4    3    4 1  
     5    5    6 ar 
     6    5    8 ar 
     7    6    7 ar 
     8    7   10 ar 
     9    8    9 ar 
    10    9   10 ar 
    11   10   11 1  
    12   11   12 1  
    13   11   21 1  
    14   11   35 1  
    15   12   13 1  
    16   12   17 1  
    17   13   14 2  
    18   14   15 1  
    19   15   16 ar 
    20   15   17 ar 
    21   16   20 ar 
    22   17   18 ar 
    23   18   19 ar 
    24   19   20 ar 
    25   21   22 1  
    26   22   23 ar 
    27   22   34 ar 
    28   23   24 ar 
    29   24   25 ar 
    30   25   26 1  
    31   25   33 ar 
    32   26   27 1  
    33   26   28 1  
    34   26   32 1  
    35   28   29 ar 
    36   28   30 ar 
    37   28   31 ar 
    38   33   34 ar 
    39   35   36 1  
    40   36   37 2  
    41   37   38 1  
    42   38   39 ar 
    43   38   43 ar 
    44   39   40 ar 
    45   40   41 ar 
    46   41   42 ar 
    47   42   43 ar 
    48    4   44 1  
    49    4   45 1  
    50    4   46 1  
    51    6   47 1  
    52    7   48 1  
    53    8   49 1  
    54    9   50 1  
    55   16   51 1  
    56   18   52 1  
    57   19   53 1  
    58   20   54 1  
    59   21   55 1  
    60   21   56 1  
    61   23   57 1  
    62   24   58 1  
    63   33   59 1  
    64   34   60 1  
    65   35   61 1  
    66   35   62 1  
    67   36   63 1  
    68   37   64 1  
    69   39   65 1  
    70   40   66 1  
    71   41   67 1  
    72   42   68 1  
    73   43   69 1  
@<TRIPOS>SUBSTRUCTURE
     1 073         1

