5qau_ligand
  -I-interpret- 

 29 31  0  0  0  0  0  0  0  0999 V2000
   72.5200  235.2650   37.2120 N   0  0  0  0  0
   79.5590  230.7290   34.8470 C   0  0  0  0  0
   80.6580  230.1270   34.7840 O   0  0  0  0  0
   79.5810  232.2250   35.0450 C   0  0  0  0  0
   76.0600  234.6120   36.2470 C   0  0  0  0  0
   79.5990  234.9880   35.3460 C   0  0  0  0  0
   80.7890  234.2990   35.1900 C   0  0  0  0  0
   80.7820  232.9240   35.0380 C   0  0  0  0  0
   78.3880  232.9240   35.2080 C   0  0  0  0  0
   78.3790  234.3130   35.3480 C   0  0  0  0  0
   77.0930  235.0550   35.4180 C   0  0  0  0  0
   76.8660  236.1710   34.6130 C   0  0  0  0  0
   75.6400  236.8130   34.6210 C   0  0  0  0  0
   74.6200  236.3530   35.4330 C   0  0  0  0  0
   74.8220  235.2510   36.2540 C   0  0  0  0  0
   73.7450  234.7680   37.1360 C   0  0  0  0  0
   71.8680  234.5190   38.1420 N   0  0  0  0  0
   72.6460  233.6020   38.6220 N   0  0  0  0  0
   73.8300  233.7490   37.9940 N   0  0  0  0  0
   78.4410  230.1710   34.7480 O   0  0  0  0  0
   81.3738  230.7586   34.8856 H   0  0  0  0  0
   76.2248  233.7536   36.8982 H   0  0  0  0  0
   79.6157  236.0709   35.4687 H   0  0  0  0  0
   81.7345  234.8413   35.1869 H   0  0  0  0  0
   81.7221  232.3869   34.9123 H   0  0  0  0  0
   77.4451  232.3775   35.2266 H   0  0  0  0  0
   77.6639  236.5421   33.9697 H   0  0  0  0  0
   75.4782  237.6836   33.9854 H   0  0  0  0  0
   73.6536  236.8571   35.4289 H   0  0  0  0  0
 16  1  4  0  0  0
  1 17  4  0  0  0
  2  3  1  0  0  0
  4  2  1  0  0  0
  2 20  2  0  0  0
  4  8  4  0  0  0
  9  4  4  0  0  0
  5 11  4  0  0  0
 15  5  4  0  0  0
  6  7  4  0  0  0
 10  6  4  0  0  0
  7  8  4  0  0  0
 10  9  4  0  0  0
 11 10  1  0  0  0
 11 12  4  0  0  0
 13 12  4  0  0  0
 14 13  4  0  0  0
 15 14  4  0  0  0
 15 16  1  0  0  0
 16 19  4  0  0  0
 17 18  4  0  0  0
 18 19  4  0  0  0
  3 21  1  0  0  0
  5 22  1  0  0  0
  6 23  1  0  0  0
  7 24  1  0  0  0
  8 25  1  0  0  0
  9 26  1  0  0  0
 12 27  1  0  0  0
 13 28  1  0  0  0
 14 29  1  0  0  0
M  END
$$$$
