1g9c_ligand
  -I-interpret- 

 39 42  0  0  0  0  0  0  0  0999 V2000
   12.0200    1.4170   29.7820 C   0  0  0  0  0
   11.3870    2.5150   29.1390 C   0  0  0  0  0
   10.5820    2.2990   28.0030 C   0  0  0  0  0
   10.4430    0.9980   27.5570 C   0  0  0  0  0
   11.0560   -0.0560   28.1860 C   0  0  0  0  0
   11.8460    0.1140   29.2930 C   0  0  0  0  0
   12.8900    1.6380   30.9990 C   0  0  0  0  0
    9.8540   -0.9640   26.3700 C   0  0  0  0  0
    9.2670   -1.9180   25.3660 C   0  0  0  0  0
   12.2610    1.8600   32.3390 N   0  0  0  0  0
   14.3860    1.6250   30.8600 N   0  0  0  0  0
    9.6610    0.5070   26.3940 N   0  0  0  0  0
   10.7320   -1.3300   27.4960 N   0  0  0  0  0
    9.4270    0.2550   19.5910 C   0  0  0  0  0
   10.7520    0.6470   19.9300 C   0  0  0  0  0
   11.2540    0.3690   21.2070 C   0  0  0  0  0
   10.4270   -0.2820   22.0920 C   0  0  0  0  0
    9.1580   -0.6550   21.7560 C   0  0  0  0  0
    8.6230   -0.4050   20.5190 C   0  0  0  0  0
    8.8840    0.5520   18.2400 C   0  0  0  0  0
    9.4890   -1.3390   23.9830 C   0  0  0  0  0
    8.4020   -0.5450   17.3800 N   0  0  0  0  0
    8.8580    1.9460   17.7280 N   0  0  0  0  0
   10.7200   -0.6800   23.4880 N   0  0  0  0  0
    8.5050   -1.3250   22.8870 N   0  0  0  0  0
   11.5244    3.5251   29.5250 H   0  0  0  0  0
   10.0874    3.1268   27.4949 H   0  0  0  0  0
   12.3242   -0.7369   29.7782 H   0  0  0  0  0
    8.2012   -2.0509   25.5517 H   0  0  0  0  0
    9.7478   -2.8928   25.4474 H   0  0  0  0  0
   12.8482    2.0029   33.1607 H   0  0  0  0  0
   14.9756    1.7677   31.6800 H   0  0  0  0  0
   14.8119    1.4735   29.9457 H   0  0  0  0  0
   11.3741    1.1620   19.1980 H   0  0  0  0  0
   12.2659    0.6587   21.4901 H   0  0  0  0  0
    7.6068   -0.7109   20.2702 H   0  0  0  0  0
    8.4412   -1.5085   17.7124 H   0  0  0  0  0
    8.5089    2.1380   16.7890 H   0  0  0  0  0
    9.1892    2.7113   18.3154 H   0  0  0  0  0
  1  2  4  0  0  0
  6  1  4  0  0  0
  1  7  1  0  0  0
  3  2  4  0  0  0
  4  3  4  0  0  0
  5  4  4  0  0  0
 12  4  4  0  0  0
  5  6  4  0  0  0
 13  5  4  0  0  0
  7 10  2  0  0  0
  7 11  1  0  0  0
  9  8  1  0  0  0
  8 12  4  0  0  0
  8 13  4  0  0  0
 21  9  1  0  0  0
 15 14  4  0  0  0
 19 14  4  0  0  0
 14 20  1  0  0  0
 16 15  4  0  0  0
 17 16  4  0  0  0
 17 18  4  0  0  0
 24 17  4  0  0  0
 18 19  4  0  0  0
 18 25  4  0  0  0
 20 22  2  0  0  0
 20 23  1  0  0  0
 21 24  4  0  0  0
 21 25  4  0  0  0
  2 26  1  0  0  0
  3 27  1  0  0  0
  6 28  1  0  0  0
  9 29  1  0  0  0
  9 30  1  0  0  0
 10 31  1  0  0  0
 11 32  1  0  0  0
 11 33  1  0  0  0
 15 34  1  0  0  0
 16 35  1  0  0  0
 19 36  1  0  0  0
 22 37  1  0  0  0
 23 38  1  0  0  0
 23 39  1  0  0  0
M  END
$$$$
