### 
### Created by X-TOOL on Mon Sep 10 21:12:58 2018
### 

@<TRIPOS>MOLECULE
2jkr_ligand
  163   162     1     0     0
SMALL
GAST_HUCK


@<TRIPOS>ATOM
      1 N          60.7250  -32.9290  -91.8250 N.4       1 MET         0.2379
      2 CA         59.6620  -33.8770  -92.1670 C.3       1 MET         0.0658
      3 C          59.5910  -34.1380  -93.6790 C.2       1 MET         0.2268
      4 O          58.9800  -33.3660  -94.4310 O.2       1 MET        -0.3907
      5 CB         58.3120  -33.3870  -91.6430 C.3       1 MET         0.0168
      6 CG         57.8600  -32.0310  -92.1960 C.3       1 MET         0.0007
      7 SD         59.1560  -30.7680  -92.1910 S.3       1 MET        -0.1638
      8 CE         58.2330  -29.2760  -92.5780 C.3       1 MET        -0.0181
      9 N          60.2160  -35.2420  -94.0980 N.am      1 SEP        -0.2589
     10 CA         60.4090  -35.5950  -95.5120 C.3       1 SEP         0.1540
     11 CB         59.6170  -36.8340  -95.9090 C.3       1 SEP         0.0843
     12 OG         60.3790  -37.6040  -96.8220 O.3       1 SEP        -0.3903
     13 C          60.1740  -34.4500  -96.4980 C.2       1 SEP         0.2062
     14 O          59.0780  -34.2520  -97.0520 O.2       1 SEP        -0.3943
     15 N          61.2540  -33.7180  -96.7160 N.am      1 GLN        -0.2635
     16 CA         61.2410  -32.5030  -97.4990 C.3       1 GLN         0.1330
     17 C          61.3610  -32.7880  -99.0030 C.2       1 GLN         0.2041
     18 O          61.7250  -31.9120  -99.7820 O.2       1 GLN        -0.3944
     19 CB         62.3700  -31.5970  -96.9890 C.3       1 GLN         0.0045
     20 CG         62.3740  -31.4720  -95.4560 C.3       1 GLN         0.0412
     21 CD         63.5700  -30.7100  -94.9130 C.2       1 GLN         0.1737
     22 OE1        63.5490  -30.2260  -93.7810 O.2       1 GLN        -0.3973
     23 NE2        64.6230  -30.6050  -95.7160 N.am      1 GLN        -0.3009
     24 N          61.0550  -34.0160  -99.4090 N.am      1 ILE        -0.2635
     25 CA         61.1690  -34.3860 -100.8180 C.3       1 ILE         0.1335
     26 C          59.7990  -34.5200 -101.4820 C.2       1 ILE         0.2042
     27 O          59.7110  -34.7250 -102.7020 O.2       1 ILE        -0.3944
     28 CB         62.0360  -35.6770 -101.0370 C.3       1 ILE        -0.0037
     29 CG1        62.0390  -36.1110 -102.5100 C.3       1 ILE        -0.0491
     30 CG2        61.5580  -36.8410 -100.1600 C.3       1 ILE        -0.0582
     31 CD1        62.6580  -35.1200 -103.4750 C.3       1 ILE        -0.0648
     32 N          58.7370  -34.3990 -100.6810 N.am      1 LYS        -0.2637
     33 CA         57.3730  -34.4560 -101.2100 C.3       1 LYS         0.1310
     34 C          57.1740  -33.3220 -102.2080 C.2       1 LYS         0.2039
     35 O          57.5680  -32.1790 -101.9410 O.2       1 LYS        -0.3944
     36 CB         56.3450  -34.3720 -100.0720 C.3       1 LYS        -0.0122
     37 CG         54.8700  -34.5430 -100.4900 C.3       1 LYS        -0.0440
     38 CD         54.0250  -35.0170  -99.3050 C.3       1 LYS        -0.0124
     39 CE         54.6710  -36.2460  -98.6260 C.3       1 LYS        -0.0354
     40 NZ         53.8530  -36.8140  -97.5190 N.4       1 LYS         0.2185
     41 N          56.5850  -33.6350 -103.3610 N.am      1 ARG        -0.2637
     42 CA         56.3240  -32.6170 -104.3790 C.3       1 ARG         0.1311
     43 C          55.4430  -31.5070 -103.8240 C.2       1 ARG         0.2039
     44 O          54.5700  -31.7540 -102.9950 O.2       1 ARG        -0.3944
     45 CB         55.6360  -33.2280 -105.5910 C.3       1 ARG        -0.0092
     46 CG         56.4800  -34.1720 -106.4030 C.3       1 ARG        -0.0156
     47 CD         55.5890  -34.9130 -107.3660 C.3       1 ARG         0.0627
     48 NE         56.3410  -35.7320 -108.3070 N.pl3     1 ARG        -0.2723
     49 CZ         55.7830  -36.6350 -109.1080 C.cat     1 ARG         0.2882
     50 NH1        54.4730  -36.8310 -109.0810 N.pl3     1 ARG        -0.2849
     51 NH2        56.5310  -37.3440 -109.9350 N.pl3     1 ARG        -0.2849
     52 N          55.6640  -30.2830 -104.2850 N.am      1 LEU        -0.2637
     53 CA         54.8540  -29.1530 -103.8410 C.3       1 LEU         0.1312
     54 C          53.5550  -29.0650 -104.6150 C.2       1 LEU         0.2039
     55 O          52.6340  -28.3880 -104.1770 O.2       1 LEU        -0.3944
     56 CB         55.6170  -27.8410 -103.9860 C.3       1 LEU        -0.0101
     57 CG         56.9530  -27.7540 -103.2610 C.3       1 LEU        -0.0425
     58 CD1        57.2630  -26.3100 -102.9760 C.3       1 LEU        -0.0625
     59 CD2        56.8820  -28.5160 -101.9670 C.3       1 LEU        -0.0625
     60 N          53.4900  -29.7510 -105.7570 N.am      1 LEU        -0.2637
     61 CA         52.3070  -29.7240 -106.6140 C.3       1 LEU         0.1312
     62 C          51.7800  -31.1120 -106.9550 C.2       1 LEU         0.2040
     63 O          51.6860  -31.9880 -106.0920 O.2       1 LEU        -0.3944
     64 CB         52.5880  -28.9800 -107.9240 C.3       1 LEU        -0.0101
     65 CG         52.7340  -27.4660 -107.9330 C.3       1 LEU        -0.0425
     66 CD1        52.4670  -26.9510 -109.3330 C.3       1 LEU        -0.0625
     67 CD2        51.7880  -26.8130 -106.9380 C.3       1 LEU        -0.0625
     68 N          51.4190  -31.2710 -108.2290 N.am      1 SER        -0.2604
     69 CA         50.8130  -32.4890 -108.7660 C.3       1 SER         0.1651
     70 C          49.6070  -32.9330 -107.9480 C.2       1 SER         0.2594
     71 O          48.6680  -32.1570 -107.7600 O.2       1 SER        -0.3679
     72 CB         51.8470  -33.6110 -108.8960 C.3       1 SER         0.0857
     73 OG         52.8440  -33.2710 -109.8500 O.3       1 SER        -0.3902
     74 H1         60.7386  -32.7850  -90.8274 H         1 MET         0.2015
     75 H2         60.5539  -32.0506  -92.2889 H         1 MET         0.2015
     76 H3         61.6139  -33.2990  -92.1232 H         1 MET         0.2015
     77 H4         59.8926  -34.8319  -91.6720 H         1 MET         0.1098
     78 H5         58.3797  -33.3043  -90.5482 H         1 MET         0.0354
     79 H6         57.5504  -34.1352  -91.9078 H         1 MET         0.0354
     80 H7         57.0214  -31.6691  -91.5830 H         1 MET         0.0380
     81 H8         57.5211  -32.1752  -93.2325 H         1 MET         0.0380
     82 H9         58.9196  -28.4170  -92.6058 H         1 MET         0.0340
     83 H10        57.4670  -29.1083  -91.8066 H         1 MET         0.0340
     84 H11        57.7475  -29.3891  -93.5585 H         1 MET         0.0340
     85 H12        60.5753  -35.8679  -93.4058 H         1 SEP         0.1885
     86 H13        61.4717  -35.8618  -95.6091 H         1 SEP         0.0823
     87 H14        58.6724  -36.5299  -96.3837 H         1 SEP         0.0606
     88 H15        59.4005  -37.4344  -95.0131 H         1 SEP         0.0606
     89 H16        59.8864  -38.3773  -97.0706 H         1 SEP         0.2097
     90 H17        62.1213  -34.0197  -96.3200 H         1 GLN         0.1883
     91 H18        60.2819  -31.9909  -97.3319 H         1 GLN         0.0801
     92 H19        62.2431  -30.5950  -97.4248 H         1 GLN         0.0337
     93 H20        63.3337  -32.0178  -97.3116 H         1 GLN         0.0337
     94 H21        62.3807  -32.4837  -95.0243 H         1 GLN         0.0504
     95 H22        61.4577  -30.9475  -95.1471 H         1 GLN         0.0504
     96 H23        65.4384  -30.1137  -95.4097 H         1 GLN         0.1814
     97 H24        64.6003  -31.0172  -96.6268 H         1 GLN         0.1814
     98 H25        60.7434  -34.6939  -98.7432 H         1 ILE         0.1883
     99 H26        61.6926  -33.5602 -101.3219 H         1 ILE         0.0803
    100 H27        63.0702  -35.4367 -100.7496 H         1 ILE         0.0345
    101 H28        60.9962  -36.2786 -102.8172 H         1 ILE         0.0267
    102 H29        62.5996  -37.0544 -102.5854 H         1 ILE         0.0267
    103 H30        61.5563  -36.5287  -99.1053 H         1 ILE         0.0235
    104 H31        62.2353  -37.6984 -100.2875 H         1 ILE         0.0235
    105 H32        60.5396  -37.1307 -100.4582 H         1 ILE         0.0235
    106 H33        62.6101  -35.5244 -104.4968 H         1 ILE         0.0230
    107 H34        63.7083  -34.9460 -103.1985 H         1 ILE         0.0230
    108 H35        62.1049  -34.1702 -103.4303 H         1 ILE         0.0230
    109 H36        58.8764  -34.2667  -99.6996 H         1 LYS         0.1883
    110 H37        57.2358  -35.4142 -101.7324 H         1 LYS         0.0800
    111 H38        56.4490  -33.3865  -99.5945 H         1 LYS         0.0312
    112 H39        56.5831  -35.1600  -99.3424 H         1 LYS         0.0312
    113 H40        54.8073  -35.2861 -101.2986 H         1 LYS         0.0269
    114 H41        54.4816  -33.5781 -100.8478 H         1 LYS         0.0269
    115 H42        53.0215  -35.2894  -99.6639 H         1 LYS         0.0317
    116 H43        53.9432  -34.2014  -98.5714 H         1 LYS         0.0317
    117 H44        55.6471  -35.9448  -98.2179 H         1 LYS         0.0813
    118 H45        54.8168  -37.0270  -99.3867 H         1 LYS         0.0813
    119 H46        54.3300  -37.6085  -97.1223 H         1 LYS         0.1994
    120 H47        52.9572  -37.1049  -97.8782 H         1 LYS         0.1994
    121 H48        53.7181  -36.1132  -96.8071 H         1 LYS         0.1994
    122 H49        56.3164  -34.5826 -103.5339 H         1 ARG         0.1883
    123 H50        57.2850  -32.1849 -104.6947 H         1 ARG         0.0800
    124 H51        55.3157  -32.4071 -106.2494 H         1 ARG         0.0313
    125 H52        54.7529  -33.7805 -105.2376 H         1 ARG         0.0313
    126 H53        56.9798  -34.8890 -105.7351 H         1 ARG         0.0301
    127 H54        57.2370  -33.6031 -106.9626 H         1 ARG         0.0301
    128 H55        54.9957  -34.1801 -107.9325 H         1 ARG         0.0689
    129 H56        54.9147  -35.5653 -106.7917 H         1 ARG         0.0689
    130 H57        57.3620  -35.6046 -108.3546 H         1 ARG         0.2642
    131 H58        54.0441  -37.5312 -109.7028 H         1 ARG         0.2615
    132 H59        53.8834  -36.2831 -108.4382 H         1 ARG         0.2615
    133 H60        57.5502  -37.1974 -109.9618 H         1 ARG         0.2615
    134 H61        56.0949  -38.0433 -110.5528 H         1 ARG         0.2615
    135 H62        56.3976  -30.1320 -104.9476 H         1 LEU         0.1883
    136 H63        54.6152  -29.3016 -102.7776 H         1 LEU         0.0800
    137 H64        54.9742  -27.0352 -103.6019 H         1 LEU         0.0315
    138 H65        55.8061  -27.6799 -105.0576 H         1 LEU         0.0315
    139 H66        57.7434  -28.1826 -103.8947 H         1 LEU         0.0298
    140 H67        58.2275  -26.2386 -102.4519 H         1 LEU         0.0232
    141 H68        56.4702  -25.8824 -102.3447 H         1 LEU         0.0232
    142 H69        57.3182  -25.7530 -103.9229 H         1 LEU         0.0232
    143 H70        56.6553  -29.5720 -102.1753 H         1 LEU         0.0232
    144 H71        56.0907  -28.0893 -101.3331 H         1 LEU         0.0232
    145 H72        57.8480  -28.4443 -101.4458 H         1 LEU         0.0232
    146 H73        54.2767  -30.3018 -106.0358 H         1 LEU         0.1883
    147 H74        51.5177  -29.1844 -106.0701 H         1 LEU         0.0800
    148 H75        51.7609  -29.2214 -108.6078 H         1 LEU         0.0315
    149 H76        53.5267  -29.3900 -108.3248 H         1 LEU         0.0315
    150 H77        53.7658  -27.2099 -107.6507 H         1 LEU         0.0298
    151 H78        52.5709  -25.8560 -109.3469 H         1 LEU         0.0232
    152 H79        51.4462  -27.2263 -109.6365 H         1 LEU         0.0232
    153 H80        53.1901  -27.3968 -110.0318 H         1 LEU         0.0232
    154 H81        51.9952  -27.1975 -105.9284 H         1 LEU         0.0232
    155 H82        50.7487  -27.0460 -107.2129 H         1 LEU         0.0232
    156 H83        51.9357  -25.7231 -106.9526 H         1 LEU         0.0232
    157 H84        51.5725  -30.5085 -108.8575 H         1 SER         0.1885
    158 H85        50.4521  -32.2558 -109.7786 H         1 SER         0.0840
    159 O          49.5672  -34.1598 -107.4359 O.3       1 SER        -0.2909
    160 H86        51.3402  -34.5329 -109.2172 H         1 SER         0.0607
    161 H87        52.3244  -33.7763 -107.9189 H         1 SER         0.0607
    162 H88        53.4737  -33.9794 -109.9145 H         1 SER         0.2097
    163 H89        50.3610  -34.6258 -107.6709 H         1 SER         0.2540
@<TRIPOS>BOND
     1    1    2 1  
     2    2    3 1  
     3    2    5 1  
     4    3    4 2  
     5    3    9 am 
     6    5    6 1  
     7    6    7 1  
     8    7    8 1  
     9    9   10 1  
    10   10   11 1  
    11   10   13 1  
    12   11   12 1  
    13   13   14 2  
    14   13   15 am 
    15   15   16 1  
    16   16   17 1  
    17   16   19 1  
    18   17   18 2  
    19   17   24 am 
    20   19   20 1  
    21   20   21 1  
    22   21   22 2  
    23   21   23 am 
    24   24   25 1  
    25   25   26 1  
    26   25   28 1  
    27   26   27 2  
    28   26   32 am 
    29   28   29 1  
    30   28   30 1  
    31   29   31 1  
    32   32   33 1  
    33   33   34 1  
    34   33   36 1  
    35   34   35 2  
    36   34   41 am 
    37   36   37 1  
    38   37   38 1  
    39   38   39 1  
    40   39   40 1  
    41   41   42 1  
    42   42   43 1  
    43   42   45 1  
    44   43   44 2  
    45   43   52 am 
    46   45   46 1  
    47   46   47 1  
    48   47   48 1  
    49   48   49 ar 
    50   49   50 ar 
    51   49   51 ar 
    52   52   53 1  
    53   53   54 1  
    54   53   56 1  
    55   54   55 2  
    56   54   60 am 
    57   56   57 1  
    58   57   58 1  
    59   57   59 1  
    60   60   61 1  
    61   61   62 1  
    62   61   64 1  
    63   62   63 2  
    64   62   68 am 
    65   64   65 1  
    66   65   66 1  
    67   65   67 1  
    68   68   69 1  
    69   69   70 1  
    70   69   72 1  
    71   70   71 2  
    72   72   73 1  
    73    1   74 1  
    74    1   75 1  
    75    1   76 1  
    76    2   77 1  
    77    5   78 1  
    78    5   79 1  
    79    6   80 1  
    80    6   81 1  
    81    8   82 1  
    82    8   83 1  
    83    8   84 1  
    84    9   85 1  
    85   10   86 1  
    86   11   87 1  
    87   11   88 1  
    88   12   89 1  
    89   15   90 1  
    90   16   91 1  
    91   19   92 1  
    92   19   93 1  
    93   20   94 1  
    94   20   95 1  
    95   23   96 1  
    96   23   97 1  
    97   24   98 1  
    98   25   99 1  
    99   28  100 1  
   100   29  101 1  
   101   29  102 1  
   102   30  103 1  
   103   30  104 1  
   104   30  105 1  
   105   31  106 1  
   106   31  107 1  
   107   31  108 1  
   108   32  109 1  
   109   33  110 1  
   110   36  111 1  
   111   36  112 1  
   112   37  113 1  
   113   37  114 1  
   114   38  115 1  
   115   38  116 1  
   116   39  117 1  
   117   39  118 1  
   118   40  119 1  
   119   40  120 1  
   120   40  121 1  
   121   41  122 1  
   122   42  123 1  
   123   45  124 1  
   124   45  125 1  
   125   46  126 1  
   126   46  127 1  
   127   47  128 1  
   128   47  129 1  
   129   48  130 1  
   130   50  131 1  
   131   50  132 1  
   132   51  133 1  
   133   51  134 1  
   134   52  135 1  
   135   53  136 1  
   136   56  137 1  
   137   56  138 1  
   138   57  139 1  
   139   58  140 1  
   140   58  141 1  
   141   58  142 1  
   142   59  143 1  
   143   59  144 1  
   144   59  145 1  
   145   60  146 1  
   146   61  147 1  
   147   64  148 1  
   148   64  149 1  
   149   65  150 1  
   150   66  151 1  
   151   66  152 1  
   152   66  153 1  
   153   67  154 1  
   154   67  155 1  
   155   67  156 1  
   156   68  157 1  
   157   69  158 1  
   158   70  159 1  
   159   72  160 1  
   160   72  161 1  
   161   73  162 1  
   162  159  163 1  
@<TRIPOS>SUBSTRUCTURE
     1 MET         1

