2jkr_ligand
  -I-interpret- 

162161  0  0  0  0  0  0  0  0999 V2000
   60.7250  -32.9290  -91.8250 N   0  3  0  0  0
   59.6620  -33.8770  -92.1670 C   0  0  0  0  0
   59.5910  -34.1380  -93.6790 C   0  0  0  0  0
   58.9800  -33.3660  -94.4310 O   0  0  0  0  0
   58.3120  -33.3870  -91.6430 C   0  0  0  0  0
   57.8600  -32.0310  -92.1960 C   0  0  0  0  0
   59.1560  -30.7680  -92.1910 S   0  0  0  0  0
   58.2330  -29.2760  -92.5780 C   0  0  0  0  0
   60.2160  -35.2420  -94.0980 N   0  0  0  0  0
   60.4090  -35.5950  -95.5120 C   0  0  0  0  0
   59.6170  -36.8340  -95.9090 C   0  0  0  0  0
   60.3790  -37.6040  -96.8220 O   0  0  0  0  0
   60.1740  -34.4500  -96.4980 C   0  0  0  0  0
   59.0780  -34.2520  -97.0520 O   0  0  0  0  0
   61.2540  -33.7180  -96.7160 N   0  0  0  0  0
   61.2410  -32.5030  -97.4990 C   0  0  0  0  0
   61.3610  -32.7880  -99.0030 C   0  0  0  0  0
   61.7250  -31.9120  -99.7820 O   0  0  0  0  0
   62.3700  -31.5970  -96.9890 C   0  0  0  0  0
   62.3740  -31.4720  -95.4560 C   0  0  0  0  0
   63.5700  -30.7100  -94.9130 C   0  0  0  0  0
   63.5490  -30.2260  -93.7810 O   0  0  0  0  0
   64.6230  -30.6050  -95.7160 N   0  0  0  0  0
   61.0550  -34.0160  -99.4090 N   0  0  0  0  0
   61.1690  -34.3860 -100.8180 C   0  0  0  0  0
   59.7990  -34.5200 -101.4820 C   0  0  0  0  0
   59.7110  -34.7250 -102.7020 O   0  0  0  0  0
   62.0360  -35.6770 -101.0370 C   0  0  0  0  0
   62.0390  -36.1110 -102.5100 C   0  0  0  0  0
   61.5580  -36.8410 -100.1600 C   0  0  0  0  0
   62.6580  -35.1200 -103.4750 C   0  0  0  0  0
   58.7370  -34.3990 -100.6810 N   0  0  0  0  0
   57.3730  -34.4560 -101.2100 C   0  0  0  0  0
   57.1740  -33.3220 -102.2080 C   0  0  0  0  0
   57.5680  -32.1790 -101.9410 O   0  0  0  0  0
   56.3450  -34.3720 -100.0720 C   0  0  0  0  0
   54.8700  -34.5430 -100.4900 C   0  0  0  0  0
   54.0250  -35.0170  -99.3050 C   0  0  0  0  0
   54.6710  -36.2460  -98.6260 C   0  0  0  0  0
   53.8530  -36.8140  -97.5190 N   0  3  0  0  0
   56.5850  -33.6350 -103.3610 N   0  0  0  0  0
   56.3240  -32.6170 -104.3790 C   0  0  0  0  0
   55.4430  -31.5070 -103.8240 C   0  0  0  0  0
   54.5700  -31.7540 -102.9950 O   0  0  0  0  0
   55.6360  -33.2280 -105.5910 C   0  0  0  0  0
   56.4800  -34.1720 -106.4030 C   0  0  0  0  0
   55.5890  -34.9130 -107.3660 C   0  0  0  0  0
   56.3410  -35.7320 -108.3070 N   0  0  0  0  0
   55.7830  -36.6350 -109.1080 C   0  0  0  0  0
   54.4730  -36.8310 -109.0810 N   0  0  0  0  0
   56.5310  -37.3440 -109.9350 N   0  0  0  0  0
   55.6640  -30.2830 -104.2850 N   0  0  0  0  0
   54.8540  -29.1530 -103.8410 C   0  0  0  0  0
   53.5550  -29.0650 -104.6150 C   0  0  0  0  0
   52.6340  -28.3880 -104.1770 O   0  0  0  0  0
   55.6170  -27.8410 -103.9860 C   0  0  0  0  0
   56.9530  -27.7540 -103.2610 C   0  0  0  0  0
   57.2630  -26.3100 -102.9760 C   0  0  0  0  0
   56.8820  -28.5160 -101.9670 C   0  0  0  0  0
   53.4900  -29.7510 -105.7570 N   0  0  0  0  0
   52.3070  -29.7240 -106.6140 C   0  0  0  0  0
   51.7800  -31.1120 -106.9550 C   0  0  0  0  0
   51.6860  -31.9880 -106.0920 O   0  0  0  0  0
   52.5880  -28.9800 -107.9240 C   0  0  0  0  0
   52.7340  -27.4660 -107.9330 C   0  0  0  0  0
   52.4670  -26.9510 -109.3330 C   0  0  0  0  0
   51.7880  -26.8130 -106.9380 C   0  0  0  0  0
   51.4190  -31.2710 -108.2290 N   0  0  0  0  0
   50.8130  -32.4890 -108.7660 C   0  0  0  0  0
   49.6070  -32.9330 -107.9480 C   0  0  0  0  0
   48.6680  -32.1570 -107.7600 O   0  0  0  0  0
   51.8470  -33.6110 -108.8960 C   0  0  0  0  0
   52.8440  -33.2710 -109.8500 O   0  0  0  0  0
   49.5672  -34.1598 -107.4359 O   0  0  0  0  0
   61.6153  -33.2746  -92.1833 H   0  0  0  0  0
   60.5177  -32.0221  -92.2434 H   0  0  0  0  0
   60.7796  -32.8325  -90.8110 H   0  0  0  0  0
   59.9035  -34.8233  -91.6829 H   0  0  0  0  0
   58.4156  -33.2696  -90.5643 H   0  0  0  0  0
   57.5674  -34.1194  -91.9548 H   0  0  0  0  0
   57.0548  -31.6717  -91.5551 H   0  0  0  0  0
   57.5631  -32.1866  -93.2332 H   0  0  0  0  0
   57.7524  -29.3894  -93.5497 H   0  0  0  0  0
   57.4743  -29.1110  -91.8130 H   0  0  0  0  0
   58.9143  -28.4256  -92.6053 H   0  0  0  0  0
   60.5825  -35.8805  -93.3920 H   0  0  0  0  0
   61.4715  -35.8266  -95.5864 H   0  0  0  0  0
   58.6801  -36.5334  -96.3781 H   0  0  0  0  0
   59.4008  -37.4288  -95.0215 H   0  0  0  0  0
   59.8812  -38.3854  -97.0733 H   0  0  0  0  0
   62.1386  -34.0257  -96.3121 H   0  0  0  0  0
   60.2839  -31.9960  -97.3762 H   0  0  0  0  0
   62.2195  -30.6021  -97.4082 H   0  0  0  0  0
   63.3194  -32.0370  -97.2940 H   0  0  0  0  0
   62.4146  -32.4809  -95.0453 H   0  0  0  0  0
   61.4777  -30.9215  -95.1700 H   0  0  0  0  0
   65.4565  -30.1081  -95.4017 H   0  0  0  0  0
   64.5980  -31.0212  -96.6469 H   0  0  0  0  0
   60.7372  -34.7075  -98.7298 H   0  0  0  0  0
   61.6965  -33.5661 -101.3055 H   0  0  0  0  0
   63.0535  -35.4179 -100.7442 H   0  0  0  0  0
   60.9956  -36.2238 -102.8046 H   0  0  0  0  0
   62.6393  -37.0190 -102.5669 H   0  0  0  0  0
   61.6276  -36.5558  -99.1103 H   0  0  0  0  0
   60.5228  -37.0780 -100.4056 H   0  0  0  0  0
   62.1851  -37.7135 -100.3431 H   0  0  0  0  0
   62.1091  -34.1794 -103.4297 H   0  0  0  0  0
   63.6987  -34.9485 -103.1999 H   0  0  0  0  0
   62.6099  -35.5218 -104.4871 H   0  0  0  0  0
   58.8792  -34.2641  -99.6800 H   0  0  0  0  0
   57.2233  -35.4085 -101.7184 H   0  0  0  0  0
   56.4324  -33.3708  -99.6500 H   0  0  0  0  0
   56.5702  -35.1927  -99.3910 H   0  0  0  0  0
   54.8123  -35.2869 -101.2846 H   0  0  0  0  0
   54.4872  -33.5824 -100.8346 H   0  0  0  0  0
   53.0359  -35.2959  -99.6683 H   0  0  0  0  0
   53.9568  -34.2089  -98.5767 H   0  0  0  0  0
   55.6198  -35.9220  -98.1983 H   0  0  0  0  0
   54.7766  -37.0210  -99.3852 H   0  0  0  0  0
   54.3366  -37.6178  -97.1183 H   0  0  0  0  0
   53.7172  -36.1040  -96.7994 H   0  0  0  0  0
   52.9469  -37.1079  -97.8836 H   0  0  0  0  0
   56.3110  -34.6016 -103.5374 H   0  0  0  0  0
   57.2866  -32.2016 -104.6770 H   0  0  0  0  0
   55.3724  -32.4005 -106.2497 H   0  0  0  0  0
   54.7953  -33.8091 -105.2121 H   0  0  0  0  0
   56.9811  -34.8804 -105.7433 H   0  0  0  0  0
   57.2350  -33.6116 -106.9544 H   0  0  0  0  0
   55.0263  -34.1754 -107.9381 H   0  0  0  0  0
   54.9445  -35.5738 -106.7864 H   0  0  0  0  0
   57.3521  -35.6058 -108.3542 H   0  0  0  0  0
   54.0484  -37.5253 -109.6959 H   0  0  0  0  0
   53.8890  -36.2876 -108.4453 H   0  0  0  0  0
   57.5404  -37.1997 -109.9606 H   0  0  0  0  0
   56.4123  -30.1290 -104.9608 H   0  0  0  0  0
   54.6253  -29.3200 -102.7884 H   0  0  0  0  0
   54.9827  -27.0709 -103.5471 H   0  0  0  0  0
   55.8403  -27.7354 -105.0476 H   0  0  0  0  0
   57.7352  -28.1851 -103.8858 H   0  0  0  0  0
   57.3173  -25.7592 -103.9150 H   0  0  0  0  0
   56.4767  -25.8875 -102.3505 H   0  0  0  0  0
   58.2188  -26.2406 -102.4567 H   0  0  0  0  0
   56.1016  -28.0885 -101.3375 H   0  0  0  0  0
   56.6516  -29.5610 -102.1744 H   0  0  0  0  0
   57.8415  -28.4490 -101.4543 H   0  0  0  0  0
   54.2924  -30.3128 -106.0413 H   0  0  0  0  0
   51.5456  -29.2014 -106.0350 H   0  0  0  0  0
   51.7058  -29.1691 -108.5357 H   0  0  0  0  0
   53.5654  -29.3467 -108.2376 H   0  0  0  0  0
   53.7502  -27.2092 -107.6337 H   0  0  0  0  0
   53.1841  -27.3935 -110.0244 H   0  0  0  0  0
   51.4553  -27.2244 -109.6325 H   0  0  0  0  0
   52.5703  -25.8660 -109.3455 H   0  0  0  0  0
   50.7596  -27.0640 -107.1978 H   0  0  0  0  0
   52.0099  -27.1771 -105.9349 H   0  0  0  0  0
   51.9186  -25.7313 -106.9705 H   0  0  0  0  0
   51.5756  -30.4932 -108.8700 H   0  0  0  0  0
   50.4492  -32.2553 -109.7665 H   0  0  0  0  0
   51.3410  -34.5187 -109.2249 H   0  0  0  0  0
   52.3243  -33.7627 -107.9279 H   0  0  0  0  0
   53.4803  -33.9869 -109.9152 H   0  0  0  0  0
   50.3694  -34.6307 -107.6734 H   0  0  0  0  0
  1  2  1  0  0  0
  2  3  1  0  0  0
  2  5  1  0  0  0
  3  4  2  0  0  0
  3  9  1  0  0  0
  5  6  1  0  0  0
  6  7  1  0  0  0
  7  8  1  0  0  0
  9 10  1  0  0  0
 10 11  1  0  0  0
 10 13  1  0  0  0
 11 12  1  0  0  0
 13 14  2  0  0  0
 13 15  1  0  0  0
 15 16  1  0  0  0
 16 17  1  0  0  0
 16 19  1  0  0  0
 17 18  2  0  0  0
 17 24  1  0  0  0
 19 20  1  0  0  0
 20 21  1  0  0  0
 21 22  2  0  0  0
 21 23  1  0  0  0
 24 25  1  0  0  0
 25 26  1  0  0  0
 25 28  1  0  0  0
 26 27  2  0  0  0
 26 32  1  0  0  0
 28 29  1  0  0  0
 28 30  1  0  0  0
 29 31  1  0  0  0
 32 33  1  0  0  0
 33 34  1  0  0  0
 33 36  1  0  0  0
 34 35  2  0  0  0
 34 41  1  0  0  0
 36 37  1  0  0  0
 37 38  1  0  0  0
 38 39  1  0  0  0
 39 40  1  0  0  0
 41 42  1  0  0  0
 42 43  1  0  0  0
 42 45  1  0  0  0
 43 44  2  0  0  0
 43 52  1  0  0  0
 45 46  1  0  0  0
 46 47  1  0  0  0
 47 48  1  0  0  0
 48 49  1  0  0  0
 49 50  1  0  0  0
 49 51  2  0  0  0
 52 53  1  0  0  0
 53 54  1  0  0  0
 53 56  1  0  0  0
 54 55  2  0  0  0
 54 60  1  0  0  0
 56 57  1  0  0  0
 57 58  1  0  0  0
 57 59  1  0  0  0
 60 61  1  0  0  0
 61 62  1  0  0  0
 61 64  1  0  0  0
 62 63  2  0  0  0
 62 68  1  0  0  0
 64 65  1  0  0  0
 65 66  1  0  0  0
 65 67  1  0  0  0
 68 69  1  0  0  0
 69 70  1  0  0  0
 69 72  1  0  0  0
 70 71  2  0  0  0
 72 73  1  0  0  0
 70 74  1  0  0  0
  1 75  1  0  0  0
  1 76  1  0  0  0
  1 77  1  0  0  0
  2 78  1  0  0  0
  5 79  1  0  0  0
  5 80  1  0  0  0
  6 81  1  0  0  0
  6 82  1  0  0  0
  8 83  1  0  0  0
  8 84  1  0  0  0
  8 85  1  0  0  0
  9 86  1  0  0  0
 10 87  1  0  0  0
 11 88  1  0  0  0
 11 89  1  0  0  0
 12 90  1  0  0  0
 15 91  1  0  0  0
 16 92  1  0  0  0
 19 93  1  0  0  0
 19 94  1  0  0  0
 20 95  1  0  0  0
 20 96  1  0  0  0
 23 97  1  0  0  0
 23 98  1  0  0  0
 24 99  1  0  0  0
 25100  1  0  0  0
 28101  1  0  0  0
 29102  1  0  0  0
 29103  1  0  0  0
 30104  1  0  0  0
 30105  1  0  0  0
 30106  1  0  0  0
 31107  1  0  0  0
 31108  1  0  0  0
 31109  1  0  0  0
 32110  1  0  0  0
 33111  1  0  0  0
 36112  1  0  0  0
 36113  1  0  0  0
 37114  1  0  0  0
 37115  1  0  0  0
 38116  1  0  0  0
 38117  1  0  0  0
 39118  1  0  0  0
 39119  1  0  0  0
 40120  1  0  0  0
 40121  1  0  0  0
 40122  1  0  0  0
 41123  1  0  0  0
 42124  1  0  0  0
 45125  1  0  0  0
 45126  1  0  0  0
 46127  1  0  0  0
 46128  1  0  0  0
 47129  1  0  0  0
 47130  1  0  0  0
 48131  1  0  0  0
 50132  1  0  0  0
 50133  1  0  0  0
 51134  1  0  0  0
 52135  1  0  0  0
 53136  1  0  0  0
 56137  1  0  0  0
 56138  1  0  0  0
 57139  1  0  0  0
 58140  1  0  0  0
 58141  1  0  0  0
 58142  1  0  0  0
 59143  1  0  0  0
 59144  1  0  0  0
 59145  1  0  0  0
 60146  1  0  0  0
 61147  1  0  0  0
 64148  1  0  0  0
 64149  1  0  0  0
 65150  1  0  0  0
 66151  1  0  0  0
 66152  1  0  0  0
 66153  1  0  0  0
 67154  1  0  0  0
 67155  1  0  0  0
 67156  1  0  0  0
 68157  1  0  0  0
 69158  1  0  0  0
 72159  1  0  0  0
 72160  1  0  0  0
 73161  1  0  0  0
 74162  1  0  0  0
M  END
$$$$
