5byz_ligand
  -I-interpret- 

 67 70  0  0  0  0  0  0  0  0999 V2000
    3.1820  -40.0610   -9.4140 C   0  0  0  0  0
    2.0090  -40.9070   -9.9340 C   0  0  0  0  0
    1.3720  -41.7510   -8.8300 C   0  0  0  0  0
    0.3060  -39.0170  -10.0630 C   0  0  0  0  0
    0.3240  -38.5810   -8.6200 C   0  0  0  0  0
   -0.2430  -39.0510  -12.1380 C   0  0  0  0  0
    2.0250  -43.0660  -13.5990 C   0  0  0  0  0
    2.0540  -42.7460  -14.8890 N   0  0  0  0  0
    1.1860  -40.6210  -14.3800 C   0  0  0  0  0
    2.5140  -44.9780  -12.0330 C   0  0  0  0  0
    3.3270  -46.1250  -11.9660 C   0  0  0  0  0
    2.6870  -46.5040   -9.6620 C   0  0  0  0  0
    1.7650  -44.6260  -10.9070 C   0  0  0  0  0
    2.7080  -47.3130   -8.4080 C   0  0  0  0  0
    1.8840  -47.0300   -7.5390 O   0  0  0  0  0
    3.5490  -49.2580   -7.0640 C   0  0  0  0  0
    5.9560  -47.6210   -4.6870 C   0  0  0  0  0
    6.0240  -46.2590   -4.0010 C   0  0  0  0  0
    4.8590  -46.1180   -3.0260 C   0  0  0  0  0
    3.5850  -46.2100   -3.8530 C   0  0  0  0  0
    3.5320  -47.6040   -4.4700 C   0  0  0  0  0
    1.0160  -40.0340  -10.6160 N   0  0  0  0  0
   -0.4340  -38.4420  -10.9660 N   0  0  0  0  0
    0.6770  -40.0510  -11.9670 C   0  0  0  0  0
    1.1650  -40.9680  -13.0190 C   0  0  0  0  0
    1.6030  -42.2050  -12.6910 N   0  0  0  0  0
    1.6580  -41.5490  -15.2930 C   0  0  0  0  0
    0.7920  -39.4140  -14.8300 F   0  0  0  0  0
    2.5000  -44.3210  -13.2730 N   0  0  0  0  0
    3.4110  -46.8740  -10.8140 C   0  0  0  0  0
    1.8490  -45.3760   -9.7480 C   0  0  0  0  0
    3.5550  -48.3720   -8.2450 N   0  0  0  0  0
    4.7060  -49.0600   -6.0840 C   0  0  0  0  0
    4.6730  -47.7650   -5.3920 N   0  3  0  0  0
    3.6630  -39.5554  -10.2514 H   0  0  0  0  0
    2.8087  -39.3204   -8.7067 H   0  0  0  0  0
    3.9033  -40.7092   -8.9164 H   0  0  0  0  0
    2.3982  -41.6166  -10.6641 H   0  0  0  0  0
    0.9276  -41.0937   -8.0826 H   0  0  0  0  0
    0.5995  -42.3877   -9.2612 H   0  0  0  0  0
    2.1363  -42.3713   -8.3618 H   0  0  0  0  0
    0.0021  -39.4085   -7.9877 H   0  0  0  0  0
    1.3357  -38.2836   -8.3442 H   0  0  0  0  0
   -0.3529  -37.7368   -8.4884 H   0  0  0  0  0
   -0.7370  -38.7951  -13.0753 H   0  0  0  0  0
    3.9008  -46.4258  -12.8426 H   0  0  0  0  0
    1.1106  -43.7550  -10.9423 H   0  0  0  0  0
    3.6336  -50.2772   -7.4411 H   0  0  0  0  0
    2.6352  -49.0341   -6.5136 H   0  0  0  0  0
    6.0427  -48.4059   -3.9357 H   0  0  0  0  0
    6.7715  -47.7019   -5.4057 H   0  0  0  0  0
    5.9645  -45.4717   -4.7525 H   0  0  0  0  0
    6.9643  -46.1745   -3.4562 H   0  0  0  0  0
    4.9097  -45.1679   -2.4942 H   0  0  0  0  0
    4.8886  -46.9015   -2.2688 H   0  0  0  0  0
    3.5840  -45.4494   -4.6338 H   0  0  0  0  0
    2.7113  -46.0404   -3.2237 H   0  0  0  0  0
    2.5973  -47.7287   -5.0166 H   0  0  0  0  0
    3.5861  -48.3565   -3.6833 H   0  0  0  0  0
    1.7038  -41.2923  -16.3513 H   0  0  0  0  0
    2.9001  -44.8489  -14.0487 H   0  0  0  0  0
    4.0433  -47.7616  -10.7922 H   0  0  0  0  0
    1.2532  -45.0874   -8.8820 H   0  0  0  0  0
    4.2324  -48.5622   -8.9835 H   0  0  0  0  0
    5.6318  -49.1012   -6.6578 H   0  0  0  0  0
    4.6294  -49.8388   -5.3252 H   0  0  0  0  0
    4.5402  -47.0273   -6.0838 H   0  0  0  0  0
  2  1  1  0  0  0
  2  3  1  0  0  0
 22  2  1  0  0  0
  4  5  1  0  0  0
 22  4  4  0  0  0
  4 23  4  0  0  0
  6 23  4  0  0  0
 24  6  4  0  0  0
  7  8  4  0  0  0
  7 26  4  0  0  0
 29  7  1  0  0  0
  8 27  4  0  0  0
 25  9  4  0  0  0
 27  9  4  0  0  0
  9 28  1  0  0  0
 11 10  4  0  0  0
 13 10  4  0  0  0
 10 29  1  0  0  0
 30 11  4  0  0  0
 14 12  1  0  0  0
 12 30  4  0  0  0
 12 31  4  0  0  0
 31 13  4  0  0  0
 14 15  2  0  0  0
 32 14  1  0  0  0
 16 32  1  0  0  0
 33 16  1  0  0  0
 17 18  1  0  0  0
 34 17  1  0  0  0
 18 19  1  0  0  0
 20 19  1  0  0  0
 21 20  1  0  0  0
 34 21  1  0  0  0
 24 22  4  0  0  0
 25 24  1  0  0  0
 26 25  4  0  0  0
 33 34  1  0  0  0
  1 35  1  0  0  0
  1 36  1  0  0  0
  1 37  1  0  0  0
  2 38  1  0  0  0
  3 39  1  0  0  0
  3 40  1  0  0  0
  3 41  1  0  0  0
  5 42  1  0  0  0
  5 43  1  0  0  0
  5 44  1  0  0  0
  6 45  1  0  0  0
 11 46  1  0  0  0
 13 47  1  0  0  0
 16 48  1  0  0  0
 16 49  1  0  0  0
 17 50  1  0  0  0
 17 51  1  0  0  0
 18 52  1  0  0  0
 18 53  1  0  0  0
 19 54  1  0  0  0
 19 55  1  0  0  0
 20 56  1  0  0  0
 20 57  1  0  0  0
 21 58  1  0  0  0
 21 59  1  0  0  0
 27 60  1  0  0  0
 29 61  1  0  0  0
 30 62  1  0  0  0
 31 63  1  0  0  0
 32 64  1  0  0  0
 33 65  1  0  0  0
 33 66  1  0  0  0
 34 67  1  0  0  0
M  END
$$$$
