1tr7_ligand
  -I-interpret- 

 36 36  0  0  0  0  0  0  0  0999 V2000
   58.0940  -14.4700   24.7120 C   0  0  0  0  0
   59.2250  -15.3800   25.1340 C   0  0  0  0  0
   55.6010  -14.3180   24.8530 C   0  0  0  0  0
   56.7940  -15.2440   24.8400 C   0  0  0  0  0
   54.0600  -12.7260   22.0770 C   0  0  0  0  0
   52.7820  -12.1400   21.9760 O   0  0  0  0  0
   55.1590  -11.8420   21.4420 C   0  0  0  0  0
   54.8130  -11.5920   20.0880 O   0  0  0  0  0
   55.3300  -10.5400   22.2530 C   0  0  0  0  0
   56.3750   -9.7720   21.6700 O   0  0  0  0  0
   55.5940  -10.7870   23.7750 C   0  0  0  0  0
   54.6440  -11.6660   24.4100 O   0  0  0  0  0
   55.5820   -9.5120   24.5910 C   0  0  0  0  0
   54.3100   -8.8470   24.4620 O   0  0  0  0  0
   55.5360  -13.6260   23.6130 O   0  0  0  0  0
   54.4120  -12.7620   23.5360 C   0  0  0  0  0
   58.2378  -14.1444   23.6817 H   0  0  0  0  0
   58.0679  -13.5838   25.3461 H   0  0  0  0  0
   59.0726  -15.6916   26.1673 H   0  0  0  0  0
   59.2441  -16.2574   24.4876 H   0  0  0  0  0
   60.1708  -14.8448   25.0503 H   0  0  0  0  0
   55.7019  -13.6013   25.6681 H   0  0  0  0  0
   54.6889  -14.8969   24.9981 H   0  0  0  0  0
   56.8121  -15.7987   25.7781 H   0  0  0  0  0
   56.7037  -15.9132   23.9844 H   0  0  0  0  0
   54.0214  -13.6971   21.5834 H   0  0  0  0  0
   52.1326  -12.7195   22.3810 H   0  0  0  0  0
   56.1214  -12.3534   21.4622 H   0  0  0  0  0
   54.7174  -12.4269   19.6239 H   0  0  0  0  0
   54.3886   -9.9923   22.2085 H   0  0  0  0  0
   56.4893   -8.9592   22.1679 H   0  0  0  0  0
   56.5815  -11.2484   23.7672 H   0  0  0  0  0
   56.3680   -8.8499   24.2278 H   0  0  0  0  0
   55.7495   -9.7591   25.6393 H   0  0  0  0  0
   54.3170   -8.0414   24.9840 H   0  0  0  0  0
   53.4345  -13.0154   23.9464 H   0  0  0  0  0
  1  2  1  0  0  0
  4  1  1  0  0  0
  3  4  1  0  0  0
 15  3  1  0  0  0
  5  6  1  0  0  0
  5  7  1  0  0  0
 16  5  1  0  0  0
  7  8  1  0  0  0
  7  9  1  0  0  0
  9 10  1  0  0  0
 11  9  1  0  0  0
 12 11  1  0  0  0
 11 13  1  0  0  0
 16 12  1  0  0  0
 13 14  1  0  0  0
 15 16  1  0  0  0
  1 17  1  0  0  0
  1 18  1  0  0  0
  2 19  1  0  0  0
  2 20  1  0  0  0
  2 21  1  0  0  0
  3 22  1  0  0  0
  3 23  1  0  0  0
  4 24  1  0  0  0
  4 25  1  0  0  0
  5 26  1  0  0  0
  6 27  1  0  0  0
  7 28  1  0  0  0
  8 29  1  0  0  0
  9 30  1  0  0  0
 10 31  1  0  0  0
 11 32  1  0  0  0
 13 33  1  0  0  0
 13 34  1  0  0  0
 14 35  1  0  0  0
 16 36  1  0  0  0
M  END
$$$$
