6qwb_ligand
  -I-interpret- 

 47 48  0  0  0  0  0  0  0  0999 V2000
   17.1170    8.1340   22.1560 C   0  0  0  0  0
   13.9360    4.4550   24.6790 C   0  0  0  0  0
   12.2020    3.8400   23.2790 C   0  0  0  0  0
   16.0110   10.4210   22.5260 C   0  0  0  0  0
   14.5080   10.8330   20.7210 C   0  0  0  0  0
   14.6290    8.5640   21.4930 C   0  0  0  0  0
   15.8680    7.6560   21.4060 C   0  0  0  0  0
   13.2940    5.7960   25.0230 C   0  0  0  0  0
   11.4870    5.1860   23.3560 C   0  0  0  0  0
   12.4170    6.2880   23.8710 C   0  0  0  0  0
   13.7600    8.1600   22.7160 C   0  0  0  0  0
   17.3300    9.6420   22.2730 C   0  0  0  0  0
   12.8950    3.5000   24.4820 N   0  3  0  0  0
   13.2660    6.7690   22.7770 N   0  0  0  0  0
   18.1030   10.1510   21.1180 N   0  3  0  0  0
   15.0140    9.9780   21.5450 N   0  0  0  0  0
   17.2290    9.4210   18.5390 O   0  0  0  0  0
   13.7640   10.5270   19.8160 O   0  0  0  0  0
   13.4560    8.9770   23.5390 O   0  0  0  0  0
   19.1300   10.8780   18.7180 O   0  0  0  0  0
   16.9560   11.7450   18.0860 O   0  0  0  0  0
   17.2120   10.9890   20.3830 O   0  0  0  0  0
   17.6580   10.7920   18.8650 S   0  0  0  0  0
   17.9659    7.7598   21.5838 H   0  0  0  0  0
   17.0040    7.7719   23.1779 H   0  0  0  0  0
   14.5905    4.1340   25.4894 H   0  0  0  0  0
   14.5356    4.5479   23.7735 H   0  0  0  0  0
   12.9403    3.9038   22.4796 H   0  0  0  0  0
   11.4459    3.0741   23.1060 H   0  0  0  0  0
   16.1853   11.4919   22.4221 H   0  0  0  0  0
   15.6514   10.2261   23.5363 H   0  0  0  0  0
   14.7637   11.8851   20.8463 H   0  0  0  0  0
   14.0307    8.4298   20.5918 H   0  0  0  0  0
   15.5827    6.7095   21.8653 H   0  0  0  0  0
   16.1432    7.6194   20.3519 H   0  0  0  0  0
   14.0818    6.5275   25.2029 H   0  0  0  0  0
   12.6728    5.6716   25.9100 H   0  0  0  0  0
   10.6484    5.0921   24.0459 H   0  0  0  0  0
   11.1529    5.4568   22.3544 H   0  0  0  0  0
   11.7955    7.1010   24.2463 H   0  0  0  0  0
   17.9297    9.8240   23.1648 H   0  0  0  0  0
   12.2519    3.5127   25.2736 H   0  0  0  0  0
   13.2882    2.5617   24.4079 H   0  0  0  0  0
   13.5244    6.1213   22.0326 H   0  0  0  0  0
   18.4492    9.3851   20.5402 H   0  0  0  0  0
   18.9264   10.6687   21.4252 H   0  0  0  0  0
   19.4200   11.7686   18.9285 H   0  0  0  0  0
  1  7  1  0  0  0
 12  1  1  0  0  0
  8  2  1  0  0  0
  2 13  1  0  0  0
  9  3  1  0  0  0
  3 13  1  0  0  0
 12  4  1  0  0  0
  4 16  1  0  0  0
 16  5  1  0  0  0
  5 18  2  0  0  0
  7  6  1  0  0  0
  6 11  1  0  0  0
 16  6  1  0  0  0
 10  8  1  0  0  0
 10  9  1  0  0  0
 14 10  1  0  0  0
 11 14  1  0  0  0
 11 19  2  0  0  0
 15 12  1  0  0  0
 22 15  1  0  0  0
 23 17  2  0  0  0
 23 20  1  0  0  0
 23 21  2  0  0  0
 22 23  1  0  0  0
  1 24  1  0  0  0
  1 25  1  0  0  0
  2 26  1  0  0  0
  2 27  1  0  0  0
  3 28  1  0  0  0
  3 29  1  0  0  0
  4 30  1  0  0  0
  4 31  1  0  0  0
  5 32  1  0  0  0
  6 33  1  0  0  0
  7 34  1  0  0  0
  7 35  1  0  0  0
  8 36  1  0  0  0
  8 37  1  0  0  0
  9 38  1  0  0  0
  9 39  1  0  0  0
 10 40  1  0  0  0
 12 41  1  0  0  0
 13 42  1  0  0  0
 13 43  1  0  0  0
 14 44  1  0  0  0
 15 45  1  0  0  0
 15 46  1  0  0  0
 20 47  1  0  0  0
M  END
$$$$
