4xcb_ligand
  -I-interpret- 

 76 79  0  0  0  0  0  0  0  0999 V2000
   24.6340  258.2790  215.8630 C   0  0  0  0  0
   26.1420  258.2370  215.9660 C   0  0  0  0  0
   26.6300  259.3950  216.8240 C   0  0  0  0  0
   26.1840  260.7270  216.2210 C   0  0  0  0  0
   24.6700  260.7610  215.9960 C   0  0  0  0  0
   24.1740  259.5720  215.2330 C   0  0  0  0  0
   26.5140  257.0110  216.5620 N   0  3  0  0  0
   24.2320  257.2140  215.0330 O   0  0  0  0  0
   26.5530  261.7750  217.1100 N   0  3  0  0  0
   27.9680  262.0760  216.9140 C   0  0  0  0  0
   24.3660  261.9200  215.2500 O   0  0  0  0  0
   20.6500  259.1220  214.1040 C   0  0  0  0  0
   22.1250  259.3950  213.9860 C   0  0  0  0  0
   22.4330  260.5050  213.1790 O   0  0  0  0  0
   21.9440  260.3190  211.8800 C   0  0  0  0  0
   20.4610  260.5090  211.9420 C   0  0  0  0  0
   19.8840  259.3690  212.8770 C   0  0  0  0  0
   22.7180  259.6070  215.2640 O   0  0  0  0  0
   22.5800  261.3600  210.9620 C   0  0  0  0  0
   23.9570  261.0180  210.7830 O   0  0  0  0  0
   20.1480  261.7450  212.4660 O   0  0  0  0  0
   18.6070  259.7080  213.2230 O   0  0  0  0  0
   18.5540  259.6660  214.6620 C   0  0  0  0  0
   17.6150  260.7200  215.1450 C   0  0  0  0  0
   17.2790  260.4940  216.6110 C   0  0  0  0  0
   16.7890  259.0800  216.8490 C   0  0  0  0  0
   17.8400  258.1350  216.3750 C   0  0  0  0  0
   18.0770  258.3880  215.0090 O   0  0  0  0  0
   19.9410  259.8710  215.1700 O   0  0  0  0  0
   18.1980  262.0240  215.0470 O   0  0  0  0  0
   16.3280  261.4560  217.0060 O   0  0  0  0  0
   15.5600  258.8230  216.1650 O   0  0  0  0  0
   17.3710  256.6760  216.5240 C   0  0  0  0  0
   18.5670  255.7600  216.5440 C   0  0  0  0  0
   19.2500  255.8230  217.7790 O   0  0  0  0  0
   16.5870  256.3380  215.3950 N   0  3  0  0  0
   24.2010  258.2019  216.8603 H   0  0  0  0  0
   26.5883  258.3221  214.9752 H   0  0  0  0  0
   27.7189  259.3711  216.8679 H   0  0  0  0  0
   26.2087  259.2986  217.8247 H   0  0  0  0  0
   26.6697  260.8520  215.2533 H   0  0  0  0  0
   24.1855  260.7557  216.9724 H   0  0  0  0  0
   24.5640  259.6129  214.2160 H   0  0  0  0  0
   26.1844  256.2389  215.9827 H   0  0  0  0  0
   27.5299  256.9678  216.6423 H   0  0  0  0  0
   26.0953  256.9445  217.4897 H   0  0  0  0  0
   24.5172  256.3830  215.4199 H   0  0  0  0  0
   26.3900  261.4856  218.0744 H   0  0  0  0  0
   25.9919  262.6053  216.9198 H   0  0  0  0  0
   28.5601  261.1852  217.1237 H   0  0  0  0  0
   28.1322  262.3885  215.8828 H   0  0  0  0  0
   28.2645  262.8783  217.5897 H   0  0  0  0  0
   24.6769  262.6949  215.7238 H   0  0  0  0  0
   20.6745  258.0598  214.3474 H   0  0  0  0  0
   22.5323  258.5020  213.5119 H   0  0  0  0  0
   22.1811  259.3280  211.4930 H   0  0  0  0  0
   20.0310  260.4556  210.9418 H   0  0  0  0  0
   19.9401  258.4454  212.3009 H   0  0  0  0  0
   22.4954  262.3519  211.4058 H   0  0  0  0  0
   22.0691  261.3719  209.9992 H   0  0  0  0  0
   24.3736  261.6633  210.2072 H   0  0  0  0  0
   19.1938  261.8459  212.4968 H   0  0  0  0  0
   16.7238  260.6591  214.5203 H   0  0  0  0  0
   18.1762  260.6116  217.2187 H   0  0  0  0  0
   16.6004  258.9465  217.9142 H   0  0  0  0  0
   18.7422  258.2788  216.9696 H   0  0  0  0  0
   17.5712  262.6782  215.3643 H   0  0  0  0  0
   16.1067  261.3246  217.9308 H   0  0  0  0  0
   15.2812  257.9209  216.3384 H   0  0  0  0  0
   16.8007  256.5705  217.4469 H   0  0  0  0  0
   19.2521  256.0711  215.7554 H   0  0  0  0  0
   18.2201  254.7376  216.3942 H   0  0  0  0  0
   20.0039  255.2291  217.7571 H   0  0  0  0  0
   16.2689  255.3726  215.4802 H   0  0  0  0  0
   15.7801  256.9599  215.3443 H   0  0  0  0  0
   17.1490  256.4387  214.5498 H   0  0  0  0  0
  1  2  1  0  0  0
  6  1  1  0  0  0
  1  8  1  0  0  0
  2  3  1  0  0  0
  2  7  1  0  0  0
  4  3  1  0  0  0
  5  4  1  0  0  0
  4  9  1  0  0  0
  6  5  1  0  0  0
  5 11  1  0  0  0
 18  6  1  0  0  0
  9 10  1  0  0  0
 13 12  1  0  0  0
 12 17  1  0  0  0
 12 29  1  0  0  0
 13 14  1  0  0  0
 13 18  1  0  0  0
 14 15  1  0  0  0
 15 16  1  0  0  0
 15 19  1  0  0  0
 16 17  1  0  0  0
 16 21  1  0  0  0
 17 22  1  0  0  0
 19 20  1  0  0  0
 22 23  1  0  0  0
 23 24  1  0  0  0
 23 28  1  0  0  0
 23 29  1  0  0  0
 24 25  1  0  0  0
 24 30  1  0  0  0
 25 26  1  0  0  0
 25 31  1  0  0  0
 26 27  1  0  0  0
 26 32  1  0  0  0
 27 28  1  0  0  0
 27 33  1  0  0  0
 33 34  1  0  0  0
 33 36  1  0  0  0
 34 35  1  0  0  0
  1 37  1  0  0  0
  2 38  1  0  0  0
  3 39  1  0  0  0
  3 40  1  0  0  0
  4 41  1  0  0  0
  5 42  1  0  0  0
  6 43  1  0  0  0
  7 44  1  0  0  0
  7 45  1  0  0  0
  7 46  1  0  0  0
  8 47  1  0  0  0
  9 48  1  0  0  0
  9 49  1  0  0  0
 10 50  1  0  0  0
 10 51  1  0  0  0
 10 52  1  0  0  0
 11 53  1  0  0  0
 12 54  1  0  0  0
 13 55  1  0  0  0
 15 56  1  0  0  0
 16 57  1  0  0  0
 17 58  1  0  0  0
 19 59  1  0  0  0
 19 60  1  0  0  0
 20 61  1  0  0  0
 21 62  1  0  0  0
 24 63  1  0  0  0
 25 64  1  0  0  0
 26 65  1  0  0  0
 27 66  1  0  0  0
 30 67  1  0  0  0
 31 68  1  0  0  0
 32 69  1  0  0  0
 33 70  1  0  0  0
 34 71  1  0  0  0
 34 72  1  0  0  0
 35 73  1  0  0  0
 36 74  1  0  0  0
 36 75  1  0  0  0
 36 76  1  0  0  0
M  END
$$$$
