6edl_ligand
  -I-interpret- 

 41 44  0  0  0  0  0  0  0  0999 V2000
   20.3050   -9.1210   -6.4880 C   0  0  0  0  0
   20.8280   -7.9260   -5.9600 C   0  0  0  0  0
   22.0980   -7.5490   -6.2660 C   0  0  0  0  0
   22.8740   -8.3650   -7.1110 C   0  0  0  0  0
   24.3940   -9.2960   -8.3470 C   0  0  0  0  0
   22.0410  -12.2070   -9.1310 C   0  0  0  0  0
   21.3990  -14.4450  -10.2470 C   0  0  0  0  0
   18.1700  -10.8720   -8.0300 C   0  0  0  0  0
   17.8740   -9.7000   -8.6980 C   0  0  0  0  0
   17.5180  -10.9390  -10.7180 C   0  0  0  0  0
   17.8140  -12.1150  -10.0540 C   0  0  0  0  0
   17.2900  -11.2110   -5.7380 C   0  0  0  0  0
   23.2850  -10.1180   -8.3870 C   0  0  0  0  0
   23.1470  -11.3840   -9.1270 C   0  0  0  0  0
   22.3300  -13.2960   -9.9520 C   0  0  0  0  0
   18.5260  -10.8460   -6.5640 C   0  0  0  0  0
   17.5470   -9.7320  -10.0400 C   0  0  0  0  0
   18.1410  -12.0790   -8.7090 C   0  0  0  0  0
   17.1990  -10.9660  -12.0310 F   0  0  0  0  0
   18.4330  -13.2260   -8.0540 F   0  0  0  0  0
   23.5400  -13.1550  -10.4280 N   0  0  0  0  0
   24.0870  -11.9690   -9.9290 N   0  0  0  0  0
   22.3320   -9.5220   -7.6070 N   0  0  0  0  0
   21.0270   -9.8820   -7.2740 N   0  0  0  0  0
   19.0030   -9.5110   -6.1770 N   0  0  0  0  0
   24.1160   -8.2520   -7.5720 N   0  0  0  0  0
   20.2161   -7.3038   -5.3069 H   0  0  0  0  0
   22.5109   -6.6249   -5.8614 H   0  0  0  0  0
   25.3375   -9.4731   -8.8633 H   0  0  0  0  0
   21.1098  -12.0371   -8.5905 H   0  0  0  0  0
   21.1411  -14.9502   -9.3162 H   0  0  0  0  0
   20.4929  -14.0649  -10.7187 H   0  0  0  0  0
   21.8924  -15.1476  -10.9186 H   0  0  0  0  0
   17.8984   -8.7490   -8.1660 H   0  0  0  0  0
   17.7901  -13.0657  -10.5866 H   0  0  0  0  0
   16.4970  -10.4896   -5.9349 H   0  0  0  0  0
   16.9515  -12.2095   -6.0147 H   0  0  0  0  0
   17.5445  -11.1930   -4.6783 H   0  0  0  0  0
   19.3210  -11.5680   -6.3775 H   0  0  0  0  0
   17.3117   -8.8064  -10.5654 H   0  0  0  0  0
   18.3825   -8.8707   -5.6816 H   0  0  0  0  0
  1  2  4  0  0  0
  1 24  4  0  0  0
 25  1  1  0  0  0
  2  3  4  0  0  0
  3  4  4  0  0  0
  4 23  4  0  0  0
  4 26  4  0  0  0
  5 13  4  0  0  0
 26  5  4  0  0  0
 14  6  4  0  0  0
  6 15  4  0  0  0
 15  7  1  0  0  0
  8  9  4  0  0  0
 16  8  1  0  0  0
  8 18  4  0  0  0
  9 17  4  0  0  0
 11 10  4  0  0  0
 17 10  4  0  0  0
 10 19  1  0  0  0
 18 11  4  0  0  0
 16 12  1  0  0  0
 13 14  1  0  0  0
 23 13  4  0  0  0
 14 22  4  0  0  0
 15 21  4  0  0  0
 16 25  1  0  0  0
 18 20  1  0  0  0
 21 22  4  0  0  0
 23 24  4  0  0  0
  2 27  1  0  0  0
  3 28  1  0  0  0
  5 29  1  0  0  0
  6 30  1  0  0  0
  7 31  1  0  0  0
  7 32  1  0  0  0
  7 33  1  0  0  0
  9 34  1  0  0  0
 11 35  1  0  0  0
 12 36  1  0  0  0
 12 37  1  0  0  0
 12 38  1  0  0  0
 16 39  1  0  0  0
 17 40  1  0  0  0
 25 41  1  0  0  0
M  END
$$$$
