5sys_ligand
  -I-interpret- 

 70 73  0  0  0  0  0  0  0  0999 V2000
    6.3180   37.2330    5.6460 C   0  0  0  0  0
    3.3220   35.3240    7.5680 C   0  0  0  0  0
    7.5840   36.6660    5.3430 C   0  0  0  0  0
   10.1210   36.3840    4.4720 C   0  0  0  0  0
    8.3740   35.5520    5.6380 C   0  0  0  0  0
    4.4430   35.9620    6.9480 C   0  0  0  0  0
    6.7550   39.6930    2.1170 C   0  0  0  0  0
    9.4990   37.4940    4.0640 N   0  0  0  0  0
    7.6150   39.8100    3.3690 C   0  0  0  0  0
    1.7050   31.4910    5.8690 O   0  0  0  0  0
    9.6350   35.3970    5.2240 N   0  0  0  0  0
    8.2430   37.6040    4.5210 C   0  0  0  0  0
    2.4440   34.5610    6.8020 C   0  0  0  0  0
    0.6130   31.9530    6.1990 C   0  0  0  0  0
    1.3020   34.0230    7.3890 C   0  0  0  0  0
    0.4400   33.2440    6.5820 N   0  0  0  0  0
    5.3240   36.5180    6.3710 C   0  0  0  0  0
    2.2860   37.9470    6.3650 N   0  0  0  0  0
    2.9740   38.4590    5.6160 C   0  0  0  0  0
    3.8250   39.1700    4.6610 C   0  0  0  0  0
    3.0710   40.4350    4.2440 C   0  0  0  0  0
    2.4290   41.0800    5.0720 O   0  0  0  0  0
    3.1400   40.7670    2.9600 N   0  0  0  0  0
    2.7440   42.0760    2.4680 C   0  0  0  0  0
    5.1850   39.5280    5.3160 C   0  0  0  0  0
    6.2550   38.4660    5.0600 C   0  0  0  0  0
    7.4000   38.6950    4.3130 N   0  0  0  0  0
    7.5380   40.0700    0.9800 O   0  0  0  0  0
    7.5890   41.4710    0.7100 C   0  0  0  0  0
    3.0960   35.5410    8.9340 C   0  0  0  0  0
    4.1100   36.2590    9.7860 C   0  0  0  0  0
    1.9350   35.0040    9.4890 C   0  0  0  0  0
    1.0470   34.2570    8.7360 C   0  0  0  0  0
   -0.6240   31.1090    6.1580 C   0  0  0  0  0
   -1.8150   31.4900    6.7820 C   0  0  0  0  0
   -2.9540   30.7150    6.6460 C   0  0  0  0  0
   -2.9120   29.5460    5.9080 C   0  0  0  0  0
   -1.7280   29.1360    5.3050 C   0  0  0  0  0
   -0.5890   29.9240    5.4280 C   0  0  0  0  0
   -1.6550   27.8530    4.5460 C   0  0  0  0  0
   -1.4230   28.0460    3.2540 F   0  0  0  0  0
   -2.7730   27.1280    4.6230 F   0  0  0  0  0
   -0.6640   27.0710    4.9720 F   0  0  0  0  0
   11.1560   36.2717    4.1491 H   0  0  0  0  0
    7.9341   34.7598    6.2438 H   0  0  0  0  0
    5.8890   40.3495    2.2021 H   0  0  0  0  0
    6.4093   38.6657    2.0021 H   0  0  0  0  0
    7.3438   40.7357    3.8765 H   0  0  0  0  0
    8.6603   39.7910    3.0605 H   0  0  0  0  0
    2.6504   34.3856    5.7462 H   0  0  0  0  0
   -0.4076   33.7044    6.2503 H   0  0  0  0  0
    4.0393   38.5500    3.7905 H   0  0  0  0  0
    3.4844   40.0764    2.2930 H   0  0  0  0  0
    1.6936   42.2484    2.7026 H   0  0  0  0  0
    3.3548   42.8422    2.9454 H   0  0  0  0  0
    2.8877   42.1156    1.3882 H   0  0  0  0  0
    5.0317   39.5986    6.3929 H   0  0  0  0  0
    5.5311   40.4660    4.8818 H   0  0  0  0  0
    6.5803   41.8415    0.5277 H   0  0  0  0  0
    8.0185   41.9895    1.5672 H   0  0  0  0  0
    8.2070   41.6478   -0.1703 H   0  0  0  0  0
    5.0511   35.7094    9.7693 H   0  0  0  0  0
    4.2672   37.2633    9.3927 H   0  0  0  0  0
    3.7427   36.3219   10.8103 H   0  0  0  0  0
    1.7216   35.1774   10.5437 H   0  0  0  0  0
    0.1471   33.8516    9.1985 H   0  0  0  0  0
   -1.8473   32.4017    7.3786 H   0  0  0  0  0
   -3.8845   31.0262    7.1208 H   0  0  0  0  0
   -3.8128   28.9422    5.7984 H   0  0  0  0  0
    0.3389   29.6114    4.9490 H   0  0  0  0  0
  1  3  4  0  0  0
  1 17  1  0  0  0
 26  1  4  0  0  0
  6  2  1  0  0  0
  2 13  4  0  0  0
  2 30  4  0  0  0
  3  5  4  0  0  0
  3 12  4  0  0  0
  8  4  4  0  0  0
 11  4  4  0  0  0
  5 11  4  0  0  0
 17  6  3  0  0  0
  9  7  1  0  0  0
  7 28  1  0  0  0
 12  8  4  0  0  0
 27  9  1  0  0  0
 14 10  2  0  0  0
 12 27  4  0  0  0
 13 15  4  0  0  0
 16 14  1  0  0  0
 14 34  1  0  0  0
 15 16  1  0  0  0
 15 33  4  0  0  0
 19 18  3  0  0  0
 20 19  1  0  0  0
 20 21  1  0  0  0
 25 20  1  0  0  0
 21 22  2  0  0  0
 21 23  1  0  0  0
 23 24  1  0  0  0
 25 26  1  0  0  0
 26 27  4  0  0  0
 28 29  1  0  0  0
 30 31  1  0  0  0
 30 32  4  0  0  0
 32 33  4  0  0  0
 34 35  4  0  0  0
 34 39  4  0  0  0
 35 36  4  0  0  0
 36 37  4  0  0  0
 37 38  4  0  0  0
 38 39  4  0  0  0
 38 40  1  0  0  0
 40 41  1  0  0  0
 40 42  1  0  0  0
 40 43  1  0  0  0
  4 44  1  0  0  0
  5 45  1  0  0  0
  7 46  1  0  0  0
  7 47  1  0  0  0
  9 48  1  0  0  0
  9 49  1  0  0  0
 13 50  1  0  0  0
 16 51  1  0  0  0
 20 52  1  0  0  0
 23 53  1  0  0  0
 24 54  1  0  0  0
 24 55  1  0  0  0
 24 56  1  0  0  0
 25 57  1  0  0  0
 25 58  1  0  0  0
 29 59  1  0  0  0
 29 60  1  0  0  0
 29 61  1  0  0  0
 31 62  1  0  0  0
 31 63  1  0  0  0
 31 64  1  0  0  0
 32 65  1  0  0  0
 33 66  1  0  0  0
 35 67  1  0  0  0
 36 68  1  0  0  0
 37 69  1  0  0  0
 39 70  1  0  0  0
M  END
$$$$
