3caj_ligand
  -I-interpret- 

 26 27  0  0  0  0  0  0  0  0999 V2000
   -5.3570   -0.5580   16.0760 N   0  0  0  0  0
   -3.5510    3.4390   14.9780 C   0  0  0  0  0
   -4.6910    4.1610   14.5200 C   0  0  0  0  0
   -4.5660    5.3430   13.7710 C   0  0  0  0  0
   -3.2650    5.8280   13.4740 C   0  0  0  0  0
   -1.8090    7.4990   12.4390 C   0  0  0  0  0
   -7.3040    0.9430   16.4270 O   0  0  0  0  0
   -5.4030    0.9430   18.0340 O   0  0  0  0  0
   -5.8870    0.8190   16.6830 S   0  0  0  0  0
   -5.1120    2.1620   15.7970 C   0  0  0  0  0
   -3.8230    2.2930   15.7120 N   0  0  0  0  0
   -6.1160    3.3460   15.0350 S   0  0  0  0  0
   -2.1220    5.1150   13.9220 C   0  0  0  0  0
   -2.2360    3.9300   14.6720 C   0  0  0  0  0
   -3.1410    7.0010   12.7400 O   0  0  0  0  0
   -1.6430    8.8020   13.1270 C   0  0  0  0  0
   -6.0024   -1.1865   15.5976 H   0  0  0  0  0
   -4.3727   -0.8099   16.1663 H   0  0  0  0  0
   -5.4506    5.8774   13.4246 H   0  0  0  0  0
   -1.6864    7.6221   11.3629 H   0  0  0  0  0
   -1.0548    6.7915   12.7836 H   0  0  0  0  0
   -1.1300    5.4956   13.6785 H   0  0  0  0  0
   -1.3481    3.3974   15.0126 H   0  0  0  0  0
   -2.3980    9.5006   12.7663 H   0  0  0  0  0
   -1.7599    8.6615   14.2016 H   0  0  0  0  0
   -0.6495    9.1983   12.9170 H   0  0  0  0  0
  9  1  1  0  0  0
  2  3  4  0  0  0
 11  2  4  0  0  0
  2 14  4  0  0  0
  3  4  4  0  0  0
  3 12  4  0  0  0
  4  5  4  0  0  0
  5 13  4  0  0  0
  5 15  1  0  0  0
 15  6  1  0  0  0
  6 16  1  0  0  0
  9  7  2  0  0  0
  9  8  2  0  0  0
 10  9  1  0  0  0
 10 11  4  0  0  0
 10 12  4  0  0  0
 13 14  4  0  0  0
  1 17  1  0  0  0
  1 18  1  0  0  0
  4 19  1  0  0  0
  6 20  1  0  0  0
  6 21  1  0  0  0
 13 22  1  0  0  0
 14 23  1  0  0  0
 16 24  1  0  0  0
 16 25  1  0  0  0
 16 26  1  0  0  0
M  END
$$$$
