4o61_ligand
  -I-interpret- 

 21 20  0  0  0  0  0  0  0  0999 V2000
   15.7350    3.4530    3.6840 C   0  0  0  0  0
   15.9230    4.0820    2.6070 O   0  0  0  0  0
   14.7670    3.6830    4.4320 O   0  0  0  0  0
   16.7280    2.3660    4.0950 C   0  0  0  0  0
   18.0970    2.4690    3.3420 C   0  0  0  0  0
   17.9510    2.7320    1.8980 O   0  0  0  0  0
   18.9410    3.6230    3.8880 C   0  0  0  0  0
   20.3450    3.7750    3.2910 C   0  0  0  0  0
   20.8330    4.9330    3.2480 O   0  0  0  0  0
   20.9820    2.7820    2.8900 O   0  0  0  0  0
   18.8150    1.1410    3.6600 C   0  0  0  0  0
   19.0800    0.3350    2.7630 O   0  0  0  0  0
   19.1640    0.8840    4.8380 O   0  0  0  0  0
   16.7193    3.7553    2.1818 H   0  0  0  0  0
   16.2850    1.4015    3.8469 H   0  0  0  0  0
   16.9261    2.4837    5.1604 H   0  0  0  0  0
   17.4260    2.0347    1.4984 H   0  0  0  0  0
   19.0816    3.4218    4.9500 H   0  0  0  0  0
   18.4034    4.5380    3.6393 H   0  0  0  0  0
   20.1965    5.5605    3.5984 H   0  0  0  0  0
   18.8890    1.5999    5.4154 H   0  0  0  0  0
  1  2  1  0  0  0
  1  3  2  0  0  0
  1  4  1  0  0  0
  4  5  1  0  0  0
  5  6  1  0  0  0
  5  7  1  0  0  0
  5 11  1  0  0  0
  7  8  1  0  0  0
  8  9  1  0  0  0
  8 10  2  0  0  0
 11 12  2  0  0  0
 11 13  1  0  0  0
  2 14  1  0  0  0
  4 15  1  0  0  0
  4 16  1  0  0  0
  6 17  1  0  0  0
  7 18  1  0  0  0
  7 19  1  0  0  0
  9 20  1  0  0  0
 13 21  1  0  0  0
M  END
$$$$
