6inz_ligand
  -I-interpret- 

 47 48  0  0  0  0  0  0  0  0999 V2000
   -0.2780   -7.1890  -21.3160 C   0  0  0  0  0
   -1.1720   -6.0700  -20.9050 C   0  0  0  0  0
   -2.4590   -6.1850  -21.7380 C   0  0  0  0  0
   -2.1250   -6.2660  -23.2120 C   0  0  0  0  0
   -0.9320   -6.7460  -23.6030 C   0  0  0  0  0
   -0.5200   -7.0320  -24.9870 C   0  0  0  0  0
   -1.4170   -6.2860  -19.5170 O   0  0  0  0  0
   -3.1770   -4.9510  -21.5820 O   0  0  0  0  0
    0.1130   -6.9940  -22.6610 O   0  0  0  0  0
   -1.3160   -7.0310  -25.9850 O   0  0  0  0  0
    0.6770   -7.3030  -25.0940 O   0  0  0  0  0
    2.6330   -9.8080  -18.4790 C   0  0  0  0  0
    2.0130   -8.4060  -18.7200 C   0  0  0  0  0
    1.5090   -8.3640  -20.1540 C   0  0  0  0  0
    2.7250   -8.6490  -21.0930 C   0  0  0  0  0
    3.4820   -9.9430  -20.7050 C   0  0  0  0  0
    4.7430  -10.2410  -21.4980 C   0  0  0  0  0
    0.8990   -7.2360  -16.9600 C   0  0  0  0  0
   -0.2130   -7.2370  -15.9380 C   0  0  0  0  0
    0.9050   -8.2400  -17.8360 N   0  0  0  0  0
    3.2050   -9.6850  -17.1840 O   0  0  0  0  0
    0.8410   -7.0920  -20.4510 O   0  0  0  0  0
    2.2960   -8.7560  -22.4800 O   0  0  0  0  0
    3.7960  -10.0280  -19.2880 O   0  0  0  0  0
    5.2250  -11.4000  -20.8670 O   0  0  0  0  0
    1.7790   -6.3620  -17.0380 O   0  0  0  0  0
   -0.7541   -8.1673  -21.2495 H   0  0  0  0  0
   -0.7557   -5.0752  -21.0635 H   0  0  0  0  0
   -3.0162   -7.0644  -21.4150 H   0  0  0  0  0
   -2.8507   -5.9356  -23.9552 H   0  0  0  0  0
   -0.5927   -6.2063  -19.0315 H   0  0  0  0  0
   -3.4205   -4.8381  -20.6603 H   0  0  0  0  0
   -2.1982   -6.7949  -25.6890 H   0  0  0  0  0
    1.8828  -10.5788  -18.6557 H   0  0  0  0  0
    2.7468   -7.6191  -18.5456 H   0  0  0  0  0
    0.7484   -9.1277  -20.3164 H   0  0  0  0  0
    3.4038   -7.8043  -20.9753 H   0  0  0  0  0
    2.7502  -10.7060  -20.9704 H   0  0  0  0  0
    5.4589   -9.4191  -21.4911 H   0  0  0  0  0
    4.5580  -10.3776  -22.5635 H   0  0  0  0  0
    0.2159   -7.2665  -14.9364 H   0  0  0  0  0
   -0.8106   -6.3326  -16.0523 H   0  0  0  0  0
   -0.8440   -8.1126  -16.0904 H   0  0  0  0  0
    0.1190   -8.8889  -17.8747 H   0  0  0  0  0
    3.6207  -10.5149  -16.9389 H   0  0  0  0  0
    3.0581   -8.9308  -23.0369 H   0  0  0  0  0
    6.0361  -11.6826  -21.2958 H   0  0  0  0  0
  1  2  1  0  0  0
  1  9  1  0  0  0
 22  1  1  0  0  0
  2  3  1  0  0  0
  2  7  1  0  0  0
  3  4  1  0  0  0
  3  8  1  0  0  0
  5  4  2  0  0  0
  5  6  1  0  0  0
  9  5  1  0  0  0
  6 10  1  0  0  0
  6 11  2  0  0  0
 13 12  1  0  0  0
 12 21  1  0  0  0
 12 24  1  0  0  0
 13 14  1  0  0  0
 20 13  1  0  0  0
 14 15  1  0  0  0
 14 22  1  0  0  0
 15 16  1  0  0  0
 15 23  1  0  0  0
 16 17  1  0  0  0
 24 16  1  0  0  0
 17 25  1  0  0  0
 18 19  1  0  0  0
 18 20  1  0  0  0
 18 26  2  0  0  0
  1 27  1  0  0  0
  2 28  1  0  0  0
  3 29  1  0  0  0
  4 30  1  0  0  0
  7 31  1  0  0  0
  8 32  1  0  0  0
 10 33  1  0  0  0
 12 34  1  0  0  0
 13 35  1  0  0  0
 14 36  1  0  0  0
 15 37  1  0  0  0
 16 38  1  0  0  0
 17 39  1  0  0  0
 17 40  1  0  0  0
 19 41  1  0  0  0
 19 42  1  0  0  0
 19 43  1  0  0  0
 20 44  1  0  0  0
 21 45  1  0  0  0
 23 46  1  0  0  0
 25 47  1  0  0  0
M  END
$$$$
