3vi2_ligand
  -I-interpret- 

 28 28  0  0  0  0  0  0  0  0999 V2000
   18.4180   33.8580    9.8760 C   0  0  0  0  0
   25.2220   37.0350   12.7100 O   0  0  0  0  0
   22.1880   33.2690   16.0680 O   0  0  0  0  0
   25.7190   36.2930   14.7270 O   0  0  0  0  0
   20.2830   36.4620   14.6090 O   0  0  0  0  0
   19.8350   32.9020   12.4830 C   0  0  0  0  0
   20.8150   33.0270   13.4410 C   0  0  0  0  0
   19.1740   35.1130   12.9520 C   0  0  0  0  0
   23.5560   35.7770   13.8110 C   0  0  0  0  0
   23.2440   35.2520   15.2280 C   0  0  0  0  0
   17.9990   33.7900   11.2010 O   0  0  0  0  0
   24.9480   36.4250   13.7530 C   0  0  0  0  0
   22.1260   34.1900   15.2470 C   0  0  0  0  0
   19.0090   33.9570   12.2140 C   0  0  0  0  0
   20.1450   35.2710   13.9110 C   0  0  0  0  0
   20.9830   34.2000   14.1800 C   0  0  0  0  0
   18.8654   34.8339    9.6874 H   0  0  0  0  0
   19.1547   33.0768    9.6887 H   0  0  0  0  0
   17.5610   33.7164    9.2175 H   0  0  0  0  0
   25.2821   35.7825   15.4127 H   0  0  0  0  0
   21.0092   36.3842   15.2320 H   0  0  0  0  0
   19.7179   31.9640   11.9402 H   0  0  0  0  0
   21.4806   32.1845   13.6288 H   0  0  0  0  0
   18.4965   35.9457   12.7631 H   0  0  0  0  0
   22.8113   36.5276   13.5461 H   0  0  0  0  0
   23.5336   34.9376   13.1160 H   0  0  0  0  0
   22.9078   36.0976   15.8280 H   0  0  0  0  0
   24.1500   34.7861   15.6156 H   0  0  0  0  0
 11  1  1  0  0  0
 12  2  2  0  0  0
 13  3  2  0  0  0
 12  4  1  0  0  0
 15  5  1  0  0  0
  7  6  4  0  0  0
  6 14  4  0  0  0
 16  7  4  0  0  0
 14  8  4  0  0  0
  8 15  4  0  0  0
 10  9  1  0  0  0
  9 12  1  0  0  0
 13 10  1  0  0  0
 14 11  1  0  0  0
 13 16  1  0  0  0
 15 16  4  0  0  0
  1 17  1  0  0  0
  1 18  1  0  0  0
  1 19  1  0  0  0
  4 20  1  0  0  0
  5 21  1  0  0  0
  6 22  1  0  0  0
  7 23  1  0  0  0
  8 24  1  0  0  0
  9 25  1  0  0  0
  9 26  1  0  0  0
 10 27  1  0  0  0
 10 28  1  0  0  0
M  END
$$$$
