6g28_ligand
  -I-interpret- 

 59 62  0  0  0  0  0  0  0  0999 V2000
   11.4400   -1.9080  -27.5300 N   0  0  0  0  0
   12.5060   -1.4050  -26.8710 C   0  0  0  0  0
   12.6130   -0.1430  -26.5200 N   0  0  0  0  0
   11.6300    0.6850  -26.8200 C   0  0  0  0  0
   10.4410    0.2800  -27.5050 C   0  0  0  0  0
   10.4170   -1.1170  -27.8420 C   0  0  0  0  0
    9.3510   -1.6270  -28.5050 N   0  0  0  0  0
    9.5840    1.3010  -27.6770 N   0  0  0  0  0
   10.2480    2.3630  -27.1050 C   0  0  0  0  0
   11.4430    1.9630  -26.6120 N   0  0  0  0  0
    9.6400    6.8580  -23.1660 P   0  0  0  0  0
    8.9180    6.0210  -20.4980 P   0  0  0  0  0
   12.4790    2.7640  -25.9410 C   0  0  0  0  0
   10.0860    8.1980  -23.6010 O   0  0  0  0  0
    9.2880    4.5770  -20.6330 O   0  0  0  0  0
   12.1070    9.3240  -17.7770 C   0  0  0  0  0
   13.1470   10.1730  -18.2910 O   0  0  0  0  0
   13.2160    3.6970  -26.8430 C   0  0  0  0  0
   14.6210    3.3950  -26.6860 O   0  0  0  0  0
    8.3890    6.4060  -23.6400 O   0  0  0  0  0
    7.4920    6.4220  -20.5230 O   0  0  0  0  0
   12.7010    8.2280  -16.8790 C   0  0  0  0  0
   13.8990    8.6800  -16.2540 O   0  0  0  0  0
   12.9180    5.0800  -26.3490 C   0  0  0  0  0
   13.9220    6.0540  -26.3930 O   0  0  0  0  0
    9.6940    6.8600  -21.5940 O   0  0  0  0  0
   12.9690    7.0980  -17.8680 C   0  0  0  0  0
   14.2600    7.3150  -18.4310 O   0  0  0  0  0
   12.4650    4.8770  -24.9310 C   0  0  0  0  0
   11.8330    3.5900  -25.0030 O   0  0  0  0  0
   11.8520    7.2380  -18.8670 C   0  0  0  0  0
   11.3900    8.5980  -18.7780 O   0  0  0  0  0
   11.4780    5.9670  -24.7740 C   0  0  0  0  0
   10.8960    5.8030  -23.5060 O   0  0  0  0  0
   10.7070    6.2840  -18.5170 C   0  0  0  0  0
    9.4800    6.6760  -19.1750 O   0  0  0  0  0
   13.3215   -2.0820  -26.6165 H   0  0  0  0  0
    9.3352   -2.6138  -28.7628 H   0  0  0  0  0
    8.5644   -1.0242  -28.7463 H   0  0  0  0  0
    9.8650    3.3823  -27.0562 H   0  0  0  0  0
   13.1913    2.0533  -25.5220 H   0  0  0  0  0
   10.9440    8.3894  -23.2151 H   0  0  0  0  0
   10.2432    4.4879  -20.5973 H   0  0  0  0  0
   11.4411   10.0142  -17.2590 H   0  0  0  0  0
   12.7587   10.8509  -18.8489 H   0  0  0  0  0
   12.9350    3.6076  -27.8924 H   0  0  0  0  0
   15.1369    3.9747  -27.2512 H   0  0  0  0  0
   12.0498    7.9284  -16.0579 H   0  0  0  0  0
   14.2524    7.9810  -15.6989 H   0  0  0  0  0
   12.1906    5.5084  -27.0385 H   0  0  0  0  0
   13.5798    6.8806  -26.0448 H   0  0  0  0  0
   12.9811    6.0918  -17.4491 H   0  0  0  0  0
   14.4554    6.6160  -19.0594 H   0  0  0  0  0
   13.1976    4.8991  -24.1242 H   0  0  0  0  0
   12.1964    6.9968  -19.8726 H   0  0  0  0  0
   10.7218    5.9228  -25.5577 H   0  0  0  0  0
   11.9583    6.9418  -24.8584 H   0  0  0  0  0
   10.5480    6.3120  -17.4390 H   0  0  0  0  0
   10.9754    5.2814  -18.8499 H   0  0  0  0  0
  2  1  4  0  0  0
  6  1  4  0  0  0
  3  2  4  0  0  0
  4  3  4  0  0  0
  4  5  4  0  0  0
 10  4  4  0  0  0
  5  6  4  0  0  0
  8  5  4  0  0  0
  6  7  1  0  0  0
  9  8  4  0  0  0
 10  9  4  0  0  0
 13 10  1  0  0  0
 11 14  1  0  0  0
 11 20  2  0  0  0
 26 11  1  0  0  0
 11 34  1  0  0  0
 12 15  1  0  0  0
 12 21  2  0  0  0
 12 26  1  0  0  0
 36 12  1  0  0  0
 13 18  1  0  0  0
 30 13  1  0  0  0
 16 17  1  0  0  0
 16 22  1  0  0  0
 32 16  1  0  0  0
 18 19  1  0  0  0
 24 18  1  0  0  0
 22 23  1  0  0  0
 27 22  1  0  0  0
 24 25  1  0  0  0
 29 24  1  0  0  0
 27 28  1  0  0  0
 31 27  1  0  0  0
 29 30  1  0  0  0
 33 29  1  0  0  0
 31 32  1  0  0  0
 35 31  1  0  0  0
 34 33  1  0  0  0
 35 36  1  0  0  0
  2 37  1  0  0  0
  7 38  1  0  0  0
  7 39  1  0  0  0
  9 40  1  0  0  0
 13 41  1  0  0  0
 14 42  1  0  0  0
 15 43  1  0  0  0
 16 44  1  0  0  0
 17 45  1  0  0  0
 18 46  1  0  0  0
 19 47  1  0  0  0
 22 48  1  0  0  0
 23 49  1  0  0  0
 24 50  1  0  0  0
 25 51  1  0  0  0
 27 52  1  0  0  0
 28 53  1  0  0  0
 29 54  1  0  0  0
 31 55  1  0  0  0
 33 56  1  0  0  0
 33 57  1  0  0  0
 35 58  1  0  0  0
 35 59  1  0  0  0
M  END
$$$$
