### 
### Created by X-TOOL on Wed Jan  1 15:39:34 2020
### 

@<TRIPOS>MOLECULE
6g28_ligand
   57    60     1     0     0
SMALL
GAST_HUCK


@<TRIPOS>ATOM
      1 N1         11.4400   -1.9080  -27.5300 N.ar      1 AR6        -0.2698
      2 C2         12.5060   -1.4050  -26.8710 C.ar      1 AR6         0.0533
      3 N3         12.6130   -0.1430  -26.5200 N.ar      1 AR6        -0.2714
      4 C4         11.6300    0.6850  -26.8200 C.ar      1 AR6         0.1613
      5 C5         10.4410    0.2800  -27.5050 C.ar      1 AR6         0.1045
      6 C6         10.4170   -1.1170  -27.8420 C.ar      1 AR6         0.1298
      7 N6          9.3510   -1.6270  -28.5050 N.pl3     1 AR6        -0.3152
      8 N7          9.5840    1.3010  -27.6770 N.2       1 AR6        -0.2958
      9 C8         10.2480    2.3630  -27.1050 C.2       1 AR6         0.1123
     10 N9         11.4430    1.9630  -26.6120 N.pl3     1 AR6        -0.1919
     11 PA          9.6400    6.8580  -23.1660 P.3       1 AR6         0.2972
     12 PB          8.9180    6.0210  -20.4980 P.3       1 AR6         0.2972
     13 C1'        12.4790    2.7640  -25.9410 C.3       1 AR6         0.2010
     14 O1A        10.0860    8.1980  -23.6010 O.co2     1 AR6        -0.6127
     15 O1B         9.2880    4.5770  -20.6330 O.co2     1 AR6        -0.6127
     16 C1D        12.1070    9.3240  -17.7770 C.3       1 AR6         0.1854
     17 O1D        13.1470   10.1730  -18.2910 O.3       1 AR6        -0.3649
     18 C2'        13.2160    3.6970  -26.8430 C.3       1 AR6         0.1385
     19 O2'        14.6210    3.3950  -26.6860 O.3       1 AR6        -0.3836
     20 O2A         8.3890    6.4060  -23.6400 O.co2     1 AR6        -0.6127
     21 O2B         7.4920    6.4220  -20.5230 O.co2     1 AR6        -0.6127
     22 C2D        12.7010    8.2280  -16.8790 C.3       1 AR6         0.1339
     23 O2D        13.8990    8.6800  -16.2540 O.3       1 AR6        -0.3841
     24 C3'        12.9180    5.0800  -26.3490 C.3       1 AR6         0.1149
     25 O3'        13.9220    6.0540  -26.3930 O.3       1 AR6        -0.3864
     26 O3A         9.6940    6.8600  -21.5940 O.3       1 AR6        -0.1319
     27 C3D        12.9690    7.0980  -17.8680 C.3       1 AR6         0.1144
     28 O3D        14.2600    7.3150  -18.4310 O.3       1 AR6        -0.3864
     29 C4'        12.4650    4.8770  -24.9310 C.3       1 AR6         0.1189
     30 O4'        11.8330    3.5900  -25.0030 O.3       1 AR6        -0.3364
     31 C4D        11.8520    7.2380  -18.8670 C.3       1 AR6         0.1184
     32 O4D        11.3900    8.5980  -18.7780 O.3       1 AR6        -0.3403
     33 C5'        11.4780    5.9670  -24.7740 C.3       1 AR6         0.1128
     34 O5'        10.8960    5.8030  -23.5060 O.3       1 AR6        -0.2476
     35 C5D        10.7070    6.2840  -18.5170 C.3       1 AR6         0.1128
     36 O5D         9.4800    6.6760  -19.1750 O.3       1 AR6        -0.2476
     37 H1         13.3170   -2.0783  -26.6179 H         1 AR6         0.0996
     38 H2          8.5567   -1.0182  -28.7486 H         1 AR6         0.1820
     39 H3          9.3350   -2.6234  -28.7653 H         1 AR6         0.1820
     40 H4          9.8653    3.3814  -27.0562 H         1 AR6         0.1349
     41 H5         13.1928    2.0890  -25.4461 H         1 AR6         0.0996
     42 H6         11.4057    9.9481  -17.2037 H         1 AR6         0.0935
     43 H7         13.5752   10.6193  -17.5700 H         1 AR6         0.2126
     44 H8         12.9053    3.5797  -27.8917 H         1 AR6         0.0676
     45 H9         15.1315    3.9687  -27.2453 H         1 AR6         0.2101
     46 H10        11.9831    7.9138  -16.1071 H         1 AR6         0.0671
     47 H11        14.5359    8.9088  -16.9208 H         1 AR6         0.2101
     48 H12        12.0812    5.4701  -26.9469 H         1 AR6         0.0648
     49 H13        14.6608    5.7695  -25.8679 H         1 AR6         0.2100
     50 H14        12.9343    6.1116  -17.3824 H         1 AR6         0.0648
     51 H15        14.9108    7.3112  -17.7389 H         1 AR6         0.2100
     52 H16        13.2663    4.9159  -24.1784 H         1 AR6         0.0651
     53 H17        12.2179    7.0221  -19.8816 H         1 AR6         0.0651
     54 H18        10.7082    5.8974  -25.5566 H         1 AR6         0.0648
     55 H19        11.9787    6.9443  -24.8380 H         1 AR6         0.0648
     56 H20        10.5500    6.2960  -17.4283 H         1 AR6         0.0648
     57 H21        10.9768    5.2669  -18.8374 H         1 AR6         0.0648
@<TRIPOS>BOND
     1    2    1 ar 
     2    6    1 ar 
     3    3    2 ar 
     4    4    3 ar 
     5    4    5 ar 
     6   10    4 1  
     7    5    6 ar 
     8    8    5 1  
     9    6    7 1  
    10    9    8 2  
    11   10    9 1  
    12   13   10 1  
    13   11   14 ar 
    14   11   20 ar 
    15   26   11 1  
    16   11   34 1  
    17   12   15 ar 
    18   12   21 ar 
    19   12   26 1  
    20   36   12 1  
    21   13   18 1  
    22   30   13 1  
    23   16   17 1  
    24   16   22 1  
    25   32   16 1  
    26   18   19 1  
    27   24   18 1  
    28   22   23 1  
    29   27   22 1  
    30   24   25 1  
    31   29   24 1  
    32   27   28 1  
    33   31   27 1  
    34   29   30 1  
    35   33   29 1  
    36   31   32 1  
    37   35   31 1  
    38   34   33 1  
    39   35   36 1  
    40    2   37 1  
    41    7   38 1  
    42    7   39 1  
    43    9   40 1  
    44   13   41 1  
    45   16   42 1  
    46   17   43 1  
    47   18   44 1  
    48   19   45 1  
    49   22   46 1  
    50   23   47 1  
    51   24   48 1  
    52   25   49 1  
    53   27   50 1  
    54   28   51 1  
    55   29   52 1  
    56   31   53 1  
    57   33   54 1  
    58   33   55 1  
    59   35   56 1  
    60   35   57 1  
@<TRIPOS>SUBSTRUCTURE
     1 AR6         1

