5nvz_ligand
  -I-interpret- 

 74 77  0  0  0  0  0  0  0  0999 V2000
   10.3230   57.3480   97.8340 C   0  0  0  0  0
   10.0190   58.3530   96.7180 C   0  0  0  0  0
   10.2540   56.8830   96.3840 C   0  0  0  0  0
    9.0230   56.0960   95.8850 C   0  0  0  0  0
    9.1520   55.1500   95.1030 O   0  0  0  0  0
    7.6280   56.5380   96.3780 C   0  0  0  0  0
   11.5830   56.5030   95.6780 C   0  0  0  0  0
   12.5390   57.2840   95.6850 O   0  0  0  0  0
   11.5900   55.2970   95.0790 N   0  0  0  0  0
   12.7150   54.7600   94.2980 C   0  0  0  0  0
   13.0060   53.2890   94.7330 C   0  0  0  0  0
   11.7530   52.3960   94.7120 C   0  0  0  0  0
   13.5250   53.3070   96.1730 C   0  0  0  0  0
   14.0720   52.6280   93.8240 C   0  0  0  0  0
   12.3100   54.8430   92.7920 C   0  0  0  0  0
   11.1270   54.6770   92.4650 O   0  0  0  0  0
   13.2940   55.0720   91.8810 N   0  0  0  0  0
   14.7640   55.3480   92.0480 C   0  0  0  0  0
   15.1170   56.2340   90.8780 C   0  0  0  0  0
   14.7150   57.5890   91.1290 O   0  0  0  0  0
   14.2860   55.6750   89.7590 C   0  0  0  0  0
   12.9880   55.1880   90.4170 C   0  0  0  0  0
   12.6320   53.9680   89.8310 C   0  0  0  0  0
   13.1330   52.9240   90.2420 O   0  0  0  0  0
   11.7940   54.0680   88.7610 N   0  0  0  0  0
   11.3240   52.9190   87.9450 C   0  0  0  0  0
   12.0940   52.7220   86.7660 C   0  0  0  0  0
   12.0740   51.4770   86.1270 C   0  0  0  0  0
   12.8330   51.2550   84.9720 C   0  0  0  0  0
   12.8920   53.7330   86.2030 C   0  0  0  0  0
   13.6450   53.5060   85.0420 C   0  0  0  0  0
   13.6160   52.2720   84.4030 C   0  0  0  0  0
   14.3500   52.0710   83.2940 C   0  0  0  0  0
   15.9900   52.4780   83.1030 S   0  0  0  0  0
   16.0980   51.9090   81.5390 C   0  0  0  0  0
   14.8980   51.4310   81.1810 N   0  0  0  0  0
   13.9490   51.5190   82.1350 C   0  0  0  0  0
   12.5380   51.0030   81.8580 C   0  0  0  0  0
    9.9236   57.0588   98.8061 H   0  0  0  0  0
   10.9879   57.2548   98.6926 H   0  0  0  0  0
   10.3584   59.3334   96.3837 H   0  0  0  0  0
    9.2955   59.1377   96.4970 H   0  0  0  0  0
    7.0179   56.8306   95.5234 H   0  0  0  0  0
    7.1497   55.7099   96.9010 H   0  0  0  0  0
    7.7352   57.3844   97.0564 H   0  0  0  0  0
   10.7574   54.7154   95.1734 H   0  0  0  0  0
   13.6280   55.3310   94.4667 H   0  0  0  0  0
   11.0073   52.8024   95.3953 H   0  0  0  0  0
   11.3450   52.3683   93.7016 H   0  0  0  0  0
   12.0222   51.3870   95.0243 H   0  0  0  0  0
   14.4388   53.8993   96.2211 H   0  0  0  0  0
   12.7702   53.7476   96.8244 H   0  0  0  0  0
   13.7342   52.2870   96.4952 H   0  0  0  0  0
   13.7147   52.6194   92.7943 H   0  0  0  0  0
   15.0006   53.1958   93.8831 H   0  0  0  0  0
   14.2482   51.6053   94.1573 H   0  0  0  0  0
   15.3534   54.4311   92.0588 H   0  0  0  0  0
   14.9844   55.8250   93.0030 H   0  0  0  0  0
   16.1874   56.2493   90.6726 H   0  0  0  0  0
   14.9477   58.1356   90.3749 H   0  0  0  0  0
   14.8019   54.8643   89.2445 H   0  0  0  0  0
   14.0889   56.4259   88.9939 H   0  0  0  0  0
   12.1412   55.8605   90.2803 H   0  0  0  0  0
   11.4660   54.9984   88.5018 H   0  0  0  0  0
   10.2981   53.1260   87.6405 H   0  0  0  0  0
   11.4148   52.0200   88.5546 H   0  0  0  0  0
   11.4612   50.6721   86.5328 H   0  0  0  0  0
   12.8157   50.2707   84.5040 H   0  0  0  0  0
   12.9262   54.7132   86.6785 H   0  0  0  0  0
   14.2612   54.3079   84.6353 H   0  0  0  0  0
   16.9915   51.9234   80.9148 H   0  0  0  0  0
   12.2954   50.2129   82.5687 H   0  0  0  0  0
   11.8258   51.8211   81.9652 H   0  0  0  0  0
   12.4896   50.6081   80.8432 H   0  0  0  0  0
  1  2  1  0  0  0
  1  3  1  0  0  0
  2  3  1  0  0  0
  3  4  1  0  0  0
  3  7  1  0  0  0
  4  5  2  0  0  0
  4  6  1  0  0  0
  7  8  2  0  0  0
  7  9  1  0  0  0
  9 10  1  0  0  0
 10 11  1  0  0  0
 10 15  1  0  0  0
 11 12  1  0  0  0
 11 13  1  0  0  0
 11 14  1  0  0  0
 15 16  2  0  0  0
 15 17  1  0  0  0
 17 18  1  0  0  0
 17 22  1  0  0  0
 18 19  1  0  0  0
 19 20  1  0  0  0
 19 21  1  0  0  0
 21 22  1  0  0  0
 22 23  1  0  0  0
 23 24  2  0  0  0
 23 25  1  0  0  0
 25 26  1  0  0  0
 26 27  1  0  0  0
 27 28  4  0  0  0
 27 30  4  0  0  0
 28 29  4  0  0  0
 29 32  4  0  0  0
 30 31  4  0  0  0
 31 32  4  0  0  0
 32 33  1  0  0  0
 33 34  4  0  0  0
 33 37  4  0  0  0
 34 35  4  0  0  0
 35 36  4  0  0  0
 36 37  4  0  0  0
 37 38  1  0  0  0
  1 39  1  0  0  0
  1 40  1  0  0  0
  2 41  1  0  0  0
  2 42  1  0  0  0
  6 43  1  0  0  0
  6 44  1  0  0  0
  6 45  1  0  0  0
  9 46  1  0  0  0
 10 47  1  0  0  0
 12 48  1  0  0  0
 12 49  1  0  0  0
 12 50  1  0  0  0
 13 51  1  0  0  0
 13 52  1  0  0  0
 13 53  1  0  0  0
 14 54  1  0  0  0
 14 55  1  0  0  0
 14 56  1  0  0  0
 18 57  1  0  0  0
 18 58  1  0  0  0
 19 59  1  0  0  0
 20 60  1  0  0  0
 21 61  1  0  0  0
 21 62  1  0  0  0
 22 63  1  0  0  0
 25 64  1  0  0  0
 26 65  1  0  0  0
 26 66  1  0  0  0
 28 67  1  0  0  0
 29 68  1  0  0  0
 30 69  1  0  0  0
 31 70  1  0  0  0
 35 71  1  0  0  0
 38 72  1  0  0  0
 38 73  1  0  0  0
 38 74  1  0  0  0
M  END
$$$$
