6gjw_ligand
  -I-interpret- 

 84 89  0  0  0  0  0  0  0  0999 V2000
    3.6070  -13.9650   22.1460 O   0  0  0  0  0
    3.9550  -12.4870   22.2940 S   0  0  0  0  0
    5.3120  -12.1230   21.6120 O   0  0  0  0  0
    3.9920  -12.3770   23.8070 O   0  0  0  0  0
    2.6600  -11.4640   21.8750 C   0  0  0  0  0
    2.6050  -10.0700   22.2200 C   0  0  0  0  0
    1.5610  -12.1330   21.2740 C   0  0  0  0  0
    0.4110  -11.4590   20.9610 C   0  0  0  0  0
    0.3260  -10.1140   21.2660 C   0  0  0  0  0
    1.4020   -9.4030   21.8940 C   0  0  0  0  0
    1.2920   -8.0420   22.1700 C   0  0  0  0  0
   -0.1440   -7.2090   21.8130 S   0  0  0  0  0
   -0.2580   -7.1120   20.2580 O   0  0  0  0  0
   -0.1380   -5.8430   22.4870 O   0  0  0  0  0
   -1.2780   -8.0200   22.4380 O   0  0  0  0  0
    2.3030   -7.3480   22.8040 C   0  0  0  0  0
    3.4910   -7.9600   23.1190 C   0  0  0  0  0
    3.6330   -9.3120   22.8680 C   0  0  0  0  0
    4.8090   -9.8810   23.1490 N   0  0  0  0  0
    5.4720   -9.7890   24.3370 C   0  0  0  0  0
    5.0470   -9.2290   25.3620 O   0  0  0  0  0
    6.7210  -10.4500   24.3430 C   0  0  0  0  0
    7.7580  -10.0530   23.4640 C   0  0  0  0  0
    6.9680  -11.5270   25.2120 C   0  0  0  0  0
    8.2320  -12.1580   25.2280 C   0  0  0  0  0
    9.2170  -11.7440   24.3380 C   0  0  0  0  0
    8.9970  -10.7030   23.4440 C   0  0  0  0  0
   10.0530  -10.3550   22.6800 N   0  0  0  0  0
   10.0760  -10.3590   21.3050 C   0  0  0  0  0
    9.0990  -10.6140   20.5940 O   0  0  0  0  0
   11.2320   -9.9450   20.7820 N   0  0  0  0  0
   11.5710   -9.9720   19.4670 C   0  0  0  0  0
   12.8980   -9.5680   19.2490 C   0  0  0  0  0
   10.8400  -10.4600   18.3790 C   0  0  0  0  0
   11.4430  -10.4770   17.1090 C   0  0  0  0  0
   12.7650  -10.0400   16.9280 C   0  0  0  0  0
   13.5360   -9.5840   17.9980 C   0  0  0  0  0
   14.8850   -9.1250   17.9090 C   0  0  0  0  0
   15.2510   -8.3310   17.0330 O   0  0  0  0  0
   15.7220   -9.6930   18.8320 N   0  0  0  0  0
   17.0070   -9.3790   19.1260 C   0  0  0  0  0
   17.8530  -10.3460   19.7520 C   0  0  0  0  0
   17.4950  -11.6880   19.9830 C   0  0  0  0  0
   16.0180  -12.3810   19.4940 S   0  0  0  0  0
   15.9610  -12.2070   17.9820 O   0  0  0  0  0
   14.6870  -11.7750   20.1570 O   0  0  0  0  0
   16.0950  -13.8980   19.6360 O   0  0  0  0  0
   18.3910  -12.5950   20.5750 C   0  0  0  0  0
   19.6590  -12.2060   20.9580 C   0  0  0  0  0
   20.0270  -10.9000   20.7220 C   0  0  0  0  0
   19.1560   -9.9720   20.1260 C   0  0  0  0  0
   19.5990   -8.6650   19.9300 C   0  0  0  0  0
   21.2660   -8.1230   20.3060 S   0  0  0  0  0
   22.1490   -9.1340   19.6330 O   0  0  0  0  0
   21.5300   -8.0700   21.8210 O   0  0  0  0  0
   21.5360   -6.8350   19.4900 O   0  0  0  0  0
   18.7610   -7.7440   19.3360 C   0  0  0  0  0
   17.4720   -8.1080   18.9780 C   0  0  0  0  0
    5.4877  -11.1868   21.7310 H   0  0  0  0  0
    1.6340  -13.1990   21.0586 H   0  0  0  0  0
   -0.4213  -11.9734   20.4806 H   0  0  0  0  0
   -0.5894   -9.5752   21.0212 H   0  0  0  0  0
   -0.2576   -7.9955   19.8825 H   0  0  0  0  0
    2.1559   -6.2983   23.0584 H   0  0  0  0  0
    4.3085   -7.3894   23.5596 H   0  0  0  0  0
    5.2485  -10.4315   22.4113 H   0  0  0  0  0
    7.5863   -9.2183   22.7844 H   0  0  0  0  0
    6.1793  -11.8775   25.8777 H   0  0  0  0  0
    8.4338  -12.9641   25.9334 H   0  0  0  0  0
   10.1837  -12.2475   24.3417 H   0  0  0  0  0
   10.9041  -10.0652   23.1617 H   0  0  0  0  0
   11.9260   -9.5735   21.4306 H   0  0  0  0  0
   13.4711   -9.2187   20.1079 H   0  0  0  0  0
    9.8203  -10.8209   18.5134 H   0  0  0  0  0
   10.8747  -10.8354   16.2507 H   0  0  0  0  0
   13.1992  -10.0573   15.9284 H   0  0  0  0  0
   15.3225  -10.4593   19.3738 H   0  0  0  0  0
   14.7262  -11.8863   21.1097 H   0  0  0  0  0
   18.0781  -13.6268   20.7350 H   0  0  0  0  0
   20.3454  -12.9084   21.4309 H   0  0  0  0  0
   21.0276  -10.5751   21.0071 H   0  0  0  0  0
   21.0098   -6.1155   19.8464 H   0  0  0  0  0
   19.1125   -6.7295   19.1480 H   0  0  0  0  0
   16.8075   -7.3499   18.5635 H   0  0  0  0  0
  1  2  2  0  0  0
  2  3  1  0  0  0
  2  4  2  0  0  0
  2  5  1  0  0  0
  5  6  4  0  0  0
  5  7  4  0  0  0
  6 10  4  0  0  0
  6 18  4  0  0  0
  7  8  4  0  0  0
  8  9  4  0  0  0
  9 10  4  0  0  0
 10 11  4  0  0  0
 11 12  1  0  0  0
 11 16  4  0  0  0
 12 13  1  0  0  0
 12 14  2  0  0  0
 12 15  2  0  0  0
 16 17  4  0  0  0
 17 18  4  0  0  0
 18 19  1  0  0  0
 19 20  1  0  0  0
 20 21  2  0  0  0
 20 22  1  0  0  0
 22 23  4  0  0  0
 22 24  4  0  0  0
 23 27  4  0  0  0
 24 25  4  0  0  0
 25 26  4  0  0  0
 26 27  4  0  0  0
 27 28  1  0  0  0
 28 29  1  0  0  0
 29 30  2  0  0  0
 29 31  1  0  0  0
 31 32  1  0  0  0
 32 33  4  0  0  0
 32 34  4  0  0  0
 33 37  4  0  0  0
 34 35  4  0  0  0
 35 36  4  0  0  0
 36 37  4  0  0  0
 37 38  1  0  0  0
 38 39  2  0  0  0
 38 40  1  0  0  0
 40 41  1  0  0  0
 41 42  4  0  0  0
 41 58  4  0  0  0
 42 43  4  0  0  0
 42 51  4  0  0  0
 43 44  1  0  0  0
 43 48  4  0  0  0
 44 45  2  0  0  0
 44 46  1  0  0  0
 44 47  2  0  0  0
 48 49  4  0  0  0
 49 50  4  0  0  0
 50 51  4  0  0  0
 51 52  4  0  0  0
 52 53  1  0  0  0
 52 57  4  0  0  0
 53 54  2  0  0  0
 53 55  2  0  0  0
 53 56  1  0  0  0
 57 58  4  0  0  0
  3 59  1  0  0  0
  7 60  1  0  0  0
  8 61  1  0  0  0
  9 62  1  0  0  0
 13 63  1  0  0  0
 16 64  1  0  0  0
 17 65  1  0  0  0
 19 66  1  0  0  0
 23 67  1  0  0  0
 24 68  1  0  0  0
 25 69  1  0  0  0
 26 70  1  0  0  0
 28 71  1  0  0  0
 31 72  1  0  0  0
 33 73  1  0  0  0
 34 74  1  0  0  0
 35 75  1  0  0  0
 36 76  1  0  0  0
 40 77  1  0  0  0
 46 78  1  0  0  0
 48 79  1  0  0  0
 49 80  1  0  0  0
 50 81  1  0  0  0
 56 82  1  0  0  0
 57 83  1  0  0  0
 58 84  1  0  0  0
M  END
$$$$
