5un9_ligand
  -I-interpret- 

 34 35  0  0  0  0  0  0  0  0999 V2000
  117.3440   -6.7480  -54.5250 C   0  0  0  0  0
  118.4950   -6.2210  -53.6590 C   0  0  0  0  0
  118.0010   -5.0860  -52.8040 C   0  0  0  0  0
  117.8140   -4.0300  -53.7470 C   0  0  0  0  0
  116.5420   -4.3740  -54.6040 C   0  0  0  0  0
  116.3030   -3.2540  -55.5900 C   0  0  0  0  0
  117.4120   -8.1330  -52.3810 C   0  0  0  0  0
  115.1000   -9.6180  -50.3010 C   0  0  0  0  0
  118.6650   -7.3310  -52.4230 N   0  0  0  0  0
  118.9400   -4.6200  -51.8260 O   0  0  0  0  0
  117.7220   -2.7780  -53.0780 O   0  0  0  0  0
  116.7670   -5.6160  -55.3330 O   0  0  0  0  0
  117.1430   -9.2190  -51.4680 N   0  0  0  0  0
  117.5270   -3.0190  -56.3410 O   0  0  0  0  0
  116.3880   -7.6020  -53.4930 S   0  0  0  0  0
  115.8510   -9.8580  -51.5850 C   0  0  0  0  0
  117.6033   -7.4474  -55.3198 H   0  0  0  0  0
  119.3443   -6.0003  -54.3056 H   0  0  0  0  0
  117.1236   -5.4052  -52.2415 H   0  0  0  0  0
  118.6672   -3.9402  -54.4193 H   0  0  0  0  0
  115.6767   -4.4899  -53.9514 H   0  0  0  0  0
  116.0180   -2.3474  -55.0562 H   0  0  0  0  0
  115.4987   -3.5288  -56.2724 H   0  0  0  0  0
  117.2916   -8.9950  -51.7248 H   0  0  0  0  0
  115.6597  -10.0452  -49.4689 H   0  0  0  0  0
  114.9795   -8.5457  -50.1471 H   0  0  0  0  0
  114.1194  -10.0901  -50.3614 H   0  0  0  0  0
  118.8202   -6.8580  -51.5327 H   0  0  0  0  0
  119.0893   -5.3085  -51.1738 H   0  0  0  0  0
  118.5249   -2.6259  -52.5743 H   0  0  0  0  0
  117.1735   -8.8144  -50.5322 H   0  0  0  0  0
  117.3836   -2.3083  -56.9702 H   0  0  0  0  0
  115.2993   -9.4439  -52.4290 H   0  0  0  0  0
  115.9722  -10.9273  -51.7581 H   0  0  0  0  0
  1  2  1  0  0  0
  1 12  1  0  0  0
 15  1  1  0  0  0
  2  3  1  0  0  0
  9  2  1  0  0  0
  3  4  1  0  0  0
  3 10  1  0  0  0
  5  4  1  0  0  0
  4 11  1  0  0  0
  5  6  1  0  0  0
 12  5  1  0  0  0
  6 14  1  0  0  0
  7  9  1  0  0  0
 13  7  1  0  0  0
  7 15  1  0  0  0
 16  8  1  0  0  0
 13 16  1  0  0  0
  1 17  1  0  0  0
  2 18  1  0  0  0
  3 19  1  0  0  0
  4 20  1  0  0  0
  5 21  1  0  0  0
  6 22  1  0  0  0
  6 23  1  0  0  0
  7 24  1  0  0  0
  8 25  1  0  0  0
  8 26  1  0  0  0
  8 27  1  0  0  0
  9 28  1  0  0  0
 10 29  1  0  0  0
 11 30  1  0  0  0
 13 31  1  0  0  0
 14 32  1  0  0  0
 16 33  1  0  0  0
 16 34  1  0  0  0
M  END
$$$$
