### 
### Created by X-TOOL on Mon Sep 10 21:13:33 2018
### 

@<TRIPOS>MOLECULE
5un9_ligand
   33    34     1     0     0
SMALL
GAST_HUCK


@<TRIPOS>ATOM
      1 C1        117.3440   -6.7480  -54.5250 C.3       1 NHT         0.1345
      2 C2        118.4950   -6.2210  -53.6590 C.3       1 NHT         0.0936
      3 C3        118.0010   -5.0860  -52.8040 C.3       1 NHT         0.1084
      4 C4        117.8140   -4.0300  -53.7470 C.3       1 NHT         0.1115
      5 C5        116.5420   -4.3740  -54.6040 C.3       1 NHT         0.1116
      6 C6        116.3030   -3.2540  -55.5900 C.3       1 NHT         0.0730
      7 C7        117.4120   -8.1330  -52.3810 C.2       1 NHT         0.1021
      8 C10       115.1000   -9.6180  -50.3010 C.3       1 NHT        -0.0462
      9 N2        118.6650   -7.3310  -52.4230 N.pl3     1 NHT        -0.3355
     10 O3        118.9400   -4.6200  -51.8260 O.3       1 NHT        -0.3868
     11 O4        117.7220   -2.7780  -53.0780 O.3       1 NHT        -0.3865
     12 O5        116.7670   -5.6160  -55.3330 O.3       1 NHT        -0.3540
     13 N1        117.1430   -9.2190  -51.4680 N.pl3     1 NHT        -0.3438
     14 O6        117.5270   -3.0190  -56.3410 O.3       1 NHT        -0.3924
     15 S1        116.3880   -7.6020  -53.4930 S.3       1 NHT        -0.0839
     16 C9        115.8510   -9.8580  -51.5850 C.3       1 NHT         0.0135
     17 H1        117.7448   -7.4670  -55.2546 H         1 NHT         0.0754
     18 H2        119.4059   -6.0037  -54.2361 H         1 NHT         0.0605
     19 H3        117.0598   -5.3636  -52.3069 H         1 NHT         0.0644
     20 H4        118.6846   -3.9909  -54.4181 H         1 NHT         0.0647
     21 H5        115.6680   -4.4843  -53.9453 H         1 NHT         0.0646
     22 H6        116.0205   -2.3391  -55.0485 H         1 NHT         0.0584
     23 H7        115.4944   -3.5359  -56.2804 H         1 NHT         0.0584
     24 H8        114.1101  -10.0940  -50.3607 H         1 NHT         0.0249
     25 H9        114.9777   -8.5361  -50.1445 H         1 NHT         0.0249
     26 H10       115.6638  -10.0487  -49.4604 H         1 NHT         0.0249
     27 H11       119.4826   -7.4400  -51.8062 H         1 NHT         0.1653
     28 H12       118.5920   -3.8467  -51.3978 H         1 NHT         0.2100
     29 H13       117.6127   -2.0851  -53.7187 H         1 NHT         0.2100
     30 H14       117.8359   -9.5229  -50.7692 H         1 NHT         0.1648
     31 H15       117.7688   -3.8112  -56.8061 H         1 NHT         0.2095
     32 H16       115.2950   -9.4257  -52.4300 H         1 NHT         0.0503
     33 H17       115.9812  -10.9383  -51.7460 H         1 NHT         0.0503
@<TRIPOS>BOND
     1    1    2 1  
     2    1   12 1  
     3   15    1 1  
     4    2    3 1  
     5    9    2 1  
     6    3    4 1  
     7    3   10 1  
     8    5    4 1  
     9    4   11 1  
    10    5    6 1  
    11   12    5 1  
    12    6   14 1  
    13    7    9 1  
    14   13    7 1  
    15    7   15 1  
    16   16    8 1  
    17   13   16 1  
    18    1   17 1  
    19    2   18 1  
    20    3   19 1  
    21    4   20 1  
    22    5   21 1  
    23    6   22 1  
    24    6   23 1  
    25    8   24 1  
    26    8   25 1  
    27    8   26 1  
    28    9   27 1  
    29   10   28 1  
    30   11   29 1  
    31   13   30 1  
    32   14   31 1  
    33   16   32 1  
    34   16   33 1  
@<TRIPOS>SUBSTRUCTURE
     1 NHT         1

