### 
### Created by X-TOOL on Mon Sep 10 21:13:30 2018
### 

@<TRIPOS>MOLECULE
2n9x_ligand
  261   263     1     0     0
SMALL
GAST_HUCK


@<TRIPOS>ATOM
      1 N          -9.7960   -0.5660   21.0490 N.4       1 ASP         0.2391
      2 CA        -10.0270   -0.8530   19.6040 C.3       1 ASP         0.0765
      3 C          -9.0600   -0.1170   18.6630 C.2       1 ASP         0.2285
      4 O          -8.4820    0.9010   19.0470 O.2       1 ASP        -0.3906
      5 CB        -11.5050   -0.6910   19.1580 C.3       1 ASP         0.0607
      6 CG        -12.2180    0.6040   19.6130 C.2       1 ASP         0.0425
      7 OD1       -11.6160    1.4260   20.3450 O.co2     1 ASP        -0.5686
      8 OD2       -13.3990    0.7940   19.2380 O.co2     1 ASP        -0.5686
      9 N          -8.8720   -0.6200   17.4320 N.am      1 TYR        -0.2593
     10 CA         -8.0760    0.0640   16.3890 C.3       1 TYR         0.1391
     11 C          -8.5950   -0.4320   15.0220 C.2       1 TYR         0.2057
     12 O          -8.9950    0.3800   14.1910 O.2       1 TYR        -0.3942
     13 CB         -6.5860   -0.3120   16.5560 C.3       1 TYR         0.0164
     14 CG         -5.6150    0.7510   16.0650 C.ar      1 TYR        -0.0493
     15 CD1        -4.8280    1.4510   17.0030 C.ar      1 TYR        -0.0685
     16 CD2        -5.5000    1.0580   14.6930 C.ar      1 TYR        -0.0685
     17 CE1        -3.9370    2.4530   16.5780 C.ar      1 TYR        -0.0398
     18 CE2        -4.6160    2.0740   14.2660 C.ar      1 TYR        -0.0398
     19 CZ         -3.8260    2.7710   15.2070 C.ar      1 TYR         0.0805
     20 OH         -2.9710    3.7520   14.8140 O.3       1 TYR        -0.3376
     21 N          -8.6280   -1.7580   14.7980 N.am      1 GLU        -0.2635
     22 CA         -8.9830   -2.3890   13.5090 C.3       1 GLU         0.1325
     23 C          -8.1140   -1.8250   12.3450 C.2       1 GLU         0.2041
     24 O          -6.9090   -1.6530   12.5340 O.2       1 GLU        -0.3944
     25 CB        -10.5190   -2.3640   13.3300 C.3       1 GLU        -0.0008
     26 CG        -11.0240   -3.6260   12.6150 C.3       1 GLU         0.0044
     27 CD        -12.5450   -3.5940   12.4050 C.2       1 GLU         0.0350
     28 OE1       -13.0410   -2.6590   11.7370 O.co2     1 GLU        -0.5690
     29 OE2       -13.2630   -4.5120   12.8690 O.co2     1 GLU        -0.5690
     30 N          -8.6410   -1.6080   11.1260 N.am      1 SER        -0.2616
     31 CA         -7.8130   -1.2700    9.9450 C.3       1 SER         0.1539
     32 C          -7.4750    0.2220    9.7700 C.2       1 SER         0.2063
     33 O          -8.3450    1.0310    9.4400 O.2       1 SER        -0.3943
     34 CB         -8.4300   -1.8420    8.6660 C.3       1 SER         0.0843
     35 OG         -7.6020   -1.5050    7.5710 O.3       1 SER        -0.3903
     36 N          -6.1870    0.5550    9.9470 N.am      1 ASP        -0.2621
     37 CA         -5.5110    1.8350    9.6460 C.3       1 ASP         0.1423
     38 C          -3.9730    1.7950    9.5120 C.2       1 ASP         0.2057
     39 O          -3.4690    1.6510    8.3960 O.2       1 ASP        -0.3943
     40 CB         -6.0180    3.0240   10.4860 C.3       1 ASP         0.0406
     41 CG         -7.2400    3.7170    9.8590 C.2       1 ASP         0.0393
     42 OD1        -8.2220    4.0190   10.5820 O.co2     1 ASP        -0.5688
     43 OD2        -7.2240    3.9930    8.6340 O.co2     1 ASP        -0.5688
     44 N          -3.2030    1.9030   10.6000 N.am      1 ASP        -0.2621
     45 CA         -1.7410    2.0960   10.5360 C.3       1 ASP         0.1423
     46 C          -0.8240    1.5460   11.6590 C.2       1 ASP         0.2057
     47 O          -1.2160    1.3950   12.8170 O.2       1 ASP        -0.3943
     48 CB         -1.4200    3.5850   10.2750 C.3       1 ASP         0.0406
     49 CG         -2.1750    4.6050   11.1570 C.2       1 ASP         0.0393
     50 OD1        -2.2090    5.7950   10.7590 O.co2     1 ASP        -0.5688
     51 OD2        -2.7040    4.2620   12.2430 O.co2     1 ASP        -0.5688
     52 N           0.4390    1.2940   11.2830 N.am      1 ASP        -0.2621
     53 CA          1.5950    0.9880   12.1440 C.3       1 ASP         0.1423
     54 C           1.4620   -0.1010   13.2340 C.2       1 ASP         0.2057
     55 O           1.6670   -1.2880   12.9610 O.2       1 ASP        -0.3943
     56 CB          2.3000    2.2950   12.5660 C.3       1 ASP         0.0406
     57 CG          3.3860    2.1290   13.6410 C.2       1 ASP         0.0393
     58 OD1         4.2150    1.1940   13.5370 O.co2     1 ASP        -0.5688
     59 OD2         3.4330    2.9610   14.5770 O.co2     1 ASP        -0.5688
     60 N           1.1290    0.2870   14.4710 N.am      1 SER        -0.2615
     61 CA          1.1020   -0.5960   15.6530 C.3       1 SER         0.1539
     62 C          -0.2370   -1.3570   15.8030 C.2       1 SER         0.2063
     63 O          -0.4930   -2.0280   16.8070 O.2       1 SER        -0.3943
     64 CB          1.4320    0.2460   16.8970 C.3       1 SER         0.0843
     65 OG          1.8020   -0.5630   18.0050 O.3       1 SER        -0.3903
     66 N          -1.1190   -1.2390   14.8070 N.am      1 TYR        -0.2621
     67 CA         -2.5020   -1.7050   14.8320 C.3       1 TYR         0.1390
     68 C          -2.8270   -3.1590   15.2080 C.2       1 TYR         0.2057
     69 O          -2.1720   -4.1000   14.7640 O.2       1 TYR        -0.3942
     70 CB         -3.2300   -1.3470   13.5310 C.3       1 TYR         0.0163
     71 CG         -2.5940   -1.6680   12.1810 C.ar      1 TYR        -0.0493
     72 CD1        -1.4590   -2.4930   12.0090 C.ar      1 TYR        -0.0685
     73 CD2        -3.2610   -1.1860   11.0450 C.ar      1 TYR        -0.0685
     74 CE1        -0.9960   -2.8090   10.7140 C.ar      1 TYR        -0.0398
     75 CE2        -2.8170   -1.5100    9.7470 C.ar      1 TYR        -0.0398
     76 CZ         -1.6810   -2.3270    9.5800 C.ar      1 TYR         0.0805
     77 OH         -1.2830   -2.6840    8.3270 O.3       1 TYR        -0.3376
     78 N          -3.9230   -3.3570   15.9500 N.am      1 GLU        -0.2635
     79 CA         -4.5100   -4.6780   16.2020 C.3       1 GLU         0.1325
     80 C          -5.6760   -4.8790   15.2190 C.2       1 GLU         0.2040
     81 O          -6.8400   -4.6680   15.5510 O.2       1 GLU        -0.3944
     82 CB         -4.9060   -4.8240   17.6830 C.3       1 GLU        -0.0008
     83 CG         -5.4870   -6.2040   18.0330 C.3       1 GLU         0.0044
     84 CD         -4.6930   -7.3510   17.3900 C.2       1 GLU         0.0350
     85 OE1        -5.2320   -8.0330   16.4890 O.co2     1 GLU        -0.5690
     86 OE2        -3.5050   -7.5370   17.7390 O.co2     1 GLU        -0.5690
     87 N          -5.3650   -5.2180   13.9620 N.am      1 VAL        -0.2635
     88 CA         -6.3650   -5.2210   12.8720 C.3       1 VAL         0.1332
     89 C          -7.4870   -6.2580   12.9970 C.2       1 VAL         0.2041
     90 O          -8.6140   -5.9780   12.6050 O.2       1 VAL        -0.3944
     91 CB         -5.7310   -5.2460   11.4710 C.3       1 VAL        -0.0063
     92 CG1        -6.7470   -4.8430   10.4030 C.3       1 VAL        -0.0584
     93 CG2        -4.5530   -4.2790   11.3470 C.3       1 VAL        -0.0584
     94 N          -7.2260   -7.4290   13.5880 N.am      1 LEU        -0.2637
     95 CA         -8.2870   -8.4090   13.8980 C.3       1 LEU         0.1312
     96 C          -9.1520   -7.9640   15.1070 C.2       1 LEU         0.2040
     97 O         -10.1740   -8.5760   15.4060 O.2       1 LEU        -0.3944
     98 CB         -7.6230   -9.7900   14.0970 C.3       1 LEU        -0.0101
     99 CG         -8.5560  -11.0110   13.9520 C.3       1 LEU        -0.0425
    100 CD1        -9.0170  -11.2250   12.5060 C.3       1 LEU        -0.0625
    101 CD2        -7.8030  -12.2760   14.3680 C.3       1 LEU        -0.0625
    102 N          -8.7360   -6.8860   15.7880 N.am      1 ASP        -0.2622
    103 CA         -9.3880   -6.2330   16.9240 C.3       1 ASP         0.1423
    104 C          -9.8260   -7.1940   18.0610 C.2       1 ASP         0.2056
    105 O         -10.9130   -7.0810   18.6310 O.2       1 ASP        -0.3943
    106 CB        -10.4230   -5.2070   16.4290 C.3       1 ASP         0.0406
    107 CG        -11.1000   -4.4260   17.5640 C.2       1 ASP         0.0393
    108 OD1       -10.3730   -3.8970   18.4380 O.co2     1 ASP        -0.5688
    109 OD2       -12.3450   -4.2800   17.5240 O.co2     1 ASP        -0.5688
    110 N          -8.9640   -8.1780   18.3610 N.am      1 LEU        -0.2636
    111 CA         -9.1330   -9.1800   19.4240 C.3       1 LEU         0.1312
    112 C          -7.7810   -9.5740   20.0430 C.2       1 LEU         0.2040
    113 O          -6.7470   -9.5540   19.3700 O.2       1 LEU        -0.3944
    114 CB         -9.9420  -10.3930   18.9060 C.3       1 LEU        -0.0101
    115 CG         -9.2700  -11.3380   17.8770 C.3       1 LEU        -0.0425
    116 CD1        -8.3940  -12.4330   18.5000 C.3       1 LEU        -0.0625
    117 CD2       -10.3590  -12.0780   17.0950 C.3       1 LEU        -0.0625
    118 N          -7.7960   -9.9480   21.3230 N.am      1 THR        -0.2613
    119 CA         -6.6320  -10.4900   22.0510 C.3       1 THR         0.1565
    120 C          -6.6770  -12.0120   21.8500 C.2       1 THR         0.2065
    121 O          -7.6010  -12.6940   22.3020 O.2       1 THR        -0.3943
    122 CB         -6.7420  -10.1930   23.5620 C.3       1 THR         0.0924
    123 OG1        -8.0790  -10.2180   24.0340 O.3       1 THR        -0.3874
    124 CG2        -6.2050   -8.7920   23.8570 C.3       1 THR        -0.0346
    125 N          -5.6740  -12.5510   21.1590 N.am      1 GLU        -0.2635
    126 CA         -5.4880  -13.9890   20.9440 C.3       1 GLU         0.1324
    127 C          -5.0530  -14.7410   22.2220 C.2       1 GLU         0.2036
    128 O          -4.5030  -14.1500   23.1590 O.2       1 GLU        -0.3944
    129 CB         -4.4950  -14.2220   19.7870 C.3       1 GLU        -0.0008
    130 CG         -3.0160  -13.8970   20.0740 C.3       1 GLU         0.0044
    131 CD         -2.6740  -12.3940   20.1920 C.2       1 GLU         0.0350
    132 OE1        -3.4790  -11.5360   19.7500 O.co2     1 GLU        -0.5690
    133 OE2        -1.5680  -12.0680   20.6840 O.co2     1 GLU        -0.5690
    134 N          -5.2690  -16.0650   22.2190 N.am      1 TYR        -0.2679
    135 CA         -4.9120  -17.0170   23.2850 C.3       1 TYR         0.1025
    136 C          -4.0870  -18.2470   22.8630 C.2       1 TYR         0.0619
    137 O          -3.2330  -18.7030   23.6580 O.co2     1 TYR        -0.5665
    138 CB         -6.1200  -17.3450   24.1760 C.3       1 TYR         0.0108
    139 CG         -6.4940  -16.2530   25.1630 C.ar      1 TYR        -0.0499
    140 CD1        -7.5330  -15.3510   24.8600 C.ar      1 TYR        -0.0686
    141 CD2        -5.8010  -16.1410   26.3880 C.ar      1 TYR        -0.0686
    142 CE1        -7.8780  -14.3380   25.7750 C.ar      1 TYR        -0.0398
    143 CE2        -6.1450  -15.1290   27.3070 C.ar      1 TYR        -0.0398
    144 CZ         -7.1850  -14.2230   26.9980 C.ar      1 TYR         0.0805
    145 OH         -7.5310  -13.2420   27.8800 O.3       1 TYR        -0.3376
    146 OXT        -4.2860  -18.7360   21.7270 O.co2     1 TYR        -0.5665
    147 H1        -10.4624   -1.0795   21.6042 H         1 ASP         0.2016
    148 H2         -9.9082    0.4214   21.2176 H         1 ASP         0.2016
    149 H3         -8.8613   -0.8461   21.3020 H         1 ASP         0.2016
    150 H4         -9.7989   -1.9223   19.4833 H         1 ASP         0.1117
    151 H5        -12.0718   -1.5444   19.5584 H         1 ASP         0.0512
    152 H6        -11.5287   -0.7185   18.0586 H         1 ASP         0.0512
    153 H7         -9.2907   -1.5004   17.2093 H         1 TYR         0.1886
    154 H8         -8.1965    1.1545   16.4688 H         1 TYR         0.0821
    155 H9         -6.3985   -1.2373   15.9916 H         1 TYR         0.0453
    156 H10        -6.3926   -0.4886   17.6244 H         1 TYR         0.0453
    157 H11        -4.9103    1.2154   18.0579 H         1 TYR         0.0530
    158 H12        -6.0908    0.5136   13.9652 H         1 TYR         0.0530
    159 H13        -3.3333    2.9830   17.3059 H         1 TYR         0.0525
    160 H14        -4.5437    2.3195   13.2126 H         1 TYR         0.0525
    161 H15        -2.3310    3.3904   14.2122 H         1 TYR         0.2458
    162 H16        -8.3950   -2.3620   15.5602 H         1 GLU         0.1883
    163 H17        -8.7102   -3.4518   13.5869 H         1 GLU         0.0801
    164 H18       -10.7950   -1.4814   12.7343 H         1 GLU         0.0330
    165 H19       -10.9931   -2.3008   14.3205 H         1 GLU         0.0330
    166 H20       -10.7672   -4.5062   13.2227 H         1 GLU         0.0433
    167 H21       -10.5310   -3.7009   11.6345 H         1 GLU         0.0433
    168 H22        -9.6321   -1.6778   11.0127 H         1 SER         0.1884
    169 H23        -6.8511   -1.7825   10.0934 H         1 SER         0.0823
    170 H24        -9.4328   -1.4154    8.5163 H         1 SER         0.0606
    171 H25        -8.5057   -2.9362    8.7493 H         1 SER         0.0606
    172 H26        -7.9772   -1.8561    6.7719 H         1 SER         0.2097
    173 H27        -5.6054   -0.1598   10.3353 H         1 ASP         0.1884
    174 H28        -5.8505    2.0666    8.6257 H         1 ASP         0.0819
    175 H29        -5.2060    3.7601   10.5797 H         1 ASP         0.0478
    176 H30        -6.2964    2.6559   11.4845 H         1 ASP         0.0478
    177 H31        -3.6380    1.8506   11.4989 H         1 ASP         0.1884
    178 H32        -1.4308    1.5461    9.6352 H         1 ASP         0.0819
    179 H33        -1.6637    3.8028    9.2247 H         1 ASP         0.0478
    180 H34        -0.3422    3.7308   10.4392 H         1 ASP         0.0478
    181 H35         0.6175    1.3166   10.2993 H         1 ASP         0.1884
    182 H36         2.3072    0.5230   11.4464 H         1 ASP         0.0819
    183 H37         1.5364    2.9842   12.9559 H         1 ASP         0.0478
    184 H38         2.7683    2.7340   11.6727 H         1 ASP         0.0478
    185 H39         0.8801    1.2463   14.6040 H         1 SER         0.1884
    186 H40         1.8936   -1.3500   15.5311 H         1 SER         0.0823
    187 H41         0.5463    0.8384   17.1700 H         1 SER         0.0606
    188 H42         2.2657    0.9223   16.6571 H         1 SER         0.0606
    189 H43         1.0848   -1.1466   18.2230 H         1 SER         0.2097
    190 H44        -0.8039   -0.7917   13.9699 H         1 TYR         0.1885
    191 H45        -2.9725   -1.1047   15.6246 H         1 TYR         0.0821
    192 H46        -3.3980   -0.2601   13.5511 H         1 TYR         0.0453
    193 H47        -4.1983   -1.8682   13.5565 H         1 TYR         0.0453
    194 H48        -0.9413   -2.8851   12.8769 H         1 TYR         0.0530
    195 H49        -4.1328   -0.5535   11.1674 H         1 TYR         0.0530
    196 H50        -0.1117   -3.4237   10.5909 H         1 TYR         0.0525
    197 H51        -3.3474   -1.1321    8.8805 H         1 TYR         0.0525
    198 H52        -1.0831   -1.9028    7.8248 H         1 TYR         0.2458
    199 H53        -4.3676   -2.5586   16.3561 H         1 GLU         0.1883
    200 H54        -3.7513   -5.4450   15.9875 H         1 GLU         0.0801
    201 H55        -5.6611   -4.0594   17.9179 H         1 GLU         0.0330
    202 H56        -4.0109   -4.6572   18.3002 H         1 GLU         0.0330
    203 H57        -6.5268   -6.2507   17.6771 H         1 GLU         0.0433
    204 H58        -5.4674   -6.3293   19.1257 H         1 GLU         0.0433
    205 H59        -4.4226   -5.4786   13.7522 H         1 VAL         0.1883
    206 H60        -6.8676   -4.2458   12.9514 H         1 VAL         0.0802
    207 H61        -5.3786   -6.2686   11.2710 H         1 VAL         0.0343
    208 H62        -6.2682   -4.8693    9.4130 H         1 VAL         0.0234
    209 H63        -7.1100   -3.8250   10.6077 H         1 VAL         0.0234
    210 H64        -7.5940   -5.5446   10.4194 H         1 VAL         0.0234
    211 H65        -3.7913   -4.5306   12.0997 H         1 VAL         0.0234
    212 H66        -4.9046   -3.2497   11.5111 H         1 VAL         0.0234
    213 H67        -4.1155   -4.3611   10.3411 H         1 VAL         0.0234
    214 H68        -6.2805   -7.6486   13.8282 H         1 LEU         0.1883
    215 H69        -8.9561   -8.4776   13.0276 H         1 LEU         0.0800
    216 H70        -7.1905   -9.8140   15.1081 H         1 LEU         0.0315
    217 H71        -6.8197   -9.8888   13.3521 H         1 LEU         0.0315
    218 H72        -9.4347  -10.8665   14.5978 H         1 LEU         0.0298
    219 H73        -9.6768  -12.1038   12.4578 H         1 LEU         0.0232
    220 H74        -8.1404  -11.3889   11.8621 H         1 LEU         0.0232
    221 H75        -9.5648  -10.3359   12.1604 H         1 LEU         0.0232
    222 H76        -7.4509  -12.1689   15.4046 H         1 LEU         0.0232
    223 H77        -6.9408  -12.4254   13.7015 H         1 LEU         0.0232
    224 H78        -8.4759  -13.1433   14.2971 H         1 LEU         0.0232
    225 H79        -7.8754   -6.4788   15.4823 H         1 ASP         0.1884
    226 H80        -8.6001   -5.6234   17.3906 H         1 ASP         0.0819
    227 H81       -11.1997   -5.7412   15.8621 H         1 ASP         0.0478
    228 H82        -9.9143   -4.4900   15.7679 H         1 ASP         0.0478
    229 H83        -8.1305   -8.2350   17.8114 H         1 LEU         0.1883
    230 H84        -9.7272   -8.7141   20.2239 H         1 LEU         0.0800
    231 H85       -10.8563   -9.9991   18.4381 H         1 LEU         0.0315
    232 H86       -10.2113  -11.0028   19.7810 H         1 LEU         0.0315
    233 H87        -8.6572  -10.7309   17.1944 H         1 LEU         0.0298
    234 H88        -7.9596  -13.0532   17.7021 H         1 LEU         0.0232
    235 H89        -9.0084  -13.0627   19.1603 H         1 LEU         0.0232
    236 H90        -7.5860  -11.9682   19.0841 H         1 LEU         0.0232
    237 H91       -11.0288  -11.3472   16.6183 H         1 LEU         0.0232
    238 H92       -10.9380  -12.7117   17.7829 H         1 LEU         0.0232
    239 H93        -9.8926  -12.7065   16.3221 H         1 LEU         0.0232
    240 H94        -8.6560   -9.8547   21.8247 H         1 THR         0.1884
    241 H95        -5.6980  -10.0678   21.6519 H         1 THR         0.0826
    242 H96        -6.1510  -10.9419   24.1095 H         1 THR         0.0639
    243 H97        -8.4520  -11.0780   23.8799 H         1 THR         0.2101
    244 H98        -6.2865   -8.5875   24.9347 H         1 THR         0.0257
    245 H99        -6.7921   -8.0489   23.2974 H         1 THR         0.0257
    246 H100       -5.1501   -8.7317   23.5512 H         1 THR         0.0257
    247 H101       -4.9999  -11.9305   20.7584 H         1 GLU         0.1883
    248 H102       -6.4600  -14.4044   20.6396 H         1 GLU         0.0801
    249 H103       -4.8161  -13.5976   18.9402 H         1 GLU         0.0330
    250 H104       -4.5550  -15.2832   19.5037 H         1 GLU         0.0330
    251 H105       -2.4120  -14.3185   19.2570 H         1 GLU         0.0433
    252 H106       -2.7404  -14.3823   21.0219 H         1 GLU         0.0433
    253 H107       -5.7184  -16.4446   21.4103 H         1 TYR         0.1877
    254 H108       -4.2280  -16.4527   23.9359 H         1 TYR         0.0747
    255 H109       -5.8885  -18.2572   24.7454 H         1 TYR         0.0446
    256 H110       -6.9867  -17.5296   23.5243 H         1 TYR         0.0446
    257 H111       -8.0676  -15.4370   23.9209 H         1 TYR         0.0530
    258 H112       -5.0021  -16.8352   26.6225 H         1 TYR         0.0530
    259 H113       -8.6777  -13.6452   25.5391 H         1 TYR         0.0525
    260 H114       -5.6134  -15.0458   28.2481 H         1 TYR         0.0525
    261 H115       -8.2421  -12.7275   27.5167 H         1 TYR         0.2458
@<TRIPOS>BOND
     1    1    2 1  
     2    2    3 1  
     3    2    5 1  
     4    3    4 2  
     5    3    9 am 
     6    5    6 1  
     7    6    7 ar 
     8    6    8 ar 
     9    9   10 1  
    10   10   11 1  
    11   10   13 1  
    12   11   12 2  
    13   11   21 am 
    14   13   14 1  
    15   14   15 ar 
    16   14   16 ar 
    17   15   17 ar 
    18   16   18 ar 
    19   17   19 ar 
    20   18   19 ar 
    21   19   20 1  
    22   21   22 1  
    23   22   23 1  
    24   22   25 1  
    25   23   24 2  
    26   23   30 am 
    27   25   26 1  
    28   26   27 1  
    29   27   28 ar 
    30   27   29 ar 
    31   30   31 1  
    32   31   32 1  
    33   31   34 1  
    34   32   33 2  
    35   32   36 am 
    36   34   35 1  
    37   36   37 1  
    38   37   38 1  
    39   37   40 1  
    40   38   39 2  
    41   38   44 am 
    42   40   41 1  
    43   41   42 ar 
    44   41   43 ar 
    45   44   45 1  
    46   45   46 1  
    47   45   48 1  
    48   46   47 2  
    49   46   52 am 
    50   48   49 1  
    51   49   50 ar 
    52   49   51 ar 
    53   52   53 1  
    54   53   54 1  
    55   53   56 1  
    56   54   55 2  
    57   54   60 am 
    58   56   57 1  
    59   57   58 ar 
    60   57   59 ar 
    61   60   61 1  
    62   61   62 1  
    63   61   64 1  
    64   62   63 2  
    65   62   66 am 
    66   64   65 1  
    67   66   67 1  
    68   67   68 1  
    69   67   70 1  
    70   68   69 2  
    71   68   78 am 
    72   70   71 1  
    73   71   72 ar 
    74   71   73 ar 
    75   72   74 ar 
    76   73   75 ar 
    77   74   76 ar 
    78   75   76 ar 
    79   76   77 1  
    80   78   79 1  
    81   79   80 1  
    82   79   82 1  
    83   80   81 2  
    84   80   87 am 
    85   82   83 1  
    86   83   84 1  
    87   84   85 ar 
    88   84   86 ar 
    89   87   88 1  
    90   88   89 1  
    91   88   91 1  
    92   89   90 2  
    93   89   94 am 
    94   91   92 1  
    95   91   93 1  
    96   94   95 1  
    97   95   96 1  
    98   95   98 1  
    99   96   97 2  
   100   96  102 am 
   101   98   99 1  
   102   99  100 1  
   103   99  101 1  
   104  102  103 1  
   105  103  104 1  
   106  103  106 1  
   107  104  105 2  
   108  104  110 am 
   109  106  107 1  
   110  107  108 ar 
   111  107  109 ar 
   112  110  111 1  
   113  111  112 1  
   114  111  114 1  
   115  112  113 2  
   116  112  118 am 
   117  114  115 1  
   118  115  116 1  
   119  115  117 1  
   120  118  119 1  
   121  119  120 1  
   122  119  122 1  
   123  120  121 2  
   124  120  125 am 
   125  122  123 1  
   126  122  124 1  
   127  125  126 1  
   128  126  127 1  
   129  126  129 1  
   130  127  128 2  
   131  127  134 am 
   132  129  130 1  
   133  130  131 1  
   134  131  132 ar 
   135  131  133 ar 
   136  134  135 1  
   137  135  136 1  
   138  135  138 1  
   139  136  137 ar 
   140  136  146 ar 
   141  138  139 1  
   142  139  140 ar 
   143  139  141 ar 
   144  140  142 ar 
   145  141  143 ar 
   146  142  144 ar 
   147  143  144 ar 
   148  144  145 1  
   149    1  147 1  
   150    1  148 1  
   151    1  149 1  
   152    2  150 1  
   153    5  151 1  
   154    5  152 1  
   155    9  153 1  
   156   10  154 1  
   157   13  155 1  
   158   13  156 1  
   159   15  157 1  
   160   16  158 1  
   161   17  159 1  
   162   18  160 1  
   163   20  161 1  
   164   21  162 1  
   165   22  163 1  
   166   25  164 1  
   167   25  165 1  
   168   26  166 1  
   169   26  167 1  
   170   30  168 1  
   171   31  169 1  
   172   34  170 1  
   173   34  171 1  
   174   35  172 1  
   175   36  173 1  
   176   37  174 1  
   177   40  175 1  
   178   40  176 1  
   179   44  177 1  
   180   45  178 1  
   181   48  179 1  
   182   48  180 1  
   183   52  181 1  
   184   53  182 1  
   185   56  183 1  
   186   56  184 1  
   187   60  185 1  
   188   61  186 1  
   189   64  187 1  
   190   64  188 1  
   191   65  189 1  
   192   66  190 1  
   193   67  191 1  
   194   70  192 1  
   195   70  193 1  
   196   72  194 1  
   197   73  195 1  
   198   74  196 1  
   199   75  197 1  
   200   77  198 1  
   201   78  199 1  
   202   79  200 1  
   203   82  201 1  
   204   82  202 1  
   205   83  203 1  
   206   83  204 1  
   207   87  205 1  
   208   88  206 1  
   209   91  207 1  
   210   92  208 1  
   211   92  209 1  
   212   92  210 1  
   213   93  211 1  
   214   93  212 1  
   215   93  213 1  
   216   94  214 1  
   217   95  215 1  
   218   98  216 1  
   219   98  217 1  
   220   99  218 1  
   221  100  219 1  
   222  100  220 1  
   223  100  221 1  
   224  101  222 1  
   225  101  223 1  
   226  101  224 1  
   227  102  225 1  
   228  103  226 1  
   229  106  227 1  
   230  106  228 1  
   231  110  229 1  
   232  111  230 1  
   233  114  231 1  
   234  114  232 1  
   235  115  233 1  
   236  116  234 1  
   237  116  235 1  
   238  116  236 1  
   239  117  237 1  
   240  117  238 1  
   241  117  239 1  
   242  118  240 1  
   243  119  241 1  
   244  122  242 1  
   245  123  243 1  
   246  124  244 1  
   247  124  245 1  
   248  124  246 1  
   249  125  247 1  
   250  126  248 1  
   251  129  249 1  
   252  129  250 1  
   253  130  251 1  
   254  130  252 1  
   255  134  253 1  
   256  135  254 1  
   257  138  255 1  
   258  138  256 1  
   259  140  257 1  
   260  141  258 1  
   261  142  259 1  
   262  143  260 1  
   263  145  261 1  
@<TRIPOS>SUBSTRUCTURE
     1 ASP         1

