2n9x_ligand
  -I-interpret- 

270272  0  0  0  0  0  0  0  0999 V2000
   -9.7960   -0.5660   21.0490 N   0  3  0  0  0
  -10.0270   -0.8530   19.6040 C   0  0  0  0  0
   -9.0600   -0.1170   18.6630 C   0  0  0  0  0
   -8.4820    0.9010   19.0470 O   0  0  0  0  0
  -11.5050   -0.6910   19.1580 C   0  0  0  0  0
  -12.2180    0.6040   19.6130 C   0  0  0  0  0
  -11.6160    1.4260   20.3450 O   0  0  0  0  0
  -13.3990    0.7940   19.2380 O   0  0  0  0  0
   -8.8720   -0.6200   17.4320 N   0  0  0  0  0
   -8.0760    0.0640   16.3890 C   0  0  0  0  0
   -8.5950   -0.4320   15.0220 C   0  0  0  0  0
   -8.9950    0.3800   14.1910 O   0  0  0  0  0
   -6.5860   -0.3120   16.5560 C   0  0  0  0  0
   -5.6150    0.7510   16.0650 C   0  0  0  0  0
   -4.8280    1.4510   17.0030 C   0  0  0  0  0
   -5.5000    1.0580   14.6930 C   0  0  0  0  0
   -3.9370    2.4530   16.5780 C   0  0  0  0  0
   -4.6160    2.0740   14.2660 C   0  0  0  0  0
   -3.8260    2.7710   15.2070 C   0  0  0  0  0
   -2.9710    3.7520   14.8140 O   0  0  0  0  0
   -8.6280   -1.7580   14.7980 N   0  0  0  0  0
   -8.9830   -2.3890   13.5090 C   0  0  0  0  0
   -8.1140   -1.8250   12.3450 C   0  0  0  0  0
   -6.9090   -1.6530   12.5340 O   0  0  0  0  0
  -10.5190   -2.3640   13.3300 C   0  0  0  0  0
  -11.0240   -3.6260   12.6150 C   0  0  0  0  0
  -12.5450   -3.5940   12.4050 C   0  0  0  0  0
  -13.0410   -2.6590   11.7370 O   0  0  0  0  0
  -13.2630   -4.5120   12.8690 O   0  0  0  0  0
   -8.6410   -1.6080   11.1260 N   0  0  0  0  0
   -7.8130   -1.2700    9.9450 C   0  0  0  0  0
   -7.4750    0.2220    9.7700 C   0  0  0  0  0
   -8.3450    1.0310    9.4400 O   0  0  0  0  0
   -8.4300   -1.8420    8.6660 C   0  0  0  0  0
   -7.6020   -1.5050    7.5710 O   0  0  0  0  0
   -6.1870    0.5550    9.9470 N   0  0  0  0  0
   -5.5110    1.8350    9.6460 C   0  0  0  0  0
   -3.9730    1.7950    9.5120 C   0  0  0  0  0
   -3.4690    1.6510    8.3960 O   0  0  0  0  0
   -6.0180    3.0240   10.4860 C   0  0  0  0  0
   -7.2400    3.7170    9.8590 C   0  0  0  0  0
   -8.2220    4.0190   10.5820 O   0  0  0  0  0
   -7.2240    3.9930    8.6340 O   0  0  0  0  0
   -3.2030    1.9030   10.6000 N   0  0  0  0  0
   -1.7410    2.0960   10.5360 C   0  0  0  0  0
   -0.8240    1.5460   11.6590 C   0  0  0  0  0
   -1.2160    1.3950   12.8170 O   0  0  0  0  0
   -1.4200    3.5850   10.2750 C   0  0  0  0  0
   -2.1750    4.6050   11.1570 C   0  0  0  0  0
   -2.2090    5.7950   10.7590 O   0  0  0  0  0
   -2.7040    4.2620   12.2430 O   0  0  0  0  0
    0.4390    1.2940   11.2830 N   0  0  0  0  0
    1.5950    0.9880   12.1440 C   0  0  0  0  0
    1.4620   -0.1010   13.2340 C   0  0  0  0  0
    1.6670   -1.2880   12.9610 O   0  0  0  0  0
    2.3000    2.2950   12.5660 C   0  0  0  0  0
    3.3860    2.1290   13.6410 C   0  0  0  0  0
    4.2150    1.1940   13.5370 O   0  0  0  0  0
    3.4330    2.9610   14.5770 O   0  0  0  0  0
    1.1290    0.2870   14.4710 N   0  0  0  0  0
    1.1020   -0.5960   15.6530 C   0  0  0  0  0
   -0.2370   -1.3570   15.8030 C   0  0  0  0  0
   -0.4930   -2.0280   16.8070 O   0  0  0  0  0
    1.4320    0.2460   16.8970 C   0  0  0  0  0
    1.8020   -0.5630   18.0050 O   0  0  0  0  0
   -1.1190   -1.2390   14.8070 N   0  0  0  0  0
   -2.5020   -1.7050   14.8320 C   0  0  0  0  0
   -2.8270   -3.1590   15.2080 C   0  0  0  0  0
   -2.1720   -4.1000   14.7640 O   0  0  0  0  0
   -3.2300   -1.3470   13.5310 C   0  0  0  0  0
   -2.5940   -1.6680   12.1810 C   0  0  0  0  0
   -1.4590   -2.4930   12.0090 C   0  0  0  0  0
   -3.2610   -1.1860   11.0450 C   0  0  0  0  0
   -0.9960   -2.8090   10.7140 C   0  0  0  0  0
   -2.8170   -1.5100    9.7470 C   0  0  0  0  0
   -1.6810   -2.3270    9.5800 C   0  0  0  0  0
   -1.2830   -2.6840    8.3270 O   0  0  0  0  0
   -3.9230   -3.3570   15.9500 N   0  0  0  0  0
   -4.5100   -4.6780   16.2020 C   0  0  0  0  0
   -5.6760   -4.8790   15.2190 C   0  0  0  0  0
   -6.8400   -4.6680   15.5510 O   0  0  0  0  0
   -4.9060   -4.8240   17.6830 C   0  0  0  0  0
   -5.4870   -6.2040   18.0330 C   0  0  0  0  0
   -4.6930   -7.3510   17.3900 C   0  0  0  0  0
   -5.2320   -8.0330   16.4890 O   0  0  0  0  0
   -3.5050   -7.5370   17.7390 O   0  0  0  0  0
   -5.3650   -5.2180   13.9620 N   0  0  0  0  0
   -6.3650   -5.2210   12.8720 C   0  0  0  0  0
   -7.4870   -6.2580   12.9970 C   0  0  0  0  0
   -8.6140   -5.9780   12.6050 O   0  0  0  0  0
   -5.7310   -5.2460   11.4710 C   0  0  0  0  0
   -6.7470   -4.8430   10.4030 C   0  0  0  0  0
   -4.5530   -4.2790   11.3470 C   0  0  0  0  0
   -7.2260   -7.4290   13.5880 N   0  0  0  0  0
   -8.2870   -8.4090   13.8980 C   0  0  0  0  0
   -9.1520   -7.9640   15.1070 C   0  0  0  0  0
  -10.1740   -8.5760   15.4060 O   0  0  0  0  0
   -7.6230   -9.7900   14.0970 C   0  0  0  0  0
   -8.5560  -11.0110   13.9520 C   0  0  0  0  0
   -9.0170  -11.2250   12.5060 C   0  0  0  0  0
   -7.8030  -12.2760   14.3680 C   0  0  0  0  0
   -8.7360   -6.8860   15.7880 N   0  0  0  0  0
   -9.3880   -6.2330   16.9240 C   0  0  0  0  0
   -9.8260   -7.1940   18.0610 C   0  0  0  0  0
  -10.9130   -7.0810   18.6310 O   0  0  0  0  0
  -10.4230   -5.2070   16.4290 C   0  0  0  0  0
  -11.1000   -4.4260   17.5640 C   0  0  0  0  0
  -10.3730   -3.8970   18.4380 O   0  0  0  0  0
  -12.3450   -4.2800   17.5240 O   0  0  0  0  0
   -8.9640   -8.1780   18.3610 N   0  0  0  0  0
   -9.1330   -9.1800   19.4240 C   0  0  0  0  0
   -7.7810   -9.5740   20.0430 C   0  0  0  0  0
   -6.7470   -9.5540   19.3700 O   0  0  0  0  0
   -9.9420  -10.3930   18.9060 C   0  0  0  0  0
   -9.2700  -11.3380   17.8770 C   0  0  0  0  0
   -8.3940  -12.4330   18.5000 C   0  0  0  0  0
  -10.3590  -12.0780   17.0950 C   0  0  0  0  0
   -7.7960   -9.9480   21.3230 N   0  0  0  0  0
   -6.6320  -10.4900   22.0510 C   0  0  0  0  0
   -6.6770  -12.0120   21.8500 C   0  0  0  0  0
   -7.6010  -12.6940   22.3020 O   0  0  0  0  0
   -6.7420  -10.1930   23.5620 C   0  0  0  0  0
   -8.0790  -10.2180   24.0340 O   0  0  0  0  0
   -6.2050   -8.7920   23.8570 C   0  0  0  0  0
   -5.6740  -12.5510   21.1590 N   0  0  0  0  0
   -5.4880  -13.9890   20.9440 C   0  0  0  0  0
   -5.0530  -14.7410   22.2220 C   0  0  0  0  0
   -4.5030  -14.1500   23.1590 O   0  0  0  0  0
   -4.4950  -14.2220   19.7870 C   0  0  0  0  0
   -3.0160  -13.8970   20.0740 C   0  0  0  0  0
   -2.6740  -12.3940   20.1920 C   0  0  0  0  0
   -3.4790  -11.5360   19.7500 O   0  0  0  0  0
   -1.5680  -12.0680   20.6840 O   0  0  0  0  0
   -5.2690  -16.0650   22.2190 N   0  0  0  0  0
   -4.9120  -17.0170   23.2850 C   0  0  0  0  0
   -4.0870  -18.2470   22.8630 C   0  0  0  0  0
   -3.2330  -18.7030   23.6580 O   0  0  0  0  0
   -6.1200  -17.3450   24.1760 C   0  0  0  0  0
   -6.4940  -16.2530   25.1630 C   0  0  0  0  0
   -7.5330  -15.3510   24.8600 C   0  0  0  0  0
   -5.8010  -16.1410   26.3880 C   0  0  0  0  0
   -7.8780  -14.3380   25.7750 C   0  0  0  0  0
   -6.1450  -15.1290   27.3070 C   0  0  0  0  0
   -7.1850  -14.2230   26.9980 C   0  0  0  0  0
   -7.5310  -13.2420   27.8800 O   0  0  0  0  0
   -4.2860  -18.7360   21.7270 O   0  0  0  0  0
   -8.8074   -0.6929   21.2658 H   0  0  0  0  0
  -10.0690    0.3958   21.2513 H   0  0  0  0  0
  -10.3542   -1.2053   21.6148 H   0  0  0  0  0
   -9.7971   -1.9142   19.5090 H   0  0  0  0  0
  -12.0525   -1.5160   19.6138 H   0  0  0  0  0
  -11.4929   -0.6649   18.0684 H   0  0  0  0  0
  -10.7287    1.1052   20.5220 H   0  0  0  0  0
   -9.2991   -1.5180   17.2048 H   0  0  0  0  0
   -8.1708    1.1472   16.4654 H   0  0  0  0  0
   -6.4116   -1.2070   15.9588 H   0  0  0  0  0
   -6.4055   -0.4439   17.6228 H   0  0  0  0  0
   -4.9107    1.2141   18.0637 H   0  0  0  0  0
   -6.0940    0.5106   13.9612 H   0  0  0  0  0
   -3.3300    2.9859   17.3099 H   0  0  0  0  0
   -4.5433    2.3209   13.2068 H   0  0  0  0  0
   -3.0111    3.8465   13.8595 H   0  0  0  0  0
   -8.3904   -2.3740   15.5754 H   0  0  0  0  0
   -8.7259   -3.4482   13.4970 H   0  0  0  0  0
  -10.7816   -1.4963   12.7248 H   0  0  0  0  0
  -10.9805   -2.3184   14.3164 H   0  0  0  0  0
  -10.7822   -4.4899   13.2341 H   0  0  0  0  0
  -10.5447   -3.6804   11.6375 H   0  0  0  0  0
  -12.7129   -5.1352   13.3492 H   0  0  0  0  0
   -9.6519   -1.6791   11.0104 H   0  0  0  0  0
   -6.8520   -1.7453   10.1416 H   0  0  0  0  0
   -9.4262   -1.4253    8.5179 H   0  0  0  0  0
   -8.5115   -2.9259    8.7478 H   0  0  0  0  0
   -7.9811   -1.8598    6.7635 H   0  0  0  0  0
   -5.5938   -0.1741   10.3430 H   0  0  0  0  0
   -5.8356    2.0212    8.6222 H   0  0  0  0  0
   -5.2134    3.7567   10.5480 H   0  0  0  0  0
   -6.3153    2.6410   11.4622 H   0  0  0  0  0
   -8.0555    3.7309   11.4825 H   0  0  0  0  0
   -3.6467    1.8495   11.5169 H   0  0  0  0  0
   -1.4768    1.4361    9.7096 H   0  0  0  0  0
   -1.7205    3.7875    9.2470 H   0  0  0  0  0
   -0.3606    3.7133   10.4968 H   0  0  0  0  0
   -2.5763    3.3199   12.3764 H   0  0  0  0  0
    0.6210    1.3170   10.2796 H   0  0  0  0  0
    2.2682    0.4185   11.5033 H   0  0  0  0  0
    1.5334    2.9433   12.9904 H   0  0  0  0  0
    2.7942    2.6872   11.6772 H   0  0  0  0  0
    4.0094    0.6706   12.7589 H   0  0  0  0  0
    0.8751    1.2655   14.6067 H   0  0  0  0  0
    1.8547   -1.3744   15.5283 H   0  0  0  0  0
    0.5419    0.8124   17.1709 H   0  0  0  0  0
    2.2721    0.8969   16.6548 H   0  0  0  0  0
    1.9993   -0.0013   18.7582 H   0  0  0  0  0
   -0.7976   -0.7828   13.9532 H   0  0  0  0  0
   -2.8669   -1.1552   15.6996 H   0  0  0  0  0
   -3.2948   -0.2591   13.5477 H   0  0  0  0  0
   -4.1369   -1.9512   13.5534 H   0  0  0  0  0
   -0.9385   -2.8873   12.8817 H   0  0  0  0  0
   -4.1376   -0.5500   11.1681 H   0  0  0  0  0
   -0.1068   -3.4271   10.5902 H   0  0  0  0  0
   -3.3504   -1.1300    8.8757 H   0  0  0  0  0
   -1.8569   -2.2680    7.6795 H   0  0  0  0  0
   -4.3765   -2.5427   16.3643 H   0  0  0  0  0
   -3.7855   -5.4728   16.0242 H   0  0  0  0  0
   -5.6784   -4.0829   17.8889 H   0  0  0  0  0
   -4.0021   -4.6902   18.2773 H   0  0  0  0  0
   -6.5085   -6.2465   17.6552 H   0  0  0  0  0
   -5.4407   -6.3258   19.1152 H   0  0  0  0  0
   -3.2777   -6.9198   18.4383 H   0  0  0  0  0
   -4.4038   -5.4838   13.7480 H   0  0  0  0  0
   -6.8612   -4.2591   13.0008 H   0  0  0  0  0
   -5.3869   -6.2698   11.3240 H   0  0  0  0  0
   -7.5858   -5.5389   10.4203 H   0  0  0  0  0
   -7.1059   -3.8342   10.6070 H   0  0  0  0  0
   -6.2715   -4.8695    9.4226 H   0  0  0  0  0
   -4.8961   -3.2633   11.5438 H   0  0  0  0  0
   -3.7839   -4.5506   12.0701 H   0  0  0  0  0
   -4.1422   -4.3362   10.3390 H   0  0  0  0  0
   -6.2615   -7.6530   13.8330 H   0  0  0  0  0
   -8.9896   -8.4762   13.0674 H   0  0  0  0  0
   -7.2499   -9.8075   15.1210 H   0  0  0  0  0
   -6.8688   -9.8844   13.3158 H   0  0  0  0  0
   -9.4245  -10.8195   14.5822 H   0  0  0  0  0
   -9.5596  -10.3434   12.1647 H   0  0  0  0  0
   -8.1475  -11.3873   11.8690 H   0  0  0  0  0
   -9.6706  -12.0960   12.4595 H   0  0  0  0  0
   -6.9304  -12.4050   13.7276 H   0  0  0  0  0
   -7.4830  -12.1821   15.4057 H   0  0  0  0  0
   -8.4609  -13.1390   14.2660 H   0  0  0  0  0
   -7.8582   -6.4706   15.4761 H   0  0  0  0  0
   -8.6407   -5.6477   17.4598 H   0  0  0  0  0
  -11.2012   -5.7557   15.8986 H   0  0  0  0  0
   -9.8970   -4.4862   15.8030 H   0  0  0  0  0
  -12.6996   -4.7690   16.7778 H   0  0  0  0  0
   -8.1139   -8.2361   17.8004 H   0  0  0  0  0
   -9.7143   -8.7373   20.2328 H   0  0  0  0  0
  -10.7991   -9.9653   18.3859 H   0  0  0  0  0
  -10.1273  -11.0108   19.7847 H   0  0  0  0  0
   -8.6404  -10.6935   17.2635 H   0  0  0  0  0
   -7.5939  -11.9712   19.0785 H   0  0  0  0  0
   -9.0039  -13.0561   19.1541 H   0  0  0  0  0
   -7.9641  -13.0468   17.7085 H   0  0  0  0  0
  -10.9689  -12.6599   17.7860 H   0  0  0  0  0
  -10.9868  -11.3542   16.5753 H   0  0  0  0  0
   -9.8937  -12.7448   16.3691 H   0  0  0  0  0
   -8.6732   -9.8528   21.8347 H   0  0  0  0  0
   -5.7090  -10.0422   21.6828 H   0  0  0  0  0
   -6.1675  -10.9727   24.0621 H   0  0  0  0  0
   -8.0886  -10.0277   24.9749 H   0  0  0  0  0
   -5.1597   -8.7336   23.5535 H   0  0  0  0  0
   -6.7875   -8.0567   23.3019 H   0  0  0  0  0
   -6.2863   -8.5906   24.9251 H   0  0  0  0  0
   -4.9864  -11.9181   20.7503 H   0  0  0  0  0
   -6.4578  -14.4060   20.6725 H   0  0  0  0  0
   -4.8018  -13.5495   18.9859 H   0  0  0  0  0
   -4.5324  -15.2890   19.5675 H   0  0  0  0  0
   -2.4450  -14.2792   19.2279 H   0  0  0  0  0
   -2.7822  -14.3447   21.0399 H   0  0  0  0  0
   -4.2640  -11.9770   19.4169 H   0  0  0  0  0
   -5.7274  -16.4522   21.3941 H   0  0  0  0  0
   -4.1885  -16.4798   23.8983 H   0  0  0  0  0
   -3.2423  -18.1861   24.4669 H   0  0  0  0  0
   -5.8533  -18.2248   24.7616 H   0  0  0  0  0
   -6.9752  -17.4816   23.5141 H   0  0  0  0  0
   -8.0706  -15.4375   23.9158 H   0  0  0  0  0
   -4.9977  -16.8390   26.6238 H   0  0  0  0  0
   -8.6821  -13.6414   25.5378 H   0  0  0  0  0
   -5.6105  -15.0454   28.2533 H   0  0  0  0  0
   -6.9691  -13.2985   28.6563 H   0  0  0  0  0
  1  2  1  0  0  0
  2  3  1  0  0  0
  2  5  1  0  0  0
  3  4  2  0  0  0
  3  9  1  0  0  0
  5  6  1  0  0  0
  6  7  1  0  0  0
  6  8  2  0  0  0
  9 10  1  0  0  0
 10 11  1  0  0  0
 10 13  1  0  0  0
 11 12  2  0  0  0
 11 21  1  0  0  0
 13 14  1  0  0  0
 14 15  4  0  0  0
 14 16  4  0  0  0
 15 17  4  0  0  0
 16 18  4  0  0  0
 17 19  4  0  0  0
 18 19  4  0  0  0
 19 20  1  0  0  0
 21 22  1  0  0  0
 22 23  1  0  0  0
 22 25  1  0  0  0
 23 24  2  0  0  0
 23 30  1  0  0  0
 25 26  1  0  0  0
 26 27  1  0  0  0
 27 28  2  0  0  0
 27 29  1  0  0  0
 30 31  1  0  0  0
 31 32  1  0  0  0
 31 34  1  0  0  0
 32 33  2  0  0  0
 32 36  1  0  0  0
 34 35  1  0  0  0
 36 37  1  0  0  0
 37 38  1  0  0  0
 37 40  1  0  0  0
 38 39  2  0  0  0
 38 44  1  0  0  0
 40 41  1  0  0  0
 41 42  1  0  0  0
 41 43  2  0  0  0
 44 45  1  0  0  0
 45 46  1  0  0  0
 45 48  1  0  0  0
 46 47  2  0  0  0
 46 52  1  0  0  0
 48 49  1  0  0  0
 49 50  2  0  0  0
 49 51  1  0  0  0
 52 53  1  0  0  0
 53 54  1  0  0  0
 53 56  1  0  0  0
 54 55  2  0  0  0
 54 60  1  0  0  0
 56 57  1  0  0  0
 57 58  1  0  0  0
 57 59  2  0  0  0
 60 61  1  0  0  0
 61 62  1  0  0  0
 61 64  1  0  0  0
 62 63  2  0  0  0
 62 66  1  0  0  0
 64 65  1  0  0  0
 66 67  1  0  0  0
 67 68  1  0  0  0
 67 70  1  0  0  0
 68 69  2  0  0  0
 68 78  1  0  0  0
 70 71  1  0  0  0
 71 72  4  0  0  0
 71 73  4  0  0  0
 72 74  4  0  0  0
 73 75  4  0  0  0
 74 76  4  0  0  0
 75 76  4  0  0  0
 76 77  1  0  0  0
 78 79  1  0  0  0
 79 80  1  0  0  0
 79 82  1  0  0  0
 80 81  2  0  0  0
 80 87  1  0  0  0
 82 83  1  0  0  0
 83 84  1  0  0  0
 84 85  2  0  0  0
 84 86  1  0  0  0
 87 88  1  0  0  0
 88 89  1  0  0  0
 88 91  1  0  0  0
 89 90  2  0  0  0
 89 94  1  0  0  0
 91 92  1  0  0  0
 91 93  1  0  0  0
 94 95  1  0  0  0
 95 96  1  0  0  0
 95 98  1  0  0  0
 96 97  2  0  0  0
 96102  1  0  0  0
 98 99  1  0  0  0
 99100  1  0  0  0
 99101  1  0  0  0
102103  1  0  0  0
103104  1  0  0  0
103106  1  0  0  0
104105  2  0  0  0
104110  1  0  0  0
106107  1  0  0  0
107108  2  0  0  0
107109  1  0  0  0
110111  1  0  0  0
111112  1  0  0  0
111114  1  0  0  0
112113  2  0  0  0
112118  1  0  0  0
114115  1  0  0  0
115116  1  0  0  0
115117  1  0  0  0
118119  1  0  0  0
119120  1  0  0  0
119122  1  0  0  0
120121  2  0  0  0
120125  1  0  0  0
122123  1  0  0  0
122124  1  0  0  0
125126  1  0  0  0
126127  1  0  0  0
126129  1  0  0  0
127128  2  0  0  0
127134  1  0  0  0
129130  1  0  0  0
130131  1  0  0  0
131132  1  0  0  0
131133  2  0  0  0
134135  1  0  0  0
135136  1  0  0  0
135138  1  0  0  0
136137  1  0  0  0
136146  2  0  0  0
138139  1  0  0  0
139140  4  0  0  0
139141  4  0  0  0
140142  4  0  0  0
141143  4  0  0  0
142144  4  0  0  0
143144  4  0  0  0
144145  1  0  0  0
  1147  1  0  0  0
  1148  1  0  0  0
  1149  1  0  0  0
  2150  1  0  0  0
  5151  1  0  0  0
  5152  1  0  0  0
  7153  1  0  0  0
  9154  1  0  0  0
 10155  1  0  0  0
 13156  1  0  0  0
 13157  1  0  0  0
 15158  1  0  0  0
 16159  1  0  0  0
 17160  1  0  0  0
 18161  1  0  0  0
 20162  1  0  0  0
 21163  1  0  0  0
 22164  1  0  0  0
 25165  1  0  0  0
 25166  1  0  0  0
 26167  1  0  0  0
 26168  1  0  0  0
 29169  1  0  0  0
 30170  1  0  0  0
 31171  1  0  0  0
 34172  1  0  0  0
 34173  1  0  0  0
 35174  1  0  0  0
 36175  1  0  0  0
 37176  1  0  0  0
 40177  1  0  0  0
 40178  1  0  0  0
 42179  1  0  0  0
 44180  1  0  0  0
 45181  1  0  0  0
 48182  1  0  0  0
 48183  1  0  0  0
 51184  1  0  0  0
 52185  1  0  0  0
 53186  1  0  0  0
 56187  1  0  0  0
 56188  1  0  0  0
 58189  1  0  0  0
 60190  1  0  0  0
 61191  1  0  0  0
 64192  1  0  0  0
 64193  1  0  0  0
 65194  1  0  0  0
 66195  1  0  0  0
 67196  1  0  0  0
 70197  1  0  0  0
 70198  1  0  0  0
 72199  1  0  0  0
 73200  1  0  0  0
 74201  1  0  0  0
 75202  1  0  0  0
 77203  1  0  0  0
 78204  1  0  0  0
 79205  1  0  0  0
 82206  1  0  0  0
 82207  1  0  0  0
 83208  1  0  0  0
 83209  1  0  0  0
 86210  1  0  0  0
 87211  1  0  0  0
 88212  1  0  0  0
 91213  1  0  0  0
 92214  1  0  0  0
 92215  1  0  0  0
 92216  1  0  0  0
 93217  1  0  0  0
 93218  1  0  0  0
 93219  1  0  0  0
 94220  1  0  0  0
 95221  1  0  0  0
 98222  1  0  0  0
 98223  1  0  0  0
 99224  1  0  0  0
100225  1  0  0  0
100226  1  0  0  0
100227  1  0  0  0
101228  1  0  0  0
101229  1  0  0  0
101230  1  0  0  0
102231  1  0  0  0
103232  1  0  0  0
106233  1  0  0  0
106234  1  0  0  0
109235  1  0  0  0
110236  1  0  0  0
111237  1  0  0  0
114238  1  0  0  0
114239  1  0  0  0
115240  1  0  0  0
116241  1  0  0  0
116242  1  0  0  0
116243  1  0  0  0
117244  1  0  0  0
117245  1  0  0  0
117246  1  0  0  0
118247  1  0  0  0
119248  1  0  0  0
122249  1  0  0  0
123250  1  0  0  0
124251  1  0  0  0
124252  1  0  0  0
124253  1  0  0  0
125254  1  0  0  0
126255  1  0  0  0
129256  1  0  0  0
129257  1  0  0  0
130258  1  0  0  0
130259  1  0  0  0
132260  1  0  0  0
134261  1  0  0  0
135262  1  0  0  0
137263  1  0  0  0
138264  1  0  0  0
138265  1  0  0  0
140266  1  0  0  0
141267  1  0  0  0
142268  1  0  0  0
143269  1  0  0  0
145270  1  0  0  0
M  END
$$$$
