4dtk_ligand
  -I-interpret- 

 49 51  0  0  0  0  0  0  0  0999 V2000
   22.7970  -40.1530   -3.7150 C   0  0  0  0  0
   19.3330  -37.1640   -2.5370 N   0  0  0  0  0
   20.7330  -39.4530   -2.9090 O   0  0  0  0  0
   17.7840  -36.8070    2.6510 S   0  0  0  0  0
   21.4650  -40.6490   -3.2770 C   0  0  0  0  0
   16.3110  -37.3160   -4.7420 N   0  3  0  0  0
   17.0340  -33.9390    0.2010 O   0  0  0  0  0
   20.6960  -41.2920   -4.3840 C   0  0  0  0  0
   16.2780  -34.7590    2.2280 N   0  0  0  0  0
   15.8050  -35.8970    4.1670 O   0  0  0  0  0
   20.6300  -39.0260   -1.5980 C   0  0  0  0  0
   21.1810  -39.7010   -0.5130 C   0  0  0  0  0
   20.9850  -39.2170    0.7690 C   0  0  0  0  0
   20.2470  -38.0650    0.9710 C   0  0  0  0  0
   19.7010  -37.3590   -0.1090 C   0  0  0  0  0
   19.8990  -37.8450   -1.4110 C   0  0  0  0  0
   20.1400  -36.2080   -3.3070 C   0  0  0  0  0
   19.3510  -35.1490   -4.0470 C   0  0  0  0  0
   18.2330  -35.7860   -4.8610 C   0  0  0  0  0
   17.3690  -36.6510   -3.9580 C   0  0  0  0  0
   18.1700  -37.7150   -3.2430 C   0  0  0  0  0
   18.7610  -36.2570    0.1020 C   0  0  0  0  0
   18.0230  -35.9230    1.1730 C   0  0  0  0  0
   17.0940  -34.7720    1.1100 C   0  0  0  0  0
   16.4670  -35.7360    3.1610 C   0  0  0  0  0
   23.3882  -40.9877   -4.0917 H   0  0  0  0  0
   22.6661  -39.4131   -4.5047 H   0  0  0  0  0
   23.3094  -39.6960   -2.8685 H   0  0  0  0  0
   21.5910  -41.3867   -2.4845 H   0  0  0  0  0
   15.7411  -37.8916   -4.1221 H   0  0  0  0  0
   15.7246  -36.6100   -5.1870 H   0  0  0  0  0
   16.7384  -37.9046   -5.4571 H   0  0  0  0  0
   19.6944  -41.5399   -4.0327 H   0  0  0  0  0
   20.6270  -40.6022   -5.2252 H   0  0  0  0  0
   21.2073  -42.2015   -4.6993 H   0  0  0  0  0
   15.5607  -34.0441    2.3499 H   0  0  0  0  0
   21.7648  -40.6076   -0.6720 H   0  0  0  0  0
   21.4132  -39.7450    1.6210 H   0  0  0  0  0
   20.0877  -37.7007    1.9859 H   0  0  0  0  0
   20.6741  -36.7853   -4.0617 H   0  0  0  0  0
   20.7728  -35.6839   -2.5908 H   0  0  0  0  0
   20.0208  -34.6166   -4.7223 H   0  0  0  0  0
   18.9135  -34.4629   -3.3218 H   0  0  0  0  0
   18.6663  -36.4049   -5.6467 H   0  0  0  0  0
   17.6190  -35.0028   -5.3056 H   0  0  0  0  0
   16.9344  -35.9834   -3.2140 H   0  0  0  0  0
   17.5205  -38.1855   -2.5049 H   0  0  0  0  0
   18.5335  -38.4209   -3.9898 H   0  0  0  0  0
   18.6394  -35.5953   -0.7556 H   0  0  0  0  0
  5  1  1  0  0  0
 16  2  1  0  0  0
  2 17  1  0  0  0
  2 21  1  0  0  0
  3  5  1  0  0  0
 11  3  1  0  0  0
 23  4  1  0  0  0
  4 25  1  0  0  0
  5  8  1  0  0  0
 20  6  1  0  0  0
 24  7  2  0  0  0
  9 24  1  0  0  0
 25  9  1  0  0  0
 25 10  2  0  0  0
 11 12  4  0  0  0
 16 11  4  0  0  0
 13 12  4  0  0  0
 14 13  4  0  0  0
 15 14  4  0  0  0
 15 16  4  0  0  0
 22 15  1  0  0  0
 17 18  1  0  0  0
 18 19  1  0  0  0
 20 19  1  0  0  0
 21 20  1  0  0  0
 22 23  2  0  0  0
 23 24  1  0  0  0
  1 26  1  0  0  0
  1 27  1  0  0  0
  1 28  1  0  0  0
  5 29  1  0  0  0
  6 30  1  0  0  0
  6 31  1  0  0  0
  6 32  1  0  0  0
  8 33  1  0  0  0
  8 34  1  0  0  0
  8 35  1  0  0  0
  9 36  1  0  0  0
 12 37  1  0  0  0
 13 38  1  0  0  0
 14 39  1  0  0  0
 17 40  1  0  0  0
 17 41  1  0  0  0
 18 42  1  0  0  0
 18 43  1  0  0  0
 19 44  1  0  0  0
 19 45  1  0  0  0
 20 46  1  0  0  0
 21 47  1  0  0  0
 21 48  1  0  0  0
 22 49  1  0  0  0
M  END
$$$$
