4qxt_ligand
  -I-interpret- 

171171  0  0  0  0  0  0  0  0999 V2000
  -17.4000  -20.6240  -20.2580 C   0  0  0  0  0
  -17.0600  -20.5300  -19.0780 O   0  0  0  0  0
  -18.7070  -20.0500  -20.7260 C   0  0  0  0  0
  -16.8430  -21.4750  -21.1250 N   0  0  0  0  0
  -15.5770  -22.1980  -20.9470 C   0  0  0  0  0
  -14.3170  -21.3490  -21.1930 C   0  0  0  0  0
  -13.9090  -21.1040  -22.3240 O   0  0  0  0  0
  -15.5540  -23.4170  -21.8600 C   0  0  0  0  0
  -14.3840  -24.3300  -21.5680 C   0  0  0  0  0
  -13.5620  -24.0340  -20.6940 O   0  0  0  0  0
  -14.3050  -25.4600  -22.2920 N   0  0  0  0  0
  -13.6780  -20.9660  -20.1040 N   0  0  0  0  0
  -12.5520  -20.0440  -20.1050 C   0  0  0  0  0
  -11.2080  -20.7390  -20.2500 C   0  0  0  0  0
  -10.1680  -20.0770  -20.3210 O   0  0  0  0  0
  -12.5570  -19.2450  -18.7980 C   0  0  0  0  0
  -11.2100  -22.0650  -20.2440 N   0  0  0  0  0
   -9.9390  -22.7880  -20.2460 C   0  0  0  0  0
   -9.1200  -22.4790  -21.4910 C   0  0  0  0  0
   -7.9190  -22.2310  -21.4140 O   0  0  0  0  0
  -10.1900  -24.2850  -20.1530 C   0  0  0  0  0
   -8.9450  -25.1590  -20.2380 C   0  0  0  0  0
   -8.3220  -25.4140  -21.4550 C   0  0  0  0  0
   -8.4230  -25.7580  -19.0980 C   0  0  0  0  0
   -7.2080  -26.2460  -21.5350 C   0  0  0  0  0
   -7.3080  -26.5770  -19.1660 C   0  0  0  0  0
   -6.7040  -26.8060  -20.3870 C   0  0  0  0  0
   -5.6040  -27.6430  -20.4690 O   0  0  0  0  0
   -9.7740  -22.4920  -22.6400 N   0  0  0  0  0
   -9.0550  -22.3790  -23.9020 C   0  0  0  0  0
   -8.5590  -20.9780  -24.2150 C   0  0  0  0  0
   -7.5110  -20.8110  -24.8500 O   0  0  0  0  0
   -9.9570  -22.8910  -25.0190 C   0  0  0  0  0
  -10.3880  -24.3210  -24.7760 C   0  0  0  0  0
   -9.5460  -25.1990  -24.6520 O   0  0  0  0  0
  -11.6990  -24.5600  -24.6610 N   0  0  0  0  0
   -9.3180  -19.9720  -23.7950 N   0  0  0  0  0
   -9.1070  -18.6200  -24.2890 C   0  0  0  0  0
   -8.8390  -17.5790  -23.2110 C   0  0  0  0  0
   -8.5940  -16.4270  -23.5560 O   0  0  0  0  0
  -10.3170  -18.1840  -25.1040 C   0  0  0  0  0
  -10.6960  -19.1900  -26.1880 C   0  0  0  0  0
   -9.8820  -18.7440  -27.7190 S   0  0  0  0  0
  -10.7620  -17.2320  -28.0220 C   0  0  0  0  0
   -8.8710  -17.9420  -21.9270 N   0  0  0  0  0
   -8.5450  -16.9250  -20.9240 C   0  0  0  0  0
   -7.0350  -16.7200  -20.8240 C   0  0  0  0  0
   -6.5820  -15.7460  -20.2080 O   0  0  0  0  0
   -9.1590  -17.2240  -19.5310 C   0  0  0  0  0
   -8.6180  -18.3870  -18.9070 O   0  0  0  0  0
   -6.2750  -17.6290  -21.4280 N   0  0  0  0  0
   -4.8670  -17.3780  -21.7540 C   0  0  0  0  0
   -4.6460  -17.7140  -23.2230 C   0  0  0  0  0
   -5.4060  -18.4830  -23.8180 O   0  0  0  0  0
   -3.8830  -18.2080  -20.8980 C   0  0  0  0  0
   -4.0100  -19.6940  -21.2410 C   0  0  0  0  0
   -4.0880  -17.9600  -19.4010 C   0  0  0  0  0
   -2.8340  -20.5650  -20.7030 C   0  0  0  0  0
   -3.6030  -17.1510  -23.8210 N   0  0  0  0  0
   -3.2500  -17.5470  -25.1720 C   0  0  0  0  0
   -2.4240  -18.8100  -25.1240 C   0  0  0  0  0
   -1.3780  -18.8540  -24.4710 O   0  0  0  0  0
   -2.4890  -16.4410  -25.8960 C   0  0  0  0  0
   -2.0370  -16.8920  -27.2780 C   0  0  0  0  0
   -1.7970  -15.7110  -28.1720 C   0  0  0  0  0
   -0.5170  -15.0980  -27.8840 N   0  0  0  0  0
    0.5810  -15.3210  -28.5990 C   0  0  0  0  0
    0.5360  -16.1490  -29.6310 N   0  0  0  0  0
    1.7200  -14.7200  -28.2740 N   0  0  0  0  0
   -2.9110  -19.8540  -25.7880 N   0  0  0  0  0
   -2.2160  -21.1380  -25.7960 C   0  0  0  0  0
   -1.4850  -21.3510  -27.1170 C   0  0  0  0  0
   -2.0850  -21.7390  -28.1130 O   0  0  0  0  0
   -3.2160  -22.2760  -25.5230 C   0  0  0  0  0
   -3.8150  -22.2140  -24.1160 C   0  0  0  0  0
   -4.7420  -23.4100  -23.8310 C   0  0  0  0  0
   -5.3740  -23.2260  -22.5280 N   0  0  0  0  0
   -4.8890  -23.6800  -21.3760 C   0  0  0  0  0
   -3.7660  -24.3880  -21.3490 N   0  0  0  0  0
   -5.5500  -23.4410  -20.2440 N   0  0  0  0  0
   -0.1800  -21.0710  -27.1030 N   0  0  0  0  0
    0.6890  -21.1730  -28.2780 C   0  0  0  0  0
    1.9840  -21.9080  -27.9190 C   0  0  0  0  0
    2.6300  -22.5200  -28.7790 O   0  0  0  0  0
    1.0240  -19.7840  -28.8320 C   0  0  0  0  0
   -0.1310  -19.1040  -29.3080 O   0  0  0  0  0
    2.4170  -21.9090  -26.7600 O   0  0  0  0  0
  -19.5253  -20.5233  -20.1834 H   0  0  0  0  0
  -18.7185  -18.9762  -20.5391 H   0  0  0  0  0
  -18.8222  -20.2355  -21.7939 H   0  0  0  0  0
  -17.3470  -21.6386  -21.9966 H   0  0  0  0  0
  -15.5433  -22.4885  -19.8970 H   0  0  0  0  0
  -15.4623  -23.0678  -22.8885 H   0  0  0  0  0
  -16.4724  -23.9805  -21.6953 H   0  0  0  0  0
  -13.5417  -26.1170  -22.1303 H   0  0  0  0  0
  -15.0084  -25.6604  -23.0030 H   0  0  0  0  0
  -13.9920  -21.3384  -19.2078 H   0  0  0  0  0
  -12.6745  -19.3939  -20.9713 H   0  0  0  0  0
  -13.4894  -18.6859  -18.7190 H   0  0  0  0  0
  -12.4700  -19.9300  -17.9546 H   0  0  0  0  0
  -11.7152  -18.5526  -18.7937 H   0  0  0  0  0
  -12.0921  -22.5771  -20.2380 H   0  0  0  0  0
   -9.3687  -22.4582  -19.3776 H   0  0  0  0  0
  -10.8169  -24.5503  -21.0043 H   0  0  0  0  0
  -10.6337  -24.4674  -19.1742 H   0  0  0  0  0
   -8.7127  -24.9543  -22.3628 H   0  0  0  0  0
   -8.8991  -25.5803  -18.1337 H   0  0  0  0  0
   -6.7412  -26.4504  -22.4985 H   0  0  0  0  0
   -6.9098  -27.0378  -18.2620 H   0  0  0  0  0
   -5.3726  -27.9525  -19.5902 H   0  0  0  0  0
  -10.7900  -22.5819  -22.6429 H   0  0  0  0  0
   -8.1527  -22.9843  -23.8156 H   0  0  0  0  0
   -9.4004  -22.8536  -25.9554 H   0  0  0  0  0
  -10.8482  -22.2645  -25.0564 H   0  0  0  0  0
  -12.0298  -25.5042  -24.4624 H   0  0  0  0  0
  -12.3680  -23.7980  -24.7719 H   0  0  0  0  0
  -10.0589  -20.1499  -23.1169 H   0  0  0  0  0
   -8.2028  -18.6683  -24.8957 H   0  0  0  0  0
  -10.0667  -17.2436  -25.5950 H   0  0  0  0  0
  -11.1629  -18.0940  -24.4225 H   0  0  0  0  0
  -11.7763  -19.1810  -26.3328 H   0  0  0  0  0
  -10.3819  -20.1888  -25.8850 H   0  0  0  0  0
  -11.8274  -17.4447  -28.1108 H   0  0  0  0  0
  -10.5954  -16.5438  -27.1933 H   0  0  0  0  0
  -10.4016  -16.7825  -28.9473 H   0  0  0  0  0
   -9.1139  -18.8942  -21.6536 H   0  0  0  0  0
   -9.0018  -15.9970  -21.2678 H   0  0  0  0  0
  -10.2259  -17.3957  -19.6738 H   0  0  0  0  0
   -8.9369  -16.3736  -18.8863 H   0  0  0  0  0
   -9.0378  -18.5153  -18.0533 H   0  0  0  0  0
   -6.6847  -18.5305  -21.6726 H   0  0  0  0  0
   -4.6655  -16.3282  -21.5408 H   0  0  0  0  0
   -2.8694  -17.8848  -21.1353 H   0  0  0  0  0
   -4.0074  -19.7787  -22.3277 H   0  0  0  0  0
   -4.9252  -20.0588  -20.7747 H   0  0  0  0  0
   -3.9271  -16.9041  -19.1836 H   0  0  0  0  0
   -5.1047  -18.2385  -19.1238 H   0  0  0  0  0
   -3.3776  -18.5615  -18.8338 H   0  0  0  0  0
   -1.8962  -20.2117  -21.1317 H   0  0  0  0  0
   -2.7915  -20.4848  -19.6168 H   0  0  0  0  0
   -2.9951  -21.6053  -20.9858 H   0  0  0  0  0
   -3.0526  -16.4439  -23.3336 H   0  0  0  0  0
   -4.1680  -17.7316  -25.7300 H   0  0  0  0  0
   -1.6067  -16.1859  -25.3090 H   0  0  0  0  0
   -3.1511  -15.5828  -26.0109 H   0  0  0  0  0
   -2.8175  -17.5128  -27.7178 H   0  0  0  0  0
   -1.1072  -17.4520  -27.1783 H   0  0  0  0  0
   -2.5841  -14.9764  -28.0019 H   0  0  0  0  0
   -1.7990  -16.0491  -29.2082 H   0  0  0  0  0
   -0.4547  -14.4609  -27.0899 H   0  0  0  0  0
   -0.3390  -16.6130  -29.8748 H   0  0  0  0  0
    2.5633  -14.8959  -28.8201 H   0  0  0  0  0
    1.7514  -14.0826  -27.4783 H   0  0  0  0  0
   -3.7868  -19.7560  -26.3016 H   0  0  0  0  0
   -1.4672  -21.1385  -25.0039 H   0  0  0  0  0
   -2.6804  -23.2207  -25.6166 H   0  0  0  0  0
   -4.0331  -22.1812  -26.2382 H   0  0  0  0  0
   -4.4033  -21.2999  -24.0358 H   0  0  0  0  0
   -2.9971  -22.2373  -23.3959 H   0  0  0  0  0
   -4.1604  -24.3319  -23.8291 H   0  0  0  0  0
   -5.5079  -23.4721  -24.6041 H   0  0  0  0  0
   -6.2537  -22.7105  -22.4990 H   0  0  0  0  0
   -3.2680  -24.5877  -22.2165 H   0  0  0  0  0
   -5.1931  -23.8017  -19.3591 H   0  0  0  0  0
   -6.4129  -22.8974  -20.2623 H   0  0  0  0  0
    0.2366  -20.7683  -26.2226 H   0  0  0  0  0
    0.1549  -21.7358  -29.0436 H   0  0  0  0  0
    2.1876  -22.4398  -29.6272 H   0  0  0  0  0
    1.7131  -19.9086  -29.6673 H   0  0  0  0  0
    1.4583  -19.1925  -28.0260 H   0  0  0  0  0
    0.1229  -18.2416  -29.6448 H   0  0  0  0  0
  1  2  2  0  0  0
  1  3  1  0  0  0
  1  4  1  0  0  0
  4  5  1  0  0  0
  5  6  1  0  0  0
  5  8  1  0  0  0
  6  7  2  0  0  0
  6 12  1  0  0  0
  8  9  1  0  0  0
  9 10  2  0  0  0
  9 11  1  0  0  0
 12 13  1  0  0  0
 13 14  1  0  0  0
 13 16  1  0  0  0
 14 15  2  0  0  0
 14 17  1  0  0  0
 17 18  1  0  0  0
 18 19  1  0  0  0
 18 21  1  0  0  0
 19 20  2  0  0  0
 19 29  1  0  0  0
 21 22  1  0  0  0
 22 23  4  0  0  0
 22 24  4  0  0  0
 23 25  4  0  0  0
 24 26  4  0  0  0
 25 27  4  0  0  0
 26 27  4  0  0  0
 27 28  1  0  0  0
 29 30  1  0  0  0
 30 31  1  0  0  0
 30 33  1  0  0  0
 31 32  2  0  0  0
 31 37  1  0  0  0
 33 34  1  0  0  0
 34 35  2  0  0  0
 34 36  1  0  0  0
 37 38  1  0  0  0
 38 39  1  0  0  0
 38 41  1  0  0  0
 39 40  2  0  0  0
 39 45  1  0  0  0
 41 42  1  0  0  0
 42 43  1  0  0  0
 43 44  1  0  0  0
 45 46  1  0  0  0
 46 47  1  0  0  0
 46 49  1  0  0  0
 47 48  2  0  0  0
 47 51  1  0  0  0
 49 50  1  0  0  0
 51 52  1  0  0  0
 52 53  1  0  0  0
 52 55  1  0  0  0
 53 54  2  0  0  0
 53 59  1  0  0  0
 55 56  1  0  0  0
 55 57  1  0  0  0
 56 58  1  0  0  0
 59 60  1  0  0  0
 60 61  1  0  0  0
 60 63  1  0  0  0
 61 62  2  0  0  0
 61 70  1  0  0  0
 63 64  1  0  0  0
 64 65  1  0  0  0
 65 66  1  0  0  0
 66 67  1  0  0  0
 67 68  2  0  0  0
 67 69  1  0  0  0
 70 71  1  0  0  0
 71 72  1  0  0  0
 71 74  1  0  0  0
 72 73  2  0  0  0
 72 81  1  0  0  0
 74 75  1  0  0  0
 75 76  1  0  0  0
 76 77  1  0  0  0
 77 78  1  0  0  0
 78 79  2  0  0  0
 78 80  1  0  0  0
 81 82  1  0  0  0
 82 83  1  0  0  0
 82 85  1  0  0  0
 83 84  1  0  0  0
 83 87  2  0  0  0
 85 86  1  0  0  0
  3 88  1  0  0  0
  3 89  1  0  0  0
  3 90  1  0  0  0
  4 91  1  0  0  0
  5 92  1  0  0  0
  8 93  1  0  0  0
  8 94  1  0  0  0
 11 95  1  0  0  0
 11 96  1  0  0  0
 12 97  1  0  0  0
 13 98  1  0  0  0
 16 99  1  0  0  0
 16100  1  0  0  0
 16101  1  0  0  0
 17102  1  0  0  0
 18103  1  0  0  0
 21104  1  0  0  0
 21105  1  0  0  0
 23106  1  0  0  0
 24107  1  0  0  0
 25108  1  0  0  0
 26109  1  0  0  0
 28110  1  0  0  0
 29111  1  0  0  0
 30112  1  0  0  0
 33113  1  0  0  0
 33114  1  0  0  0
 36115  1  0  0  0
 36116  1  0  0  0
 37117  1  0  0  0
 38118  1  0  0  0
 41119  1  0  0  0
 41120  1  0  0  0
 42121  1  0  0  0
 42122  1  0  0  0
 44123  1  0  0  0
 44124  1  0  0  0
 44125  1  0  0  0
 45126  1  0  0  0
 46127  1  0  0  0
 49128  1  0  0  0
 49129  1  0  0  0
 50130  1  0  0  0
 51131  1  0  0  0
 52132  1  0  0  0
 55133  1  0  0  0
 56134  1  0  0  0
 56135  1  0  0  0
 57136  1  0  0  0
 57137  1  0  0  0
 57138  1  0  0  0
 58139  1  0  0  0
 58140  1  0  0  0
 58141  1  0  0  0
 59142  1  0  0  0
 60143  1  0  0  0
 63144  1  0  0  0
 63145  1  0  0  0
 64146  1  0  0  0
 64147  1  0  0  0
 65148  1  0  0  0
 65149  1  0  0  0
 66150  1  0  0  0
 68151  1  0  0  0
 69152  1  0  0  0
 69153  1  0  0  0
 70154  1  0  0  0
 71155  1  0  0  0
 74156  1  0  0  0
 74157  1  0  0  0
 75158  1  0  0  0
 75159  1  0  0  0
 76160  1  0  0  0
 76161  1  0  0  0
 77162  1  0  0  0
 79163  1  0  0  0
 80164  1  0  0  0
 80165  1  0  0  0
 81166  1  0  0  0
 82167  1  0  0  0
 84168  1  0  0  0
 85169  1  0  0  0
 85170  1  0  0  0
 86171  1  0  0  0
M  END
$$$$
