### 
### Created by X-TOOL on Mon Sep 10 21:13:21 2018
### 

@<TRIPOS>MOLECULE
4qxt_ligand
  172   172     1     0     0
SMALL
GAST_HUCK


@<TRIPOS>ATOM
      1 C         -17.4000  -20.6240  -20.2580 C.2       1 ACE         0.1752
      2 O         -17.0600  -20.5300  -19.0780 O.2       1 ACE        -0.3972
      3 CH3       -18.7070  -20.0500  -20.7260 C.3       1 ACE         0.0258
      4 N         -16.8430  -21.4750  -21.1250 N.am      1 ASN        -0.2637
      5 CA        -15.5770  -22.1980  -20.9470 C.3       1 ASN         0.1475
      6 C         -14.3170  -21.3490  -21.1930 C.2       1 ASN         0.2062
      7 O         -13.9090  -21.1040  -22.3240 O.2       1 ASN        -0.3942
      8 CB        -15.5540  -23.4170  -21.8600 C.3       1 ASN         0.0773
      9 CG        -14.3840  -24.3300  -21.5680 C.2       1 ASN         0.1780
     10 OD1       -13.5620  -24.0340  -20.6940 O.2       1 ASN        -0.3970
     11 ND2       -14.3050  -25.4600  -22.2920 N.am      1 ASN        -0.3007
     12 N         -13.6780  -20.9660  -20.1040 N.am      1 ALA        -0.2639
     13 CA        -12.5520  -20.0440  -20.1050 C.3       1 ALA         0.1282
     14 C         -11.2080  -20.7390  -20.2500 C.2       1 ALA         0.2037
     15 O         -10.1680  -20.0770  -20.3210 O.2       1 ALA        -0.3944
     16 CB        -12.5570  -19.2450  -18.7980 C.3       1 ALA        -0.0244
     17 N         -11.2100  -22.0650  -20.2440 N.am      1 TYR        -0.2621
     18 CA         -9.9390  -22.7880  -20.2460 C.3       1 TYR         0.1390
     19 C          -9.1200  -22.4790  -21.4910 C.2       1 TYR         0.2059
     20 O          -7.9190  -22.2310  -21.4140 O.2       1 TYR        -0.3942
     21 CB        -10.1900  -24.2850  -20.1530 C.3       1 TYR         0.0163
     22 CG         -8.9450  -25.1590  -20.2380 C.ar      1 TYR        -0.0493
     23 CD1        -8.3220  -25.4140  -21.4550 C.ar      1 TYR        -0.0685
     24 CD2        -8.4230  -25.7580  -19.0980 C.ar      1 TYR        -0.0685
     25 CE1        -7.2080  -26.2460  -21.5350 C.ar      1 TYR        -0.0398
     26 CE2        -7.3080  -26.5770  -19.1660 C.ar      1 TYR        -0.0398
     27 CZ         -6.7040  -26.8060  -20.3870 C.ar      1 TYR         0.0805
     28 OH         -5.6040  -27.6430  -20.4690 O.3       1 TYR        -0.3376
     29 N          -9.7740  -22.4920  -22.6400 N.am      1 ASN        -0.2615
     30 CA         -9.0550  -22.3790  -23.9020 C.3       1 ASN         0.1476
     31 C          -8.5590  -20.9780  -24.2150 C.2       1 ASN         0.2063
     32 O          -7.5110  -20.8110  -24.8500 O.2       1 ASN        -0.3942
     33 CB         -9.9570  -22.8910  -25.0190 C.3       1 ASN         0.0773
     34 CG        -10.3880  -24.3210  -24.7760 C.2       1 ASN         0.1780
     35 OD1        -9.5460  -25.1990  -24.6520 O.2       1 ASN        -0.3970
     36 ND2       -11.6990  -24.5600  -24.6610 N.am      1 ASN        -0.3007
     37 N          -9.3180  -19.9720  -23.7950 N.am      1 MET        -0.2636
     38 CA         -9.1070  -18.6200  -24.2890 C.3       1 MET         0.1317
     39 C          -8.8390  -17.5790  -23.2110 C.2       1 MET         0.2040
     40 O          -8.5940  -16.4270  -23.5560 O.2       1 MET        -0.3944
     41 CB        -10.3170  -18.1840  -25.1040 C.3       1 MET        -0.0034
     42 CG        -10.6960  -19.1900  -26.1880 C.3       1 MET        -0.0024
     43 SD         -9.8820  -18.7440  -27.7190 S.3       1 MET        -0.1639
     44 CE        -10.7620  -17.2320  -28.0220 C.3       1 MET        -0.0181
     45 N          -8.8710  -17.9420  -21.9270 N.am      1 SER        -0.2616
     46 CA         -8.5450  -16.9250  -20.9240 C.3       1 SER         0.1539
     47 C          -7.0350  -16.7200  -20.8240 C.2       1 SER         0.2062
     48 O          -6.5820  -15.7460  -20.2080 O.2       1 SER        -0.3943
     49 CB         -9.1590  -17.2240  -19.5310 C.3       1 SER         0.0843
     50 OG         -8.6180  -18.3870  -18.9070 O.3       1 SER        -0.3903
     51 N          -6.2750  -17.6290  -21.4280 N.am      1 ILE        -0.2634
     52 CA         -4.8670  -17.3780  -21.7540 C.3       1 ILE         0.1335
     53 C          -4.6460  -17.7140  -23.2230 C.2       1 ILE         0.2042
     54 O          -5.4060  -18.4830  -23.8180 O.2       1 ILE        -0.3944
     55 CB         -3.8830  -18.2080  -20.8980 C.3       1 ILE        -0.0037
     56 CG1        -4.0100  -19.6940  -21.2410 C.3       1 ILE        -0.0491
     57 CG2        -4.0880  -17.9600  -19.4010 C.3       1 ILE        -0.0582
     58 CD1        -2.8340  -20.5650  -20.7030 C.3       1 ILE        -0.0648
     59 N          -3.6030  -17.1510  -23.8210 N.am      1 ARG        -0.2637
     60 CA         -3.2500  -17.5470  -25.1720 C.3       1 ARG         0.1311
     61 C          -2.4240  -18.8100  -25.1240 C.2       1 ARG         0.2039
     62 O          -1.3780  -18.8540  -24.4710 O.2       1 ARG        -0.3944
     63 CB         -2.4890  -16.4410  -25.8960 C.3       1 ARG        -0.0092
     64 CG         -2.0370  -16.8920  -27.2780 C.3       1 ARG        -0.0156
     65 CD         -1.7970  -15.7110  -28.1720 C.3       1 ARG         0.0627
     66 NE         -0.5170  -15.0980  -27.8840 N.pl3     1 ARG        -0.2723
     67 CZ          0.5810  -15.3210  -28.5990 C.cat     1 ARG         0.2882
     68 NH1         0.5360  -16.1490  -29.6310 N.pl3     1 ARG        -0.2849
     69 NH2         1.7200  -14.7200  -28.2740 N.pl3     1 ARG        -0.2849
     70 N          -2.9110  -19.8540  -25.7880 N.am      1 ARG        -0.2637
     71 CA         -2.2160  -21.1380  -25.7960 C.3       1 ARG         0.1310
     72 C          -1.4850  -21.3510  -27.1170 C.2       1 ARG         0.2034
     73 O          -2.0850  -21.7390  -28.1130 O.2       1 ARG        -0.3944
     74 CB         -3.2160  -22.2760  -25.5230 C.3       1 ARG        -0.0092
     75 CG         -3.8150  -22.2140  -24.1160 C.3       1 ARG        -0.0156
     76 CD         -4.7420  -23.4100  -23.8310 C.3       1 ARG         0.0627
     77 NE         -5.3740  -23.2260  -22.5280 N.pl3     1 ARG        -0.2723
     78 CZ         -4.8890  -23.6800  -21.3760 C.cat     1 ARG         0.2882
     79 NH1        -3.7660  -24.3880  -21.3490 N.pl3     1 ARG        -0.2849
     80 NH2        -5.5500  -23.4410  -20.2440 N.pl3     1 ARG        -0.2849
     81 N          -0.1800  -21.0710  -27.1030 N.am      1 SER        -0.2672
     82 CA          0.6890  -21.1730  -28.2780 C.3       1 SER         0.1173
     83 C           1.9840  -21.9080  -27.9190 C.2       1 SER         0.0623
     84 O           2.6300  -22.5200  -28.7790 O.co2     1 SER        -0.5665
     85 CB          1.0240  -19.7840  -28.8320 C.3       1 SER         0.0789
     86 OG         -0.1310  -19.1040  -29.3080 O.3       1 SER        -0.3910
     87 OXT         2.4170  -21.9090  -26.7600 O.co2     1 SER        -0.5665
     88 H1        -18.8244  -20.2365  -21.8037 H         1 ACE         0.0467
     89 H2        -18.7199  -18.9663  -20.5380 H         1 ACE         0.0467
     90 H3        -19.5337  -20.5269  -20.1791 H         1 ACE         0.0467
     91 H4        -17.3371  -21.6354  -21.9795 H         1 ASN         0.1884
     92 H5        -15.5409  -22.5453  -19.9039 H         1 ASN         0.0826
     93 H6        -15.4851  -23.0763  -22.9036 H         1 ASN         0.0551
     94 H7        -16.4873  -23.9820  -21.7196 H         1 ASN         0.0551
     95 H8        -13.5515  -26.0996  -22.1399 H         1 ASN         0.1814
     96 H9        -14.9997  -25.6609  -22.9826 H         1 ASN         0.1814
     97 H10       -13.9858  -21.3311  -19.2254 H         1 ALA         0.1883
     98 H11       -12.6752  -19.3515  -20.9507 H         1 ALA         0.0797
     99 H12       -11.7078  -18.5458  -18.7925 H         1 ALA         0.0277
    100 H13       -12.4692  -19.9352  -17.9460 H         1 ALA         0.0277
    101 H14       -13.4975  -18.6802  -18.7171 H         1 ALA         0.0277
    102 H15       -12.0748  -22.5671  -20.2381 H         1 TYR         0.1885
    103 H16        -9.3612  -22.4729  -19.3646 H         1 TYR         0.0821
    104 H17       -10.8617  -24.5690  -20.9764 H         1 TYR         0.0453
    105 H18       -10.6830  -24.4881  -19.1909 H         1 TYR         0.0453
    106 H19        -8.7106  -24.9568  -22.3578 H         1 TYR         0.0530
    107 H20        -8.8965  -25.5813  -18.1390 H         1 TYR         0.0530
    108 H21        -6.7438  -26.4493  -22.4932 H         1 TYR         0.0525
    109 H22        -6.9120  -27.0352  -18.2670 H         1 TYR         0.0525
    110 H23        -5.8440  -28.5103  -20.1646 H         1 TYR         0.2458
    111 H24       -10.7701  -22.5801  -22.6428 H         1 ASN         0.1885
    112 H25        -8.1717  -23.0319  -23.8424 H         1 ASN         0.0826
    113 H26        -9.4093  -22.8403  -25.9716 H         1 ASN         0.0551
    114 H27       -10.8516  -22.2534  -25.0760 H         1 ASN         0.0551
    115 H28       -12.0252  -25.4915  -24.5000 H         1 ASN         0.1814
    116 H29       -12.3530  -23.8072  -24.7360 H         1 ASN         0.1814
    117 H30       -10.0444  -20.1464  -23.1302 H         1 MET         0.1883
    118 H31        -8.2287  -18.6449  -24.9508 H         1 MET         0.0800
    119 H32       -10.0888  -17.2206  -25.5834 H         1 MET         0.0320
    120 H33       -11.1728  -18.0616  -24.4239 H         1 MET         0.0320
    121 H34       -11.7861  -19.1791  -26.3347 H         1 MET         0.0378
    122 H35       -10.3772  -20.1974  -25.8822 H         1 MET         0.0378
    123 H36       -10.3992  -16.7774  -28.9556 H         1 MET         0.0340
    124 H37       -10.5946  -16.5365  -27.1864 H         1 MET         0.0340
    125 H38       -11.8374  -17.4453  -28.1118 H         1 MET         0.0340
    126 H39        -9.1092  -18.8755  -21.6589 H         1 SER         0.1884
    127 H40        -8.9835  -15.9781  -21.2719 H         1 SER         0.0823
    128 H41       -10.2430  -17.3665  -19.6519 H         1 SER         0.0606
    129 H42        -8.9735  -16.3598  -18.8763 H         1 SER         0.0606
    130 H43        -8.7792  -19.1443  -19.4574 H         1 SER         0.2097
    131 H44        -6.6767  -18.5128  -21.6678 H         1 ILE         0.1883
    132 H45        -4.6560  -16.3113  -21.5882 H         1 ILE         0.0803
    133 H46        -2.8617  -17.8880  -21.1518 H         1 ILE         0.0345
    134 H47        -4.0448  -19.7959  -22.3357 H         1 ILE         0.0267
    135 H48        -4.9479  -20.0714  -20.8076 H         1 ILE         0.0267
    136 H49        -3.9901  -16.8847  -19.1907 H         1 ILE         0.0235
    137 H50        -3.3296  -18.5157  -18.8300 H         1 ILE         0.0235
    138 H51        -5.0915  -18.3013  -19.1068 H         1 ILE         0.0235
    139 H52        -2.9954  -21.6152  -20.9878 H         1 ILE         0.0230
    140 H53        -2.7900  -20.4850  -19.6068 H         1 ILE         0.0230
    141 H54        -1.8869  -20.2095  -21.1349 H         1 ILE         0.0230
    142 H55        -3.0634  -16.4578  -23.3432 H         1 ARG         0.1883
    143 H56        -4.1760  -17.7515  -25.7295 H         1 ARG         0.0800
    144 H57        -1.6048  -16.1667  -25.3019 H         1 ARG         0.0313
    145 H58        -3.1456  -15.5649  -26.0023 H         1 ARG         0.0313
    146 H59        -2.8164  -17.5282  -27.7226 H         1 ARG         0.0301
    147 H60        -1.1043  -17.4673  -27.1825 H         1 ARG         0.0301
    148 H61        -2.5949  -14.9707  -28.0131 H         1 ARG         0.0689
    149 H62        -1.8092  -16.0441  -29.2203 H         1 ARG         0.0689
    150 H63        -0.4541  -14.4547  -27.0821 H         1 ARG         0.2642
    151 H64         1.3846  -16.3246  -30.1877 H         1 ARG         0.2615
    152 H65        -0.3476  -16.6176  -29.8772 H         1 ARG         0.2615
    153 H66         1.7517  -14.0764  -27.4705 H         1 ARG         0.2615
    154 H67         2.5716  -14.8976  -28.8255 H         1 ARG         0.2615
    155 H68        -3.7696  -19.7579  -26.2915 H         1 ARG         0.1883
    156 H69        -1.4690  -21.1333  -24.9885 H         1 ARG         0.0800
    157 H70        -2.6951  -23.2376  -25.6411 H         1 ARG         0.0313
    158 H71        -4.0333  -22.2092  -26.2562 H         1 ARG         0.0313
    159 H72        -4.3943  -21.2842  -24.0172 H         1 ARG         0.0301
    160 H73        -2.9966  -22.2160  -23.3811 H         1 ARG         0.0301
    161 H74        -4.1534  -24.3392  -23.8267 H         1 ARG         0.0689
    162 H75        -5.5160  -23.4698  -24.6103 H         1 ARG         0.0689
    163 H76        -6.2623  -22.7054  -22.4987 H         1 ARG         0.2642
    164 H77        -3.3978  -24.7356  -20.4521 H         1 ARG         0.2615
    165 H78        -3.2631  -24.5896  -22.2250 H         1 ARG         0.2615
    166 H79        -6.4213  -22.8920  -20.2625 H         1 ARG         0.2615
    167 H80        -5.1896  -23.8052  -19.3505 H         1 ARG         0.2615
    168 H81         0.2285  -20.7742  -26.2398 H         1 SER         0.1876
    169 H82         0.1607  -21.7445  -29.0553 H         1 SER         0.0749
    170 H83         1.7368  -19.8959  -29.6623 H         1 SER         0.0599
    171 H84         1.4837  -19.1848  -28.0323 H         1 SER         0.0599
    172 H85         0.1202  -18.2506  -29.6413 H         1 SER         0.2096
@<TRIPOS>BOND
     1    1    2 2  
     2    1    3 1  
     3    1    4 am 
     4    4    5 1  
     5    5    6 1  
     6    5    8 1  
     7    6    7 2  
     8    6   12 am 
     9    8    9 1  
    10    9   10 2  
    11    9   11 am 
    12   12   13 1  
    13   13   14 1  
    14   13   16 1  
    15   14   15 2  
    16   14   17 am 
    17   17   18 1  
    18   18   19 1  
    19   18   21 1  
    20   19   20 2  
    21   19   29 am 
    22   21   22 1  
    23   22   23 ar 
    24   22   24 ar 
    25   23   25 ar 
    26   24   26 ar 
    27   25   27 ar 
    28   26   27 ar 
    29   27   28 1  
    30   29   30 1  
    31   30   31 1  
    32   30   33 1  
    33   31   32 2  
    34   31   37 am 
    35   33   34 1  
    36   34   35 2  
    37   34   36 am 
    38   37   38 1  
    39   38   39 1  
    40   38   41 1  
    41   39   40 2  
    42   39   45 am 
    43   41   42 1  
    44   42   43 1  
    45   43   44 1  
    46   45   46 1  
    47   46   47 1  
    48   46   49 1  
    49   47   48 2  
    50   47   51 am 
    51   49   50 1  
    52   51   52 1  
    53   52   53 1  
    54   52   55 1  
    55   53   54 2  
    56   53   59 am 
    57   55   56 1  
    58   55   57 1  
    59   56   58 1  
    60   59   60 1  
    61   60   61 1  
    62   60   63 1  
    63   61   62 2  
    64   61   70 am 
    65   63   64 1  
    66   64   65 1  
    67   65   66 1  
    68   66   67 ar 
    69   67   68 ar 
    70   67   69 ar 
    71   70   71 1  
    72   71   72 1  
    73   71   74 1  
    74   72   73 2  
    75   72   81 am 
    76   74   75 1  
    77   75   76 1  
    78   76   77 1  
    79   77   78 ar 
    80   78   79 ar 
    81   78   80 ar 
    82   81   82 1  
    83   82   83 1  
    84   82   85 1  
    85   83   84 ar 
    86   83   87 ar 
    87   85   86 1  
    88    3   88 1  
    89    3   89 1  
    90    3   90 1  
    91    4   91 1  
    92    5   92 1  
    93    8   93 1  
    94    8   94 1  
    95   11   95 1  
    96   11   96 1  
    97   12   97 1  
    98   13   98 1  
    99   16   99 1  
   100   16  100 1  
   101   16  101 1  
   102   17  102 1  
   103   18  103 1  
   104   21  104 1  
   105   21  105 1  
   106   23  106 1  
   107   24  107 1  
   108   25  108 1  
   109   26  109 1  
   110   28  110 1  
   111   29  111 1  
   112   30  112 1  
   113   33  113 1  
   114   33  114 1  
   115   36  115 1  
   116   36  116 1  
   117   37  117 1  
   118   38  118 1  
   119   41  119 1  
   120   41  120 1  
   121   42  121 1  
   122   42  122 1  
   123   44  123 1  
   124   44  124 1  
   125   44  125 1  
   126   45  126 1  
   127   46  127 1  
   128   49  128 1  
   129   49  129 1  
   130   50  130 1  
   131   51  131 1  
   132   52  132 1  
   133   55  133 1  
   134   56  134 1  
   135   56  135 1  
   136   57  136 1  
   137   57  137 1  
   138   57  138 1  
   139   58  139 1  
   140   58  140 1  
   141   58  141 1  
   142   59  142 1  
   143   60  143 1  
   144   63  144 1  
   145   63  145 1  
   146   64  146 1  
   147   64  147 1  
   148   65  148 1  
   149   65  149 1  
   150   66  150 1  
   151   68  151 1  
   152   68  152 1  
   153   69  153 1  
   154   69  154 1  
   155   70  155 1  
   156   71  156 1  
   157   74  157 1  
   158   74  158 1  
   159   75  159 1  
   160   75  160 1  
   161   76  161 1  
   162   76  162 1  
   163   77  163 1  
   164   79  164 1  
   165   79  165 1  
   166   80  166 1  
   167   80  167 1  
   168   81  168 1  
   169   82  169 1  
   170   85  170 1  
   171   85  171 1  
   172   86  172 1  
@<TRIPOS>SUBSTRUCTURE
     1 ACE         1

