5uwm_ligand
  -I-interpret- 

 62 65  0  0  0  0  0  0  0  0999 V2000
  -47.2470  134.9170   -9.4680 O   0  0  0  0  0
  -46.5050  134.8350   -8.5090 C   0  0  0  0  0
  -46.8560  135.2800   -7.3070 N   0  0  0  0  0
  -48.1730  135.8430   -7.0390 C   0  0  0  0  0
  -45.1550  134.1820   -8.6890 C   0  0  0  0  0
  -44.1660  135.1190   -9.3880 C   0  0  0  0  0
  -43.9770  136.4310   -8.6340 C   0  0  0  0  0
  -44.5740  135.4230  -10.8260 C   0  0  0  0  0
  -44.5580  133.7210   -7.4520 N   0  0  0  0  0
  -44.9790  132.5960   -6.8750 C   0  0  0  0  0
  -45.9540  131.9610   -7.2630 O   0  0  0  0  0
  -44.1450  132.0470   -5.7860 C   0  0  0  0  0
  -42.9640  132.7210   -5.6110 O   0  0  0  0  0
  -42.3070  132.0560   -4.6090 C   0  0  0  0  0
  -43.0710  130.9550   -4.2130 C   0  0  0  0  0
  -44.2390  130.9470   -4.9600 C   0  0  0  0  0
  -40.9700  132.4740   -4.1250 C   0  0  0  0  0
  -40.6220  133.8140   -4.1930 C   0  0  0  0  0
  -39.3700  134.2200   -3.7750 C   0  0  0  0  0
  -38.4540  133.2910   -3.3140 C   0  0  0  0  0
  -38.7880  131.9480   -3.2690 C   0  0  0  0  0
  -40.0460  131.5340   -3.6860 C   0  0  0  0  0
  -37.0850  133.7580   -2.8740 C   0  0  0  0  0
  -35.9410  133.4570   -4.1910 S   0  0  0  0  0
  -34.3770  133.5140   -3.5070 C   0  0  0  0  0
  -33.3100  133.2580   -4.2660 N   0  0  0  0  0
  -32.0730  133.2540   -3.7910 C   0  0  0  0  0
  -31.1400  132.9880   -4.5720 O   0  0  0  0  0
  -31.8970  133.5520   -2.4610 C   0  0  0  0  0
  -30.6120  133.6300   -1.6890 C   0  0  0  0  0
  -31.0610  134.0140   -0.2730 C   0  0  0  0  0
  -32.5930  134.1400   -0.2590 C   0  0  0  0  0
  -32.9740  133.8410   -1.6840 C   0  0  0  0  0
  -34.2200  133.8110   -2.1940 N   0  0  0  0  0
  -46.1931  135.2266   -6.5602 H   0  0  0  0  0
  -48.2357  136.1422   -5.9823 H   0  0  0  0  0
  -48.9446  135.0888   -7.2530 H   0  0  0  0  0
  -48.3328  136.7230   -7.6793 H   0  0  0  0  0
  -45.3057  133.3032   -9.3332 H   0  0  0  0  0
  -43.1944  134.6040   -9.4156 H   0  0  0  0  0
  -43.2601  137.0653   -9.1759 H   0  0  0  0  0
  -43.5919  136.2219   -7.6251 H   0  0  0  0  0
  -44.9426  136.9522   -8.5572 H   0  0  0  0  0
  -44.7119  134.4799  -11.3752 H   0  0  0  0  0
  -43.7874  136.0188  -11.3122 H   0  0  0  0  0
  -45.5169  135.9895  -10.8277 H   0  0  0  0  0
  -43.8240  134.2514   -7.0277 H   0  0  0  0  0
  -42.7964  130.2287   -3.4495 H   0  0  0  0  0
  -45.0545  130.2273   -4.9060 H   0  0  0  0  0
  -41.3305  134.5411   -4.5731 H   0  0  0  0  0
  -39.1039  135.2703   -3.8082 H   0  0  0  0  0
  -38.0688  131.2213   -2.9089 H   0  0  0  0  0
  -40.3061  130.4818   -3.6691 H   0  0  0  0  0
  -36.7735  133.2023   -1.9773 H   0  0  0  0  0
  -37.1149  134.8338   -2.6467 H   0  0  0  0  0
  -29.9467  134.3976   -2.1112 H   0  0  0  0  0
  -30.0961  132.6585   -1.6869 H   0  0  0  0  0
  -30.6080  134.9753    0.0111 H   0  0  0  0  0
  -30.7471  133.2361    0.4386 H   0  0  0  0  0
  -32.9029  135.1558    0.0276 H   0  0  0  0  0
  -33.0428  133.4110    0.4311 H   0  0  0  0  0
  -33.4500  133.0604   -5.2362 H   0  0  0  0  0
  1  2  2  0  0  0
  2  3  1  0  0  0
  2  5  1  0  0  0
  3  4  1  0  0  0
  5  6  1  0  0  0
  5  9  1  0  0  0
  6  7  1  0  0  0
  6  8  1  0  0  0
  9 10  1  0  0  0
 10 11  2  0  0  0
 10 12  1  0  0  0
 12 13  1  0  0  0
 12 16  2  0  0  0
 13 14  1  0  0  0
 14 15  2  0  0  0
 14 17  1  0  0  0
 15 16  1  0  0  0
 17 18  4  0  0  0
 17 22  4  0  0  0
 18 19  4  0  0  0
 19 20  4  0  0  0
 20 21  4  0  0  0
 20 23  1  0  0  0
 21 22  4  0  0  0
 23 24  1  0  0  0
 24 25  1  0  0  0
 25 26  1  0  0  0
 25 34  2  0  0  0
 26 27  1  0  0  0
 27 28  2  0  0  0
 27 29  1  0  0  0
 29 30  1  0  0  0
 29 33  2  0  0  0
 30 31  1  0  0  0
 31 32  1  0  0  0
 32 33  1  0  0  0
 33 34  1  0  0  0
  3 35  1  0  0  0
  4 36  1  0  0  0
  4 37  1  0  0  0
  4 38  1  0  0  0
  5 39  1  0  0  0
  6 40  1  0  0  0
  7 41  1  0  0  0
  7 42  1  0  0  0
  7 43  1  0  0  0
  8 44  1  0  0  0
  8 45  1  0  0  0
  8 46  1  0  0  0
  9 47  1  0  0  0
 15 48  1  0  0  0
 16 49  1  0  0  0
 18 50  1  0  0  0
 19 51  1  0  0  0
 21 52  1  0  0  0
 22 53  1  0  0  0
 23 54  1  0  0  0
 23 55  1  0  0  0
 30 56  1  0  0  0
 30 57  1  0  0  0
 31 58  1  0  0  0
 31 59  1  0  0  0
 32 60  1  0  0  0
 32 61  1  0  0  0
 26 62  1  0  0  0
M  END
$$$$
