4alw_ligand
  -I-interpret- 

 42 45  0  0  0  0  0  0  0  0999 V2000
   21.0110  -29.2470    2.3750 C   0  0  0  0  0
   21.5020  -27.9320    3.0820 C   0  0  0  0  0
   22.9420  -28.1280    3.4290 N   0  3  0  0  0
   23.4870  -26.9970    4.2520 C   0  0  0  0  0
   23.2480  -29.3180    4.2800 C   0  0  0  0  0
   22.8760  -30.5710    3.4580 C   0  0  0  0  0
   21.4060  -30.4220    3.1590 N   0  3  0  0  0
   20.8310  -31.6580    2.6000 C   0  0  0  0  0
   21.4500  -32.2870    1.3920 C   0  0  0  0  0
   21.8170  -33.5270    1.4230 N   0  0  0  0  0
   22.3040  -34.1560    0.3070 C   0  0  0  0  0
   22.7940  -35.4320    0.0410 C   0  0  0  0  0
   22.8930  -36.5780    0.8170 C   0  0  0  0  0
   23.4350  -37.6350    0.1230 C   0  0  0  0  0
   23.7320  -39.2550    1.0850 Br  0  0  0  0  0
   23.8410  -37.6730   -1.2440 C   0  0  0  0  0
   23.7130  -36.5100   -2.0020 C   0  0  0  0  0
   23.1720  -35.4570   -1.3010 C   0  0  0  0  0
   22.9490  -34.2080   -1.7630 O   0  0  0  0  0
   22.3730  -33.4340   -0.8660 C   0  0  0  0  0
   22.0120  -32.0730   -0.9000 C   0  0  0  0  0
   22.1090  -31.3530   -1.9060 O   0  0  0  0  0
   21.4560  -31.5810    0.2370 N   0  0  0  0  0
   21.4635  -29.3101    1.3854 H   0  0  0  0  0
   19.9245  -29.2227    2.2917 H   0  0  0  0  0
   20.9143  -27.7361    3.9789 H   0  0  0  0  0
   21.3797  -27.0730    2.4223 H   0  0  0  0  0
   23.3567  -28.2206    2.5017 H   0  0  0  0  0
   22.9782  -26.9725    5.2156 H   0  0  0  0  0
   24.5557  -27.1447    4.4076 H   0  0  0  0  0
   23.3215  -26.0555    3.7282 H   0  0  0  0  0
   22.6784  -29.2838    5.2087 H   0  0  0  0  0
   24.3033  -29.3355    4.5522 H   0  0  0  0  0
   23.0847  -31.4895    4.0065 H   0  0  0  0  0
   23.4675  -30.6447    2.5455 H   0  0  0  0  0
   21.0006  -30.2465    4.0784 H   0  0  0  0  0
   19.8297  -31.3727    2.2774 H   0  0  0  0  0
   20.9559  -32.3994    3.3892 H   0  0  0  0  0
   22.5771  -36.6344    1.8587 H   0  0  0  0  0
   24.2405  -38.5867   -1.6840 H   0  0  0  0  0
   24.0123  -36.4416   -3.0479 H   0  0  0  0  0
   21.0311  -30.6538    0.2203 H   0  0  0  0  0
  1  2  1  0  0  0
  1  7  1  0  0  0
  2  3  1  0  0  0
  3  4  1  0  0  0
  3  5  1  0  0  0
  5  6  1  0  0  0
  6  7  1  0  0  0
  7  8  1  0  0  0
  8  9  1  0  0  0
  9 10  2  0  0  0
  9 23  1  0  0  0
 10 11  1  0  0  0
 11 12  4  0  0  0
 11 20  4  0  0  0
 12 13  4  0  0  0
 12 18  4  0  0  0
 13 14  4  0  0  0
 14 15  1  0  0  0
 14 16  4  0  0  0
 16 17  4  0  0  0
 17 18  4  0  0  0
 18 19  4  0  0  0
 19 20  4  0  0  0
 20 21  1  0  0  0
 21 22  2  0  0  0
 21 23  1  0  0  0
  1 24  1  0  0  0
  1 25  1  0  0  0
  2 26  1  0  0  0
  2 27  1  0  0  0
  3 28  1  0  0  0
  4 29  1  0  0  0
  4 30  1  0  0  0
  4 31  1  0  0  0
  5 32  1  0  0  0
  5 33  1  0  0  0
  6 34  1  0  0  0
  6 35  1  0  0  0
  7 36  1  0  0  0
  8 37  1  0  0  0
  8 38  1  0  0  0
 13 39  1  0  0  0
 16 40  1  0  0  0
 17 41  1  0  0  0
 23 42  1  0  0  0
M  END
$$$$
