6hro_ligand
  -I-interpret- 

 59 62  0  0  0  0  0  0  0  0999 V2000
  -45.5070   10.5980    1.5720 C   0  0  0  0  0
  -44.7380   10.2650    3.7980 C   0  0  0  0  0
  -44.4260    9.9470    8.9090 C   0  0  0  0  0
  -43.9370   11.0760    8.1290 C   0  0  0  0  0
  -44.7320   11.3690    6.8420 C   0  0  0  0  0
  -47.3830   12.1270   -3.1070 C   0  0  0  0  0
  -49.6090   11.3420   -2.5470 C   0  0  0  0  0
  -46.5770   14.3970   -5.1470 C   0  0  0  0  0
  -45.8880   14.0530   -3.7910 C   0  0  0  0  0
  -46.2870   13.0260   -2.9050 C   0  0  0  0  0
  -45.3950   13.0600   -1.8110 C   0  0  0  0  0
  -45.4270   12.2320   -0.7020 C   0  0  0  0  0
  -45.5250   10.8430   -0.8400 C   0  0  0  0  0
  -45.5660   10.0250    0.2970 C   0  0  0  0  0
  -45.4110   11.9870    1.7100 C   0  0  0  0  0
  -45.3720   12.8030    0.5790 C   0  0  0  0  0
  -45.6450   10.4370    5.0700 C   0  0  0  0  0
  -45.6680    9.2010    6.8780 C   0  0  0  0  0
  -44.8230    8.8180    8.1220 C   0  0  0  0  0
  -45.6260   10.3900    9.8330 C   0  0  0  0  0
  -48.5460   12.2350   -2.3350 C   0  0  0  0  0
  -49.5050   10.3520   -3.5240 C   0  0  0  0  0
  -48.3430   10.2460   -4.2930 C   0  0  0  0  0
  -47.2840   11.1350   -4.0810 C   0  0  0  0  0
  -44.5110   14.0720   -2.0370 N   0  0  0  0  0
  -44.8130   14.6730   -3.2450 N   0  0  0  0  0
  -44.9950   10.1780    6.0860 N   0  3  0  0  0
  -45.9440    9.6000   11.0510 N   0  0  0  0  0
  -45.2720   14.2210    0.7300 O   0  0  0  0  0
  -45.5470    9.7820    2.7240 O   0  0  0  0  0
  -46.2800   11.3480    9.5650 O   0  0  0  0  0
  -50.8450    9.2280   -3.7910 Cl  0  0  0  0  0
  -43.9362    9.5567    4.0066 H   0  0  0  0  0
  -44.2935   11.2225    3.5266 H   0  0  0  0  0
  -43.5778    9.6237    9.5124 H   0  0  0  0  0
  -42.9201   10.8307    7.8226 H   0  0  0  0  0
  -44.0256   11.9588    8.7622 H   0  0  0  0  0
  -44.1387   12.0409    6.2218 H   0  0  0  0  0
  -45.6879   11.8090    7.1260 H   0  0  0  0  0
  -50.5159   11.4226   -1.9477 H   0  0  0  0  0
  -46.5375   13.5281   -5.8039 H   0  0  0  0  0
  -47.6165   14.6702   -4.9659 H   0  0  0  0  0
  -46.0568   15.2323   -5.6158 H   0  0  0  0  0
  -45.5695   10.3966   -1.8334 H   0  0  0  0  0
  -45.6438    8.9432    0.1882 H   0  0  0  0  0
  -45.3666   12.4328    2.7037 H   0  0  0  0  0
  -46.4933    9.7559    5.0020 H   0  0  0  0  0
  -46.0001   11.4662    5.1224 H   0  0  0  0  0
  -46.6180    9.6165    7.2142 H   0  0  0  0  0
  -45.8258    8.3080    6.2732 H   0  0  0  0  0
  -45.4389    8.1775    8.7533 H   0  0  0  0  0
  -43.9157    8.3303    7.7656 H   0  0  0  0  0
  -48.6261   13.0094   -1.5721 H   0  0  0  0  0
  -48.2620    9.4722   -5.0564 H   0  0  0  0  0
  -46.3773   11.0515   -4.6802 H   0  0  0  0  0
  -44.0969    9.7870    5.8013 H   0  0  0  0  0
  -46.7191    9.8795   11.6522 H   0  0  0  0  0
  -45.3872    8.7783   11.2857 H   0  0  0  0  0
  -45.2455   14.4411    1.6640 H   0  0  0  0  0
  1 14  4  0  0  0
  1 15  4  0  0  0
 30  1  1  0  0  0
 17  2  1  0  0  0
  2 30  1  0  0  0
  4  3  1  0  0  0
  3 19  1  0  0  0
  3 20  1  0  0  0
  5  4  1  0  0  0
 27  5  1  0  0  0
 10  6  1  0  0  0
  6 21  4  0  0  0
  6 24  4  0  0  0
 21  7  4  0  0  0
  7 22  4  0  0  0
  9  8  1  0  0  0
 10  9  4  0  0  0
  9 26  4  0  0  0
 11 10  4  0  0  0
 12 11  1  0  0  0
 11 25  4  0  0  0
 13 12  4  0  0  0
 16 12  4  0  0  0
 14 13  4  0  0  0
 15 16  4  0  0  0
 16 29  1  0  0  0
 17 27  1  0  0  0
 19 18  1  0  0  0
 18 27  1  0  0  0
 20 28  1  0  0  0
 20 31  2  0  0  0
 22 23  4  0  0  0
 22 32  1  0  0  0
 23 24  4  0  0  0
 25 26  4  0  0  0
  2 33  1  0  0  0
  2 34  1  0  0  0
  3 35  1  0  0  0
  4 36  1  0  0  0
  4 37  1  0  0  0
  5 38  1  0  0  0
  5 39  1  0  0  0
  7 40  1  0  0  0
  8 41  1  0  0  0
  8 42  1  0  0  0
  8 43  1  0  0  0
 13 44  1  0  0  0
 14 45  1  0  0  0
 15 46  1  0  0  0
 17 47  1  0  0  0
 17 48  1  0  0  0
 18 49  1  0  0  0
 18 50  1  0  0  0
 19 51  1  0  0  0
 19 52  1  0  0  0
 21 53  1  0  0  0
 23 54  1  0  0  0
 24 55  1  0  0  0
 27 56  1  0  0  0
 28 57  1  0  0  0
 28 58  1  0  0  0
 29 59  1  0  0  0
M  END
$$$$
