4loq_ligand
  -I-interpret- 

 45 48  0  0  0  0  0  0  0  0999 V2000
    4.0790   -8.0420   34.3040 C   0  0  0  0  0
    2.7920   -7.3990   34.1890 C   0  0  0  0  0
    2.9580   -5.9150   34.1220 N   0  3  0  0  0
    4.1050   -5.5180   33.3140 C   0  0  0  0  0
    5.3330   -5.9420   34.1320 C   0  0  0  0  0
    5.0300   -7.0950   35.0320 C   0  0  0  0  0
    9.2050   -8.7910   38.4480 C   0  0  0  0  0
   10.4300   -8.9640   39.0730 C   0  0  0  0  0
   11.5980   -8.9960   38.3250 C   0  0  0  0  0
   11.5910   -8.8740   36.9660 C   0  0  0  0  0
   10.3840   -8.7160   36.3410 C   0  0  0  0  0
    9.1830   -8.6750   37.0650 C   0  0  0  0  0
   12.5300   -9.1090   38.7930 F   0  0  0  0  0
    7.8290   -5.8490   37.7370 C   0  0  0  0  0
    6.8350   -6.7850   37.5100 C   0  0  0  0  0
    5.7240   -6.6750   38.2530 N   0  0  0  0  0
    5.5220   -5.7570   39.2260 C   0  0  0  0  0
    6.4800   -4.8720   39.5150 N   0  0  0  0  0
    7.6380   -4.8880   38.7130 C   0  0  0  0  0
    4.3930   -5.7000   39.9650 N   0  0  0  0  0
    6.2880   -7.7730   35.3770 N   0  0  0  0  0
    6.8590   -8.6640   34.5590 C   0  0  0  0  0
    7.9730   -9.0760   35.1440 N   0  0  0  0  0
    8.0900   -8.4940   36.3160 C   0  0  0  0  0
    7.0450   -7.6690   36.4940 C   0  0  0  0  0
    4.4697   -8.2726   33.3129 H   0  0  0  0  0
    3.9813   -8.9731   34.8622 H   0  0  0  0  0
    2.1891   -7.6507   35.0615 H   0  0  0  0  0
    2.3019   -7.7438   33.2785 H   0  0  0  0  0
    3.1072   -5.5716   35.0708 H   0  0  0  0  0
    2.1197   -5.5234   33.6927 H   0  0  0  0  0
    4.1049   -4.4471   33.1111 H   0  0  0  0  0
    4.0906   -5.9911   32.3321 H   0  0  0  0  0
    5.6413   -5.0980   34.7490 H   0  0  0  0  0
    6.1177   -6.2457   33.4390 H   0  0  0  0  0
    4.5549   -6.7575   35.9531 H   0  0  0  0  0
    8.2829   -8.7472   39.0275 H   0  0  0  0  0
   10.4759   -9.0753   40.1563 H   0  0  0  0  0
   12.5192   -8.9016   36.3952 H   0  0  0  0  0
   10.3550   -8.6198   35.2556 H   0  0  0  0  0
    8.7500   -5.8690   37.1543 H   0  0  0  0  0
    8.4014   -4.1250   38.8653 H   0  0  0  0  0
    3.6417   -6.3701   39.8010 H   0  0  0  0  0
    4.2916   -4.9868   40.6871 H   0  0  0  0  0
    6.4782   -8.9901   33.5912 H   0  0  0  0  0
  1  2  1  0  0  0
  6  1  1  0  0  0
  2  3  1  0  0  0
  4  3  1  0  0  0
  5  4  1  0  0  0
  6  5  1  0  0  0
 21  6  1  0  0  0
  7  8  4  0  0  0
 12  7  4  0  0  0
  8  9  4  0  0  0
 10  9  4  0  0  0
  9 13  1  0  0  0
 11 10  4  0  0  0
 12 11  4  0  0  0
 24 12  1  0  0  0
 15 14  4  0  0  0
 14 19  4  0  0  0
 15 16  4  0  0  0
 25 15  1  0  0  0
 16 17  4  0  0  0
 17 18  4  0  0  0
 17 20  1  0  0  0
 19 18  4  0  0  0
 22 21  4  0  0  0
 21 25  4  0  0  0
 23 22  4  0  0  0
 23 24  4  0  0  0
 24 25  4  0  0  0
  1 26  1  0  0  0
  1 27  1  0  0  0
  2 28  1  0  0  0
  2 29  1  0  0  0
  3 30  1  0  0  0
  3 31  1  0  0  0
  4 32  1  0  0  0
  4 33  1  0  0  0
  5 34  1  0  0  0
  5 35  1  0  0  0
  6 36  1  0  0  0
  7 37  1  0  0  0
  8 38  1  0  0  0
 10 39  1  0  0  0
 11 40  1  0  0  0
 14 41  1  0  0  0
 19 42  1  0  0  0
 20 43  1  0  0  0
 20 44  1  0  0  0
 22 45  1  0  0  0
M  END
$$$$
