6cn8_ligand
  -I-interpret- 

151156  0  0  0  0  0  0  0  0999 V2000
  -16.4250   19.8520  -28.8090 C   0  0  0  0  0
  -14.9290   20.2310  -28.8030 C   0  0  0  0  0
  -14.4290   20.1840  -30.2340 C   0  0  0  0  0
  -14.9530   20.9170  -31.0420 O   0  0  0  0  0
  -14.8430   21.5820  -28.2550 N   0  0  0  0  0
  -19.7280   16.6980  -32.1810 C   0  0  0  0  0
  -18.8220   15.4610  -31.9190 C   0  0  0  0  0
  -16.4730   14.5180  -31.9540 C   0  0  0  0  0
  -16.6850   18.4010  -29.3080 C   0  0  0  0  0
  -16.8480   17.9480  -30.6090 C   0  0  0  0  0
  -16.8130   17.2280  -28.4870 C   0  0  0  0  0
  -17.0620   16.6130  -30.6330 N   0  0  0  0  0
  -17.0530   16.1550  -29.3360 C   0  0  0  0  0
  -16.7360   17.0780  -27.0990 C   0  0  0  0  0
  -17.2190   14.8750  -28.7660 C   0  0  0  0  0
  -16.9110   15.8000  -26.5560 C   0  0  0  0  0
  -17.1520   14.7180  -27.3850 C   0  0  0  0  0
  -17.3170   15.8240  -31.8790 C   0  0  0  0  0
  -16.9800   16.6510  -33.1890 C   0  0  0  0  0
  -19.0710   14.6700  -32.9910 O   0  0  0  0  0
  -13.4500   19.3460  -30.5910 N   0  0  0  0  0
  -13.0760   19.1680  -31.9930 C   0  0  0  0  0
  -12.7280   18.4330  -29.6780 C   0  0  0  0  0
  -13.1560   16.9800  -29.8970 C   0  0  0  0  0
  -12.6950   15.9910  -28.8530 C   0  0  0  0  0
  -12.9950   16.4180  -27.4310 C   0  0  0  0  0
  -13.2990   14.6250  -29.1590 C   0  0  0  0  0
  -11.1960   18.6990  -29.8010 C   0  0  0  0  0
  -10.4890   17.9550  -30.5110 O   0  0  0  0  0
  -10.7420   19.7660  -29.1460 N   0  0  0  0  0
   -9.3840   20.2500  -29.2710 C   0  0  0  0  0
   -8.6450   20.3670  -27.9310 C   0  0  0  0  0
   -7.5630   19.8160  -27.7050 O   0  0  0  0  0
   -9.3610   21.6530  -29.9550 C   0  0  0  0  0
  -10.1100   21.7250  -31.2570 C   0  0  0  0  0
  -11.3530   22.3400  -31.2730 C   0  0  0  0  0
   -9.6260   21.1700  -32.4630 C   0  0  0  0  0
  -12.1120   22.4290  -32.4580 C   0  0  0  0  0
  -10.3620   21.2600  -33.6390 C   0  0  0  0  0
  -11.6300   21.8870  -33.6540 C   0  0  0  0  0
  -12.2750   21.9120  -34.8600 O   0  0  0  0  0
  -13.4070   23.1200  -32.3290 N   0  0  0  0  0
  -14.2060   23.0820  -33.2220 O   0  0  0  0  0
  -13.6330   23.7270  -31.3070 O   0  0  0  0  0
   -9.2740   21.0910  -27.0080 N   0  0  0  0  0
   -8.6670   21.3980  -25.7020 C   0  0  0  0  0
   -9.7410   21.9560  -24.7790 C   0  0  0  0  0
  -10.7010   22.5430  -25.3120 O   0  0  0  0  0
   -7.5310   22.4580  -25.8750 C   0  0  0  0  0
   -8.5020   21.1800  -22.7360 C   0  0  0  0  0
   -9.6200   21.8630  -23.3960 N   0  0  0  0  0
  -10.5750   22.5760  -22.6560 C   0  0  0  0  0
  -12.0150   22.2360  -22.9420 C   0  0  0  0  0
  -12.2940   21.1160  -23.3360 O   0  0  0  0  0
  -10.2210   24.0880  -22.5290 C   0  0  0  0  0
  -11.3390   24.6290  -21.6680 C   0  0  0  0  0
  -12.7130   24.5460  -22.2550 C   0  0  0  0  0
  -12.5300   25.4700  -23.3300 O   0  0  0  0  0
  -11.3180   24.4730  -20.1760 C   0  0  0  0  0
  -12.9200   23.1320  -22.9650 N   0  0  0  0  0
  -14.2980   22.8510  -23.3960 C   0  0  0  0  0
  -14.5300   23.3420  -24.8090 C   0  0  0  0  0
  -15.6250   23.7990  -25.1420 O   0  0  0  0  0
  -15.3370   23.3680  -22.3930 C   0  0  0  0  0
  -15.2680   22.7000  -21.0150 C   0  0  0  0  0
  -16.1330   23.4460  -20.0130 C   0  0  0  0  0
  -15.6920   21.2370  -21.0770 C   0  0  0  0  0
  -13.5230   23.1750  -25.6620 N   0  0  0  0  0
  -13.6520   23.3850  -27.0780 C   0  0  0  0  0
  -13.5590   22.0700  -27.8560 C   0  0  0  0  0
  -12.6180   21.3410  -27.8120 O   0  0  0  0  0
  -12.5010   24.2690  -27.5760 C   0  0  0  0  0
  -12.6130   25.7330  -27.1400 C   0  0  0  0  0
  -11.8140   26.2730  -26.2430 C   0  0  0  0  0
  -11.9810   27.7530  -25.8780 C   0  0  0  0  0
  -14.4200   21.6630  -28.5720 O   0  0  0  0  0
  -16.9365   20.5329  -29.4893 H   0  0  0  0  0
  -16.7880   19.9197  -27.7834 H   0  0  0  0  0
  -19.5802   17.4297  -31.3868 H   0  0  0  0  0
  -19.4645   17.1431  -33.1405 H   0  0  0  0  0
  -20.7719   16.3849  -32.1987 H   0  0  0  0  0
  -19.0345   15.0002  -30.9543 H   0  0  0  0  0
  -15.4128   14.7703  -31.9317 H   0  0  0  0  0
  -16.7143   13.8816  -31.1026 H   0  0  0  0  0
  -16.7030   13.9910  -32.8800 H   0  0  0  0  0
  -16.8088   18.5833  -31.4938 H   0  0  0  0  0
  -16.5442   17.9362  -26.4550 H   0  0  0  0  0
  -17.3993   14.0112  -29.4059 H   0  0  0  0  0
  -16.8573   15.6562  -25.4769 H   0  0  0  0  0
  -17.2913   13.7285  -26.9496 H   0  0  0  0  0
  -17.6001   17.5468  -33.2212 H   0  0  0  0  0
  -15.9280   16.9360  -33.1766 H   0  0  0  0  0
  -17.1810   16.0367  -34.0667 H   0  0  0  0  0
  -20.0045   14.4470  -33.0127 H   0  0  0  0  0
  -12.0091   19.3582  -32.1101 H   0  0  0  0  0
  -13.3002   18.1466  -32.3007 H   0  0  0  0  0
  -13.6408   19.8669  -32.6099 H   0  0  0  0  0
  -12.9933   18.6330  -28.6399 H   0  0  0  0  0
  -12.7040   16.6657  -30.8378 H   0  0  0  0  0
  -14.2455   16.9733  -29.8657 H   0  0  0  0  0
  -11.6076   15.9416  -28.9095 H   0  0  0  0  0
  -12.4951   17.3642  -27.2240 H   0  0  0  0  0
  -14.0713   16.5399  -27.3090 H   0  0  0  0  0
  -12.6337   15.6561  -26.7403 H   0  0  0  0  0
  -14.3864   14.6978  -29.1413 H   0  0  0  0  0
  -12.9715   14.2971  -30.1456 H   0  0  0  0  0
  -12.9693   13.9069  -28.4081 H   0  0  0  0  0
  -11.3812   20.2653  -28.5275 H   0  0  0  0  0
   -8.8695   19.5047  -29.8776 H   0  0  0  0  0
   -8.3185   21.8839  -30.1738 H   0  0  0  0  0
   -9.8446   22.3495  -29.2701 H   0  0  0  0  0
  -11.7513   22.7631  -30.3508 H   0  0  0  0  0
   -8.6608   20.6636  -32.4714 H   0  0  0  0  0
   -9.9571   20.8423  -34.5608 H   0  0  0  0  0
  -11.7335   21.4736  -35.5204 H   0  0  0  0  0
  -10.2084   21.4453  -27.2123 H   0  0  0  0  0
   -8.2417   20.4889  -25.2767 H   0  0  0  0  0
   -6.7654   22.0625  -26.5425 H   0  0  0  0  0
   -7.9490   23.3706  -26.2998 H   0  0  0  0  0
   -7.0894   22.6773  -24.9029 H   0  0  0  0  0
   -8.4844   20.1343  -23.0433 H   0  0  0  0  0
   -7.5656   21.6596  -23.0211 H   0  0  0  0  0
   -8.6282   21.2403  -21.6550 H   0  0  0  0  0
  -10.4987   22.1968  -21.6369 H   0  0  0  0  0
  -10.1527   24.5880  -23.4952 H   0  0  0  0  0
   -9.2353   24.2556  -22.0950 H   0  0  0  0  0
  -11.0095   25.6660  -21.7331 H   0  0  0  0  0
  -13.5229   24.7088  -21.5438 H   0  0  0  0  0
  -13.3456   25.5417  -23.8312 H   0  0  0  0  0
  -11.2962   23.4130  -19.9231 H   0  0  0  0  0
  -10.4311   24.9623  -19.7733 H   0  0  0  0  0
  -12.2115   24.9308  -19.7515 H   0  0  0  0  0
  -14.4327   21.7695  -23.4131 H   0  0  0  0  0
  -16.3209   23.1484  -22.8076 H   0  0  0  0  0
  -15.1405   24.4299  -22.2455 H   0  0  0  0  0
  -14.2287   22.7384  -20.6887 H   0  0  0  0  0
  -15.7808   24.4738  -19.9251 H   0  0  0  0  0
  -17.1679   23.4432  -20.3553 H   0  0  0  0  0
  -16.0687   22.9543  -19.0423 H   0  0  0  0  0
  -16.7178   21.1724  -21.4397 H   0  0  0  0  0
  -15.0309   20.6969  -21.7547 H   0  0  0  0  0
  -15.6293   20.7994  -20.0807 H   0  0  0  0  0
  -12.6172   22.8844  -25.2940 H   0  0  0  0  0
  -14.6248   23.8484  -27.2426 H   0  0  0  0  0
  -12.5256   24.2515  -28.6656 H   0  0  0  0  0
  -11.5791   23.8727  -27.1505 H   0  0  0  0  0
  -13.3867   26.3542  -27.5912 H   0  0  0  0  0
  -11.0404   25.6728  -25.7640 H   0  0  0  0  0
  -11.8378   28.3641  -26.7692 H   0  0  0  0  0
  -12.9826   27.9171  -25.4804 H   0  0  0  0  0
  -11.2409   28.0262  -25.1259 H   0  0  0  0  0
  1  2  1  0  0  0
  9  1  1  0  0  0
  2  3  1  0  0  0
  2  5  1  0  0  0
  2 76  1  0  0  0
  3  4  2  0  0  0
  3 21  1  0  0  0
  5 70  1  0  0  0
 76  5  1  0  0  0
  7  6  1  0  0  0
 18  7  1  0  0  0
  7 20  1  0  0  0
 18  8  1  0  0  0
 10  9  4  0  0  0
 11  9  4  0  0  0
 12 10  4  0  0  0
 13 11  4  0  0  0
 11 14  4  0  0  0
 12 13  4  0  0  0
 12 18  1  0  0  0
 13 15  4  0  0  0
 14 16  4  0  0  0
 15 17  4  0  0  0
 16 17  4  0  0  0
 18 19  1  0  0  0
 21 22  1  0  0  0
 21 23  1  0  0  0
 23 24  1  0  0  0
 23 28  1  0  0  0
 24 25  1  0  0  0
 25 26  1  0  0  0
 25 27  1  0  0  0
 28 29  2  0  0  0
 28 30  1  0  0  0
 30 31  1  0  0  0
 31 32  1  0  0  0
 31 34  1  0  0  0
 32 33  2  0  0  0
 32 45  1  0  0  0
 34 35  1  0  0  0
 35 36  4  0  0  0
 35 37  4  0  0  0
 36 38  4  0  0  0
 37 39  4  0  0  0
 38 40  4  0  0  0
 38 42  1  0  0  0
 39 40  4  0  0  0
 40 41  1  0  0  0
 42 43  2  0  0  0
 42 44  2  0  0  0
 45 46  1  0  0  0
 46 47  1  0  0  0
 46 49  1  0  0  0
 47 48  2  0  0  0
 47 51  1  0  0  0
 51 50  1  0  0  0
 51 52  1  0  0  0
 52 53  1  0  0  0
 52 55  1  0  0  0
 53 54  2  0  0  0
 53 60  1  0  0  0
 55 56  1  0  0  0
 56 57  1  0  0  0
 56 59  1  0  0  0
 57 58  1  0  0  0
 57 60  1  0  0  0
 60 61  1  0  0  0
 61 62  1  0  0  0
 61 64  1  0  0  0
 62 63  2  0  0  0
 62 68  1  0  0  0
 64 65  1  0  0  0
 65 66  1  0  0  0
 65 67  1  0  0  0
 68 69  1  0  0  0
 69 70  1  0  0  0
 69 72  1  0  0  0
 70 71  2  0  0  0
 72 73  1  0  0  0
 73 74  2  0  0  0
 74 75  1  0  0  0
  1 77  1  0  0  0
  1 78  1  0  0  0
  6 79  1  0  0  0
  6 80  1  0  0  0
  6 81  1  0  0  0
  7 82  1  0  0  0
  8 83  1  0  0  0
  8 84  1  0  0  0
  8 85  1  0  0  0
 10 86  1  0  0  0
 14 87  1  0  0  0
 15 88  1  0  0  0
 16 89  1  0  0  0
 17 90  1  0  0  0
 19 91  1  0  0  0
 19 92  1  0  0  0
 19 93  1  0  0  0
 20 94  1  0  0  0
 22 95  1  0  0  0
 22 96  1  0  0  0
 22 97  1  0  0  0
 23 98  1  0  0  0
 24 99  1  0  0  0
 24100  1  0  0  0
 25101  1  0  0  0
 26102  1  0  0  0
 26103  1  0  0  0
 26104  1  0  0  0
 27105  1  0  0  0
 27106  1  0  0  0
 27107  1  0  0  0
 30108  1  0  0  0
 31109  1  0  0  0
 34110  1  0  0  0
 34111  1  0  0  0
 36112  1  0  0  0
 37113  1  0  0  0
 39114  1  0  0  0
 41115  1  0  0  0
 45116  1  0  0  0
 46117  1  0  0  0
 49118  1  0  0  0
 49119  1  0  0  0
 49120  1  0  0  0
 50121  1  0  0  0
 50122  1  0  0  0
 50123  1  0  0  0
 52124  1  0  0  0
 55125  1  0  0  0
 55126  1  0  0  0
 56127  1  0  0  0
 57128  1  0  0  0
 58129  1  0  0  0
 59130  1  0  0  0
 59131  1  0  0  0
 59132  1  0  0  0
 61133  1  0  0  0
 64134  1  0  0  0
 64135  1  0  0  0
 65136  1  0  0  0
 66137  1  0  0  0
 66138  1  0  0  0
 66139  1  0  0  0
 67140  1  0  0  0
 67141  1  0  0  0
 67142  1  0  0  0
 68143  1  0  0  0
 69144  1  0  0  0
 72145  1  0  0  0
 72146  1  0  0  0
 73147  1  0  0  0
 74148  1  0  0  0
 75149  1  0  0  0
 75150  1  0  0  0
 75151  1  0  0  0
M  END
$$$$
