### 
### Created by X-TOOL on Mon Aug  2 16:10:00 2021
### 

@<TRIPOS>MOLECULE
6cn8_ligand
  151   156     1     0     0
SMALL
GAST_HUCK


@<TRIPOS>ATOM
      1 CB        -16.4250   19.8520  -28.8090 C.3       1 F7P         0.0274
      2 CA        -14.9290   20.2310  -28.8030 C.3       1 F7P         0.2925
      3 C         -14.4290   20.1840  -30.2340 C.2       1 F7P         0.2629
      4 O         -14.9530   20.9170  -31.0420 O.2       1 F7P        -0.3386
      5 N         -14.8430   21.5820  -28.2550 N.am      1 F7P        -0.1018
      6 C5        -19.7280   16.6980  -32.1810 C.3       1 F7P        -0.0359
      7 C4        -18.8220   15.4610  -31.9190 C.3       1 F7P         0.0834
      8 C2        -16.4730   14.5180  -31.9540 C.3       1 F7P        -0.0310
      9 CG        -16.6850   18.4010  -29.3080 C.2       1 F7P        -0.0420
     10 CD1       -16.8480   17.9480  -30.6090 C.2       1 F7P         0.0199
     11 CD2       -16.8130   17.2280  -28.4870 C.ar      1 F7P        -0.0214
     12 NE1       -17.0620   16.6130  -30.6330 N.pl3     1 F7P        -0.2675
     13 CE2       -17.0530   16.1550  -29.3360 C.ar      1 F7P         0.0632
     14 CE3       -16.7360   17.0780  -27.0990 C.ar      1 F7P        -0.0747
     15 CZ2       -17.2190   14.8750  -28.7660 C.ar      1 F7P        -0.0441
     16 CZ3       -16.9110   15.8000  -26.5560 C.ar      1 F7P        -0.0792
     17 CH2       -17.1520   14.7180  -27.3850 C.ar      1 F7P        -0.0768
     18 C1        -17.3170   15.8240  -31.8790 C.3       1 F7P         0.0905
     19 C3        -16.9800   16.6510  -33.1890 C.3       1 F7P        -0.0310
     20 O6        -19.0710   14.6700  -32.9910 O.3       1 F7P        -0.3889
     21 N         -13.4500   19.3460  -30.5910 N.am      1 F7P        -0.2497
     22 CN        -13.0760   19.1680  -31.9930 C.3       1 F7P         0.0256
     23 CA        -12.7280   18.4330  -29.6780 C.3       1 F7P         0.1339
     24 CB        -13.1560   16.9800  -29.8970 C.3       1 F7P        -0.0097
     25 CG        -12.6950   15.9910  -28.8530 C.3       1 F7P        -0.0425
     26 CD1       -12.9950   16.4180  -27.4310 C.3       1 F7P        -0.0625
     27 CD2       -13.2990   14.6250  -29.1590 C.3       1 F7P        -0.0625
     28 C         -11.1960   18.6990  -29.8010 C.2       1 F7P         0.2047
     29 O         -10.4890   17.9550  -30.5110 O.2       1 F7P        -0.3943
     30 N         -10.7420   19.7660  -29.1460 N.am      1 F7P        -0.2566
     31 CA         -9.3840   20.2500  -29.2710 C.3       1 F7P         0.1708
     32 C          -8.6450   20.3670  -27.9310 C.2       1 F7P         0.2125
     33 O          -7.5630   19.8160  -27.7050 O.2       1 F7P        -0.3936
     34 CB         -9.3610   21.6530  -29.9550 C.3       1 F7P         0.1094
     35 CG        -10.1100   21.7250  -31.2570 C.ar      1 F7P         0.1426
     36 CD1       -11.3530   22.3400  -31.2730 C.ar      1 F7P         0.1403
     37 CD2        -9.6260   21.1700  -32.4630 C.ar      1 F7P         0.1105
     38 CE1       -12.1120   22.4290  -32.4580 C.ar      1 F7P         0.2931
     39 CE2       -10.3620   21.2600  -33.6390 C.ar      1 F7P         0.1532
     40 CZ        -11.6300   21.8870  -33.6540 C.ar      1 F7P         0.3430
     41 OH        -12.2750   21.9120  -34.8600 O.3       1 F7P        -0.1744
     42 NN        -13.4070   23.1200  -32.3290 N.2       1 F7P        -0.1498
     43 O1        -14.2060   23.0820  -33.2220 O.2       1 F7P        -0.4672
     44 O2        -13.6330   23.7270  -31.3070 O.2       1 F7P        -0.4672
     45 N          -9.2740   21.0910  -27.0080 N.am      1 F7P        -0.2634
     46 CA         -8.6670   21.3980  -25.7020 C.3       1 F7P         0.1284
     47 C          -9.7410   21.9560  -24.7790 C.2       1 F7P         0.2059
     48 O         -10.7010   22.5430  -25.3120 O.2       1 F7P        -0.3942
     49 CB         -7.5310   22.4580  -25.8750 C.3       1 F7P        -0.0244
     50 C1         -8.5020   21.1800  -22.7360 C.3       1 F7P         0.0254
     51 N          -9.6200   21.8630  -23.3960 N.am      1 F7P        -0.2529
     52 CA        -10.5750   22.5760  -22.6560 C.3       1 F7P         0.1341
     53 C         -12.0150   22.2360  -22.9420 C.2       1 F7P         0.2086
     54 O         -12.2940   21.1160  -23.3360 O.2       1 F7P        -0.3941
     55 CB        -10.2210   24.0880  -22.5290 C.3       1 F7P        -0.0053
     56 CG        -11.3390   24.6290  -21.6680 C.3       1 F7P         0.0083
     57 CD        -12.7130   24.5460  -22.2550 C.3       1 F7P         0.1476
     58 OD        -12.5300   25.4700  -23.3300 O.3       1 F7P        -0.3694
     59 CE        -11.3180   24.4730  -20.1760 C.3       1 F7P        -0.0579
     60 N         -12.9200   23.1320  -22.9650 N.am      1 F7P        -0.2229
     61 CA        -14.2980   22.8510  -23.3960 C.3       1 F7P         0.1365
     62 C         -14.5300   23.3420  -24.8090 C.2       1 F7P         0.2043
     63 O         -15.6250   23.7990  -25.1420 O.2       1 F7P        -0.3944
     64 CB        -15.3370   23.3680  -22.3930 C.3       1 F7P        -0.0098
     65 CG        -15.2680   22.7000  -21.0150 C.3       1 F7P        -0.0425
     66 CD1       -16.1330   23.4460  -20.0130 C.3       1 F7P        -0.0625
     67 CD2       -15.6920   21.2370  -21.0770 C.3       1 F7P        -0.0625
     68 N         -13.5230   23.1750  -25.6620 N.am      1 F7P        -0.2622
     69 CA        -13.6520   23.3850  -27.0780 C.3       1 F7P         0.1390
     70 C         -13.5590   22.0700  -27.8560 C.2       1 F7P         0.2308
     71 O         -12.6180   21.3410  -27.8120 O.2       1 F7P        -0.3941
     72 CB        -12.5010   24.2690  -27.5760 C.3       1 F7P         0.0042
     73 CG        -12.6130   25.7330  -27.1400 C.2       1 F7P        -0.0945
     74 CD        -11.8140   26.2730  -26.2430 C.2       1 F7P        -0.1015
     75 CE        -11.9810   27.7530  -25.8780 C.3       1 F7P        -0.0486
     76 OXT       -14.4200   21.6630  -28.5720 O.3       1 F7P        -0.2107
     77 H1        -16.9605   20.5504  -29.4689 H         1 F7P         0.0388
     78 H2        -16.8138   19.9447  -27.7842 H         1 F7P         0.0388
     79 H3        -20.7819   16.3833  -32.1991 H         1 F7P         0.0255
     80 H4        -19.4631   17.1481  -33.1491 H         1 F7P         0.0255
     81 H5        -19.5798   17.4373  -31.3801 H         1 F7P         0.0255
     82 H6        -19.1039   14.9633  -30.9794 H         1 F7P         0.0623
     83 H7        -15.4028   14.7709  -31.9259 H         1 F7P         0.0262
     84 H8        -16.7000   13.9880  -32.8908 H         1 F7P         0.0262
     85 H9        -16.7197   13.8723  -31.0983 H         1 F7P         0.0262
     86 H10       -16.8088   18.5828  -31.4930 H         1 F7P         0.0797
     87 H11       -16.5452   17.9315  -26.4585 H         1 F7P         0.0540
     88 H12       -17.3983   14.0160  -29.4024 H         1 F7P         0.0541
     89 H13       -16.8576   15.6570  -25.4828 H         1 F7P         0.0510
     90 H14       -17.2906   13.7339  -26.9520 H         1 F7P         0.0530
     91 H15       -17.5531   17.5899  -33.1874 H         1 F7P         0.0262
     92 H16       -17.2491   16.0587  -34.0760 H         1 F7P         0.0262
     93 H17       -15.9040   16.8783  -33.2125 H         1 F7P         0.0262
     94 H18       -18.8364   15.1335  -33.7864 H         1 F7P         0.2099
     95 H19       -13.6454   19.8729  -32.6167 H         1 F7P         0.0490
     96 H20       -13.3018   18.1376  -32.3048 H         1 F7P         0.0490
     97 H21       -11.9995   19.3597  -32.1125 H         1 F7P         0.0490
     98 H22       -13.0162   18.6919  -28.6485 H         1 F7P         0.0804
     99 H23       -12.7571   16.6542  -30.8689 H         1 F7P         0.0315
    100 H24       -14.2553   16.9531  -29.9242 H         1 F7P         0.0315
    101 H25       -11.6018   15.9055  -28.9397 H         1 F7P         0.0298
    102 H26       -12.6308   15.6498  -26.7330 H         1 F7P         0.0232
    103 H27       -14.0809   16.5413  -27.3065 H         1 F7P         0.0232
    104 H28       -12.4910   17.3729  -27.2208 H         1 F7P         0.0232
    105 H29       -13.0640   14.3443  -30.1963 H         1 F7P         0.0232
    106 H30       -14.3904   14.6693  -29.0294 H         1 F7P         0.0232
    107 H31       -12.8783   13.8758  -28.4722 H         1 F7P         0.0232
    108 H32       -11.3687   20.2555  -28.5396 H         1 F7P         0.1890
    109 H33        -8.8341   19.5385  -29.9045 H         1 F7P         0.0898
    110 H34        -8.3124   21.9246  -30.1466 H         1 F7P         0.0985
    111 H35        -9.8074   22.3807  -29.2613 H         1 F7P         0.0985
    112 H36       -11.7491   22.7608  -30.3559 H         1 F7P         0.1305
    113 H37        -8.6661   20.6664  -32.4713 H         1 F7P         0.1278
    114 H38        -9.9593   20.8446  -34.5557 H         1 F7P         0.1370
    115 H39       -11.7426   22.3793  -35.4930 H         1 F7P         0.3610
    116 H40       -10.1901   21.4383  -27.2083 H         1 F7P         0.1883
    117 H41        -8.2465   20.4792  -25.2673 H         1 F7P         0.0797
    118 H42        -7.0845   22.6802  -24.8946 H         1 F7P         0.0277
    119 H43        -7.9516   23.3796  -26.3036 H         1 F7P         0.0277
    120 H44        -6.7576   22.0601  -26.5484 H         1 F7P         0.0277
    121 H45        -7.8759   20.6855  -23.4933 H         1 F7P         0.0488
    122 H46        -8.8939   20.4274  -22.0360 H         1 F7P         0.0488
    123 H47        -7.8978   21.9149  -22.1839 H         1 F7P         0.0488
    124 H48       -10.4385   22.1986  -21.6318 H         1 F7P         0.0802
    125 H49       -10.2103   24.5755  -23.5150 H         1 F7P         0.0316
    126 H50        -9.2447   24.2257  -22.0413 H         1 F7P         0.0316
    127 H51       -11.1343   25.7064  -21.7534 H         1 F7P         0.0346
    128 H52       -13.5209   24.7947  -21.5511 H         1 F7P         0.0872
    129 H53       -12.3996   26.3424  -22.9775 H         1 F7P         0.2122
    130 H54       -10.2816   24.5442  -19.8145 H         1 F7P         0.0234
    131 H55       -11.7346   23.4920  -19.9040 H         1 F7P         0.0234
    132 H56       -11.9224   25.2684  -19.7156 H         1 F7P         0.0234
    133 H57       -14.4083   21.7568  -23.4204 H         1 F7P         0.0803
    134 H58       -16.3386   23.1913  -22.8121 H         1 F7P         0.0315
    135 H59       -15.1804   24.4487  -22.2605 H         1 F7P         0.0315
    136 H60       -14.2244   22.7402  -20.6695 H         1 F7P         0.0298
    137 H61       -16.0689   22.9507  -19.0329 H         1 F7P         0.0232
    138 H62       -17.1777   23.4439  -20.3572 H         1 F7P         0.0232
    139 H63       -15.7786   24.4835  -19.9233 H         1 F7P         0.0232
    140 H64       -15.0621   20.7032  -21.8038 H         1 F7P         0.0232
    141 H65       -16.7452   21.1733  -21.3881 H         1 F7P         0.0232
    142 H66       -15.5746   20.7788  -20.0839 H         1 F7P         0.0232
    143 H67       -12.6349   22.8901  -25.3013 H         1 F7P         0.1885
    144 H68       -14.6177   23.8700  -27.2833 H         1 F7P         0.0820
    145 H69       -12.4878   24.2346  -28.6754 H         1 F7P         0.0435
    146 H70       -11.5568   23.8620  -27.1850 H         1 F7P         0.0435
    147 H71       -13.3860   26.3537  -27.5908 H         1 F7P         0.0452
    148 H72       -11.0411   25.6734  -25.7644 H         1 F7P         0.0447
    149 H73       -11.2346   28.0299  -25.1189 H         1 F7P         0.0353
    150 H74       -12.9914   27.9199  -25.4766 H         1 F7P         0.0353
    151 H75       -11.8367   28.3708  -26.7766 H         1 F7P         0.0353
@<TRIPOS>BOND
     1    1    2 1  
     2    9    1 1  
     3    2    3 1  
     4    2    5 1  
     5    2   76 1  
     6    3    4 2  
     7    3   21 am 
     8    5   70 am 
     9   76    5 1  
    10    7    6 1  
    11   18    7 1  
    12    7   20 1  
    13   18    8 1  
    14   10    9 2  
    15   11    9 1  
    16   12   10 1  
    17   13   11 ar 
    18   11   14 ar 
    19   12   13 1  
    20   12   18 1  
    21   13   15 ar 
    22   14   16 ar 
    23   15   17 ar 
    24   16   17 ar 
    25   18   19 1  
    26   21   22 1  
    27   21   23 1  
    28   23   24 1  
    29   23   28 1  
    30   24   25 1  
    31   25   26 1  
    32   25   27 1  
    33   28   29 2  
    34   28   30 am 
    35   30   31 1  
    36   31   32 1  
    37   31   34 1  
    38   32   33 2  
    39   32   45 am 
    40   34   35 1  
    41   35   36 ar 
    42   35   37 ar 
    43   36   38 ar 
    44   37   39 ar 
    45   38   40 ar 
    46   38   42 1  
    47   39   40 ar 
    48   40   41 1  
    49   42   43 2  
    50   42   44 2  
    51   45   46 1  
    52   46   47 1  
    53   46   49 1  
    54   47   48 2  
    55   47   51 am 
    56   51   50 1  
    57   51   52 1  
    58   52   53 1  
    59   52   55 1  
    60   53   54 2  
    61   53   60 am 
    62   55   56 1  
    63   56   57 1  
    64   56   59 1  
    65   57   58 1  
    66   57   60 1  
    67   60   61 1  
    68   61   62 1  
    69   61   64 1  
    70   62   63 2  
    71   62   68 am 
    72   64   65 1  
    73   65   66 1  
    74   65   67 1  
    75   68   69 1  
    76   69   70 1  
    77   69   72 1  
    78   70   71 2  
    79   72   73 1  
    80   73   74 2  
    81   74   75 1  
    82    1   77 1  
    83    1   78 1  
    84    6   79 1  
    85    6   80 1  
    86    6   81 1  
    87    7   82 1  
    88    8   83 1  
    89    8   84 1  
    90    8   85 1  
    91   10   86 1  
    92   14   87 1  
    93   15   88 1  
    94   16   89 1  
    95   17   90 1  
    96   19   91 1  
    97   19   92 1  
    98   19   93 1  
    99   20   94 1  
   100   22   95 1  
   101   22   96 1  
   102   22   97 1  
   103   23   98 1  
   104   24   99 1  
   105   24  100 1  
   106   25  101 1  
   107   26  102 1  
   108   26  103 1  
   109   26  104 1  
   110   27  105 1  
   111   27  106 1  
   112   27  107 1  
   113   30  108 1  
   114   31  109 1  
   115   34  110 1  
   116   34  111 1  
   117   36  112 1  
   118   37  113 1  
   119   39  114 1  
   120   41  115 1  
   121   45  116 1  
   122   46  117 1  
   123   49  118 1  
   124   49  119 1  
   125   49  120 1  
   126   50  121 1  
   127   50  122 1  
   128   50  123 1  
   129   52  124 1  
   130   55  125 1  
   131   55  126 1  
   132   56  127 1  
   133   57  128 1  
   134   58  129 1  
   135   59  130 1  
   136   59  131 1  
   137   59  132 1  
   138   61  133 1  
   139   64  134 1  
   140   64  135 1  
   141   65  136 1  
   142   66  137 1  
   143   66  138 1  
   144   66  139 1  
   145   67  140 1  
   146   67  141 1  
   147   67  142 1  
   148   68  143 1  
   149   69  144 1  
   150   72  145 1  
   151   72  146 1  
   152   73  147 1  
   153   74  148 1  
   154   75  149 1  
   155   75  150 1  
   156   75  151 1  
@<TRIPOS>SUBSTRUCTURE
     1 F7P         1

