6dh3_ligand
  -I-interpret- 

 75 78  0  0  0  0  0  0  0  0999 V2000
   65.7490   51.8100   12.7450 N   0  0  0  0  0
   66.7100   52.4920   13.6580 C   0  0  0  0  0
   67.7770   51.8000   14.1950 C   0  0  0  0  0
   68.6580   52.4430   15.0370 C   0  0  0  0  0
   68.4550   53.7900   15.3410 C   0  0  0  0  0
   67.4090   54.4780   14.8090 C   0  0  0  0  0
   66.5210   53.8260   13.9600 C   0  0  0  0  0
   69.6150   54.6770   16.4440 S   0  0  0  0  0
   70.1260   53.8340   17.5120 O   0  0  0  0  0
   68.9250   55.7960   17.1320 O   0  0  0  0  0
   70.8900   55.2620   15.4340 N   0  0  0  0  0
   71.6640   54.2190   14.7320 C   0  0  0  0  0
   73.1540   54.5610   14.6350 C   0  0  0  0  0
   73.8520   53.5320   13.6820 C   0  0  0  0  0
   73.8370   54.6060   16.0250 C   0  0  0  0  0
   70.5960   56.5970   14.7200 C   0  0  0  0  0
   71.5230   57.7170   15.2880 C   0  0  0  0  0
   71.3870   58.8500   14.5120 O   0  0  0  0  0
   71.1610   58.0330   16.7490 C   0  0  0  0  0
   72.1580   58.9570   17.2310 N   0  0  0  0  0
   73.1390   58.6170   18.2650 C   0  0  0  0  0
   73.1560   57.5430   18.7890 O   0  0  0  0  0
   74.0320   59.6490   18.5600 O   0  0  0  0  0
   74.7860   59.6590   19.7570 C   0  0  0  0  0
   76.2650   60.2670   19.3190 C   0  0  0  0  0
   76.0320   61.5790   19.1560 O   0  0  0  0  0
   74.9620   61.9350   20.2530 C   0  0  0  0  0
   74.0470   62.6480   19.7650 O   0  0  0  0  0
   72.6600   61.7960   19.8090 C   0  0  0  0  0
   72.8480   60.7780   20.6260 C   0  0  0  0  0
   74.3260   60.5380   20.6660 C   0  0  0  0  0
   69.8160   58.7460   16.8880 C   0  0  0  0  0
   69.6580   60.5550   18.6380 C   0  0  0  0  0
   69.4280   60.9880   19.9570 C   0  0  0  0  0
   69.1010   60.0610   20.9600 C   0  0  0  0  0
   69.0030   58.7220   20.6500 C   0  0  0  0  0
   69.2280   58.2900   19.3360 C   0  0  0  0  0
   69.5630   59.2230   18.3240 C   0  0  0  0  0
   65.8773   50.8251   12.5130 H   0  0  0  0  0
   64.9631   52.3283   12.3523 H   0  0  0  0  0
   67.9223   50.7471   13.9534 H   0  0  0  0  0
   69.5054   51.9048   15.4616 H   0  0  0  0  0
   67.2678   55.5324   15.0463 H   0  0  0  0  0
   65.6767   54.3676   13.5335 H   0  0  0  0  0
   71.2716   54.1333   13.7187 H   0  0  0  0  0
   71.5676   53.2913   15.2961 H   0  0  0  0  0
   73.2557   55.5638   14.2201 H   0  0  0  0  0
   73.7304   52.5261   14.0838 H   0  0  0  0  0
   73.3963   53.5873   12.6934 H   0  0  0  0  0
   74.9133   53.7692   13.6080 H   0  0  0  0  0
   73.3546   55.3649   16.6410 H   0  0  0  0  0
   73.7435   53.6324   16.5060 H   0  0  0  0  0
   74.8917   54.8523   15.9024 H   0  0  0  0  0
   69.5547   56.8727   14.8866 H   0  0  0  0  0
   70.7822   56.4828   13.6521 H   0  0  0  0  0
   72.5569   57.3727   15.2616 H   0  0  0  0  0
   71.9552   59.5427   14.8568 H   0  0  0  0  0
   71.1122   57.0919   17.2968 H   0  0  0  0  0
   72.1814   59.8953   16.8316 H   0  0  0  0  0
   74.7690   58.6575   20.1868 H   0  0  0  0  0
   76.6574   59.7983   18.4165 H   0  0  0  0  0
   77.0341   60.0701   20.0659 H   0  0  0  0  0
   75.4123   62.4775   21.0843 H   0  0  0  0  0
   72.3973   61.4422   18.8121 H   0  0  0  0  0
   71.8389   62.4209   20.1601 H   0  0  0  0  0
   72.3164   59.8925   20.2776 H   0  0  0  0  0
   72.4594   60.9968   21.6206 H   0  0  0  0  0
   74.5765   60.1431   21.6506 H   0  0  0  0  0
   69.0282   58.0423   16.6192 H   0  0  0  0  0
   69.8245   59.6192   16.2357 H   0  0  0  0  0
   69.9122   61.2794   17.8642 H   0  0  0  0  0
   69.5040   62.0476   20.2013 H   0  0  0  0  0
   68.9252   60.3998   21.9810 H   0  0  0  0  0
   68.7507   57.9994   21.4261 H   0  0  0  0  0
   69.1449   57.2310   19.0915 H   0  0  0  0  0
  2  1  1  0  0  0
  3  2  4  0  0  0
  7  2  4  0  0  0
  4  3  4  0  0  0
  5  4  4  0  0  0
  5  6  4  0  0  0
  8  5  1  0  0  0
  6  7  4  0  0  0
  8  9  2  0  0  0
  8 10  2  0  0  0
 11  8  1  0  0  0
 11 12  1  0  0  0
 16 11  1  0  0  0
 12 13  1  0  0  0
 13 14  1  0  0  0
 13 15  1  0  0  0
 17 16  1  0  0  0
 17 18  1  0  0  0
 19 17  1  0  0  0
 19 20  1  0  0  0
 32 19  1  0  0  0
 20 21  1  0  0  0
 21 22  2  0  0  0
 21 23  1  0  0  0
 23 24  1  0  0  0
 24 25  1  0  0  0
 24 31  1  0  0  0
 25 26  1  0  0  0
 27 26  1  0  0  0
 27 28  1  0  0  0
 31 27  1  0  0  0
 29 28  1  0  0  0
 30 29  1  0  0  0
 31 30  1  0  0  0
 38 32  1  0  0  0
 33 34  4  0  0  0
 33 38  4  0  0  0
 34 35  4  0  0  0
 35 36  4  0  0  0
 36 37  4  0  0  0
 37 38  4  0  0  0
  1 39  1  0  0  0
  1 40  1  0  0  0
  3 41  1  0  0  0
  4 42  1  0  0  0
  6 43  1  0  0  0
  7 44  1  0  0  0
 12 45  1  0  0  0
 12 46  1  0  0  0
 13 47  1  0  0  0
 14 48  1  0  0  0
 14 49  1  0  0  0
 14 50  1  0  0  0
 15 51  1  0  0  0
 15 52  1  0  0  0
 15 53  1  0  0  0
 16 54  1  0  0  0
 16 55  1  0  0  0
 17 56  1  0  0  0
 18 57  1  0  0  0
 19 58  1  0  0  0
 20 59  1  0  0  0
 24 60  1  0  0  0
 25 61  1  0  0  0
 25 62  1  0  0  0
 27 63  1  0  0  0
 29 64  1  0  0  0
 29 65  1  0  0  0
 30 66  1  0  0  0
 30 67  1  0  0  0
 31 68  1  0  0  0
 32 69  1  0  0  0
 32 70  1  0  0  0
 33 71  1  0  0  0
 34 72  1  0  0  0
 35 73  1  0  0  0
 36 74  1  0  0  0
 37 75  1  0  0  0
M  END
$$$$
