3w37_ligand
  -I-interpret- 

 88 91  0  0  0  0  0  0  0  0999 V2000
   -0.3310   -7.3210  -21.5390 C   0  0  0  0  0
    0.0430   -8.5600  -22.3890 C   0  0  0  0  0
   -1.1120   -8.9100  -23.3300 C   0  0  0  0  0
   -2.2520   -9.4630  -22.4840 C   0  0  0  0  0
   -2.5620   -8.5160  -21.3760 C   0  0  0  0  0
   -3.8920   -8.6690  -20.7060 C   0  0  0  0  0
   -1.6970   -7.5810  -20.9190 C   0  0  0  0  0
    1.2480   -8.3150  -23.1330 O   0  0  0  0  0
   -0.7750   -9.9810  -24.2340 O   0  0  0  0  0
   -3.4070   -9.6300  -23.3300 O   0  0  0  0  0
   -3.7380   -9.7540  -19.7730 O   0  0  0  0  0
   -0.6000   -1.8880  -20.8330 C   0  0  0  0  0
    0.3150   -2.8630  -20.1110 C   0  0  0  0  0
    0.7010   -4.0530  -21.0030 C   0  0  0  0  0
   -0.5630   -4.7860  -21.4080 C   0  0  0  0  0
   -1.4260   -3.7650  -22.1510 C   0  0  0  0  0
   -2.7640   -4.3860  -22.4880 C   0  0  0  0  0
   -0.3100   -5.9980  -22.2220 N   0  3  0  0  0
    1.4950   -2.1520  -19.6970 O   0  0  0  0  0
    1.4930   -4.8700  -20.1470 O   0  0  0  0  0
   -1.7280   -2.6190  -21.3120 O   0  0  0  0  0
   -0.3520    2.0770  -24.2980 C   0  0  0  0  0
   -1.0890    2.0370  -22.9880 C   0  0  0  0  0
   -0.4090    1.0430  -22.0570 C   0  0  0  0  0
   -0.4910   -0.3360  -22.6990 C   0  0  0  0  0
    0.3180   -0.2670  -23.9770 C   0  0  0  0  0
    0.2880   -1.6140  -24.6990 C   0  0  0  0  0
   -1.0410    3.3420  -22.3980 O   0  0  0  0  0
   -1.2220    1.0580  -20.8850 O   0  0  0  0  0
    0.1660   -1.3230  -21.8940 O   0  0  0  0  0
   -0.2330    0.7400  -24.8430 O   0  0  0  0  0
   -1.0650   -1.8830  -25.1140 O   0  0  0  0  0
    3.8780    4.6730  -26.1260 C   0  0  0  0  0
    2.4350    4.9730  -26.5390 C   0  0  0  0  0
    1.3920    4.4790  -25.5260 C   0  0  0  0  0
    1.6540    3.0350  -25.1110 C   0  0  0  0  0
    3.1090    2.8610  -24.7320 C   0  0  0  0  0
    3.2860    1.3790  -24.4840 C   0  0  0  0  0
    4.2950    5.4270  -24.9710 O   0  0  0  0  0
    2.2390    6.3840  -26.7260 O   0  0  0  0  0
    0.1080    4.5320  -26.1580 O   0  0  0  0  0
    0.9100    2.6320  -23.9500 O   0  0  0  0  0
    3.9790    3.2850  -25.7950 O   0  0  0  0  0
    4.4930    1.1990  -23.7850 O   0  0  0  0  0
    0.4614   -7.2191  -20.7975 H   0  0  0  0  0
    0.2228   -9.4050  -21.7243 H   0  0  0  0  0
   -1.3592   -8.0073  -23.8888 H   0  0  0  0  0
   -1.9683  -10.4221  -22.0508 H   0  0  0  0  0
   -4.6794   -8.8774  -21.4303 H   0  0  0  0  0
   -4.1896   -7.7503  -20.2005 H   0  0  0  0  0
   -1.9948   -6.9807  -20.0593 H   0  0  0  0  0
    1.9590   -8.0976  -22.5258 H   0  0  0  0  0
   -0.0555   -9.7018  -24.8050 H   0  0  0  0  0
   -3.1967  -10.2413  -24.0397 H   0  0  0  0  0
   -4.5673   -9.8975  -19.3111 H   0  0  0  0  0
   -0.9693   -1.0866  -20.1931 H   0  0  0  0  0
   -0.2125   -3.2692  -19.2480 H   0  0  0  0  0
    1.2279   -3.7712  -21.9146 H   0  0  0  0  0
   -1.0702   -5.1698  -20.5228 H   0  0  0  0  0
   -0.8694   -3.4606  -23.0374 H   0  0  0  0  0
   -2.6085   -5.2601  -23.1204 H   0  0  0  0  0
   -3.2658   -4.6861  -21.5681 H   0  0  0  0  0
   -3.3782   -3.6576  -23.0174 H   0  0  0  0  0
   -1.0729   -6.0321  -22.8982 H   0  0  0  0  0
    0.6414   -5.8920  -22.5740 H   0  0  0  0  0
    2.0855   -2.7540  -19.2382 H   0  0  0  0  0
    1.7826   -5.6488  -20.6278 H   0  0  0  0  0
   -0.8527    2.6608  -25.0704 H   0  0  0  0  0
   -2.1234    1.7339  -23.1501 H   0  0  0  0  0
    0.6350    1.2788  -21.8508 H   0  0  0  0  0
   -1.5397   -0.5986  -22.8384 H   0  0  0  0  0
    1.3485   -0.0180  -23.7235 H   0  0  0  0  0
    0.6345   -2.4016  -24.0298 H   0  0  0  0  0
    0.9439   -1.5834  -25.5690 H   0  0  0  0  0
   -1.5086    3.3303  -21.5597 H   0  0  0  0  0
   -0.8588    0.4497  -20.2372 H   0  0  0  0  0
   -1.0969   -2.7275  -25.5693 H   0  0  0  0  0
    4.5180    4.9487  -26.9641 H   0  0  0  0  0
    2.2865    4.4306  -27.4727 H   0  0  0  0  0
    1.4408    5.1091  -24.6379 H   0  0  0  0  0
    1.3574    2.4329  -25.9698 H   0  0  0  0  0
    3.3617    3.4630  -23.8592 H   0  0  0  0  0
    3.3134    0.8385  -25.4302 H   0  0  0  0  0
    2.4506    0.9913  -23.9009 H   0  0  0  0  0
    5.2031    5.2028  -24.7547 H   0  0  0  0  0
    1.3290    6.5481  -26.9841 H   0  0  0  0  0
   -0.5630    4.2271  -25.5429 H   0  0  0  0  0
    4.6271    0.2636  -23.6158 H   0  0  0  0  0
  1  2  1  0  0  0
  1  7  1  0  0  0
 18  1  1  0  0  0
  2  3  1  0  0  0
  2  8  1  0  0  0
  3  4  1  0  0  0
  3  9  1  0  0  0
  5  4  1  0  0  0
  4 10  1  0  0  0
  5  6  1  0  0  0
  7  5  2  0  0  0
  6 11  1  0  0  0
 12 13  1  0  0  0
 12 21  1  0  0  0
 30 12  1  0  0  0
 13 14  1  0  0  0
 13 19  1  0  0  0
 14 15  1  0  0  0
 14 20  1  0  0  0
 16 15  1  0  0  0
 15 18  1  0  0  0
 16 17  1  0  0  0
 21 16  1  0  0  0
 22 23  1  0  0  0
 22 31  1  0  0  0
 42 22  1  0  0  0
 23 24  1  0  0  0
 23 28  1  0  0  0
 24 25  1  0  0  0
 24 29  1  0  0  0
 26 25  1  0  0  0
 25 30  1  0  0  0
 26 27  1  0  0  0
 31 26  1  0  0  0
 27 32  1  0  0  0
 34 33  1  0  0  0
 33 39  1  0  0  0
 33 43  1  0  0  0
 35 34  1  0  0  0
 34 40  1  0  0  0
 36 35  1  0  0  0
 35 41  1  0  0  0
 36 37  1  0  0  0
 36 42  1  0  0  0
 37 38  1  0  0  0
 37 43  1  0  0  0
 38 44  1  0  0  0
  1 45  1  0  0  0
  2 46  1  0  0  0
  3 47  1  0  0  0
  4 48  1  0  0  0
  6 49  1  0  0  0
  6 50  1  0  0  0
  7 51  1  0  0  0
  8 52  1  0  0  0
  9 53  1  0  0  0
 10 54  1  0  0  0
 11 55  1  0  0  0
 12 56  1  0  0  0
 13 57  1  0  0  0
 14 58  1  0  0  0
 15 59  1  0  0  0
 16 60  1  0  0  0
 17 61  1  0  0  0
 17 62  1  0  0  0
 17 63  1  0  0  0
 18 64  1  0  0  0
 18 65  1  0  0  0
 19 66  1  0  0  0
 20 67  1  0  0  0
 22 68  1  0  0  0
 23 69  1  0  0  0
 24 70  1  0  0  0
 25 71  1  0  0  0
 26 72  1  0  0  0
 27 73  1  0  0  0
 27 74  1  0  0  0
 28 75  1  0  0  0
 29 76  1  0  0  0
 32 77  1  0  0  0
 33 78  1  0  0  0
 34 79  1  0  0  0
 35 80  1  0  0  0
 36 81  1  0  0  0
 37 82  1  0  0  0
 38 83  1  0  0  0
 38 84  1  0  0  0
 39 85  1  0  0  0
 40 86  1  0  0  0
 41 87  1  0  0  0
 44 88  1  0  0  0
M  END
$$$$
