### 
### Created by X-TOOL on Mon Sep 10 21:13:15 2018
### 

@<TRIPOS>MOLECULE
4ezy_ligand
   98    97     1     0     0
SMALL
GAST_HUCK


@<TRIPOS>ATOM
      1 N          58.3840   83.4980   23.7720 N.4       1 ASN         0.2396
      2 CA         59.2150   84.3490   24.6730 C.3       1 ASN         0.0818
      3 C          58.5080   85.4410   25.4570 C.2       1 ASN         0.2291
      4 O          59.1650   86.3460   25.9250 O.2       1 ASN        -0.3905
      5 CB         60.3210   85.0390   23.8730 C.3       1 ASN         0.0972
      6 CG         61.4250   84.1210   23.5270 C.2       1 ASN         0.1813
      7 OD1        61.2040   82.9430   23.2130 O.2       1 ASN        -0.3969
      8 ND2        62.6300   84.6230   23.5970 N.am      1 ASN        -0.3006
      9 N          57.2060   85.3780   25.6580 N.am      1 ARG        -0.2609
     10 CA         56.5720   86.4820   26.4020 C.3       1 ARG         0.1312
     11 C          56.7410   86.3000   27.9040 C.2       1 ARG         0.2039
     12 O          57.0950   85.1910   28.4140 O.2       1 ARG        -0.3944
     13 CB         55.0550   86.5570   26.0420 C.3       1 ARG        -0.0092
     14 CG         54.7850   86.7060   24.5450 C.3       1 ARG        -0.0156
     15 CD         53.4270   86.0940   24.1800 C.3       1 ARG         0.0627
     16 NE         53.6510   84.6430   24.0920 N.pl3     1 ARG        -0.2723
     17 CZ         52.7640   83.6540   24.2720 C.cat     1 ARG         0.2882
     18 NH1        53.2240   82.3940   24.1590 N.pl3     1 ARG        -0.2849
     19 NH2        51.4640   83.8910   24.5630 N.pl3     1 ARG        -0.2849
     20 N          56.4700   87.3590   28.6510 N.am      1 LEU        -0.2637
     21 CA         56.3880   87.2580   30.1000 C.3       1 LEU         0.1312
     22 C          55.0210   87.5590   30.5760 C.2       1 LEU         0.2039
     23 O          54.3250   88.3890   30.0060 O.2       1 LEU        -0.3944
     24 CB         57.3310   88.2750   30.6980 C.3       1 LEU        -0.0101
     25 CG         58.7040   87.9630   30.2080 C.3       1 LEU        -0.0425
     26 CD1        58.9330   88.7260   28.9180 C.3       1 LEU        -0.0625
     27 CD2        59.5860   88.4940   31.3100 C.3       1 LEU        -0.0625
     28 N          54.6000   86.8950   31.6250 N.am      1 ILE        -0.2635
     29 CA         53.3890   87.2250   32.2200 C.3       1 ILE         0.1335
     30 C          53.5740   87.8130   33.6230 C.2       1 ILE         0.2036
     31 O          54.6540   87.6680   34.2740 O.2       1 ILE        -0.3944
     32 CB         52.5160   85.9530   32.1790 C.3       1 ILE        -0.0037
     33 CG1        52.9960   84.8770   33.1430 C.3       1 ILE        -0.0491
     34 CG2        52.6080   85.3770   30.8070 C.3       1 ILE        -0.0582
     35 CD1        51.9320   83.8440   33.4210 C.3       1 ILE        -0.0648
     36 N          52.5360   88.4920   34.0950 N.am      1 LEU        -0.2695
     37 CA         52.4850   88.9470   35.4620 C.3       1 LEU         0.0946
     38 C          52.0370   87.8150   36.4080 C.2       1 LEU         0.0601
     39 O          51.0550   87.0780   36.1250 O.co2     1 LEU        -0.5666
     40 CB         51.5000   90.1060   35.5360 C.3       1 LEU        -0.0156
     41 CG         51.9370   91.3850   34.8470 C.3       1 LEU        -0.0431
     42 CD1        50.7020   92.0930   34.3340 C.3       1 LEU        -0.0625
     43 CD2        52.6690   92.2250   35.8870 C.3       1 LEU        -0.0625
     44 O          52.6644   87.6233   37.4838 O.co2     1 LEU        -0.5666
     45 H1         58.9719   82.8185   23.3152 H         1 ASN         0.2017
     46 H2         57.9391   84.0780   23.0780 H         1 ASN         0.2017
     47 H3         57.6797   83.0225   24.3142 H         1 ASN         0.2017
     48 H4         59.6785   83.6707   25.4044 H         1 ASN         0.1125
     49 H5         60.7259   85.8675   24.4727 H         1 ASN         0.0585
     50 H6         59.8883   85.4367   22.9432 H         1 ASN         0.0585
     51 H7         63.4222   84.0543   23.3755 H         1 ASN         0.1814
     52 H8         62.7596   85.5757   23.8720 H         1 ASN         0.1814
     53 H9         56.6670   84.6076   25.3174 H         1 ARG         0.1885
     54 H10        57.0539   87.4259   26.1074 H         1 ARG         0.0800
     55 H11        54.6172   87.4221   26.5615 H         1 ARG         0.0313
     56 H12        54.5690   85.6345   26.3923 H         1 ARG         0.0313
     57 H13        55.5771   86.1913   23.9814 H         1 ARG         0.0301
     58 H14        54.7829   87.7741   24.2822 H         1 ARG         0.0301
     59 H15        53.0773   86.4867   23.2138 H         1 ARG         0.0689
     60 H16        52.6835   86.3201   24.9585 H         1 ARG         0.0689
     61 H17        54.6114   84.3494   23.8630 H         1 ARG         0.2642
     62 H18        52.5830   81.5982   24.2882 H         1 ARG         0.2615
     63 H19        54.2170   82.2257   23.9433 H         1 ARG         0.2615
     64 H20        51.1233   84.8594   24.6470 H         1 ARG         0.2615
     65 H21        50.8151   83.1030   24.7005 H         1 ARG         0.2615
     66 H22        56.3189   88.2443   28.2112 H         1 LEU         0.1883
     67 H23        56.6739   86.2439   30.4161 H         1 LEU         0.0800
     68 H24        57.3019   88.2129   31.7958 H         1 LEU         0.0315
     69 H25        57.0409   89.2873   30.3802 H         1 LEU         0.0315
     70 H26        58.8545   86.8846   30.0519 H         1 LEU         0.0298
     71 H27        59.9425   88.5097   28.5383 H         1 LEU         0.0232
     72 H28        58.8362   89.8051   29.1081 H         1 LEU         0.0232
     73 H29        58.1865   88.4168   28.1716 H         1 LEU         0.0232
     74 H30        59.4016   87.9253   32.2334 H         1 LEU         0.0232
     75 H31        59.3584   89.5564   31.4821 H         1 LEU         0.0232
     76 H32        60.6413   88.3876   31.0185 H         1 LEU         0.0232
     77 H33        55.1520   86.1491   31.9977 H         1 ILE         0.1883
     78 H34        52.8982   87.9968   31.6090 H         1 ILE         0.0803
     79 H35        51.4752   86.2193   32.4153 H         1 ILE         0.0345
     80 H36        53.2829   85.3540   34.0918 H         1 ILE         0.0267
     81 H37        53.8715   84.3747   32.7057 H         1 ILE         0.0267
     82 H38        52.2695   86.1229   30.0728 H         1 ILE         0.0235
     83 H39        51.9711   84.4826   30.7413 H         1 ILE         0.0235
     84 H40        53.6513   85.1006   30.5945 H         1 ILE         0.0235
     85 H41        52.3255   83.0912   34.1199 H         1 ILE         0.0230
     86 H42        51.6417   83.3541   32.4799 H         1 ILE         0.0230
     87 H43        51.0531   84.3334   33.8660 H         1 ILE         0.0230
     88 H44        51.7687   88.6934   33.4861 H         1 LEU         0.1875
     89 H45        53.4835   89.2929   35.7675 H         1 LEU         0.0726
     90 H46        51.3276   90.3359   36.5978 H         1 LEU         0.0308
     91 H47        50.5571   89.7783   35.0740 H         1 LEU         0.0308
     92 H48        52.6102   91.1600   34.0067 H         1 LEU         0.0297
     93 H49        50.9966   93.0251   33.8297 H         1 LEU         0.0232
     94 H50        50.0365   92.3273   35.1779 H         1 LEU         0.0232
     95 H51        50.1752   91.4414   33.6214 H         1 LEU         0.0232
     96 H52        53.5589   91.6813   36.2371 H         1 LEU         0.0232
     97 H53        51.9999   92.4197   36.7381 H         1 LEU         0.0232
     98 H54        52.9766   93.1802   35.4364 H         1 LEU         0.0232
@<TRIPOS>BOND
     1    1    2 1  
     2    2    3 1  
     3    2    5 1  
     4    3    4 2  
     5    3    9 am 
     6    5    6 1  
     7    6    7 2  
     8    6    8 am 
     9    9   10 1  
    10   10   11 1  
    11   10   13 1  
    12   11   12 2  
    13   11   20 am 
    14   13   14 1  
    15   14   15 1  
    16   15   16 1  
    17   16   17 ar 
    18   17   18 ar 
    19   17   19 ar 
    20   20   21 1  
    21   21   22 1  
    22   21   24 1  
    23   22   23 2  
    24   22   28 am 
    25   24   25 1  
    26   25   26 1  
    27   25   27 1  
    28   28   29 1  
    29   29   30 1  
    30   29   32 1  
    31   30   31 2  
    32   30   36 am 
    33   32   33 1  
    34   32   34 1  
    35   33   35 1  
    36   36   37 1  
    37   37   38 1  
    38   37   40 1  
    39   38   39 ar 
    40   40   41 1  
    41   41   42 1  
    42   41   43 1  
    43   38   44 ar 
    44    1   45 1  
    45    1   46 1  
    46    1   47 1  
    47    2   48 1  
    48    5   49 1  
    49    5   50 1  
    50    8   51 1  
    51    8   52 1  
    52    9   53 1  
    53   10   54 1  
    54   13   55 1  
    55   13   56 1  
    56   14   57 1  
    57   14   58 1  
    58   15   59 1  
    59   15   60 1  
    60   16   61 1  
    61   18   62 1  
    62   18   63 1  
    63   19   64 1  
    64   19   65 1  
    65   20   66 1  
    66   21   67 1  
    67   24   68 1  
    68   24   69 1  
    69   25   70 1  
    70   26   71 1  
    71   26   72 1  
    72   26   73 1  
    73   27   74 1  
    74   27   75 1  
    75   27   76 1  
    76   28   77 1  
    77   29   78 1  
    78   32   79 1  
    79   33   80 1  
    80   33   81 1  
    81   34   82 1  
    82   34   83 1  
    83   34   84 1  
    84   35   85 1  
    85   35   86 1  
    86   35   87 1  
    87   36   88 1  
    88   37   89 1  
    89   40   90 1  
    90   40   91 1  
    91   41   92 1  
    92   42   93 1  
    93   42   94 1  
    94   42   95 1  
    95   43   96 1  
    96   43   97 1  
    97   43   98 1  
@<TRIPOS>SUBSTRUCTURE
     1 ASN         1

