4ezy_ligand
  -I-interpret- 

 98 97  0  0  0  0  0  0  0  0999 V2000
   58.3840   83.4980   23.7720 N   0  3  0  0  0
   59.2150   84.3490   24.6730 C   0  0  0  0  0
   58.5080   85.4410   25.4570 C   0  0  0  0  0
   59.1650   86.3460   25.9250 O   0  0  0  0  0
   60.3210   85.0390   23.8730 C   0  0  0  0  0
   61.4250   84.1210   23.5270 C   0  0  0  0  0
   61.2040   82.9430   23.2130 O   0  0  0  0  0
   62.6300   84.6230   23.5970 N   0  0  0  0  0
   57.2060   85.3780   25.6580 N   0  0  0  0  0
   56.5720   86.4820   26.4020 C   0  0  0  0  0
   56.7410   86.3000   27.9040 C   0  0  0  0  0
   57.0950   85.1910   28.4140 O   0  0  0  0  0
   55.0550   86.5570   26.0420 C   0  0  0  0  0
   54.7850   86.7060   24.5450 C   0  0  0  0  0
   53.4270   86.0940   24.1800 C   0  0  0  0  0
   53.6510   84.6430   24.0920 N   0  0  0  0  0
   52.7640   83.6540   24.2720 C   0  0  0  0  0
   53.2240   82.3940   24.1590 N   0  0  0  0  0
   51.4640   83.8910   24.5630 N   0  0  0  0  0
   56.4700   87.3590   28.6510 N   0  0  0  0  0
   56.3880   87.2580   30.1000 C   0  0  0  0  0
   55.0210   87.5590   30.5760 C   0  0  0  0  0
   54.3250   88.3890   30.0060 O   0  0  0  0  0
   57.3310   88.2750   30.6980 C   0  0  0  0  0
   58.7040   87.9630   30.2080 C   0  0  0  0  0
   58.9330   88.7260   28.9180 C   0  0  0  0  0
   59.5860   88.4940   31.3100 C   0  0  0  0  0
   54.6000   86.8950   31.6250 N   0  0  0  0  0
   53.3890   87.2250   32.2200 C   0  0  0  0  0
   53.5740   87.8130   33.6230 C   0  0  0  0  0
   54.6540   87.6680   34.2740 O   0  0  0  0  0
   52.5160   85.9530   32.1790 C   0  0  0  0  0
   52.9960   84.8770   33.1430 C   0  0  0  0  0
   52.6080   85.3770   30.8070 C   0  0  0  0  0
   51.9320   83.8440   33.4210 C   0  0  0  0  0
   52.5360   88.4920   34.0950 N   0  0  0  0  0
   52.4850   88.9470   35.4620 C   0  0  0  0  0
   52.0370   87.8150   36.4080 C   0  0  0  0  0
   51.0550   87.0780   36.1250 O   0  0  0  0  0
   51.5000   90.1060   35.5360 C   0  0  0  0  0
   51.9370   91.3850   34.8470 C   0  0  0  0  0
   50.7020   92.0930   34.3340 C   0  0  0  0  0
   52.6690   92.2250   35.8870 C   0  0  0  0  0
   52.6644   87.6233   37.4838 O   0  0  0  0  0
   57.6507   83.0436   24.3163 H   0  0  0  0  0
   57.9612   84.0813   23.0500 H   0  0  0  0  0
   58.9740   82.7894   23.3360 H   0  0  0  0  0
   59.5747   83.6280   25.4071 H   0  0  0  0  0
   60.7303   85.8410   24.4873 H   0  0  0  0  0
   59.8851   85.4063   22.9439 H   0  0  0  0  0
   63.4391   84.0380   23.3883 H   0  0  0  0  0
   62.7611   85.5997   23.8603 H   0  0  0  0  0
   56.6563   84.5922   25.3106 H   0  0  0  0  0
   57.0612   87.4133   26.1165 H   0  0  0  0  0
   54.6461   87.4384   26.5361 H   0  0  0  0  0
   54.5971   85.6218   26.3641 H   0  0  0  0  0
   55.5673   86.1873   23.9909 H   0  0  0  0  0
   54.7753   87.7659   24.2909 H   0  0  0  0  0
   53.0521   86.4948   23.2383 H   0  0  0  0  0
   52.6707   86.3335   24.9275 H   0  0  0  0  0
   54.6020   84.3523   23.8652 H   0  0  0  0  0
   54.2074   82.2273   23.9454 H   0  0  0  0  0
   50.8214   83.1107   24.6992 H   0  0  0  0  0
   51.1266   84.8500   24.6462 H   0  0  0  0  0
   56.3159   88.2620   28.2025 H   0  0  0  0  0
   56.6496   86.2428   30.3983 H   0  0  0  0  0
   57.2973   88.2296   31.7865 H   0  0  0  0  0
   57.0414   89.2825   30.3993 H   0  0  0  0  0
   58.8873   86.9086   30.0014 H   0  0  0  0  0
   58.1927   88.4187   28.1793 H   0  0  0  0  0
   58.8368   89.7950   29.1077 H   0  0  0  0  0
   59.9335   88.5108   28.5428 H   0  0  0  0  0
   59.4152   89.5642   31.4265 H   0  0  0  0  0
   59.3472   87.9831   32.2428 H   0  0  0  0  0
   60.6308   88.3172   31.0545 H   0  0  0  0  0
   55.1631   86.1342   32.0052 H   0  0  0  0  0
   52.8856   88.0247   31.6768 H   0  0  0  0  0
   51.5030   86.2420   32.4589 H   0  0  0  0  0
   53.2557   85.3582   34.0859 H   0  0  0  0  0
   53.8487   84.3716   32.6895 H   0  0  0  0  0
   52.2460   86.1069   30.0829 H   0  0  0  0  0
   53.6465   85.1294   30.5872 H   0  0  0  0  0
   51.9985   84.4750   30.7514 H   0  0  0  0  0
   51.0617   84.3302   33.8618 H   0  0  0  0  0
   51.6452   83.3594   32.4877 H   0  0  0  0  0
   52.3231   83.0987   34.1136 H   0  0  0  0  0
   51.7534   88.6974   33.4740 H   0  0  0  0  0
   53.4788   89.2651   35.7771 H   0  0  0  0  0
   51.3863   90.3477   36.5928 H   0  0  0  0  0
   50.5947   89.7749   35.0272 H   0  0  0  0  0
   52.5988   91.1984   34.0012 H   0  0  0  0  0
   50.1809   91.4463   33.6281 H   0  0  0  0  0
   50.0434   92.3245   35.1711 H   0  0  0  0  0
   50.9952   93.0164   33.8346 H   0  0  0  0  0
   51.9949   92.4443   36.7150 H   0  0  0  0  0
   53.5325   91.6719   36.2565 H   0  0  0  0  0
   53.0013   93.1574   35.4306 H   0  0  0  0  0
   53.3792   88.2603   37.5539 H   0  0  0  0  0
  1  2  1  0  0  0
  2  3  1  0  0  0
  2  5  1  0  0  0
  3  4  2  0  0  0
  3  9  1  0  0  0
  5  6  1  0  0  0
  6  7  2  0  0  0
  6  8  1  0  0  0
  9 10  1  0  0  0
 10 11  1  0  0  0
 10 13  1  0  0  0
 11 12  2  0  0  0
 11 20  1  0  0  0
 13 14  1  0  0  0
 14 15  1  0  0  0
 15 16  1  0  0  0
 16 17  1  0  0  0
 17 18  2  0  0  0
 17 19  1  0  0  0
 20 21  1  0  0  0
 21 22  1  0  0  0
 21 24  1  0  0  0
 22 23  2  0  0  0
 22 28  1  0  0  0
 24 25  1  0  0  0
 25 26  1  0  0  0
 25 27  1  0  0  0
 28 29  1  0  0  0
 29 30  1  0  0  0
 29 32  1  0  0  0
 30 31  2  0  0  0
 30 36  1  0  0  0
 32 33  1  0  0  0
 32 34  1  0  0  0
 33 35  1  0  0  0
 36 37  1  0  0  0
 37 38  1  0  0  0
 37 40  1  0  0  0
 38 39  2  0  0  0
 40 41  1  0  0  0
 41 42  1  0  0  0
 41 43  1  0  0  0
 38 44  1  0  0  0
  1 45  1  0  0  0
  1 46  1  0  0  0
  1 47  1  0  0  0
  2 48  1  0  0  0
  5 49  1  0  0  0
  5 50  1  0  0  0
  8 51  1  0  0  0
  8 52  1  0  0  0
  9 53  1  0  0  0
 10 54  1  0  0  0
 13 55  1  0  0  0
 13 56  1  0  0  0
 14 57  1  0  0  0
 14 58  1  0  0  0
 15 59  1  0  0  0
 15 60  1  0  0  0
 16 61  1  0  0  0
 18 62  1  0  0  0
 19 63  1  0  0  0
 19 64  1  0  0  0
 20 65  1  0  0  0
 21 66  1  0  0  0
 24 67  1  0  0  0
 24 68  1  0  0  0
 25 69  1  0  0  0
 26 70  1  0  0  0
 26 71  1  0  0  0
 26 72  1  0  0  0
 27 73  1  0  0  0
 27 74  1  0  0  0
 27 75  1  0  0  0
 28 76  1  0  0  0
 29 77  1  0  0  0
 32 78  1  0  0  0
 33 79  1  0  0  0
 33 80  1  0  0  0
 34 81  1  0  0  0
 34 82  1  0  0  0
 34 83  1  0  0  0
 35 84  1  0  0  0
 35 85  1  0  0  0
 35 86  1  0  0  0
 36 87  1  0  0  0
 37 88  1  0  0  0
 40 89  1  0  0  0
 40 90  1  0  0  0
 41 91  1  0  0  0
 42 92  1  0  0  0
 42 93  1  0  0  0
 42 94  1  0  0  0
 43 95  1  0  0  0
 43 96  1  0  0  0
 43 97  1  0  0  0
 44 98  1  0  0  0
M  END
$$$$
