### 
### Created by X-TOOL on Mon Sep 10 21:12:59 2018
### 

@<TRIPOS>MOLECULE
3eu5_ligand
   67    68     1     0     0
SMALL
GAST_HUCK


@<TRIPOS>ATOM
      1 O2         54.7960  -43.0360    7.6110 O.co2     1 GBO        -0.6693
      2 P1         54.1570  -42.4060    6.2790 P.3       1 GBO         0.1296
      3 O8         53.2850  -41.2350    6.8970 O.co2     1 GBO        -0.6693
      4 O1         55.1730  -42.0420    5.2720 O.co2     1 GBO        -0.6693
      5 O3         53.1120  -43.4850    5.7490 O.3       1 GBO        -0.1661
      6 P2         52.7200  -43.7480    4.1950 P.3       1 GBO         0.3355
      7 O4         51.7900  -44.8760    4.2770 O.co2     1 GBO        -0.6016
      8 O9         52.3230  -42.5370    3.4010 O.co2     1 GBO        -0.6016
      9 O5         54.1480  -44.3100    3.8110 O.3       1 GBO        -0.1550
     10 C1         54.7050  -44.3900    2.5310 C.2       1 GBO         0.1629
     11 C2         56.0020  -44.8640    2.6540 C.2       1 GBO         0.0183
     12 C3         56.7350  -45.2110    1.5480 C.3       1 GBO         0.0158
     13 C4         56.0920  -45.0460    0.1440 C.3       1 GBO        -0.0433
     14 C5         58.1630  -45.7420    1.6100 C.3       1 GBO        -0.0165
     15 C6         58.5050  -46.6000    2.8190 C.2       1 GBO        -0.0943
     16 C7         59.6240  -47.3620    2.5020 C.2       1 GBO        -0.0936
     17 C8         60.2230  -48.3360    3.2690 C.3       1 GBO        -0.0071
     18 C9         59.5950  -48.6740    4.6190 C.3       1 GBO        -0.0539
     19 C10        61.4440  -49.1260    2.7570 C.3       1 GBO         0.0398
     20 N1         60.8170  -50.3980    2.4670 N.am      1 GBO        -0.2850
     21 C11        61.3500  -51.5750    2.1920 C.2       1 GBO         0.1761
     22 O6         62.5470  -51.8440    2.0930 O.2       1 GBO        -0.3971
     23 C12        60.2710  -52.6760    1.9320 C.3       1 GBO         0.0372
     24 C13        59.1960  -52.8970    3.0510 C.3       1 GBO        -0.0360
     25 C14        58.0660  -53.7910    2.5230 C.3       1 GBO        -0.0499
     26 C15        56.6770  -53.2640    2.8980 C.3       1 GBO        -0.0388
     27 C16        55.5780  -54.2660    2.4230 C.3       1 GBO         0.0302
     28 S1         56.1400  -55.7060    1.3870 S.3       1 GBO        -0.1527
     29 C17        54.4280  -56.1180    0.8780 C.3       1 GBO         0.0190
     30 C18        53.7720  -54.7230    0.6540 C.3       1 GBO         0.0750
     31 C19        54.4890  -53.6060    1.5000 C.3       1 GBO         0.0775
     32 N2         55.1480  -52.7590    0.4650 N.am      1 GBO        -0.2668
     33 C20        54.9170  -53.2450   -0.7490 C.2       1 GBO         0.2580
     34 O7         55.3640  -52.7490   -1.7850 O.2       1 GBO        -0.4008
     35 N3         54.1320  -54.3290   -0.7140 N.am      1 GBO        -0.2671
     36 H1         54.2067  -44.1259    1.5994 H         1 GBO         0.1477
     37 H2         56.4455  -44.9623    3.6438 H         1 GBO         0.1002
     38 H3         56.3509  -46.2390    1.6236 H         1 GBO         0.0614
     39 H4         56.8079  -45.3668   -0.6271 H         1 GBO         0.0276
     40 H5         55.8285  -43.9902   -0.0168 H         1 GBO         0.0276
     41 H6         55.1843  -45.6642    0.0814 H         1 GBO         0.0276
     42 H7         58.8436  -44.8778    1.6076 H         1 GBO         0.0433
     43 H8         58.3361  -46.3475    0.7082 H         1 GBO         0.0433
     44 H9         57.9678  -46.6147    3.7662 H         1 GBO         0.0453
     45 H10        60.0804  -47.1653    1.5330 H         1 GBO         0.0453
     46 H11        60.8852  -47.5915    3.7350 H         1 GBO         0.0440
     47 H12        60.1827  -49.4641    5.1092 H         1 GBO         0.0252
     48 H13        58.5639  -49.0254    4.4661 H         1 GBO         0.0252
     49 H14        59.5860  -47.7761    5.2543 H         1 GBO         0.0252
     50 H15        62.2218  -49.2209    3.5290 H         1 GBO         0.0542
     51 H16        61.8767  -48.6691    1.8548 H         1 GBO         0.0542
     52 H17        59.8171  -50.3834    2.4764 H         1 GBO         0.1852
     53 H18        60.7988  -53.6300    1.7859 H         1 GBO         0.0502
     54 H19        59.7379  -52.4066    1.0083 H         1 GBO         0.0502
     55 H20        58.7801  -51.9248    3.3539 H         1 GBO         0.0290
     56 H21        59.6677  -53.3805    3.9191 H         1 GBO         0.0290
     57 H22        58.1868  -54.7991    2.9461 H         1 GBO         0.0267
     58 H23        58.1397  -53.8422    1.4267 H         1 GBO         0.0267
     59 H24        56.5146  -52.2895    2.4143 H         1 GBO         0.0277
     60 H25        56.6149  -53.1464    3.9899 H         1 GBO         0.0277
     61 H26        55.0974  -54.6549    3.3328 H         1 GBO         0.0435
     62 H27        53.9057  -56.6760    1.6691 H         1 GBO         0.0399
     63 H28        54.4246  -56.7081   -0.0503 H         1 GBO         0.0399
     64 H29        52.6871  -54.7529    0.8331 H         1 GBO         0.0584
     65 H30        53.7730  -53.0279    2.1026 H         1 GBO         0.0587
     66 H31        55.6882  -51.9399    0.6580 H         1 GBO         0.1849
     67 H32        53.8243  -54.8172   -1.5307 H         1 GBO         0.1849
@<TRIPOS>BOND
     1    1    2 ar 
     2    2    3 ar 
     3    2    4 ar 
     4    2    5 1  
     5    5    6 1  
     6    6    7 ar 
     7    6    8 ar 
     8    6    9 1  
     9    9   10 1  
    10   10   11 2  
    11   11   12 1  
    12   12   13 1  
    13   12   14 1  
    14   14   15 1  
    15   15   16 2  
    16   16   17 1  
    17   17   18 1  
    18   17   19 1  
    19   19   20 1  
    20   20   21 am 
    21   21   22 2  
    22   21   23 1  
    23   23   24 1  
    24   24   25 1  
    25   25   26 1  
    26   26   27 1  
    27   27   28 1  
    28   27   31 1  
    29   28   29 1  
    30   29   30 1  
    31   30   31 1  
    32   30   35 1  
    33   31   32 1  
    34   32   33 am 
    35   33   34 2  
    36   33   35 am 
    37   10   36 1  
    38   11   37 1  
    39   12   38 1  
    40   13   39 1  
    41   13   40 1  
    42   13   41 1  
    43   14   42 1  
    44   14   43 1  
    45   15   44 1  
    46   16   45 1  
    47   17   46 1  
    48   18   47 1  
    49   18   48 1  
    50   18   49 1  
    51   19   50 1  
    52   19   51 1  
    53   20   52 1  
    54   23   53 1  
    55   23   54 1  
    56   24   55 1  
    57   24   56 1  
    58   25   57 1  
    59   25   58 1  
    60   26   59 1  
    61   26   60 1  
    62   27   61 1  
    63   29   62 1  
    64   29   63 1  
    65   30   64 1  
    66   31   65 1  
    67   32   66 1  
    68   35   67 1  
@<TRIPOS>SUBSTRUCTURE
     1 GBO         1

