3eu5_ligand
  -I-interpret- 

 70 71  0  0  0  0  0  0  0  0999 V2000
   54.7960  -43.0360    7.6110 O   0  0  0  0  0
   54.1570  -42.4060    6.2790 P   0  0  0  0  0
   53.2850  -41.2350    6.8970 O   0  0  0  0  0
   55.1730  -42.0420    5.2720 O   0  0  0  0  0
   53.1120  -43.4850    5.7490 O   0  0  0  0  0
   52.7200  -43.7480    4.1950 P   0  0  0  0  0
   51.7900  -44.8760    4.2770 O   0  0  0  0  0
   52.3230  -42.5370    3.4010 O   0  0  0  0  0
   54.1480  -44.3100    3.8110 O   0  0  0  0  0
   54.7050  -44.3900    2.5310 C   0  0  0  0  0
   56.0020  -44.8640    2.6540 C   0  0  0  0  0
   56.7350  -45.2110    1.5480 C   0  0  0  0  0
   56.0920  -45.0460    0.1440 C   0  0  0  0  0
   58.1630  -45.7420    1.6100 C   0  0  0  0  0
   58.5050  -46.6000    2.8190 C   0  0  0  0  0
   59.6240  -47.3620    2.5020 C   0  0  0  0  0
   60.2230  -48.3360    3.2690 C   0  0  0  0  0
   59.5950  -48.6740    4.6190 C   0  0  0  0  0
   61.4440  -49.1260    2.7570 C   0  0  0  0  0
   60.8170  -50.3980    2.4670 N   0  0  0  0  0
   61.3500  -51.5750    2.1920 C   0  0  0  0  0
   62.5470  -51.8440    2.0930 O   0  0  0  0  0
   60.2710  -52.6760    1.9320 C   0  0  0  0  0
   59.1960  -52.8970    3.0510 C   0  0  0  0  0
   58.0660  -53.7910    2.5230 C   0  0  0  0  0
   56.6770  -53.2640    2.8980 C   0  0  0  0  0
   55.5780  -54.2660    2.4230 C   0  0  0  0  0
   56.1400  -55.7060    1.3870 S   0  0  0  0  0
   54.4280  -56.1180    0.8780 C   0  0  0  0  0
   53.7720  -54.7230    0.6540 C   0  0  0  0  0
   54.4890  -53.6060    1.5000 C   0  0  0  0  0
   55.1480  -52.7590    0.4650 N   0  0  0  0  0
   54.9170  -53.2450   -0.7490 C   0  0  0  0  0
   55.3640  -52.7490   -1.7850 O   0  0  0  0  0
   54.1320  -54.3290   -0.7140 N   0  0  0  0  0
   54.0944  -43.2536    8.2291 H   0  0  0  0  0
   52.6664  -41.6001    7.5339 H   0  0  0  0  0
   53.0276  -41.8860    3.4386 H   0  0  0  0  0
   54.2062  -44.1257    1.5986 H   0  0  0  0  0
   56.4459  -44.9624    3.6447 H   0  0  0  0  0
   56.9553  -45.4137    2.5961 H   0  0  0  0  0
   55.1927  -45.6590    0.0833 H   0  0  0  0  0
   55.8313  -43.9995   -0.0141 H   0  0  0  0  0
   56.8023  -45.3641   -0.6192 H   0  0  0  0  0
   58.8121  -44.8679    1.6621 H   0  0  0  0  0
   58.2897  -46.3810    0.7361 H   0  0  0  0  0
   57.9673  -46.6147    3.7670 H   0  0  0  0  0
   60.0808  -47.1651    1.5321 H   0  0  0  0  0
   61.2006  -47.8623    3.3578 H   0  0  0  0  0
   59.5866  -47.7835    5.2475 H   0  0  0  0  0
   58.5734  -49.0220    4.4661 H   0  0  0  0  0
   60.1782  -49.4570    5.1037 H   0  0  0  0  0
   62.2721  -49.1828    3.4635 H   0  0  0  0  0
   61.9513  -48.6698    1.9069 H   0  0  0  0  0
   59.7972  -50.3831    2.4765 H   0  0  0  0  0
   60.8175  -53.6159    1.8546 H   0  0  0  0  0
   59.7198  -52.3501    1.0500 H   0  0  0  0  0
   58.7824  -51.9329    3.3467 H   0  0  0  0  0
   59.6647  -53.3798    3.9085 H   0  0  0  0  0
   58.1825  -54.7788    2.9688 H   0  0  0  0  0
   58.1350  -53.8131    1.4354 H   0  0  0  0  0
   56.5167  -52.3007    2.4138 H   0  0  0  0  0
   56.6164  -53.1528    3.9806 H   0  0  0  0  0
   55.2149  -54.5991    3.3952 H   0  0  0  0  0
   53.9013  -56.7133    1.6239 H   0  0  0  0  0
   54.3956  -56.7438   -0.0138 H   0  0  0  0  0
   52.7109  -54.8010    0.8908 H   0  0  0  0  0
   53.8111  -53.0456    2.1438 H   0  0  0  0  0
   55.6990  -51.9235    0.6618 H   0  0  0  0  0
   53.8181  -54.8270   -1.5470 H   0  0  0  0  0
  1  2  1  0  0  0
  2  3  1  0  0  0
  2  4  2  0  0  0
  2  5  1  0  0  0
  5  6  1  0  0  0
  6  7  2  0  0  0
  6  8  1  0  0  0
  6  9  1  0  0  0
  9 10  1  0  0  0
 10 11  2  0  0  0
 11 12  1  0  0  0
 12 13  1  0  0  0
 12 14  1  0  0  0
 14 15  1  0  0  0
 15 16  2  0  0  0
 16 17  1  0  0  0
 17 18  1  0  0  0
 17 19  1  0  0  0
 19 20  1  0  0  0
 20 21  1  0  0  0
 21 22  2  0  0  0
 21 23  1  0  0  0
 23 24  1  0  0  0
 24 25  1  0  0  0
 25 26  1  0  0  0
 26 27  1  0  0  0
 27 28  1  0  0  0
 27 31  1  0  0  0
 28 29  1  0  0  0
 29 30  1  0  0  0
 30 31  1  0  0  0
 30 35  1  0  0  0
 31 32  1  0  0  0
 32 33  1  0  0  0
 33 34  2  0  0  0
 33 35  1  0  0  0
  1 36  1  0  0  0
  3 37  1  0  0  0
  8 38  1  0  0  0
 10 39  1  0  0  0
 11 40  1  0  0  0
 12 41  1  0  0  0
 13 42  1  0  0  0
 13 43  1  0  0  0
 13 44  1  0  0  0
 14 45  1  0  0  0
 14 46  1  0  0  0
 15 47  1  0  0  0
 16 48  1  0  0  0
 17 49  1  0  0  0
 18 50  1  0  0  0
 18 51  1  0  0  0
 18 52  1  0  0  0
 19 53  1  0  0  0
 19 54  1  0  0  0
 20 55  1  0  0  0
 23 56  1  0  0  0
 23 57  1  0  0  0
 24 58  1  0  0  0
 24 59  1  0  0  0
 25 60  1  0  0  0
 25 61  1  0  0  0
 26 62  1  0  0  0
 26 63  1  0  0  0
 27 64  1  0  0  0
 29 65  1  0  0  0
 29 66  1  0  0  0
 30 67  1  0  0  0
 31 68  1  0  0  0
 32 69  1  0  0  0
 35 70  1  0  0  0
M  END
$$$$
