6mqe_ligand
  -I-interpret- 

109109  0  0  0  0  0  0  0  0999 V2000
   49.2040  153.2710  203.8330 N   0  3  0  0  0
   49.0990  154.2520  202.7530 C   0  0  0  0  0
   49.1430  153.6030  201.3810 C   0  0  0  0  0
   49.8920  152.6610  201.1570 O   0  0  0  0  0
   50.2050  155.2650  202.8620 C   0  0  0  0  0
   48.3350  154.1070  200.4610 N   0  0  0  0  0
   48.2850  153.5730  199.1080 C   0  0  0  0  0
   48.8500  154.6220  198.1540 C   0  0  0  0  0
   48.8330  155.8260  198.4400 O   0  0  0  0  0
   46.8440  153.1810  198.7230 C   0  0  0  0  0
   46.0610  154.3800  198.1870 C   0  0  0  0  0
   46.8420  152.0200  197.7940 C   0  0  0  0  0
   49.3570  154.1630  197.0130 N   0  0  0  0  0
   49.8140  155.0830  195.9840 C   0  0  0  0  0
   50.9040  156.0450  196.4160 C   0  0  0  0  0
   50.7700  157.2660  196.2630 O   0  0  0  0  0
   51.9820  155.5150  196.9790 N   0  0  0  0  0
   53.0670  156.3570  197.4640 C   0  0  0  0  0
   54.3770  155.6050  197.2840 C   0  0  0  0  0
   54.4770  154.4260  197.6300 O   0  0  0  0  0
   52.8190  156.7770  198.9310 C   0  0  0  0  0
   53.9520  157.6420  199.4730 C   0  0  0  0  0
   52.5380  155.5780  199.8320 C   0  0  0  0  0
   53.5130  158.4640  200.6760 C   0  0  0  0  0
   55.3840  156.2790  196.7380 N   0  0  0  0  0
   56.6620  155.6610  196.4580 C   0  0  0  0  0
   57.6150  155.7270  197.6340 C   0  0  0  0  0
   57.2140  155.8620  198.7920 O   0  0  0  0  0
   58.9060  155.6410  197.3220 N   0  0  0  0  0
   59.9440  155.6970  198.3420 C   0  0  0  0  0
   61.1760  156.3440  197.7370 C   0  0  0  0  0
   61.5700  155.9920  196.6240 O   0  0  0  0  0
   60.2960  154.3060  198.8830 C   0  0  0  0  0
   61.7720  157.2870  198.4640 N   0  0  0  0  0
   63.0280  157.8960  198.0590 C   0  0  0  0  0
   64.0750  157.5950  199.1130 C   0  0  0  0  0
   63.7740  157.5100  200.3100 O   0  0  0  0  0
   62.9040  159.4170  197.8420 C   0  0  0  0  0
   61.9840  159.6980  196.6940 C   0  0  0  0  0
   62.4000  160.0890  199.1010 C   0  0  0  0  0
   65.3050  157.4200  198.6540 N   0  0  0  0  0
   66.4160  157.0630  199.5110 C   0  0  0  0  0
   67.5590  158.0410  199.2860 C   0  0  0  0  0
   68.2430  158.4390  200.2270 O   0  0  0  0  0
   66.8700  155.6310  199.2360 C   0  0  0  0  0
   65.7610  154.6200  199.2850 C   0  0  0  0  0
   65.5470  153.8720  200.4300 C   0  0  0  0  0
   64.9380  154.4090  198.1900 C   0  0  0  0  0
   64.5400  152.9380  200.4820 C   0  0  0  0  0
   63.9180  153.4720  198.2410 C   0  0  0  0  0
   63.7180  152.7410  199.3930 C   0  0  0  0  0
   67.8230  158.4540  198.1580 O   0  0  0  0  0
   48.4489  152.5907  203.7473 H   0  0  0  0  0
   50.1028  152.7928  203.7702 H   0  0  0  0  0
   49.1333  153.7478  204.7319 H   0  0  0  0  0
   48.1317  154.7429  202.8603 H   0  0  0  0  0
   51.1655  154.7686  202.7241 H   0  0  0  0  0
   50.0749  156.0272  202.0937 H   0  0  0  0  0
   50.1735  155.7309  203.8469 H   0  0  0  0  0
   47.7309  154.8911  200.7073 H   0  0  0  0  0
   48.8859  152.6657  199.0457 H   0  0  0  0  0
   46.3211  152.8611  199.6243 H   0  0  0  0  0
   46.0155  155.1543  198.9528 H   0  0  0  0  0
   46.5608  154.7721  197.3012 H   0  0  0  0  0
   45.0505  154.0653  197.9262 H   0  0  0  0  0
   47.3896  152.2802  196.8882 H   0  0  0  0  0
   47.3208  151.1685  198.2776 H   0  0  0  0  0
   45.8142  151.7632  197.5376 H   0  0  0  0  0
   49.4257  153.1571  196.8587 H   0  0  0  0  0
   48.9538  155.6905  195.7028 H   0  0  0  0  0
   50.2334  154.4738  195.1833 H   0  0  0  0  0
   52.0521  154.5018  197.0737 H   0  0  0  0  0
   53.1180  157.2818  196.8893 H   0  0  0  0  0
   51.9183  157.3909  198.9348 H   0  0  0  0  0
   54.2645  158.3282  198.6859 H   0  0  0  0  0
   54.7637  156.9852  199.7858 H   0  0  0  0  0
   51.6511  155.0556  199.4734 H   0  0  0  0  0
   53.3926  154.9018  199.8118 H   0  0  0  0  0
   52.3702  155.9232  200.8522 H   0  0  0  0  0
   52.6912  159.1190  200.3865 H   0  0  0  0  0
   53.1834  157.7949  201.4709 H   0  0  0  0  0
   54.3511  159.0648  201.0293 H   0  0  0  0  0
   55.2516  157.2641  196.5089 H   0  0  0  0  0
   57.1186  156.1990  195.6272 H   0  0  0  0  0
   56.4826  154.6099  196.2318 H   0  0  0  0  0
   59.1751  155.5332  196.3441 H   0  0  0  0  0
   59.5733  156.2824  199.1835 H   0  0  0  0  0
   59.4081  153.8543  199.3254 H   0  0  0  0  0
   60.6550  153.6800  198.0661 H   0  0  0  0  0
   61.0741  154.3985  199.6407 H   0  0  0  0  0
   61.3331  157.5917  199.3329 H   0  0  0  0  0
   63.3205  157.4706  197.0990 H   0  0  0  0  0
   63.8891  159.8206  197.6077 H   0  0  0  0  0
   62.3823  159.2377  195.7898 H   0  0  0  0  0
   60.9988  159.2847  196.9100 H   0  0  0  0  0
   61.9038  160.7754  196.5497 H   0  0  0  0  0
   61.4212  159.6853  199.3599 H   0  0  0  0  0
   63.0989  159.9015  199.9161 H   0  0  0  0  0
   62.3182  161.1625  198.9305 H   0  0  0  0  0
   65.4766  157.5417  197.6559 H   0  0  0  0  0
   66.0976  157.1174  200.5520 H   0  0  0  0  0
   67.5864  155.3637  200.0128 H   0  0  0  0  0
   67.2827  155.6102  198.2274 H   0  0  0  0  0
   66.1846  154.0255  201.3006 H   0  0  0  0  0
   65.0946  154.9863  197.2788 H   0  0  0  0  0
   64.3907  152.3507  201.3880 H   0  0  0  0  0
   63.2766  153.3136  197.3741 H   0  0  0  0  0
   62.9118  152.0091  199.4424 H   0  0  0  0  0
   67.2148  158.0646  197.5254 H   0  0  0  0  0
  1  2  1  0  0  0
  2  3  1  0  0  0
  2  5  1  0  0  0
  3  4  2  0  0  0
  3  6  1  0  0  0
  6  7  1  0  0  0
  7  8  1  0  0  0
  7 10  1  0  0  0
  8  9  2  0  0  0
  8 13  1  0  0  0
 10 11  1  0  0  0
 10 12  1  0  0  0
 13 14  1  0  0  0
 14 15  1  0  0  0
 15 16  2  0  0  0
 15 17  1  0  0  0
 17 18  1  0  0  0
 18 19  1  0  0  0
 18 21  1  0  0  0
 19 20  2  0  0  0
 19 25  1  0  0  0
 21 22  1  0  0  0
 21 23  1  0  0  0
 22 24  1  0  0  0
 25 26  1  0  0  0
 26 27  1  0  0  0
 27 28  2  0  0  0
 27 29  1  0  0  0
 29 30  1  0  0  0
 30 31  1  0  0  0
 30 33  1  0  0  0
 31 32  2  0  0  0
 31 34  1  0  0  0
 34 35  1  0  0  0
 35 36  1  0  0  0
 35 38  1  0  0  0
 36 37  2  0  0  0
 36 41  1  0  0  0
 38 39  1  0  0  0
 38 40  1  0  0  0
 41 42  1  0  0  0
 42 43  1  0  0  0
 42 45  1  0  0  0
 43 44  2  0  0  0
 43 52  1  0  0  0
 45 46  1  0  0  0
 46 47  4  0  0  0
 46 48  4  0  0  0
 47 49  4  0  0  0
 48 50  4  0  0  0
 49 51  4  0  0  0
 50 51  4  0  0  0
  1 53  1  0  0  0
  1 54  1  0  0  0
  1 55  1  0  0  0
  2 56  1  0  0  0
  5 57  1  0  0  0
  5 58  1  0  0  0
  5 59  1  0  0  0
  6 60  1  0  0  0
  7 61  1  0  0  0
 10 62  1  0  0  0
 11 63  1  0  0  0
 11 64  1  0  0  0
 11 65  1  0  0  0
 12 66  1  0  0  0
 12 67  1  0  0  0
 12 68  1  0  0  0
 13 69  1  0  0  0
 14 70  1  0  0  0
 14 71  1  0  0  0
 17 72  1  0  0  0
 18 73  1  0  0  0
 21 74  1  0  0  0
 22 75  1  0  0  0
 22 76  1  0  0  0
 23 77  1  0  0  0
 23 78  1  0  0  0
 23 79  1  0  0  0
 24 80  1  0  0  0
 24 81  1  0  0  0
 24 82  1  0  0  0
 25 83  1  0  0  0
 26 84  1  0  0  0
 26 85  1  0  0  0
 29 86  1  0  0  0
 30 87  1  0  0  0
 33 88  1  0  0  0
 33 89  1  0  0  0
 33 90  1  0  0  0
 34 91  1  0  0  0
 35 92  1  0  0  0
 38 93  1  0  0  0
 39 94  1  0  0  0
 39 95  1  0  0  0
 39 96  1  0  0  0
 40 97  1  0  0  0
 40 98  1  0  0  0
 40 99  1  0  0  0
 41100  1  0  0  0
 42101  1  0  0  0
 45102  1  0  0  0
 45103  1  0  0  0
 47104  1  0  0  0
 48105  1  0  0  0
 49106  1  0  0  0
 50107  1  0  0  0
 51108  1  0  0  0
 52109  1  0  0  0
M  END
$$$$
