5f37_ligand
  -I-interpret- 

 16 17  0  0  0  0  0  0  0  0999 V2000
   -0.1190 -105.0600   16.0500 O   0  0  0  0  0
    1.0570 -105.0830   16.3900 C   0  0  0  0  0
    1.7050 -103.9730   16.8340 N   0  0  0  0  0
    2.9950 -103.9810   17.2340 C   0  0  0  0  0
    3.7680 -105.0350   17.2440 N   0  0  0  0  0
    3.1980 -106.2260   16.8010 C   0  0  0  0  0
    3.4460 -108.5820   16.3180 N   0  0  0  0  0
    3.9170 -107.4080   16.7450 C   0  0  0  0  0
    2.1760 -108.6120   15.9200 C   0  0  0  0  0
    1.3460 -107.5120   15.9240 C   0  0  0  0  0
    1.8690 -106.3020   16.3690 C   0  0  0  0  0
    1.1921 -103.0919   16.8665 H   0  0  0  0  0
    3.4235 -103.0381   17.5739 H   0  0  0  0  0
    4.9546 -107.3774   17.0774 H   0  0  0  0  0
    1.7693 -109.5611   15.5709 H   0  0  0  0  0
    0.3116 -107.5876   15.5888 H   0  0  0  0  0
  1  2  2  0  0  0
  2  3  1  0  0  0
  2 11  1  0  0  0
  3  4  1  0  0  0
  4  5  2  0  0  0
  5  6  1  0  0  0
  6  8  4  0  0  0
  6 11  4  0  0  0
  8  7  4  0  0  0
  7  9  4  0  0  0
  9 10  4  0  0  0
 10 11  4  0  0  0
  3 12  1  0  0  0
  4 13  1  0  0  0
  8 14  1  0  0  0
  9 15  1  0  0  0
 10 16  1  0  0  0
M  END
$$$$
