5auu_ligand
  -I-interpret- 

 31 33  0  0  0  0  0  0  0  0999 V2000
  -25.5430    5.6490   -9.0540 C   0  0  0  0  0
  -27.6330    6.6680   -9.3400 O   0  0  0  0  0
  -26.7200    5.7720   -9.7690 C   0  0  0  0  0
  -26.1300    3.3010  -12.3980 O   0  0  0  0  0
  -26.9480    4.9930  -10.9000 C   0  0  0  0  0
  -24.0310    2.2840  -11.9560 O   0  0  0  0  0
  -25.9720    4.0870  -11.2980 C   0  0  0  0  0
  -23.4340    4.6280   -8.7580 O   0  0  0  0  0
  -24.7790    3.9470  -10.5900 C   0  0  0  0  0
  -18.6310    1.5780   -7.1890 O   0  0  0  0  0
  -24.5850    4.7380   -9.4630 C   0  0  0  0  0
  -18.1500    3.8050   -5.7400 O   0  0  0  0  0
  -23.8260    3.0210  -10.9870 C   0  0  0  0  0
  -22.6780    2.8670  -10.2150 C   0  0  0  0  0
  -22.5200    3.6940   -9.1060 C   0  0  0  0  0
  -21.4070    3.6910   -8.2630 C   0  0  0  0  0
  -20.5690    2.5920   -8.1680 C   0  0  0  0  0
  -19.4830    2.6430   -7.3070 C   0  0  0  0  0
  -19.2400    3.7920   -6.5450 C   0  0  0  0  0
  -20.0780    4.8950   -6.6330 C   0  0  0  0  0
  -21.1660    4.8300   -7.4950 C   0  0  0  0  0
  -25.3706    6.2666   -8.1725 H   0  0  0  0  0
  -28.3955    6.6503   -9.9229 H   0  0  0  0  0
  -25.3542    2.7463  -12.5077 H   0  0  0  0  0
  -27.8757    5.0918  -11.4636 H   0  0  0  0  0
  -17.9431    1.7889   -6.5535 H   0  0  0  0  0
  -18.1041    4.6458   -5.2790 H   0  0  0  0  0
  -21.9253    2.1213  -10.4710 H   0  0  0  0  0
  -20.7607    1.6986   -8.7623 H   0  0  0  0  0
  -19.8874    5.7899   -6.0407 H   0  0  0  0  0
  -21.8413    5.6821   -7.5721 H   0  0  0  0  0
  1  3  4  0  0  0
 11  1  4  0  0  0
  3  2  1  0  0  0
  3  5  4  0  0  0
  7  4  1  0  0  0
  7  5  4  0  0  0
 13  6  2  0  0  0
  9  7  4  0  0  0
  8 11  1  0  0  0
 15  8  1  0  0  0
 11  9  4  0  0  0
 13  9  1  0  0  0
 18 10  1  0  0  0
 19 12  1  0  0  0
 14 13  1  0  0  0
 15 14  2  0  0  0
 16 15  1  0  0  0
 17 16  4  0  0  0
 16 21  4  0  0  0
 18 17  4  0  0  0
 18 19  4  0  0  0
 19 20  4  0  0  0
 20 21  4  0  0  0
  1 22  1  0  0  0
  2 23  1  0  0  0
  4 24  1  0  0  0
  5 25  1  0  0  0
 10 26  1  0  0  0
 12 27  1  0  0  0
 14 28  1  0  0  0
 17 29  1  0  0  0
 20 30  1  0  0  0
 21 31  1  0  0  0
M  END
$$$$
