2kzu_ligand
  -I-interpret- 

282285  0  0  0  0  0  0  0  0999 V2000
   -0.6620  -19.1070    8.8410 N   0  3  0  0  0
    0.7630  -18.9860    8.4600 C   0  0  0  0  0
    0.9540  -18.0700    7.2710 C   0  0  0  0  0
   -0.0160  -17.5270    6.7370 O   0  0  0  0  0
    2.1990  -17.9040    6.8540 N   0  0  0  0  0
    2.5380  -16.9920    5.7740 C   0  0  0  0  0
    2.0710  -17.5100    4.4120 C   0  0  0  0  0
    2.7580  -18.2950    3.7600 O   0  0  0  0  0
    4.0500  -16.7530    5.7740 C   0  0  0  0  0
    4.7500  -17.9490    6.0850 O   0  0  0  0  0
    0.8810  -17.0840    4.0010 N   0  0  0  0  0
    0.3900  -17.3740    2.6590 C   0  0  0  0  0
    0.8480  -16.2870    1.6970 C   0  0  0  0  0
    0.5920  -16.3450    0.4930 O   0  0  0  0  0
   -1.1340  -17.5030    2.6440 C   0  0  0  0  0
   -1.6460  -18.6910    3.4320 C   0  0  0  0  0
   -1.0860  -20.0150    2.9410 C   0  0  0  0  0
   -1.6690  -20.6700    2.0770 O   0  0  0  0  0
    0.0520  -20.4170    3.4880 N   0  0  0  0  0
    1.5010  -15.2780    2.2560 N   0  0  0  0  0
    2.1690  -14.2560    1.4840 C   0  0  0  0  0
    3.4480  -13.8590    2.2060 C   0  0  0  0  0
    3.5690  -14.0560    3.4180 O   0  0  0  0  0
    1.2740  -13.0290    1.2890 C   0  0  0  0  0
    0.8780  -12.3180    2.5780 C   0  0  0  0  0
   -0.4870  -12.7280    3.0830 C   0  0  0  0  0
   -1.4510  -12.6940    2.2910 O   0  0  0  0  0
   -0.6060  -13.0770    4.2780 O   0  0  0  0  0
    4.4030  -13.3150    1.4650 N   0  0  0  0  0
    5.6570  -12.8680    2.0590 C   0  0  0  0  0
    5.4440  -11.5640    2.8110 C   0  0  0  0  0
    6.2650  -11.1730    3.6410 O   0  0  0  0  0
    6.7400  -12.6970    0.9950 C   0  0  0  0  0
    7.1320  -14.0100    0.3450 C   0  0  0  0  0
    7.7370  -14.8600    1.0280 O   0  0  0  0  0
    6.8230  -14.2000   -0.8520 O   0  0  0  0  0
    4.3370  -10.8950    2.4930 N   0  0  0  0  0
    3.8860   -9.7150    3.2180 C   0  0  0  0  0
    4.9190   -8.5900    3.1860 C   0  0  0  0  0
    5.1320   -7.9590    2.1550 O   0  0  0  0  0
    3.5230  -10.1060    4.6550 C   0  0  0  0  0
    2.9940   -9.0130    5.3840 O   0  0  0  0  0
    5.5500   -8.3480    4.3170 N   0  0  0  0  0
    6.5610   -7.3100    4.4330 C   0  0  0  0  0
    7.8760   -7.7840    3.8330 C   0  0  0  0  0
    8.5480   -7.0460    3.1120 O   0  0  0  0  0
    6.7350   -6.8950    5.9080 C   0  0  0  0  0
    7.0630   -8.0560    6.8350 C   0  0  0  0  0
    6.3350   -9.0740    6.8080 O   0  0  0  0  0
    8.0410   -7.9520    7.6050 O   0  0  0  0  0
    8.2070   -9.0380    4.0750 N   0  0  0  0  0
    9.4370   -9.6170    3.5600 C   0  0  0  0  0
    9.4280   -9.6570    2.0380 C   0  0  0  0  0
   10.4750   -9.7270    1.4000 O   0  0  0  0  0
    9.6070  -11.0110    4.1140 C   0  0  0  0  0
    9.5230  -11.0010    5.5300 O   0  0  0  0  0
    8.2280   -9.5850    1.4790 N   0  0  0  0  0
    8.0140   -9.5880    0.0380 C   0  0  0  0  0
    8.8070   -8.4630   -0.6290 C   0  0  0  0  0
    9.2800   -8.5920   -1.7580 O   0  0  0  0  0
    6.5190   -9.4320   -0.2250 C   0  0  0  0  0
    6.1150   -9.6350   -1.6610 C   0  0  0  0  0
    4.6290   -9.9140   -1.8210 C   0  0  0  0  0
    3.8100   -8.9850   -1.6440 O   0  0  0  0  0
    4.2760  -11.0680   -2.1370 O   0  0  0  0  0
    8.9510   -7.3720    0.1010 N   0  0  0  0  0
    9.7350   -6.2310   -0.3210 C   0  0  0  0  0
   11.1990   -6.4730   -0.0250 C   0  0  0  0  0
   12.0760   -6.2970   -0.8710 O   0  0  0  0  0
    9.3170   -5.0060    0.4590 C   0  0  0  0  0
    7.9190   -4.4490    0.2080 C   0  0  0  0  0
    7.7950   -3.8810   -1.1840 C   0  0  0  0  0
    6.8580   -5.4920    0.4590 C   0  0  0  0  0
   11.4240   -6.8670    1.2190 N   0  0  0  0  0
   12.7620   -7.0890    1.7780 C   0  0  0  0  0
   13.6200   -7.9830    0.8920 C   0  0  0  0  0
   14.8500   -7.9340    0.9540 O   0  0  0  0  0
   12.6680   -7.7290    3.1610 C   0  0  0  0  0
   11.6160   -7.1300    4.0800 C   0  0  0  0  0
   11.7700   -7.6340    5.5050 C   0  0  0  0  0
   11.1970   -8.6970    5.8310 O   0  0  0  0  0
   12.4980   -6.9940    6.2930 O   0  0  0  0  0
   12.9510   -8.7940    0.0880 N   0  0  0  0  0
   13.6020   -9.7340   -0.8220 C   0  0  0  0  0
   14.6950   -9.0590   -1.6270 C   0  0  0  0  0
   15.8010   -9.5810   -1.7610 O   0  0  0  0  0
   12.5800  -10.3240   -1.7860 C   0  0  0  0  0
   11.4270  -11.0070   -1.0980 C   0  0  0  0  0
   11.8540  -12.2010   -0.2730 C   0  0  0  0  0
   11.9320  -13.3260   -0.7710 O   0  0  0  0  0
   12.1270  -11.9670    0.9960 N   0  0  0  0  0
   14.3770   -7.8970   -2.1610 N   0  0  0  0  0
   15.3050   -7.1920   -3.0240 C   0  0  0  0  0
   15.6630   -5.8040   -2.4980 C   0  0  0  0  0
   16.7600   -5.3050   -2.7630 O   0  0  0  0  0
   14.7380   -7.0960   -4.4430 C   0  0  0  0  0
   13.2260   -7.1490   -4.5240 C   0  0  0  0  0
   12.4310   -6.3120   -3.7540 C   0  0  0  0  0
   12.5930   -8.0300   -5.3910 C   0  0  0  0  0
   11.0650   -6.3470   -3.8370 C   0  0  0  0  0
   11.2160   -8.0750   -5.4810 C   0  0  0  0  0
   10.4540   -7.2310   -4.7030 C   0  0  0  0  0
    9.0840   -7.2660   -4.8000 O   0  0  0  0  0
   14.7670   -5.1760   -1.7450 N   0  0  0  0  0
   15.0070   -3.8140   -1.2990 C   0  0  0  0  0
   14.4390   -3.5570    0.0890 C   0  0  0  0  0
   13.4240   -4.1290    0.4630 O   0  0  0  0  0
   14.4490   -2.7990   -2.3140 C   0  0  0  0  0
   12.9920   -2.9380   -2.6630 C   0  0  0  0  0
   12.0100   -2.8640   -1.6950 C   0  0  0  0  0
   12.6110   -3.1210   -3.9810 C   0  0  0  0  0
   10.6840   -2.9720   -2.0260 C   0  0  0  0  0
   11.2800   -3.2340   -4.3220 C   0  0  0  0  0
   10.3130   -3.1610   -3.3410 C   0  0  0  0  0
   15.1350   -2.7130    0.8450 N   0  0  0  0  0
   14.6950   -2.2530    2.1610 C   0  0  0  0  0
   15.6300   -1.1520    2.6600 C   0  0  0  0  0
   16.6450   -0.8670    2.0250 O   0  0  0  0  0
   14.6220   -3.3940    3.2050 C   0  0  0  0  0
   15.5110   -4.4590    2.8410 O   0  0  0  0  0
   13.2040   -3.9160    3.3170 C   0  0  0  0  0
   15.2860   -0.5350    3.7820 N   0  0  0  0  0
   16.0810    0.5620    4.3280 C   0  0  0  0  0
   16.9440    0.0710    5.4800 C   0  0  0  0  0
   17.2200   -1.1230    5.5880 O   0  0  0  0  0
   15.1770    1.6970    4.7970 C   0  0  0  0  0
   17.3580    0.9970    6.3410 N   0  0  0  0  0
   18.1750    0.6590    7.4990 C   0  0  0  0  0
   17.4570   -0.3530    8.3940 C   0  0  0  0  0
   18.0640   -1.3170    8.8600 O   0  0  0  0  0
   18.5330    1.9200    8.3070 C   0  0  0  0  0
   17.3910    2.4450    9.1610 C   0  0  0  0  0
   16.7430    3.6710    8.5720 C   0  0  0  0  0
   17.4960    4.8810    8.8820 N   0  0  0  0  0
   17.3700    5.5560   10.0270 C   0  0  0  0  0
   16.5510    5.1140   10.9820 N   0  0  0  0  0
   18.0720    6.6630   10.2210 N   0  0  0  0  0
   16.1560   -0.1220    8.5940 N   0  0  0  0  0
   15.3030   -0.9550    9.4380 C   0  0  0  0  0
   15.9730   -1.3150   10.7620 C   0  0  0  0  0
   16.4380   -2.4660   10.9120 O   0  0  0  0  0
   14.8770   -2.2040    8.6740 C   0  0  0  0  0
   13.9280   -1.8840    7.5770 C   0  0  0  0  0
   14.0140   -0.8480    6.7100 C   0  0  0  0  0
   12.7470   -2.5950    7.2410 C   0  0  0  0  0
   12.9470   -0.8610    5.8480 N   0  0  0  0  0
   12.1570   -1.9350    6.1520 C   0  0  0  0  0
   12.1310   -3.7260    7.7540 C   0  0  0  0  0
   10.9800   -2.3780    5.5700 C   0  0  0  0  0
   10.9650   -4.1570    7.1740 C   0  0  0  0  0
   10.4020   -3.4870    6.0930 C   0  0  0  0  0
   16.0370   -0.4340   11.6440 O   0  0  0  0  0
   -0.7463  -19.7309    9.6435 H   0  0  0  0  0
   -1.0269  -18.1862    9.0848 H   0  0  0  0  0
   -1.1914  -19.4870    8.0563 H   0  0  0  0  0
    1.1298  -19.9764    8.1905 H   0  0  0  0  0
    1.3081  -18.5663    9.3055 H   0  0  0  0  0
    2.9451  -18.4333    7.3052 H   0  0  0  0  0
    2.0157  -16.0507    5.9450 H   0  0  0  0  0
    4.2869  -16.0013    6.5270 H   0  0  0  0  0
    4.3525  -16.4166    4.7823 H   0  0  0  0  0
    5.6943  -17.7764    6.0794 H   0  0  0  0  0
    0.2980  -16.5420    4.6388 H   0  0  0  0  0
    0.8038  -18.3299    2.3377 H   0  0  0  0  0
   -1.4416  -17.6397    1.6073 H   0  0  0  0  0
   -1.5440  -16.6034    3.1030 H   0  0  0  0  0
   -2.7292  -18.7249    3.3152 H   0  0  0  0  0
   -1.3331  -18.5619    4.4681 H   0  0  0  0  0
    0.4753  -21.2978    3.1956 H   0  0  0  0  0
    0.5047  -19.8457    4.2015 H   0  0  0  0  0
    1.5332  -15.2208    3.2739 H   0  0  0  0  0
    2.4002  -14.6537    0.4958 H   0  0  0  0  0
    0.3525  -13.3792    0.8239 H   0  0  0  0  0
    1.8415  -12.3138    0.6936 H   0  0  0  0  0
    0.8483  -11.2481    2.3716 H   0  0  0  0  0
    1.6085  -12.5839    3.3420 H   0  0  0  0  0
    0.2503  -13.0330    4.7098 H   0  0  0  0  0
    4.2579  -13.2072    0.4611 H   0  0  0  0  0
    5.9927  -13.6316    2.7607 H   0  0  0  0  0
    7.6251  -12.2858    1.4805 H   0  0  0  0  0
    6.3459  -12.0425    0.2176 H   0  0  0  0  0
    6.3658  -13.4265   -1.1899 H   0  0  0  0  0
    3.7792  -11.2244    1.7051 H   0  0  0  0  0
    2.9976   -9.3250    2.7213 H   0  0  0  0  0
    4.4303  -10.4432    5.1563 H   0  0  0  0  0
    2.7647  -10.8880    4.6145 H   0  0  0  0  0
    2.7801   -9.2979    6.2755 H   0  0  0  0  0
    5.3215   -8.9077    5.1386 H   0  0  0  0  0
    6.2344   -6.4331    3.8741 H   0  0  0  0  0
    5.7883   -6.4694    6.2408 H   0  0  0  0  0
    7.5697   -6.1955    5.9536 H   0  0  0  0  0
    5.6442   -8.9547    6.1522 H   0  0  0  0  0
    7.5836   -9.6164    4.6382 H   0  0  0  0  0
   10.2735   -8.9932    3.8750 H   0  0  0  0  0
   10.5864  -11.3895    3.8216 H   0  0  0  0  0
    8.8148  -11.6466    3.7183 H   0  0  0  0  0
    9.6333  -11.8949    5.8623 H   0  0  0  0  0
    7.4128   -9.5244    2.0891 H   0  0  0  0  0
    8.3657  -10.5277   -0.3880 H   0  0  0  0  0
    6.2528   -8.4088    0.0403 H   0  0  0  0  0
    6.0098  -10.1967    0.3615 H   0  0  0  0  0
    6.6598  -10.4987   -2.0422 H   0  0  0  0  0
    6.3430   -8.7183   -2.2048 H   0  0  0  0  0
    4.2830   -8.1835   -1.4085 H   0  0  0  0  0
    8.4862   -7.3314    1.0080 H   0  0  0  0  0
    9.5761   -6.0844   -1.3893 H   0  0  0  0  0
   10.0046   -4.2171    0.1540 H   0  0  0  0  0
    9.3267   -5.3092    1.5059 H   0  0  0  0  0
    7.7623   -3.6355    0.9163 H   0  0  0  0  0
    8.5174   -3.0749   -1.3118 H   0  0  0  0  0
    7.9917   -4.6660   -1.9142 H   0  0  0  0  0
    6.7866   -3.4932   -1.3283 H   0  0  0  0  0
    7.0184   -6.3393   -0.2076 H   0  0  0  0  0
    6.9171   -5.8266    1.4947 H   0  0  0  0  0
    5.8748   -5.0609    0.2706 H   0  0  0  0  0
   10.6189   -7.0256    1.8248 H   0  0  0  0  0
   13.2329   -6.1082    1.8433 H   0  0  0  0  0
   13.6322   -7.5728    3.6447 H   0  0  0  0  0
   12.3911   -8.7717    3.0055 H   0  0  0  0  0
   10.6315   -7.4223    3.7148 H   0  0  0  0  0
   11.7356   -6.0466    4.0820 H   0  0  0  0  0
   10.6896   -9.0272    5.0859 H   0  0  0  0  0
   11.9317   -8.7613    0.1043 H   0  0  0  0  0
   14.0462  -10.5222   -0.2141 H   0  0  0  0  0
   13.0930  -11.0745   -2.3874 H   0  0  0  0  0
   12.1702   -9.5013   -2.3720 H   0  0  0  0  0
   10.7442  -11.3635   -1.8693 H   0  0  0  0  0
   10.9678  -10.2844   -0.4233 H   0  0  0  0  0
   12.4154  -12.7326    1.6052 H   0  0  0  0  0
   12.0497  -11.0205    1.3682 H   0  0  0  0  0
   13.4639   -7.4871   -1.9643 H   0  0  0  0  0
   16.2288   -7.7703   -3.0393 H   0  0  0  0  0
   15.1162   -7.9563   -4.9952 H   0  0  0  0  0
   15.0440   -6.1292   -4.8427 H   0  0  0  0  0
   12.9050   -5.6106   -3.0674 H   0  0  0  0  0
   13.1929   -8.6967   -6.0104 H   0  0  0  0  0
   10.4622   -5.6792   -3.2215 H   0  0  0  0  0
   10.7342   -8.7746   -6.1640 H   0  0  0  0  0
    8.8267   -7.9314   -5.4424 H   0  0  0  0  0
   13.9055   -5.6525   -1.4783 H   0  0  0  0  0
   16.0872   -3.6829   -1.2345 H   0  0  0  0  0
   15.0000   -2.9617   -3.2403 H   0  0  0  0  0
   14.5586   -1.8173   -1.8532 H   0  0  0  0  0
   12.2932   -2.7176   -0.6527 H   0  0  0  0  0
   13.3726   -3.1764   -4.7588 H   0  0  0  0  0
    9.9221   -2.9084   -1.2491 H   0  0  0  0  0
   10.9928   -3.3805   -5.3632 H   0  0  0  0  0
    9.2592   -3.2524   -3.6041 H   0  0  0  0  0
   16.0253   -2.3674    0.4868 H   0  0  0  0  0
   13.6829   -1.8658    2.0434 H   0  0  0  0  0
   14.9268   -2.9971    4.1733 H   0  0  0  0  0
   15.4556   -5.1586    3.4961 H   0  0  0  0  0
   12.5436   -3.1064    3.6277 H   0  0  0  0  0
   12.8814   -4.2984    2.3486 H   0  0  0  0  0
   13.1705   -4.7175    4.0550 H   0  0  0  0  0
   14.4452   -0.8338    4.2762 H   0  0  0  0  0
   16.7316    0.9384    3.5386 H   0  0  0  0  0
   14.5941    2.0676    3.9538 H   0  0  0  0  0
   14.5043    1.3278    5.5711 H   0  0  0  0  0
   15.7887    2.5041    5.2002 H   0  0  0  0  0
   17.0961    1.9706    6.1861 H   0  0  0  0  0
   19.0981    0.2083    7.1345 H   0  0  0  0  0
   18.7910    2.7018    7.5926 H   0  0  0  0  0
   19.3476    1.6543    8.9808 H   0  0  0  0  0
   17.7979    2.7160   10.1352 H   0  0  0  0  0
   16.6338    1.6636    9.2255 H   0  0  0  0  0
   15.7443    3.7696    8.9975 H   0  0  0  0  0
   16.7101    3.5551    7.4887 H   0  0  0  0  0
   18.1548    5.2306    8.1861 H   0  0  0  0  0
   16.4661    5.6277   11.8591 H   0  0  0  0  0
   16.0094    4.2622   10.8354 H   0  0  0  0  0
   18.7070    6.9978    9.4964 H   0  0  0  0  0
   15.7341    0.6827    8.1304 H   0  0  0  0  0
   14.4148   -0.3760    9.6909 H   0  0  0  0  0
   16.2818   -2.9793   10.1159 H   0  0  0  0  0
   14.3796   -2.8785    9.3710 H   0  0  0  0  0
   15.7663   -2.6572    8.2359 H   0  0  0  0  0
   14.8158   -0.1097    6.6985 H   0  0  0  0  0
   12.5636   -4.2609    8.5995 H   0  0  0  0  0
   10.5357   -1.8544    4.7235 H   0  0  0  0  0
   10.4690   -5.0437    7.5688 H   0  0  0  0  0
    9.4760   -3.8618    5.6569 H   0  0  0  0  0
  1  2  1  0  0  0
  2  3  1  0  0  0
  3  4  2  0  0  0
  3  5  1  0  0  0
  5  6  1  0  0  0
  6  7  1  0  0  0
  6  9  1  0  0  0
  7  8  2  0  0  0
  7 11  1  0  0  0
  9 10  1  0  0  0
 11 12  1  0  0  0
 12 13  1  0  0  0
 12 15  1  0  0  0
 13 14  2  0  0  0
 13 20  1  0  0  0
 15 16  1  0  0  0
 16 17  1  0  0  0
 17 18  2  0  0  0
 17 19  1  0  0  0
 20 21  1  0  0  0
 21 22  1  0  0  0
 21 24  1  0  0  0
 22 23  2  0  0  0
 22 29  1  0  0  0
 24 25  1  0  0  0
 25 26  1  0  0  0
 26 27  2  0  0  0
 26 28  1  0  0  0
 29 30  1  0  0  0
 30 31  1  0  0  0
 30 33  1  0  0  0
 31 32  2  0  0  0
 31 37  1  0  0  0
 33 34  1  0  0  0
 34 35  2  0  0  0
 34 36  1  0  0  0
 37 38  1  0  0  0
 38 39  1  0  0  0
 38 41  1  0  0  0
 39 40  2  0  0  0
 39 43  1  0  0  0
 41 42  1  0  0  0
 43 44  1  0  0  0
 44 45  1  0  0  0
 44 47  1  0  0  0
 45 46  2  0  0  0
 45 51  1  0  0  0
 47 48  1  0  0  0
 48 49  1  0  0  0
 48 50  2  0  0  0
 51 52  1  0  0  0
 52 53  1  0  0  0
 52 55  1  0  0  0
 53 54  2  0  0  0
 53 57  1  0  0  0
 55 56  1  0  0  0
 57 58  1  0  0  0
 58 59  1  0  0  0
 58 61  1  0  0  0
 59 60  2  0  0  0
 59 66  1  0  0  0
 61 62  1  0  0  0
 62 63  1  0  0  0
 63 64  1  0  0  0
 63 65  2  0  0  0
 66 67  1  0  0  0
 67 68  1  0  0  0
 67 70  1  0  0  0
 68 69  2  0  0  0
 68 74  1  0  0  0
 70 71  1  0  0  0
 71 72  1  0  0  0
 71 73  1  0  0  0
 74 75  1  0  0  0
 75 76  1  0  0  0
 75 78  1  0  0  0
 76 77  2  0  0  0
 76 83  1  0  0  0
 78 79  1  0  0  0
 79 80  1  0  0  0
 80 81  1  0  0  0
 80 82  2  0  0  0
 83 84  1  0  0  0
 84 85  1  0  0  0
 84 87  1  0  0  0
 85 86  2  0  0  0
 85 92  1  0  0  0
 87 88  1  0  0  0
 88 89  1  0  0  0
 89 90  2  0  0  0
 89 91  1  0  0  0
 92 93  1  0  0  0
 93 94  1  0  0  0
 93 96  1  0  0  0
 94 95  2  0  0  0
 94104  1  0  0  0
 96 97  1  0  0  0
 97 98  4  0  0  0
 97 99  4  0  0  0
 98100  4  0  0  0
 99101  4  0  0  0
100102  4  0  0  0
101102  4  0  0  0
102103  1  0  0  0
104105  1  0  0  0
105106  1  0  0  0
105108  1  0  0  0
106107  2  0  0  0
106115  1  0  0  0
108109  1  0  0  0
109110  4  0  0  0
109111  4  0  0  0
110112  4  0  0  0
111113  4  0  0  0
112114  4  0  0  0
113114  4  0  0  0
115116  1  0  0  0
116117  1  0  0  0
116119  1  0  0  0
117118  2  0  0  0
117122  1  0  0  0
119120  1  0  0  0
119121  1  0  0  0
122123  1  0  0  0
123124  1  0  0  0
123126  1  0  0  0
124125  2  0  0  0
124127  1  0  0  0
127128  1  0  0  0
128129  1  0  0  0
128131  1  0  0  0
129130  2  0  0  0
129138  1  0  0  0
131132  1  0  0  0
132133  1  0  0  0
133134  1  0  0  0
134135  1  0  0  0
135136  1  0  0  0
135137  2  0  0  0
138139  1  0  0  0
139140  1  0  0  0
139142  1  0  0  0
140141  1  0  0  0
140152  2  0  0  0
142143  1  0  0  0
143144  4  0  0  0
143145  4  0  0  0
144146  4  0  0  0
145147  4  0  0  0
145148  4  0  0  0
146147  4  0  0  0
147149  4  0  0  0
148150  4  0  0  0
149151  4  0  0  0
150151  4  0  0  0
  1153  1  0  0  0
  1154  1  0  0  0
  1155  1  0  0  0
  2156  1  0  0  0
  2157  1  0  0  0
  5158  1  0  0  0
  6159  1  0  0  0
  9160  1  0  0  0
  9161  1  0  0  0
 10162  1  0  0  0
 11163  1  0  0  0
 12164  1  0  0  0
 15165  1  0  0  0
 15166  1  0  0  0
 16167  1  0  0  0
 16168  1  0  0  0
 19169  1  0  0  0
 19170  1  0  0  0
 20171  1  0  0  0
 21172  1  0  0  0
 24173  1  0  0  0
 24174  1  0  0  0
 25175  1  0  0  0
 25176  1  0  0  0
 28177  1  0  0  0
 29178  1  0  0  0
 30179  1  0  0  0
 33180  1  0  0  0
 33181  1  0  0  0
 36182  1  0  0  0
 37183  1  0  0  0
 38184  1  0  0  0
 41185  1  0  0  0
 41186  1  0  0  0
 42187  1  0  0  0
 43188  1  0  0  0
 44189  1  0  0  0
 47190  1  0  0  0
 47191  1  0  0  0
 49192  1  0  0  0
 51193  1  0  0  0
 52194  1  0  0  0
 55195  1  0  0  0
 55196  1  0  0  0
 56197  1  0  0  0
 57198  1  0  0  0
 58199  1  0  0  0
 61200  1  0  0  0
 61201  1  0  0  0
 62202  1  0  0  0
 62203  1  0  0  0
 64204  1  0  0  0
 66205  1  0  0  0
 67206  1  0  0  0
 70207  1  0  0  0
 70208  1  0  0  0
 71209  1  0  0  0
 72210  1  0  0  0
 72211  1  0  0  0
 72212  1  0  0  0
 73213  1  0  0  0
 73214  1  0  0  0
 73215  1  0  0  0
 74216  1  0  0  0
 75217  1  0  0  0
 78218  1  0  0  0
 78219  1  0  0  0
 79220  1  0  0  0
 79221  1  0  0  0
 81222  1  0  0  0
 83223  1  0  0  0
 84224  1  0  0  0
 87225  1  0  0  0
 87226  1  0  0  0
 88227  1  0  0  0
 88228  1  0  0  0
 91229  1  0  0  0
 91230  1  0  0  0
 92231  1  0  0  0
 93232  1  0  0  0
 96233  1  0  0  0
 96234  1  0  0  0
 98235  1  0  0  0
 99236  1  0  0  0
100237  1  0  0  0
101238  1  0  0  0
103239  1  0  0  0
104240  1  0  0  0
105241  1  0  0  0
108242  1  0  0  0
108243  1  0  0  0
110244  1  0  0  0
111245  1  0  0  0
112246  1  0  0  0
113247  1  0  0  0
114248  1  0  0  0
115249  1  0  0  0
116250  1  0  0  0
119251  1  0  0  0
120252  1  0  0  0
121253  1  0  0  0
121254  1  0  0  0
121255  1  0  0  0
122256  1  0  0  0
123257  1  0  0  0
126258  1  0  0  0
126259  1  0  0  0
126260  1  0  0  0
127261  1  0  0  0
128262  1  0  0  0
131263  1  0  0  0
131264  1  0  0  0
132265  1  0  0  0
132266  1  0  0  0
133267  1  0  0  0
133268  1  0  0  0
134269  1  0  0  0
136270  1  0  0  0
136271  1  0  0  0
137272  1  0  0  0
138273  1  0  0  0
139274  1  0  0  0
141275  1  0  0  0
142276  1  0  0  0
142277  1  0  0  0
144278  1  0  0  0
148279  1  0  0  0
149280  1  0  0  0
150281  1  0  0  0
151282  1  0  0  0
M  END
$$$$
