### 
### Created by X-TOOL on Mon Sep 10 21:13:05 2018
### 

@<TRIPOS>MOLECULE
2kzu_ligand
  278   281     1     0     0
SMALL
GAST_HUCK


@<TRIPOS>ATOM
      1 N          -0.6620  -19.1070    8.8410 N.4       1 GLY         0.2357
      2 CA          0.7630  -18.9860    8.4600 C.3       1 GLY         0.0545
      3 C           0.9540  -18.0700    7.2710 C.2       1 GLY         0.2237
      4 O          -0.0160  -17.5270    6.7370 O.2       1 GLY        -0.3910
      5 N           2.1990  -17.9040    6.8540 N.am      1 SER        -0.2591
      6 CA          2.5380  -16.9920    5.7740 C.3       1 SER         0.1540
      7 C           2.0710  -17.5100    4.4120 C.2       1 SER         0.2062
      8 O           2.7580  -18.2950    3.7600 O.2       1 SER        -0.3943
      9 CB          4.0500  -16.7530    5.7740 C.3       1 SER         0.0843
     10 OG          4.7500  -17.9490    6.0850 O.3       1 SER        -0.3903
     11 N           0.8810  -17.0840    4.0010 N.am      1 GLN        -0.2635
     12 CA          0.3900  -17.3740    2.6590 C.3       1 GLN         0.1330
     13 C           0.8480  -16.2870    1.6970 C.2       1 GLN         0.2040
     14 O           0.5920  -16.3450    0.4930 O.2       1 GLN        -0.3944
     15 CB         -1.1340  -17.5030    2.6440 C.3       1 GLN         0.0045
     16 CG         -1.6460  -18.6910    3.4320 C.3       1 GLN         0.0412
     17 CD         -1.0860  -20.0150    2.9410 C.2       1 GLN         0.1737
     18 OE1        -1.6690  -20.6700    2.0770 O.2       1 GLN        -0.3973
     19 NE2         0.0520  -20.4170    3.4880 N.am      1 GLN        -0.3009
     20 N           1.5010  -15.2780    2.2560 N.am      1 GLU        -0.2636
     21 CA          2.1690  -14.2560    1.4840 C.3       1 GLU         0.1325
     22 C           3.4480  -13.8590    2.2060 C.2       1 GLU         0.2041
     23 O           3.5690  -14.0560    3.4180 O.2       1 GLU        -0.3944
     24 CB          1.2740  -13.0290    1.2890 C.3       1 GLU        -0.0008
     25 CG          0.8780  -12.3180    2.5780 C.3       1 GLU         0.0044
     26 CD         -0.4870  -12.7280    3.0830 C.2       1 GLU         0.0350
     27 OE1        -1.4510  -12.6940    2.2910 O.co2     1 GLU        -0.5690
     28 OE2        -0.6060  -13.0770    4.2780 O.co2     1 GLU        -0.5690
     29 N           4.4030  -13.3150    1.4650 N.am      1 ASP        -0.2622
     30 CA          5.6570  -12.8680    2.0590 C.3       1 ASP         0.1423
     31 C           5.4440  -11.5640    2.8110 C.2       1 ASP         0.2057
     32 O           6.2650  -11.1730    3.6410 O.2       1 ASP        -0.3943
     33 CB          6.7400  -12.6970    0.9950 C.3       1 ASP         0.0406
     34 CG          7.1320  -14.0100    0.3450 C.2       1 ASP         0.0393
     35 OD1         7.7370  -14.8600    1.0280 O.co2     1 ASP        -0.5688
     36 OD2         6.8230  -14.2000   -0.8520 O.co2     1 ASP        -0.5688
     37 N           4.3370  -10.8950    2.4930 N.am      1 SER        -0.2615
     38 CA          3.8860   -9.7150    3.2180 C.3       1 SER         0.1539
     39 C           4.9190   -8.5900    3.1860 C.2       1 SER         0.2063
     40 O           5.1320   -7.9590    2.1550 O.2       1 SER        -0.3943
     41 CB          3.5230  -10.1060    4.6550 C.3       1 SER         0.0843
     42 OG          2.9940   -9.0130    5.3840 O.3       1 SER        -0.3903
     43 N           5.5500   -8.3480    4.3170 N.am      1 ASP        -0.2621
     44 CA          6.5610   -7.3100    4.4330 C.3       1 ASP         0.1423
     45 C           7.8760   -7.7840    3.8330 C.2       1 ASP         0.2057
     46 O           8.5480   -7.0460    3.1120 O.2       1 ASP        -0.3943
     47 CB          6.7350   -6.8950    5.9080 C.3       1 ASP         0.0406
     48 CG          7.0630   -8.0560    6.8350 C.2       1 ASP         0.0393
     49 OD1         6.3350   -9.0740    6.8080 O.co2     1 ASP        -0.5688
     50 OD2         8.0410   -7.9520    7.6050 O.co2     1 ASP        -0.5688
     51 N           8.2070   -9.0380    4.0750 N.am      1 SER        -0.2615
     52 CA          9.4370   -9.6170    3.5600 C.3       1 SER         0.1539
     53 C           9.4280   -9.6570    2.0380 C.2       1 SER         0.2062
     54 O          10.4750   -9.7270    1.4000 O.2       1 SER        -0.3943
     55 CB          9.6070  -11.0110    4.1140 C.3       1 SER         0.0843
     56 OG          9.5230  -11.0010    5.5300 O.3       1 SER        -0.3903
     57 N           8.2280   -9.5850    1.4790 N.am      1 GLU        -0.2636
     58 CA          8.0140   -9.5880    0.0380 C.3       1 GLU         0.1325
     59 C           8.8070   -8.4630   -0.6290 C.2       1 GLU         0.2040
     60 O           9.2800   -8.5920   -1.7580 O.2       1 GLU        -0.3944
     61 CB          6.5190   -9.4320   -0.2250 C.3       1 GLU        -0.0008
     62 CG          6.1150   -9.6350   -1.6610 C.3       1 GLU         0.0044
     63 CD          4.6290   -9.9140   -1.8210 C.2       1 GLU         0.0350
     64 OE1         3.8100   -8.9850   -1.6440 O.co2     1 GLU        -0.5690
     65 OE2         4.2760  -11.0680   -2.1370 O.co2     1 GLU        -0.5690
     66 N           8.9510   -7.3720    0.1010 N.am      1 LEU        -0.2637
     67 CA          9.7350   -6.2310   -0.3210 C.3       1 LEU         0.1312
     68 C          11.1990   -6.4730   -0.0250 C.2       1 LEU         0.2039
     69 O          12.0760   -6.2970   -0.8710 O.2       1 LEU        -0.3944
     70 CB          9.3170   -5.0060    0.4590 C.3       1 LEU        -0.0101
     71 CG          7.9190   -4.4490    0.2080 C.3       1 LEU        -0.0425
     72 CD1         7.7950   -3.8810   -1.1840 C.3       1 LEU        -0.0625
     73 CD2         6.8580   -5.4920    0.4590 C.3       1 LEU        -0.0625
     74 N          11.4240   -6.8670    1.2190 N.am      1 GLU        -0.2636
     75 CA         12.7620   -7.0890    1.7780 C.3       1 GLU         0.1325
     76 C          13.6200   -7.9830    0.8920 C.2       1 GLU         0.2040
     77 O          14.8500   -7.9340    0.9540 O.2       1 GLU        -0.3944
     78 CB         12.6680   -7.7290    3.1610 C.3       1 GLU        -0.0008
     79 CG         11.6160   -7.1300    4.0800 C.3       1 GLU         0.0044
     80 CD         11.7700   -7.6340    5.5050 C.2       1 GLU         0.0350
     81 OE1        11.1970   -8.6970    5.8310 O.co2     1 GLU        -0.5690
     82 OE2        12.4980   -6.9940    6.2930 O.co2     1 GLU        -0.5690
     83 N          12.9510   -8.7940    0.0880 N.am      1 GLN        -0.2636
     84 CA         13.6020   -9.7340   -0.8220 C.3       1 GLN         0.1330
     85 C          14.6950   -9.0590   -1.6270 C.2       1 GLN         0.2042
     86 O          15.8010   -9.5810   -1.7610 O.2       1 GLN        -0.3944
     87 CB         12.5800  -10.3240   -1.7860 C.3       1 GLN         0.0045
     88 CG         11.4270  -11.0070   -1.0980 C.3       1 GLN         0.0412
     89 CD         11.8540  -12.2010   -0.2730 C.2       1 GLN         0.1737
     90 OE1        11.9320  -13.3260   -0.7710 O.2       1 GLN        -0.3973
     91 NE2        12.1270  -11.9670    0.9960 N.am      1 GLN        -0.3009
     92 N          14.3770   -7.8970   -2.1610 N.am      1 TYR        -0.2621
     93 CA         15.3050   -7.1920   -3.0240 C.3       1 TYR         0.1390
     94 C          15.6630   -5.8040   -2.4980 C.2       1 TYR         0.2059
     95 O          16.7600   -5.3050   -2.7630 O.2       1 TYR        -0.3942
     96 CB         14.7380   -7.0960   -4.4430 C.3       1 TYR         0.0163
     97 CG         13.2260   -7.1490   -4.5240 C.ar      1 TYR        -0.0493
     98 CD1        12.4310   -6.3120   -3.7540 C.ar      1 TYR        -0.0685
     99 CD2        12.5930   -8.0300   -5.3910 C.ar      1 TYR        -0.0685
    100 CE1        11.0650   -6.3470   -3.8370 C.ar      1 TYR        -0.0398
    101 CE2        11.2160   -8.0750   -5.4810 C.ar      1 TYR        -0.0398
    102 CZ         10.4540   -7.2310   -4.7030 C.ar      1 TYR         0.0805
    103 OH          9.0840   -7.2660   -4.8000 O.3       1 TYR        -0.3376
    104 N          14.7670   -5.1760   -1.7450 N.am      1 PHE        -0.2618
    105 CA         15.0070   -3.8140   -1.2990 C.3       1 PHE         0.1404
    106 C          14.4390   -3.5570    0.0890 C.2       1 PHE         0.2060
    107 O          13.4240   -4.1290    0.4630 O.2       1 PHE        -0.3942
    108 CB         14.4490   -2.7990   -2.3140 C.3       1 PHE         0.0214
    109 CG         12.9920   -2.9380   -2.6630 C.ar      1 PHE        -0.0386
    110 CD1        12.0100   -2.8640   -1.6950 C.ar      1 PHE        -0.0601
    111 CD2        12.6110   -3.1210   -3.9810 C.ar      1 PHE        -0.0601
    112 CE1        10.6840   -2.9720   -2.0260 C.ar      1 PHE        -0.0686
    113 CE2        11.2800   -3.2340   -4.3220 C.ar      1 PHE        -0.0686
    114 CZ         10.3130   -3.1610   -3.3410 C.ar      1 PHE        -0.0687
    115 N          15.1350   -2.7130    0.8450 N.am      1 THR        -0.2612
    116 CA         14.6950   -2.2530    2.1610 C.3       1 THR         0.1565
    117 C          15.6300   -1.1520    2.6600 C.2       1 THR         0.2065
    118 O          16.6450   -0.8670    2.0250 O.2       1 THR        -0.3943
    119 CB         14.6220   -3.3940    3.2050 C.3       1 THR         0.0924
    120 OG1        15.5110   -4.4590    2.8410 O.3       1 THR        -0.3874
    121 CG2        13.2040   -3.9160    3.3170 C.3       1 THR        -0.0346
    122 N          15.2860   -0.5350    3.7820 N.am      1 ALA        -0.2639
    123 CA         16.0810    0.5620    4.3280 C.3       1 ALA         0.1282
    124 C          16.9440    0.0710    5.4800 C.2       1 ALA         0.2036
    125 O          17.2200   -1.1230    5.5880 O.2       1 ALA        -0.3944
    126 CB         15.1770    1.6970    4.7970 C.3       1 ALA        -0.0244
    127 N          17.3580    0.9970    6.3410 N.am      1 ARG        -0.2637
    128 CA         18.1750    0.6590    7.4990 C.3       1 ARG         0.1311
    129 C          17.4570   -0.3530    8.3940 C.2       1 ARG         0.2034
    130 O          18.0640   -1.3170    8.8600 O.2       1 ARG        -0.3944
    131 CB         18.5330    1.9200    8.3070 C.3       1 ARG        -0.0092
    132 CG         17.3910    2.4450    9.1610 C.3       1 ARG        -0.0156
    133 CD         16.7430    3.6710    8.5720 C.3       1 ARG         0.0627
    134 NE         17.4960    4.8810    8.8820 N.pl3     1 ARG        -0.2723
    135 CZ         17.3700    5.5560   10.0270 C.cat     1 ARG         0.2882
    136 NH1        16.5510    5.1140   10.9820 N.pl3     1 ARG        -0.2849
    137 NH2        18.0720    6.6630   10.2210 N.pl3     1 ARG        -0.2849
    138 N          16.1560   -0.1220    8.5940 N.am      1 TRP        -0.2684
    139 CA         15.3030   -0.9550    9.4380 C.3       1 TRP         0.0986
    140 C          15.9730   -1.3150   10.7620 C.2       1 TRP         0.0613
    141 O          16.4380   -2.4660   10.9120 O.co2     1 TRP        -0.5665
    142 CB         14.8770   -2.2040    8.6740 C.3       1 TRP        -0.0013
    143 CG         13.9280   -1.8840    7.5770 C.2       1 TRP        -0.0424
    144 CD1        14.0140   -0.8480    6.7100 C.2       1 TRP         0.0166
    145 CD2        12.7470   -2.5950    7.2410 C.ar      1 TRP        -0.0214
    146 NE1        12.9470   -0.8610    5.8480 N.pl3     1 TRP        -0.2891
    147 CE2        12.1570   -1.9350    6.1520 C.ar      1 TRP         0.0603
    148 CE3        12.1310   -3.7260    7.7540 C.ar      1 TRP        -0.0747
    149 CZ2        10.9800   -2.3780    5.5700 C.ar      1 TRP        -0.0443
    150 CZ3        10.9650   -4.1570    7.1740 C.ar      1 TRP        -0.0792
    151 CH2        10.4020   -3.4870    6.0930 C.ar      1 TRP        -0.0768
    152 OXT        16.0370   -0.4340   11.6440 O.co2     1 TRP        -0.5665
    153 H1         -0.7466  -19.7234    9.6341 H         1 GLY         0.2012
    154 H2         -1.1863  -19.4825    8.0663 H         1 GLY         0.2012
    155 H3         -1.0237  -18.1976    9.0822 H         1 GLY         0.2012
    156 H4          1.1489  -19.9841    8.2054 H         1 GLY         0.1061
    157 H5          1.3263  -18.5820    9.3141 H         1 GLY         0.1061
    158 H6          2.9305  -18.4229    7.2963 H         1 SER         0.1885
    159 H7          2.0330  -16.0331    5.9624 H         1 SER         0.0823
    160 H8          4.2940  -15.9869    6.5247 H         1 SER         0.0606
    161 H9          4.3597  -16.4025    4.7784 H         1 SER         0.0606
    162 H10         4.5444  -18.6126    5.4370 H         1 SER         0.2097
    163 H11         0.3095  -16.5526    4.6263 H         1 GLN         0.1883
    164 H12         0.8192  -18.3326    2.3320 H         1 GLN         0.0801
    165 H13        -1.4645  -17.6087    1.6002 H         1 GLN         0.0337
    166 H14        -1.5655  -16.5873    3.0744 H         1 GLN         0.0337
    167 H15        -2.7423  -18.7214    3.3477 H         1 GLN         0.0504
    168 H16        -1.3628  -18.5603    4.4868 H         1 GLN         0.0504
    169 H17         0.4662  -21.2813    3.2024 H         1 GLN         0.1814
    170 H18         0.4967  -19.8561    4.1864 H         1 GLN         0.1814
    171 H19         1.5325  -15.2219    3.2539 H         1 GLU         0.1883
    172 H20         2.4242  -14.6655    0.4955 H         1 GLU         0.0801
    173 H21         0.3543  -13.3532    0.7801 H         1 GLU         0.0330
    174 H22         1.8114  -12.3105    0.6527 H         1 GLU         0.0330
    175 H23         0.8721  -11.2337    2.3928 H         1 GLU         0.0433
    176 H24         1.6234  -12.5538    3.3518 H         1 GLU         0.0433
    177 H25         4.2607  -13.2093    0.4808 H         1 ASP         0.1884
    178 H26         5.9934  -13.6328    2.7745 H         1 ASP         0.0819
    179 H27         7.6312  -12.2578    1.4669 H         1 ASP         0.0478
    180 H28         6.3645  -12.0168    0.2163 H         1 ASP         0.0478
    181 H29         3.7901  -11.2179    1.7206 H         1 SER         0.1884
    182 H30         2.9754   -9.3426    2.7259 H         1 SER         0.0823
    183 H31         4.4284  -10.4678    5.1643 H         1 SER         0.0606
    184 H32         2.7727  -10.9099    4.6257 H         1 SER         0.0606
    185 H33         2.2078   -8.6977    4.9539 H         1 SER         0.2097
    186 H34         5.3260   -8.8967    5.1225 H         1 ASP         0.1884
    187 H35         6.2221   -6.4303    3.8663 H         1 ASP         0.0819
    188 H36         5.7987   -6.4306    6.2510 H         1 ASP         0.0478
    189 H37         7.5520   -6.1609    5.9683 H         1 ASP         0.0478
    190 H38         7.5958   -9.6051    4.6271 H         1 SER         0.1884
    191 H39        10.2838   -8.9969    3.8894 H         1 SER         0.0823
    192 H40        10.5903  -11.4017    3.8133 H         1 SER         0.0606
    193 H41         8.8156  -11.6593    3.7099 H         1 SER         0.0606
    194 H42        10.2071  -10.4441    5.8828 H         1 SER         0.2097
    195 H43         7.4288   -9.5256    2.0772 H         1 GLU         0.1883
    196 H44         8.3534  -10.5494   -0.3750 H         1 GLU         0.0801
    197 H45         6.2210   -8.4168    0.0758 H         1 GLU         0.0330
    198 H46         5.9827  -10.1692    0.3906 H         1 GLU         0.0330
    199 H47         6.6785  -10.4878   -2.0675 H         1 GLU         0.0433
    200 H48         6.3651   -8.7264   -2.2283 H         1 GLU         0.0433
    201 H49         8.4953   -7.3322    0.9903 H         1 LEU         0.1883
    202 H50         9.5899   -6.0617   -1.3982 H         1 LEU         0.0800
    203 H51        10.0359   -4.2068    0.2258 H         1 LEU         0.0315
    204 H52         9.3832   -5.2584    1.5276 H         1 LEU         0.0315
    205 H53         7.7554   -3.6271    0.9206 H         1 LEU         0.0298
    206 H54         6.7777   -3.4892   -1.3308 H         1 LEU         0.0232
    207 H55         7.9932   -4.6723   -1.9219 H         1 LEU         0.0232
    208 H56         8.5236   -3.0673   -1.3143 H         1 LEU         0.0232
    209 H57         6.9692   -5.8902    1.4783 H         1 LEU         0.0232
    210 H58         6.9685   -6.3099   -0.2682 H         1 LEU         0.0232
    211 H59         5.8628   -5.0363    0.3500 H         1 LEU         0.0232
    212 H60        10.6346   -7.0225    1.8129 H         1 GLU         0.1883
    213 H61        13.2583   -6.1119    1.8720 H         1 GLU         0.0801
    214 H62        13.6472   -7.6255    3.6514 H         1 GLU         0.0330
    215 H63        12.4357   -8.7959    3.0274 H         1 GLU         0.0330
    216 H64        10.6180   -7.4063    3.7090 H         1 GLU         0.0433
    217 H65        11.7188   -6.0348    4.0751 H         1 GLU         0.0433
    218 H66        11.9516   -8.7620    0.1040 H         1 GLN         0.1883
    219 H67        14.0474  -10.5455   -0.2279 H         1 GLN         0.0801
    220 H68        13.0892  -11.0603   -2.4251 H         1 GLN         0.0337
    221 H69        12.1805   -9.5109   -2.4099 H         1 GLN         0.0337
    222 H70        10.7137  -11.3469   -1.8633 H         1 GLN         0.0504
    223 H71        10.9347  -10.2807   -0.4346 H         1 GLN         0.0504
    224 H72        12.4146  -12.7167    1.5921 H         1 GLN         0.1814
    225 H73        12.0464  -11.0399    1.3621 H         1 GLN         0.1814
    226 H74        13.4818   -7.4951   -1.9681 H         1 TYR         0.1885
    227 H75        16.2332   -7.7807   -3.0663 H         1 TYR         0.0821
    228 H76        15.1424   -7.9329   -5.0312 H         1 TYR         0.0453
    229 H77        15.0717   -6.1442   -4.8820 H         1 TYR         0.0453
    230 H78        12.9024   -5.6145   -3.0711 H         1 TYR         0.0530
    231 H79        13.1896   -8.6930   -6.0070 H         1 TYR         0.0530
    232 H80        10.4655   -5.6829   -3.2249 H         1 TYR         0.0525
    233 H81        10.7369   -8.7708   -6.1603 H         1 TYR         0.0525
    234 H82         8.7090   -6.6288   -4.2034 H         1 TYR         0.2458
    235 H83        13.9224   -5.6432   -1.4835 H         1 PHE         0.1885
    236 H84        16.0962   -3.6703   -1.2436 H         1 PHE         0.0823
    237 H85        15.0277   -2.9020   -3.2438 H         1 PHE         0.0474
    238 H86        14.5994   -1.7918   -1.8982 H         1 PHE         0.0474
    239 H87        12.2917   -2.7184   -0.6584 H         1 PHE         0.0557
    240 H88        13.3684   -3.1761   -4.7545 H         1 PHE         0.0557
    241 H89         9.9263   -2.9088   -1.2534 H         1 PHE         0.0599
    242 H90        10.9943   -3.3797   -5.3575 H         1 PHE         0.0599
    243 H91         9.2650   -3.2519   -3.6027 H         1 PHE         0.0559
    244 H92        16.0078   -2.3742    0.4938 H         1 THR         0.1884
    245 H93        13.6852   -1.8307    2.0515 H         1 THR         0.0826
    246 H94        14.9297   -2.9961    4.1833 H         1 THR         0.0639
    247 H95        15.2628   -4.8002    1.9899 H         1 THR         0.2101
    248 H96        13.1688   -4.7249    4.0616 H         1 THR         0.0257
    249 H97        12.8772   -4.3023    2.3403 H         1 THR         0.0257
    250 H98        12.5365   -3.0999    3.6306 H         1 THR         0.0257
    251 H99        14.4617   -0.8280    4.2665 H         1 ALA         0.1883
    252 H100       16.7399    0.9442    3.5344 H         1 ALA         0.0797
    253 H101       15.7932    2.5122    5.2041 H         1 ALA         0.0277
    254 H102       14.4976    1.3257    5.5783 H         1 ALA         0.0277
    255 H103       14.5882    2.0720    3.9469 H         1 ALA         0.0277
    256 H104       17.1013    1.9515    6.1891 H         1 ARG         0.1883
    257 H105       19.1087    0.2021    7.1391 H         1 ARG         0.0800
    258 H106       18.8312    2.7104    7.6025 H         1 ARG         0.0313
    259 H107       19.3787    1.6799    8.9682 H         1 ARG         0.0313
    260 H108       17.7834    2.6980   10.1570 H         1 ARG         0.0301
    261 H109       16.6306    1.6559    9.2561 H         1 ARG         0.0301
    262 H110       15.7268    3.7688    8.9817 H         1 ARG         0.0689
    263 H111       16.6884    3.5553    7.4795 H         1 ARG         0.0689
    264 H112       18.1612    5.2340    8.1793 H         1 ARG         0.2642
    265 H113       16.4574    5.6384   11.8635 H         1 ARG         0.2615
    266 H114       16.0120    4.2481   10.8381 H         1 ARG         0.2615
    267 H115       18.7054    7.0068    9.4851 H         1 ARG         0.2615
    268 H116       17.9843    7.1797   11.1077 H         1 ARG         0.2615
    269 H117       15.7424    0.6669    8.1395 H         1 TRP         0.1876
    270 H118       14.3973   -0.3768    9.6731 H         1 TRP         0.0741
    271 H119       14.3909   -2.9004    9.3731 H         1 TRP         0.0390
    272 H120       15.7705   -2.6802    8.2440 H         1 TRP         0.0390
    273 H121       14.8150   -0.1103    6.6985 H         1 TRP         0.0795
    274 H122       12.7706   -0.1772    5.0982 H         1 TRP         0.2216
    275 H123       12.5612   -4.2580    8.5948 H         1 TRP         0.0540
    276 H124       10.5381   -1.8573    4.7282 H         1 TRP         0.0541
    277 H125       10.4717   -5.0388    7.5667 H         1 TRP         0.0510
    278 H126        9.4811   -3.8597    5.6593 H         1 TRP         0.0530
@<TRIPOS>BOND
     1    1    2 1  
     2    2    3 1  
     3    3    4 2  
     4    3    5 am 
     5    5    6 1  
     6    6    7 1  
     7    6    9 1  
     8    7    8 2  
     9    7   11 am 
    10    9   10 1  
    11   11   12 1  
    12   12   13 1  
    13   12   15 1  
    14   13   14 2  
    15   13   20 am 
    16   15   16 1  
    17   16   17 1  
    18   17   18 2  
    19   17   19 am 
    20   20   21 1  
    21   21   22 1  
    22   21   24 1  
    23   22   23 2  
    24   22   29 am 
    25   24   25 1  
    26   25   26 1  
    27   26   27 ar 
    28   26   28 ar 
    29   29   30 1  
    30   30   31 1  
    31   30   33 1  
    32   31   32 2  
    33   31   37 am 
    34   33   34 1  
    35   34   35 ar 
    36   34   36 ar 
    37   37   38 1  
    38   38   39 1  
    39   38   41 1  
    40   39   40 2  
    41   39   43 am 
    42   41   42 1  
    43   43   44 1  
    44   44   45 1  
    45   44   47 1  
    46   45   46 2  
    47   45   51 am 
    48   47   48 1  
    49   48   49 ar 
    50   48   50 ar 
    51   51   52 1  
    52   52   53 1  
    53   52   55 1  
    54   53   54 2  
    55   53   57 am 
    56   55   56 1  
    57   57   58 1  
    58   58   59 1  
    59   58   61 1  
    60   59   60 2  
    61   59   66 am 
    62   61   62 1  
    63   62   63 1  
    64   63   64 ar 
    65   63   65 ar 
    66   66   67 1  
    67   67   68 1  
    68   67   70 1  
    69   68   69 2  
    70   68   74 am 
    71   70   71 1  
    72   71   72 1  
    73   71   73 1  
    74   74   75 1  
    75   75   76 1  
    76   75   78 1  
    77   76   77 2  
    78   76   83 am 
    79   78   79 1  
    80   79   80 1  
    81   80   81 ar 
    82   80   82 ar 
    83   83   84 1  
    84   84   85 1  
    85   84   87 1  
    86   85   86 2  
    87   85   92 am 
    88   87   88 1  
    89   88   89 1  
    90   89   90 2  
    91   89   91 am 
    92   92   93 1  
    93   93   94 1  
    94   93   96 1  
    95   94   95 2  
    96   94  104 am 
    97   96   97 1  
    98   97   98 ar 
    99   97   99 ar 
   100   98  100 ar 
   101   99  101 ar 
   102  100  102 ar 
   103  101  102 ar 
   104  102  103 1  
   105  104  105 1  
   106  105  106 1  
   107  105  108 1  
   108  106  107 2  
   109  106  115 am 
   110  108  109 1  
   111  109  110 ar 
   112  109  111 ar 
   113  110  112 ar 
   114  111  113 ar 
   115  112  114 ar 
   116  113  114 ar 
   117  115  116 1  
   118  116  117 1  
   119  116  119 1  
   120  117  118 2  
   121  117  122 am 
   122  119  120 1  
   123  119  121 1  
   124  122  123 1  
   125  123  124 1  
   126  123  126 1  
   127  124  125 2  
   128  124  127 am 
   129  127  128 1  
   130  128  129 1  
   131  128  131 1  
   132  129  130 2  
   133  129  138 am 
   134  131  132 1  
   135  132  133 1  
   136  133  134 1  
   137  134  135 ar 
   138  135  136 ar 
   139  135  137 ar 
   140  138  139 1  
   141  139  140 1  
   142  139  142 1  
   143  140  141 ar 
   144  140  152 ar 
   145  142  143 1  
   146  143  144 2  
   147  143  145 1  
   148  144  146 1  
   149  145  147 ar 
   150  145  148 ar 
   151  146  147 1  
   152  147  149 ar 
   153  148  150 ar 
   154  149  151 ar 
   155  150  151 ar 
   156    1  153 1  
   157    1  154 1  
   158    1  155 1  
   159    2  156 1  
   160    2  157 1  
   161    5  158 1  
   162    6  159 1  
   163    9  160 1  
   164    9  161 1  
   165   10  162 1  
   166   11  163 1  
   167   12  164 1  
   168   15  165 1  
   169   15  166 1  
   170   16  167 1  
   171   16  168 1  
   172   19  169 1  
   173   19  170 1  
   174   20  171 1  
   175   21  172 1  
   176   24  173 1  
   177   24  174 1  
   178   25  175 1  
   179   25  176 1  
   180   29  177 1  
   181   30  178 1  
   182   33  179 1  
   183   33  180 1  
   184   37  181 1  
   185   38  182 1  
   186   41  183 1  
   187   41  184 1  
   188   42  185 1  
   189   43  186 1  
   190   44  187 1  
   191   47  188 1  
   192   47  189 1  
   193   51  190 1  
   194   52  191 1  
   195   55  192 1  
   196   55  193 1  
   197   56  194 1  
   198   57  195 1  
   199   58  196 1  
   200   61  197 1  
   201   61  198 1  
   202   62  199 1  
   203   62  200 1  
   204   66  201 1  
   205   67  202 1  
   206   70  203 1  
   207   70  204 1  
   208   71  205 1  
   209   72  206 1  
   210   72  207 1  
   211   72  208 1  
   212   73  209 1  
   213   73  210 1  
   214   73  211 1  
   215   74  212 1  
   216   75  213 1  
   217   78  214 1  
   218   78  215 1  
   219   79  216 1  
   220   79  217 1  
   221   83  218 1  
   222   84  219 1  
   223   87  220 1  
   224   87  221 1  
   225   88  222 1  
   226   88  223 1  
   227   91  224 1  
   228   91  225 1  
   229   92  226 1  
   230   93  227 1  
   231   96  228 1  
   232   96  229 1  
   233   98  230 1  
   234   99  231 1  
   235  100  232 1  
   236  101  233 1  
   237  103  234 1  
   238  104  235 1  
   239  105  236 1  
   240  108  237 1  
   241  108  238 1  
   242  110  239 1  
   243  111  240 1  
   244  112  241 1  
   245  113  242 1  
   246  114  243 1  
   247  115  244 1  
   248  116  245 1  
   249  119  246 1  
   250  120  247 1  
   251  121  248 1  
   252  121  249 1  
   253  121  250 1  
   254  122  251 1  
   255  123  252 1  
   256  126  253 1  
   257  126  254 1  
   258  126  255 1  
   259  127  256 1  
   260  128  257 1  
   261  131  258 1  
   262  131  259 1  
   263  132  260 1  
   264  132  261 1  
   265  133  262 1  
   266  133  263 1  
   267  134  264 1  
   268  136  265 1  
   269  136  266 1  
   270  137  267 1  
   271  137  268 1  
   272  138  269 1  
   273  139  270 1  
   274  142  271 1  
   275  142  272 1  
   276  144  273 1  
   277  146  274 1  
   278  148  275 1  
   279  149  276 1  
   280  150  277 1  
   281  151  278 1  
@<TRIPOS>SUBSTRUCTURE
     1 GLY         1

