3rv8_ligand
  -I-interpret- 

 29 30  0  0  0  0  0  0  0  0999 V2000
   -3.3480   -7.0600   30.0620 O   0  0  0  0  0
   -0.7150   -5.6570   23.9090 O   0  0  0  0  0
   -1.3260   -7.0740   30.6930 O   0  0  0  0  0
    1.3010   -6.0330   23.9040 O   0  0  0  0  0
   -1.8190   -5.0560   25.8290 O   0  0  0  0  0
   -2.4070   -4.2320   30.5940 C   0  0  0  0  0
    1.3470   -5.9870   27.9510 C   0  0  0  0  0
    0.2200   -5.5880   28.6170 C   0  0  0  0  0
    1.4210   -6.0890   26.5930 C   0  0  0  0  0
   -2.3900   -1.9160   31.3010 C   0  0  0  0  0
   -3.7710   -2.1640   30.8610 C   0  0  0  0  0
   -2.0270   -4.8730   28.4040 O   0  0  0  0  0
   -2.2650   -6.5120   30.1720 C   0  0  0  0  0
    0.3070   -5.8130   24.5190 C   0  0  0  0  0
   -2.0840   -5.1260   29.7110 C   0  0  0  0  0
   -0.7810   -5.3570   26.5440 C   0  0  0  0  0
   -0.8730   -5.2670   27.8870 C   0  0  0  0  0
    0.3260   -5.7510   25.8760 C   0  0  0  0  0
   -2.6430   -2.8130   30.1900 C   0  0  0  0  0
   -3.9637   -6.4652   29.6275 H   0  0  0  0  0
   -1.4316   -5.4886   24.5252 H   0  0  0  0  0
   -2.5072   -4.5189   31.6408 H   0  0  0  0  0
    2.2319   -6.2363   28.5366 H   0  0  0  0  0
    0.2034   -5.5304   29.7054 H   0  0  0  0  0
    2.3322   -6.4314   26.1025 H   0  0  0  0  0
   -1.6886   -1.4202   31.9720 H   0  0  0  0  0
   -4.8427   -1.9919   30.9607 H   0  0  0  0  0
   -0.9513   -5.1600   28.9689 H   0  0  0  0  0
   -2.3373   -2.8912   29.1467 H   0  0  0  0  0
 13  1  1  0  0  0
 14  2  1  0  0  0
 13  3  2  0  0  0
 14  4  2  0  0  0
 16  5  2  0  0  0
 15  6  2  0  0  0
  6 19  1  0  0  0
  8  7  2  0  0  0
  7  9  1  0  0  0
 17  8  1  0  0  0
  9 18  2  0  0  0
 11 10  2  0  0  0
 19 10  1  0  0  0
 19 11  1  0  0  0
 12 15  1  0  0  0
 17 12  1  0  0  0
 15 13  1  0  0  0
 18 14  1  0  0  0
 16 17  1  0  0  0
 16 18  1  0  0  0
  1 20  1  0  0  0
  2 21  1  0  0  0
  6 22  1  0  0  0
  7 23  1  0  0  0
  8 24  1  0  0  0
  9 25  1  0  0  0
 10 26  1  0  0  0
 11 27  1  0  0  0
 17 28  1  0  0  0
 19 29  1  0  0  0
M  END
$$$$
