4rak_ligand
  -I-interpret- 

 64 67  0  0  0  0  0  0  0  0999 V2000
  -20.7520   20.0710  -43.8340 C   0  0  0  0  0
  -22.2010   19.4720  -42.9400 S   0  0  0  0  0
  -22.8100   20.6350  -41.9340 O   0  0  0  0  0
  -23.3920   19.0170  -43.9960 O   0  0  0  0  0
  -21.8000   18.0380  -41.9040 C   0  0  0  0  0
  -21.9990   16.7660  -42.4350 C   0  0  0  0  0
  -21.2980   18.2150  -40.6070 C   0  0  0  0  0
  -21.0000   17.1060  -39.8280 C   0  0  0  0  0
  -21.2060   15.8300  -40.3550 C   0  0  0  0  0
  -21.6880   15.6610  -41.6610 C   0  0  0  0  0
  -21.9280   14.2610  -42.2180 C   0  0  0  0  0
  -20.8870   13.3340  -42.2700 C   0  0  0  0  0
  -21.1370   12.0620  -42.7850 C   0  0  0  0  0
  -23.2010   13.9190  -42.6800 C   0  0  0  0  0
  -23.4480   12.6390  -43.1960 C   0  0  0  0  0
  -22.4160   11.7060  -43.2360 C   0  0  0  0  0
  -22.6640   10.3540  -43.7260 N   0  0  0  0  0
  -22.3810    9.9300  -44.9440 C   0  0  0  0  0
  -22.7390    8.5920  -45.0210 C   0  0  0  0  0
  -22.6260    7.6800  -46.2350 C   0  0  0  0  0
  -23.8710    6.8140  -46.3380 C   0  0  0  0  0
  -21.3970    6.7960  -46.1060 C   0  0  0  0  0
  -22.5110    8.4470  -47.4010 O   0  0  0  0  0
  -23.1970    8.2620  -43.8220 N   0  0  0  0  0
  -23.1680    9.3190  -43.0340 C   0  0  0  0  0
  -23.6770    9.3110  -41.5780 C   0  0  0  0  0
  -25.0730    9.9640  -41.5810 C   0  0  0  0  0
  -23.8810    7.8820  -41.0630 C   0  0  0  0  0
  -22.6970   10.0320  -40.6170 C   0  0  0  0  0
  -23.1820   11.0350  -39.7730 C   0  0  0  0  0
  -22.3510   11.7100  -38.8950 C   0  0  0  0  0
  -21.0000   11.3860  -38.8530 C   0  0  0  0  0
  -20.4890   10.3910  -39.6820 C   0  0  0  0  0
  -21.3330    9.7030  -40.5610 C   0  0  0  0  0
  -20.5790    8.4640  -41.6180 Cl  0  0  0  0  0
  -21.0293   20.9381  -44.4334 H   0  0  0  0  0
  -19.9777   20.3534  -43.1207 H   0  0  0  0  0
  -20.3770   19.2820  -44.4859 H   0  0  0  0  0
  -22.3932   16.6424  -43.4437 H   0  0  0  0  0
  -21.1425   19.2191  -40.2124 H   0  0  0  0  0
  -20.6101   17.2297  -38.8177 H   0  0  0  0  0
  -20.9895   14.9539  -39.7437 H   0  0  0  0  0
  -19.8920   13.5999  -41.9132 H   0  0  0  0  0
  -20.3268   11.3347  -42.8376 H   0  0  0  0  0
  -24.0071   14.6515  -42.6391 H   0  0  0  0  0
  -24.4403   12.3767  -43.5629 H   0  0  0  0  0
  -21.9441   10.5251  -45.7459 H   0  0  0  0  0
  -23.9666    6.2088  -45.4365 H   0  0  0  0  0
  -24.7483    7.4523  -46.4434 H   0  0  0  0  0
  -23.7877    6.1622  -47.2076 H   0  0  0  0  0
  -20.5065    7.4212  -46.0414 H   0  0  0  0  0
  -21.4815    6.1877  -45.2055 H   0  0  0  0  0
  -21.3245    6.1472  -46.9788 H   0  0  0  0  0
  -22.4404    7.8641  -48.1605 H   0  0  0  0  0
  -24.9944   10.9847  -41.9552 H   0  0  0  0  0
  -25.7398    9.3901  -42.2245 H   0  0  0  0  0
  -25.4686    9.9774  -40.5654 H   0  0  0  0  0
  -24.6142    7.3729  -41.6886 H   0  0  0  0  0
  -22.9334    7.3447  -41.1011 H   0  0  0  0  0
  -24.2399    7.9157  -40.0343 H   0  0  0  0  0
  -24.2407   11.2922  -39.8068 H   0  0  0  0  0
  -22.7518   12.4869  -38.2439 H   0  0  0  0  0
  -20.3370   11.9137  -38.1674 H   0  0  0  0  0
  -19.4273   10.1469  -39.6462 H   0  0  0  0  0
  1  2  1  0  0  0
  2  3  2  0  0  0
  2  4  2  0  0  0
  2  5  1  0  0  0
  5  6  4  0  0  0
  5  7  4  0  0  0
  6 10  4  0  0  0
  7  8  4  0  0  0
  8  9  4  0  0  0
  9 10  4  0  0  0
 10 11  1  0  0  0
 11 12  4  0  0  0
 11 14  4  0  0  0
 12 13  4  0  0  0
 13 16  4  0  0  0
 14 15  4  0  0  0
 15 16  4  0  0  0
 16 17  1  0  0  0
 17 18  4  0  0  0
 17 25  4  0  0  0
 18 19  4  0  0  0
 19 20  1  0  0  0
 19 24  4  0  0  0
 20 21  1  0  0  0
 20 22  1  0  0  0
 20 23  1  0  0  0
 24 25  4  0  0  0
 25 26  1  0  0  0
 26 27  1  0  0  0
 26 28  1  0  0  0
 26 29  1  0  0  0
 29 30  4  0  0  0
 29 34  4  0  0  0
 30 31  4  0  0  0
 31 32  4  0  0  0
 32 33  4  0  0  0
 33 34  4  0  0  0
 34 35  1  0  0  0
  1 36  1  0  0  0
  1 37  1  0  0  0
  1 38  1  0  0  0
  6 39  1  0  0  0
  7 40  1  0  0  0
  8 41  1  0  0  0
  9 42  1  0  0  0
 12 43  1  0  0  0
 13 44  1  0  0  0
 14 45  1  0  0  0
 15 46  1  0  0  0
 18 47  1  0  0  0
 21 48  1  0  0  0
 21 49  1  0  0  0
 21 50  1  0  0  0
 22 51  1  0  0  0
 22 52  1  0  0  0
 22 53  1  0  0  0
 23 54  1  0  0  0
 27 55  1  0  0  0
 27 56  1  0  0  0
 27 57  1  0  0  0
 28 58  1  0  0  0
 28 59  1  0  0  0
 28 60  1  0  0  0
 30 61  1  0  0  0
 31 62  1  0  0  0
 32 63  1  0  0  0
 33 64  1  0  0  0
M  END
$$$$
