### 
### Created by X-TOOL on Mon Sep 10 21:13:22 2018
### 

@<TRIPOS>MOLECULE
5dif_ligand
  243   244     1     0     0
SMALL
GAST_HUCK


@<TRIPOS>ATOM
      1 N         -29.9900   82.2400   23.5940 N.4       1 ARG         0.2379
      2 CA        -30.9980   81.9490   22.5820 C.3       1 ARG         0.0651
      3 C         -31.0240   80.4550   22.2680 C.2       1 ARG         0.2268
      4 O         -32.0830   79.8250   22.2690 O.2       1 ARG        -0.3907
      5 CB        -30.7240   82.7460   21.3060 C.3       1 ARG         0.0110
      6 CG        -31.9370   82.9020   20.4040 C.3       1 ARG        -0.0125
      7 CD        -31.5400   83.0230   18.9430 C.3       1 ARG         0.0629
      8 NE        -30.9070   81.8000   18.4540 N.pl3     1 ARG        -0.2723
      9 CZ        -31.5680   80.6970   18.1130 C.cat     1 ARG         0.2882
     10 NH1       -32.8910   80.6510   18.2080 N.pl3     1 ARG        -0.2849
     11 NH2       -30.9030   79.6340   17.6820 N.pl3     1 ARG        -0.2849
     12 N         -29.8470   79.9000   21.9960 N.am      1 THR        -0.2586
     13 CA        -29.7200   78.4800   21.6900 C.3       1 THR         0.1566
     14 C         -30.1220   77.6160   22.8830 C.2       1 THR         0.2066
     15 O         -30.8450   76.6300   22.7280 O.2       1 THR        -0.3943
     16 CB        -28.2760   78.1160   21.2630 C.3       1 THR         0.0924
     17 OG1       -28.1700   76.6980   21.0840 O.3       1 THR        -0.3874
     18 CG2       -27.2510   78.5710   22.3030 C.3       1 THR        -0.0346
     19 N         -29.6590   77.9980   24.0690 N.am      1 PHE        -0.2619
     20 CA        -29.9290   77.2420   25.2870 C.3       1 PHE         0.1404
     21 C         -31.1060   77.8220   26.0690 C.2       1 PHE         0.2060
     22 O         -31.2150   77.6190   27.2780 O.2       1 PHE        -0.3942
     23 CB        -28.6780   77.2030   26.1730 C.3       1 PHE         0.0214
     24 CG        -27.5600   76.3640   25.6160 C.ar      1 PHE        -0.0386
     25 CD1       -27.8020   75.0900   25.1280 C.ar      1 PHE        -0.0601
     26 CD2       -26.2640   76.8510   25.5840 C.ar      1 PHE        -0.0601
     27 CE1       -26.7730   74.3190   24.6180 C.ar      1 PHE        -0.0686
     28 CE2       -25.2320   76.0850   25.0750 C.ar      1 PHE        -0.0686
     29 CZ        -25.4870   74.8180   24.5920 C.ar      1 PHE        -0.0687
     30 N         -31.9860   78.5420   25.3790 N.am      1 ASP        -0.2620
     31 CA        -33.2080   79.0350   26.0030 C.3       1 ASP         0.1423
     32 C         -34.2410   77.9160   26.0200 C.2       1 ASP         0.2056
     33 O         -34.7470   77.5100   24.9720 O.2       1 ASP        -0.3943
     34 CB        -33.7540   80.2580   25.2640 C.3       1 ASP         0.0406
     35 CG        -34.9230   80.8990   25.9890 C.2       1 ASP         0.0393
     36 OD1       -34.6830   81.7520   26.8690 O.co2     1 ASP        -0.5688
     37 OD2       -36.0820   80.5480   25.6810 O.co2     1 ASP        -0.5688
     38 N         -34.5480   77.4250   27.2170 N.am      1 MET        -0.2636
     39 CA        -35.3950   76.2490   27.3780 C.3       1 MET         0.1317
     40 C         -36.8410   76.6170   27.6890 C.2       1 MET         0.2040
     41 O         -37.6100   75.7750   28.1500 O.2       1 MET        -0.3944
     42 CB        -34.8460   75.3580   28.4940 C.3       1 MET        -0.0034
     43 CG        -33.3760   74.9930   28.3410 C.3       1 MET        -0.0024
     44 SD        -33.0130   74.0900   26.8210 S.3       1 MET        -0.1639
     45 CE        -34.0280   72.6300   27.0290 C.3       1 MET        -0.0181
     46 N         -37.2100   77.8700   27.4430 N.am      1 HIS        -0.2625
     47 CA        -38.5510   78.3450   27.7720 C.3       1 HIS         0.1369
     48 C         -39.6180   77.5380   27.0360 C.2       1 HIS         0.2054
     49 O         -40.7280   77.3560   27.5350 O.2       1 HIS        -0.3942
     50 CB        -38.6940   79.8290   27.4350 C.3       1 HIS         0.0145
     51 CG        -39.8180   80.5050   28.1580 C.2       1 HIS        -0.0027
     52 ND1       -40.8050   79.8070   28.8220 N.2       1 HIS        -0.3252
     53 CD2       -40.1070   81.8170   28.3280 C.2       1 HIS         0.0291
     54 CE1       -41.6550   80.6600   29.3650 C.2       1 HIS         0.0907
     55 NE2       -41.2540   81.8860   29.0810 N.pl3     1 HIS        -0.2752
     56 N         -39.2730   77.0570   25.8460 N.am      1 SER        -0.2615
     57 CA        -40.1720   76.2070   25.0770 C.3       1 SER         0.1539
     58 C         -40.5260   74.9470   25.8660 C.2       1 SER         0.2062
     59 O         -41.6750   74.5020   25.8550 O.2       1 SER        -0.3943
     60 CB        -39.5390   75.8370   23.7330 C.3       1 SER         0.0843
     61 OG        -38.2450   75.2850   23.9070 O.3       1 SER        -0.3903
     62 N         -39.5390   74.3820   26.5550 N.am      1 LEU        -0.2636
     63 CA        -39.7670   73.2030   27.3870 C.3       1 LEU         0.1312
     64 C         -40.6650   73.5460   28.5730 C.2       1 LEU         0.2039
     65 O         -41.5580   72.7770   28.9260 O.2       1 LEU        -0.3944
     66 CB        -38.4420   72.6200   27.8890 C.3       1 LEU        -0.0101
     67 CG        -37.6350   71.7480   26.9220 C.3       1 LEU        -0.0425
     68 CD1       -38.3360   70.4220   26.6800 C.3       1 LEU        -0.0625
     69 CD2       -37.3760   72.4630   25.6030 C.3       1 LEU        -0.0625
     70 N         -40.4180   74.7010   29.1830 N.am      1 GLU        -0.2636
     71 CA        -41.2160   75.1610   30.3150 C.3       1 GLU         0.1325
     72 C         -42.6910   75.2660   29.9480 C.2       1 GLU         0.2041
     73 O         -43.5470   74.6860   30.6170 O.2       1 GLU        -0.3944
     74 CB        -40.7220   76.5220   30.8110 C.3       1 GLU        -0.0008
     75 CG        -39.2680   76.5490   31.2540 C.3       1 GLU         0.0044
     76 CD        -38.8490   77.9070   31.7870 C.2       1 GLU         0.0350
     77 OE1       -37.6300   78.1730   31.8450 O.co2     1 GLU        -0.5690
     78 OE2       -39.7380   78.7060   32.1530 O.co2     1 GLU        -0.5690
     79 N         -42.9750   76.0100   28.8830 N.am      1 SER        -0.2616
     80 CA        -44.3460   76.2670   28.4560 C.3       1 SER         0.1539
     81 C         -45.0980   74.9730   28.1740 C.2       1 SER         0.2062
     82 O         -46.2740   74.8400   28.5060 O.2       1 SER        -0.3943
     83 CB        -44.3540   77.1520   27.2090 C.3       1 SER         0.0843
     84 OG        -43.6660   78.3680   27.4440 O.3       1 SER        -0.3903
     85 N         -44.4090   74.0190   27.5590 N.am      1 SER        -0.2615
     86 CA        -45.0130   72.7390   27.2240 C.3       1 SER         0.1539
     87 C         -45.2840   71.9250   28.4810 C.2       1 SER         0.2062
     88 O         -46.2080   71.1110   28.5220 O.2       1 SER        -0.3943
     89 CB        -44.1080   71.9520   26.2770 C.3       1 SER         0.0843
     90 OG        -44.6140   70.6450   26.0770 O.3       1 SER        -0.3903
     91 N         -44.4730   72.1530   29.5070 N.am      1 LEU        -0.2636
     92 CA        -44.5770   71.3930   30.7440 C.3       1 LEU         0.1312
     93 C         -45.6400   71.9950   31.6590 C.2       1 LEU         0.2039
     94 O         -46.3570   71.2700   32.3450 O.2       1 LEU        -0.3944
     95 CB        -43.2200   71.3450   31.4500 C.3       1 LEU        -0.0101
     96 CG        -42.9160   70.1380   32.3430 C.3       1 LEU        -0.0425
     97 CD1       -43.0470   68.8190   31.5860 C.3       1 LEU        -0.0625
     98 CD2       -41.5170   70.2720   32.9200 C.3       1 LEU        -0.0625
     99 N         -45.7410   73.3210   31.6620 N.am      1 ILE        -0.2635
    100 CA        -46.7960   74.0070   32.4010 C.3       1 ILE         0.1335
    101 C         -48.1570   73.6830   31.7920 C.2       1 ILE         0.2042
    102 O         -49.1550   73.5620   32.5030 O.2       1 ILE        -0.3944
    103 CB        -46.5830   75.5390   32.4070 C.3       1 ILE        -0.0037
    104 CG1       -45.3020   75.8890   33.1710 C.3       1 ILE        -0.0491
    105 CG2       -47.7810   76.2560   33.0390 C.3       1 ILE        -0.0582
    106 CD1       -44.9100   77.3560   33.0960 C.3       1 ILE        -0.0648
    107 N         -48.1850   73.5400   30.4700 N.am      1 ASP        -0.2622
    108 CA        -49.4190   73.2620   29.7410 C.3       1 ASP         0.1423
    109 C         -50.0690   71.9500   30.1820 C.2       1 ASP         0.2051
    110 O         -51.2550   71.7260   29.9390 O.2       1 ASP        -0.3943
    111 CB        -49.1380   73.2240   28.2360 C.3       1 ASP         0.0406
    112 CG        -50.3910   72.9910   27.4120 C.2       1 ASP         0.0393
    113 OD1       -51.0570   73.9830   27.0480 O.co2     1 ASP        -0.5688
    114 OD2       -50.7080   71.8170   27.1280 O.co2     1 ASP        -0.5688
    115 N         -49.2880   71.0880   30.8280 N.am      1 ILE        -0.2691
    116 CA        -49.7760   69.7880   31.2740 C.3       1 ILE         0.0969
    117 C         -50.9730   69.9360   32.2100 C.2       1 ILE         0.0604
    118 O         -51.0740   70.9080   32.9590 O.co2     1 ILE        -0.5666
    119 CB        -48.6630   68.9850   31.9910 C.3       1 ILE        -0.0092
    120 CG1       -48.9560   67.4850   31.9150 C.3       1 ILE        -0.0497
    121 CG2       -48.4960   69.4410   33.4500 C.3       1 ILE        -0.0588
    122 CD1       -47.8280   66.6190   32.4340 C.3       1 ILE        -0.0649
    123 OXT       -51.8640   69.0870   32.2370 O.co2     1 ILE        -0.5666
    124 H1        -29.9858   83.2289   23.7895 H         1 ARG         0.2015
    125 H2        -29.0828   81.9608   23.2547 H         1 ARG         0.2015
    126 H3        -30.2043   81.7317   24.4376 H         1 ARG         0.2015
    127 H4        -31.9825   82.2428   22.9749 H         1 ARG         0.1098
    128 H5        -29.9348   82.2308   20.7388 H         1 ARG         0.0347
    129 H6        -30.3745   83.7488   21.5925 H         1 ARG         0.0347
    130 H7        -32.4870   83.8075   20.6999 H         1 ARG         0.0302
    131 H8        -32.5865   82.0225   20.5250 H         1 ARG         0.0302
    132 H9        -30.8335   83.8589   18.8332 H         1 ARG         0.0689
    133 H10       -32.4406   83.2228   18.3438 H         1 ARG         0.0689
    134 H11       -29.8807   81.7914   18.3676 H         1 ARG         0.2642
    135 H12       -33.3969   79.7940   17.9424 H         1 ARG         0.2615
    136 H13       -33.4118   81.4723   18.5473 H         1 ARG         0.2615
    137 H14       -29.8762   79.6646   17.6065 H         1 ARG         0.2615
    138 H15       -31.4132   78.7776   17.4227 H         1 ARG         0.2615
    139 H16       -29.0266   80.4718   22.0014 H         1 THR         0.1885
    140 H17       -30.3964   78.2524   20.8529 H         1 THR         0.0826
    141 H18       -28.0554   78.6163   20.3085 H         1 THR         0.0639
    142 H19       -27.2836   76.4784   20.8223 H         1 THR         0.2101
    143 H20       -26.2404   78.2962   21.9664 H         1 THR         0.0257
    144 H21       -27.4627   78.0816   23.2651 H         1 THR         0.0257
    145 H22       -27.3125   79.6624   22.4254 H         1 THR         0.0257
    146 H23       -29.1079   78.8303   24.1282 H         1 PHE         0.1885
    147 H24       -30.1843   76.2114   24.9995 H         1 PHE         0.0823
    148 H25       -28.9615   76.7943   27.1541 H         1 PHE         0.0474
    149 H26       -28.3096   78.2320   26.2970 H         1 PHE         0.0474
    150 H27       -28.8103   74.6925   25.1461 H         1 PHE         0.0557
    151 H28       -26.0562   77.8452   25.9628 H         1 PHE         0.0557
    152 H29       -26.9768   73.3240   24.2392 H         1 PHE         0.0599
    153 H30       -24.2226   76.4797   25.0553 H         1 PHE         0.0599
    154 H31       -24.6787   74.2159   24.1930 H         1 PHE         0.0559
    155 H32       -31.8067   78.7485   24.4171 H         1 ASP         0.1884
    156 H33       -32.9825   79.3271   27.0393 H         1 ASP         0.0819
    157 H34       -34.0874   79.9461   24.2632 H         1 ASP         0.0478
    158 H35       -32.9485   81.0008   25.1672 H         1 ASP         0.0478
    159 H36       -34.1865   77.8766   28.0327 H         1 MET         0.1883
    160 H37       -35.3786   75.6834   26.4347 H         1 MET         0.0800
    161 H38       -35.4317   74.4271   28.5107 H         1 MET         0.0320
    162 H39       -34.9714   75.8873   29.4501 H         1 MET         0.0320
    163 H40       -33.0817   74.3672   29.1964 H         1 MET         0.0378
    164 H41       -32.7847   75.9205   28.3446 H         1 MET         0.0378
    165 H42       -33.9055   71.9710   26.1568 H         1 MET         0.0340
    166 H43       -35.0834   72.9268   27.1189 H         1 MET         0.0340
    167 H44       -33.7187   72.0950   27.9390 H         1 MET         0.0340
    168 H45       -36.5561   78.5001   27.0242 H         1 HIS         0.1885
    169 H46       -38.7052   78.2173   28.8536 H         1 HIS         0.0817
    170 H47       -38.8699   79.9241   26.3533 H         1 HIS         0.0420
    171 H48       -37.7552   80.3373   27.7000 H         1 HIS         0.0420
    172 H49       -39.5368   82.6599   27.9403 H         1 HIS         0.0729
    173 H50       -42.5366   80.3971   29.9478 H         1 HIS         0.1199
    174 H51       -41.7249   82.7532   29.3762 H         1 HIS         0.2361
    175 H52       -38.3748   77.2840   25.4695 H         1 SER         0.1884
    176 H53       -41.0986   76.7671   24.8827 H         1 SER         0.0823
    177 H54       -39.4619   76.7418   23.1122 H         1 SER         0.0606
    178 H55       -40.1783   75.0985   23.2271 H         1 SER         0.0606
    179 H56       -37.8787   75.0659   23.0583 H         1 SER         0.2097
    180 H57       -38.6201   74.7729   26.5025 H         1 LEU         0.1883
    181 H58       -40.2725   72.4414   26.7751 H         1 LEU         0.0800
    182 H59       -38.6674   72.0068   28.7740 H         1 LEU         0.0315
    183 H60       -37.8014   73.4649   28.1818 H         1 LEU         0.0315
    184 H61       -36.6615   71.5388   27.3895 H         1 LEU         0.0298
    185 H62       -37.7396   69.8136   25.9841 H         1 LEU         0.0232
    186 H63       -39.3300   70.6064   26.2465 H         1 LEU         0.0232
    187 H64       -38.4459   69.8858   27.6341 H         1 LEU         0.0232
    188 H65       -36.8687   73.4194   25.7978 H         1 LEU         0.0232
    189 H66       -38.3328   72.6524   25.0945 H         1 LEU         0.0232
    190 H67       -36.7393   71.8338   24.9637 H         1 LEU         0.0232
    191 H68       -39.6638   75.2710   28.8569 H         1 GLU         0.1883
    192 H69       -41.1098   74.4301   31.1302 H         1 GLU         0.0801
    193 H70       -41.3459   76.8219   31.6659 H         1 GLU         0.0330
    194 H71       -40.8446   77.2490   29.9947 H         1 GLU         0.0330
    195 H72       -38.6319   76.2963   30.3929 H         1 GLU         0.0433
    196 H73       -39.1266   75.7997   32.0468 H         1 GLU         0.0433
    197 H74       -42.2229   76.4069   28.3568 H         1 SER         0.1884
    198 H75       -44.8651   76.7989   29.2670 H         1 SER         0.0823
    199 H76       -45.3952   77.3755   26.9334 H         1 SER         0.0606
    200 H77       -43.8634   76.6150   26.3838 H         1 SER         0.0606
    201 H78       -42.7648   78.1804   27.6790 H         1 SER         0.2097
    202 H79       -43.4521   74.1845   27.3205 H         1 SER         0.1884
    203 H80       -45.9706   72.9284   26.7170 H         1 SER         0.0823
    204 H81       -43.0995   71.8868   26.7113 H         1 SER         0.0606
    205 H82       -44.0576   72.4723   25.3092 H         1 SER         0.0606
    206 H83       -45.4841   70.6978   25.6995 H         1 SER         0.2097
    207 H84       -43.7740   72.8638   29.4281 H         1 LEU         0.1883
    208 H85       -44.8765   70.3641   30.4959 H         1 LEU         0.0800
    209 H86       -43.1468   72.2441   32.0794 H         1 LEU         0.0315
    210 H87       -42.4445   71.3788   30.6707 H         1 LEU         0.0315
    211 H88       -43.6392   70.1312   33.1718 H         1 LEU         0.0298
    212 H89       -42.8205   67.9830   32.2641 H         1 LEU         0.0232
    213 H90       -42.3409   68.8086   30.7426 H         1 LEU         0.0232
    214 H91       -44.0739   68.7148   31.2058 H         1 LEU         0.0232
    215 H92       -41.4340   71.2251   33.4628 H         1 LEU         0.0232
    216 H93       -40.7800   70.2496   32.1037 H         1 LEU         0.0232
    217 H94       -41.3241   69.4384   33.6113 H         1 LEU         0.0232
    218 H95       -45.0774   73.8616   31.1449 H         1 ILE         0.1883
    219 H96       -46.7795   73.6491   33.4410 H         1 ILE         0.0803
    220 H97       -46.4788   75.8816   31.3669 H         1 ILE         0.0345
    221 H98       -44.4782   75.2906   32.7548 H         1 ILE         0.0267
    222 H99       -45.4488   75.6253   34.2288 H         1 ILE         0.0267
    223 H100      -48.6959   75.9994   32.4848 H         1 ILE         0.0235
    224 H101      -47.6206   77.3435   32.9985 H         1 ILE         0.0235
    225 H102      -47.8864   75.9397   34.0872 H         1 ILE         0.0235
    226 H103      -43.9848   77.5180   33.6684 H         1 ILE         0.0230
    227 H104      -45.7160   77.9731   33.5197 H         1 ILE         0.0230
    228 H105      -44.7455   77.6384   32.0457 H         1 ILE         0.0230
    229 H106      -47.3307   73.6259   29.9573 H         1 ASP         0.1884
    230 H107      -50.1270   74.0790   29.9442 H         1 ASP         0.0819
    231 H108      -48.4260   72.4109   28.0313 H         1 ASP         0.0478
    232 H109      -48.6935   74.1846   27.9366 H         1 ASP         0.0478
    233 H110      -48.3379   71.3390   31.0133 H         1 ILE         0.1875
    234 H111      -50.0963   69.2221   30.3868 H         1 ILE         0.0729
    235 H112      -47.7147   69.1748   31.4669 H         1 ILE         0.0338
    236 H113      -49.1421   67.2200   30.8637 H         1 ILE         0.0267
    237 H114      -49.8568   67.2762   32.5108 H         1 ILE         0.0267
    238 H115      -48.2867   70.5206   33.4750 H         1 ILE         0.0234
    239 H116      -47.6602   68.8947   33.9115 H         1 ILE         0.0234
    240 H117      -49.4216   69.2340   34.0071 H         1 ILE         0.0234
    241 H118      -48.1099   65.5592   32.3478 H         1 ILE         0.0230
    242 H119      -47.6346   66.8623   33.4892 H         1 ILE         0.0230
    243 H120      -46.9199   66.8061   31.8421 H         1 ILE         0.0230
@<TRIPOS>BOND
     1    1    2 1  
     2    2    3 1  
     3    2    5 1  
     4    3    4 2  
     5    3   12 am 
     6    5    6 1  
     7    6    7 1  
     8    7    8 1  
     9    8    9 ar 
    10    9   10 ar 
    11    9   11 ar 
    12   12   13 1  
    13   13   14 1  
    14   13   16 1  
    15   14   15 2  
    16   14   19 am 
    17   16   17 1  
    18   16   18 1  
    19   19   20 1  
    20   20   21 1  
    21   20   23 1  
    22   21   22 2  
    23   21   30 am 
    24   23   24 1  
    25   24   25 ar 
    26   24   26 ar 
    27   25   27 ar 
    28   26   28 ar 
    29   27   29 ar 
    30   28   29 ar 
    31   30   31 1  
    32   31   32 1  
    33   31   34 1  
    34   32   33 2  
    35   32   38 am 
    36   34   35 1  
    37   35   36 ar 
    38   35   37 ar 
    39   38   39 1  
    40   39   40 1  
    41   39   42 1  
    42   40   41 2  
    43   40   46 am 
    44   42   43 1  
    45   43   44 1  
    46   44   45 1  
    47   46   47 1  
    48   47   48 1  
    49   47   50 1  
    50   48   49 2  
    51   48   56 am 
    52   50   51 1  
    53   51   52 1  
    54   51   53 2  
    55   52   54 2  
    56   53   55 1  
    57   54   55 1  
    58   56   57 1  
    59   57   58 1  
    60   57   60 1  
    61   58   59 2  
    62   58   62 am 
    63   60   61 1  
    64   62   63 1  
    65   63   64 1  
    66   63   66 1  
    67   64   65 2  
    68   64   70 am 
    69   66   67 1  
    70   67   68 1  
    71   67   69 1  
    72   70   71 1  
    73   71   72 1  
    74   71   74 1  
    75   72   73 2  
    76   72   79 am 
    77   74   75 1  
    78   75   76 1  
    79   76   77 ar 
    80   76   78 ar 
    81   79   80 1  
    82   80   81 1  
    83   80   83 1  
    84   81   82 2  
    85   81   85 am 
    86   83   84 1  
    87   85   86 1  
    88   86   87 1  
    89   86   89 1  
    90   87   88 2  
    91   87   91 am 
    92   89   90 1  
    93   91   92 1  
    94   92   93 1  
    95   92   95 1  
    96   93   94 2  
    97   93   99 am 
    98   95   96 1  
    99   96   97 1  
   100   96   98 1  
   101   99  100 1  
   102  100  101 1  
   103  100  103 1  
   104  101  102 2  
   105  101  107 am 
   106  103  104 1  
   107  103  105 1  
   108  104  106 1  
   109  107  108 1  
   110  108  109 1  
   111  108  111 1  
   112  109  110 2  
   113  109  115 am 
   114  111  112 1  
   115  112  113 ar 
   116  112  114 ar 
   117  115  116 1  
   118  116  117 1  
   119  116  119 1  
   120  117  118 ar 
   121  117  123 ar 
   122  119  120 1  
   123  119  121 1  
   124  120  122 1  
   125    1  124 1  
   126    1  125 1  
   127    1  126 1  
   128    2  127 1  
   129    5  128 1  
   130    5  129 1  
   131    6  130 1  
   132    6  131 1  
   133    7  132 1  
   134    7  133 1  
   135    8  134 1  
   136   10  135 1  
   137   10  136 1  
   138   11  137 1  
   139   11  138 1  
   140   12  139 1  
   141   13  140 1  
   142   16  141 1  
   143   17  142 1  
   144   18  143 1  
   145   18  144 1  
   146   18  145 1  
   147   19  146 1  
   148   20  147 1  
   149   23  148 1  
   150   23  149 1  
   151   25  150 1  
   152   26  151 1  
   153   27  152 1  
   154   28  153 1  
   155   29  154 1  
   156   30  155 1  
   157   31  156 1  
   158   34  157 1  
   159   34  158 1  
   160   38  159 1  
   161   39  160 1  
   162   42  161 1  
   163   42  162 1  
   164   43  163 1  
   165   43  164 1  
   166   45  165 1  
   167   45  166 1  
   168   45  167 1  
   169   46  168 1  
   170   47  169 1  
   171   50  170 1  
   172   50  171 1  
   173   53  172 1  
   174   54  173 1  
   175   55  174 1  
   176   56  175 1  
   177   57  176 1  
   178   60  177 1  
   179   60  178 1  
   180   61  179 1  
   181   62  180 1  
   182   63  181 1  
   183   66  182 1  
   184   66  183 1  
   185   67  184 1  
   186   68  185 1  
   187   68  186 1  
   188   68  187 1  
   189   69  188 1  
   190   69  189 1  
   191   69  190 1  
   192   70  191 1  
   193   71  192 1  
   194   74  193 1  
   195   74  194 1  
   196   75  195 1  
   197   75  196 1  
   198   79  197 1  
   199   80  198 1  
   200   83  199 1  
   201   83  200 1  
   202   84  201 1  
   203   85  202 1  
   204   86  203 1  
   205   89  204 1  
   206   89  205 1  
   207   90  206 1  
   208   91  207 1  
   209   92  208 1  
   210   95  209 1  
   211   95  210 1  
   212   96  211 1  
   213   97  212 1  
   214   97  213 1  
   215   97  214 1  
   216   98  215 1  
   217   98  216 1  
   218   98  217 1  
   219   99  218 1  
   220  100  219 1  
   221  103  220 1  
   222  104  221 1  
   223  104  222 1  
   224  105  223 1  
   225  105  224 1  
   226  105  225 1  
   227  106  226 1  
   228  106  227 1  
   229  106  228 1  
   230  107  229 1  
   231  108  230 1  
   232  111  231 1  
   233  111  232 1  
   234  115  233 1  
   235  116  234 1  
   236  119  235 1  
   237  120  236 1  
   238  120  237 1  
   239  121  238 1  
   240  121  239 1  
   241  121  240 1  
   242  122  241 1  
   243  122  242 1  
   244  122  243 1  
@<TRIPOS>SUBSTRUCTURE
     1 ARG         1

