5dif_ligand
  -I-interpret- 

245246  0  0  0  0  0  0  0  0999 V2000
  -29.9900   82.2400   23.5940 N   0  3  0  0  0
  -30.9980   81.9490   22.5820 C   0  0  0  0  0
  -31.0240   80.4550   22.2680 C   0  0  0  0  0
  -32.0830   79.8250   22.2690 O   0  0  0  0  0
  -30.7240   82.7460   21.3060 C   0  0  0  0  0
  -31.9370   82.9020   20.4040 C   0  0  0  0  0
  -31.5400   83.0230   18.9430 C   0  0  0  0  0
  -30.9070   81.8000   18.4540 N   0  0  0  0  0
  -31.5680   80.6970   18.1130 C   0  0  0  0  0
  -32.8910   80.6510   18.2080 N   0  0  0  0  0
  -30.9030   79.6340   17.6820 N   0  0  0  0  0
  -29.8470   79.9000   21.9960 N   0  0  0  0  0
  -29.7200   78.4800   21.6900 C   0  0  0  0  0
  -30.1220   77.6160   22.8830 C   0  0  0  0  0
  -30.8450   76.6300   22.7280 O   0  0  0  0  0
  -28.2760   78.1160   21.2630 C   0  0  0  0  0
  -28.1700   76.6980   21.0840 O   0  0  0  0  0
  -27.2510   78.5710   22.3030 C   0  0  0  0  0
  -29.6590   77.9980   24.0690 N   0  0  0  0  0
  -29.9290   77.2420   25.2870 C   0  0  0  0  0
  -31.1060   77.8220   26.0690 C   0  0  0  0  0
  -31.2150   77.6190   27.2780 O   0  0  0  0  0
  -28.6780   77.2030   26.1730 C   0  0  0  0  0
  -27.5600   76.3640   25.6160 C   0  0  0  0  0
  -27.8020   75.0900   25.1280 C   0  0  0  0  0
  -26.2640   76.8510   25.5840 C   0  0  0  0  0
  -26.7730   74.3190   24.6180 C   0  0  0  0  0
  -25.2320   76.0850   25.0750 C   0  0  0  0  0
  -25.4870   74.8180   24.5920 C   0  0  0  0  0
  -31.9860   78.5420   25.3790 N   0  0  0  0  0
  -33.2080   79.0350   26.0030 C   0  0  0  0  0
  -34.2410   77.9160   26.0200 C   0  0  0  0  0
  -34.7470   77.5100   24.9720 O   0  0  0  0  0
  -33.7540   80.2580   25.2640 C   0  0  0  0  0
  -34.9230   80.8990   25.9890 C   0  0  0  0  0
  -34.6830   81.7520   26.8690 O   0  0  0  0  0
  -36.0820   80.5480   25.6810 O   0  0  0  0  0
  -34.5480   77.4250   27.2170 N   0  0  0  0  0
  -35.3950   76.2490   27.3780 C   0  0  0  0  0
  -36.8410   76.6170   27.6890 C   0  0  0  0  0
  -37.6100   75.7750   28.1500 O   0  0  0  0  0
  -34.8460   75.3580   28.4940 C   0  0  0  0  0
  -33.3760   74.9930   28.3410 C   0  0  0  0  0
  -33.0130   74.0900   26.8210 S   0  0  0  0  0
  -34.0280   72.6300   27.0290 C   0  0  0  0  0
  -37.2100   77.8700   27.4430 N   0  0  0  0  0
  -38.5510   78.3450   27.7720 C   0  0  0  0  0
  -39.6180   77.5380   27.0360 C   0  0  0  0  0
  -40.7280   77.3560   27.5350 O   0  0  0  0  0
  -38.6940   79.8290   27.4350 C   0  0  0  0  0
  -39.8180   80.5050   28.1580 C   0  0  0  0  0
  -40.8050   79.8070   28.8220 N   0  0  0  0  0
  -40.1070   81.8170   28.3280 C   0  0  0  0  0
  -41.6550   80.6600   29.3650 C   0  0  0  0  0
  -41.2540   81.8860   29.0810 N   0  0  0  0  0
  -39.2730   77.0570   25.8460 N   0  0  0  0  0
  -40.1720   76.2070   25.0770 C   0  0  0  0  0
  -40.5260   74.9470   25.8660 C   0  0  0  0  0
  -41.6750   74.5020   25.8550 O   0  0  0  0  0
  -39.5390   75.8370   23.7330 C   0  0  0  0  0
  -38.2450   75.2850   23.9070 O   0  0  0  0  0
  -39.5390   74.3820   26.5550 N   0  0  0  0  0
  -39.7670   73.2030   27.3870 C   0  0  0  0  0
  -40.6650   73.5460   28.5730 C   0  0  0  0  0
  -41.5580   72.7770   28.9260 O   0  0  0  0  0
  -38.4420   72.6200   27.8890 C   0  0  0  0  0
  -37.6350   71.7480   26.9220 C   0  0  0  0  0
  -38.3360   70.4220   26.6800 C   0  0  0  0  0
  -37.3760   72.4630   25.6030 C   0  0  0  0  0
  -40.4180   74.7010   29.1830 N   0  0  0  0  0
  -41.2160   75.1610   30.3150 C   0  0  0  0  0
  -42.6910   75.2660   29.9480 C   0  0  0  0  0
  -43.5470   74.6860   30.6170 O   0  0  0  0  0
  -40.7220   76.5220   30.8110 C   0  0  0  0  0
  -39.2680   76.5490   31.2540 C   0  0  0  0  0
  -38.8490   77.9070   31.7870 C   0  0  0  0  0
  -37.6300   78.1730   31.8450 O   0  0  0  0  0
  -39.7380   78.7060   32.1530 O   0  0  0  0  0
  -42.9750   76.0100   28.8830 N   0  0  0  0  0
  -44.3460   76.2670   28.4560 C   0  0  0  0  0
  -45.0980   74.9730   28.1740 C   0  0  0  0  0
  -46.2740   74.8400   28.5060 O   0  0  0  0  0
  -44.3540   77.1520   27.2090 C   0  0  0  0  0
  -43.6660   78.3680   27.4440 O   0  0  0  0  0
  -44.4090   74.0190   27.5590 N   0  0  0  0  0
  -45.0130   72.7390   27.2240 C   0  0  0  0  0
  -45.2840   71.9250   28.4810 C   0  0  0  0  0
  -46.2080   71.1110   28.5220 O   0  0  0  0  0
  -44.1080   71.9520   26.2770 C   0  0  0  0  0
  -44.6140   70.6450   26.0770 O   0  0  0  0  0
  -44.4730   72.1530   29.5070 N   0  0  0  0  0
  -44.5770   71.3930   30.7440 C   0  0  0  0  0
  -45.6400   71.9950   31.6590 C   0  0  0  0  0
  -46.3570   71.2700   32.3450 O   0  0  0  0  0
  -43.2200   71.3450   31.4500 C   0  0  0  0  0
  -42.9160   70.1380   32.3430 C   0  0  0  0  0
  -43.0470   68.8190   31.5860 C   0  0  0  0  0
  -41.5170   70.2720   32.9200 C   0  0  0  0  0
  -45.7410   73.3210   31.6620 N   0  0  0  0  0
  -46.7960   74.0070   32.4010 C   0  0  0  0  0
  -48.1570   73.6830   31.7920 C   0  0  0  0  0
  -49.1550   73.5620   32.5030 O   0  0  0  0  0
  -46.5830   75.5390   32.4070 C   0  0  0  0  0
  -45.3020   75.8890   33.1710 C   0  0  0  0  0
  -47.7810   76.2560   33.0390 C   0  0  0  0  0
  -44.9100   77.3560   33.0960 C   0  0  0  0  0
  -48.1850   73.5400   30.4700 N   0  0  0  0  0
  -49.4190   73.2620   29.7410 C   0  0  0  0  0
  -50.0690   71.9500   30.1820 C   0  0  0  0  0
  -51.2550   71.7260   29.9390 O   0  0  0  0  0
  -49.1380   73.2240   28.2360 C   0  0  0  0  0
  -50.3910   72.9910   27.4120 C   0  0  0  0  0
  -51.0570   73.9830   27.0480 O   0  0  0  0  0
  -50.7080   71.8170   27.1280 O   0  0  0  0  0
  -49.2880   71.0880   30.8280 N   0  0  0  0  0
  -49.7760   69.7880   31.2740 C   0  0  0  0  0
  -50.9730   69.9360   32.2100 C   0  0  0  0  0
  -51.0740   70.9080   32.9590 O   0  0  0  0  0
  -48.6630   68.9850   31.9910 C   0  0  0  0  0
  -48.9560   67.4850   31.9150 C   0  0  0  0  0
  -48.4960   69.4410   33.4500 C   0  0  0  0  0
  -47.8280   66.6190   32.4340 C   0  0  0  0  0
  -51.8640   69.0870   32.2370 O   0  0  0  0  0
  -30.1895   81.7000   24.4360 H   0  0  0  0  0
  -29.0686   81.9873   23.2369 H   0  0  0  0  0
  -30.0091   83.2357   23.8147 H   0  0  0  0  0
  -31.9709   82.2427   22.9761 H   0  0  0  0  0
  -29.9677   82.2018   20.7404 H   0  0  0  0  0
  -30.4150   83.7464   21.6091 H   0  0  0  0  0
  -32.4645   83.8112   20.6926 H   0  0  0  0  0
  -32.5645   82.0179   20.5169 H   0  0  0  0  0
  -30.8270   83.8418   18.8467 H   0  0  0  0  0
  -32.4402   83.2032   18.3555 H   0  0  0  0  0
  -29.8906   81.7915   18.3684 H   0  0  0  0  0
  -33.3916   79.8006   17.9500 H   0  0  0  0  0
  -33.4072   81.4661   18.5390 H   0  0  0  0  0
  -29.8858   79.6625   17.6122 H   0  0  0  0  0
  -29.0102   80.4832   22.0015 H   0  0  0  0  0
  -30.3958   78.2790   20.8587 H   0  0  0  0  0
  -28.0640   78.6313   20.3262 H   0  0  0  0  0
  -27.2742   76.4761   20.8195 H   0  0  0  0  0
  -27.3130   79.6526   22.4234 H   0  0  0  0  0
  -27.4619   78.0854   23.2558 H   0  0  0  0  0
  -26.2501   78.2982   21.9684 H   0  0  0  0  0
  -29.0969   78.8470   24.1294 H   0  0  0  0  0
  -30.1968   76.2278   24.9909 H   0  0  0  0  0
  -28.9700   76.7614   27.1258 H   0  0  0  0  0
  -28.3066   78.2246   26.2535 H   0  0  0  0  0
  -28.8159   74.6903   25.1462 H   0  0  0  0  0
  -26.0551   77.8507   25.9649 H   0  0  0  0  0
  -26.9779   73.3185   24.2371 H   0  0  0  0  0
  -24.2170   76.4819   25.0552 H   0  0  0  0  0
  -24.6742   74.2126   24.1908 H   0  0  0  0  0
  -31.8031   78.7526   24.3979 H   0  0  0  0  0
  -32.9845   79.3451   27.0238 H   0  0  0  0  0
  -34.1032   79.9316   24.2844 H   0  0  0  0  0
  -32.9542   80.9955   25.1963 H   0  0  0  0  0
  -36.0409   79.8863   24.9867 H   0  0  0  0  0
  -34.1793   77.8856   28.0490 H   0  0  0  0  0
  -35.3846   75.7124   26.4293 H   0  0  0  0  0
  -35.4115   74.4265   28.4672 H   0  0  0  0  0
  -34.9419   75.9160   29.4254 H   0  0  0  0  0
  -33.1101   74.3467   29.1775 H   0  0  0  0  0
  -32.8086   75.9233   28.3129 H   0  0  0  0  0
  -33.7206   72.1008   27.9310 H   0  0  0  0  0
  -35.0734   72.9255   27.1180 H   0  0  0  0  0
  -33.9058   71.9779   26.1642 H   0  0  0  0  0
  -36.5430   78.5127   27.0158 H   0  0  0  0  0
  -38.6966   78.2098   28.8437 H   0  0  0  0  0
  -38.9023   79.9022   26.3676 H   0  0  0  0  0
  -37.7696   80.3221   27.7359 H   0  0  0  0  0
  -39.5362   82.6606   27.9399 H   0  0  0  0  0
  -42.5374   80.3968   29.9483 H   0  0  0  0  0
  -38.3568   77.2886   25.4620 H   0  0  0  0  0
  -41.0905   76.7619   24.8858 H   0  0  0  0  0
  -39.4522   76.7409   23.1301 H   0  0  0  0  0
  -40.1702   75.0941   23.2453 H   0  0  0  0  0
  -37.8748   75.0636   23.0494 H   0  0  0  0  0
  -38.6017   74.7807   26.5014 H   0  0  0  0  0
  -40.2648   72.4537   26.7714 H   0  0  0  0  0
  -38.7076   71.9655   28.7192 H   0  0  0  0  0
  -37.8080   73.4802   28.1040 H   0  0  0  0  0
  -36.6691   71.5519   27.3876 H   0  0  0  0  0
  -38.4443   69.8917   27.6261 H   0  0  0  0  0
  -39.3207   70.6061   26.2505 H   0  0  0  0  0
  -37.7442   69.8201   25.9904 H   0  0  0  0  0
  -38.3275   72.7094   25.1318 H   0  0  0  0  0
  -36.8146   73.3781   25.7914 H   0  0  0  0  0
  -36.8011   71.8115   24.9448 H   0  0  0  0  0
  -39.6487   75.2824   28.8504 H   0  0  0  0  0
  -41.1030   74.4233   31.1094 H   0  0  0  0  0
  -41.3235   76.7787   31.6830 H   0  0  0  0  0
  -40.8111   77.2153   29.9746 H   0  0  0  0  0
  -38.6476   76.3215   30.3871 H   0  0  0  0  0
  -39.1467   75.8206   32.0558 H   0  0  0  0  0
  -40.6004   78.3044   32.0242 H   0  0  0  0  0
  -42.2079   76.4148   28.3463 H   0  0  0  0  0
  -44.8538   76.7820   29.2715 H   0  0  0  0  0
  -45.3877   77.3800   26.9490 H   0  0  0  0  0
  -43.8553   76.6193   26.3993 H   0  0  0  0  0
  -43.6853   78.9043   26.6480 H   0  0  0  0  0
  -43.4329   74.1878   27.3157 H   0  0  0  0  0
  -45.9621   72.9333   26.7244 H   0  0  0  0  0
  -43.1126   71.8824   26.7156 H   0  0  0  0  0
  -44.0683   72.4665   25.3169 H   0  0  0  0  0
  -44.0338   70.1662   25.4806 H   0  0  0  0  0
  -43.7601   72.8780   29.4265 H   0  0  0  0  0
  -44.8782   70.3740   30.5012 H   0  0  0  0  0
  -43.2102   72.2074   32.1165 H   0  0  0  0  0
  -42.4796   71.3072   30.6510 H   0  0  0  0  0
  -43.6498   70.1242   33.1489 H   0  0  0  0  0
  -44.0649   68.7170   31.2098 H   0  0  0  0  0
  -42.3469   68.8099   30.7506 H   0  0  0  0  0
  -42.8224   67.9915   32.2589 H   0  0  0  0  0
  -40.7924   70.3139   32.1068 H   0  0  0  0  0
  -41.4551   71.1858   33.5109 H   0  0  0  0  0
  -41.3033   69.4121   33.5548 H   0  0  0  0  0
  -45.0641   73.8724   31.1346 H   0  0  0  0  0
  -46.7602   73.6548   33.4319 H   0  0  0  0  0
  -46.4882   75.8739   31.3741 H   0  0  0  0  0
  -44.4921   75.3170   32.7183 H   0  0  0  0  0
  -45.4816   75.6582   34.2210 H   0  0  0  0  0
  -48.6812   76.0293   32.4678 H   0  0  0  0  0
  -47.9059   75.9152   34.0668 H   0  0  0  0  0
  -47.6049   77.3317   33.0304 H   0  0  0  0  0
  -44.7473   77.6345   32.0548 H   0  0  0  0  0
  -45.7095   77.9663   33.5161 H   0  0  0  0  0
  -43.9931   77.5152   33.6635 H   0  0  0  0  0
  -47.3137   73.6276   29.9470 H   0  0  0  0  0
  -50.1197   74.0657   29.9673 H   0  0  0  0  0
  -48.4529   72.3982   28.0442 H   0  0  0  0  0
  -48.7232   74.1901   27.9485 H   0  0  0  0  0
  -50.6390   74.7841   27.3722 H   0  0  0  0  0
  -48.3189   71.3441   31.0170 H   0  0  0  0  0
  -50.0878   69.2442   30.3823 H   0  0  0  0  0
  -50.3171   71.4855   32.8358 H   0  0  0  0  0
  -47.7208   69.1791   31.4784 H   0  0  0  0  0
  -49.1035   67.2340   30.8646 H   0  0  0  0  0
  -49.8294   67.2911   32.5376 H   0  0  0  0  0
  -48.2300   70.4978   33.4708 H   0  0  0  0  0
  -49.4331   69.2903   33.9860 H   0  0  0  0  0
  -47.7070   68.8570   33.9238 H   0  0  0  0  0
  -46.9288   66.8054   31.8468 H   0  0  0  0  0
  -47.6373   66.8610   33.4795 H   0  0  0  0  0
  -48.1085   65.5692   32.3481 H   0  0  0  0  0
  1  2  1  0  0  0
  2  3  1  0  0  0
  2  5  1  0  0  0
  3  4  2  0  0  0
  3 12  1  0  0  0
  5  6  1  0  0  0
  6  7  1  0  0  0
  7  8  1  0  0  0
  8  9  1  0  0  0
  9 10  1  0  0  0
  9 11  2  0  0  0
 12 13  1  0  0  0
 13 14  1  0  0  0
 13 16  1  0  0  0
 14 15  2  0  0  0
 14 19  1  0  0  0
 16 17  1  0  0  0
 16 18  1  0  0  0
 19 20  1  0  0  0
 20 21  1  0  0  0
 20 23  1  0  0  0
 21 22  2  0  0  0
 21 30  1  0  0  0
 23 24  1  0  0  0
 24 25  4  0  0  0
 24 26  4  0  0  0
 25 27  4  0  0  0
 26 28  4  0  0  0
 27 29  4  0  0  0
 28 29  4  0  0  0
 30 31  1  0  0  0
 31 32  1  0  0  0
 31 34  1  0  0  0
 32 33  2  0  0  0
 32 38  1  0  0  0
 34 35  1  0  0  0
 35 36  2  0  0  0
 35 37  1  0  0  0
 38 39  1  0  0  0
 39 40  1  0  0  0
 39 42  1  0  0  0
 40 41  2  0  0  0
 40 46  1  0  0  0
 42 43  1  0  0  0
 43 44  1  0  0  0
 44 45  1  0  0  0
 46 47  1  0  0  0
 47 48  1  0  0  0
 47 50  1  0  0  0
 48 49  2  0  0  0
 48 56  1  0  0  0
 50 51  1  0  0  0
 51 52  4  0  0  0
 51 53  4  0  0  0
 52 54  4  0  0  0
 53 55  4  0  0  0
 54 55  4  0  0  0
 56 57  1  0  0  0
 57 58  1  0  0  0
 57 60  1  0  0  0
 58 59  2  0  0  0
 58 62  1  0  0  0
 60 61  1  0  0  0
 62 63  1  0  0  0
 63 64  1  0  0  0
 63 66  1  0  0  0
 64 65  2  0  0  0
 64 70  1  0  0  0
 66 67  1  0  0  0
 67 68  1  0  0  0
 67 69  1  0  0  0
 70 71  1  0  0  0
 71 72  1  0  0  0
 71 74  1  0  0  0
 72 73  2  0  0  0
 72 79  1  0  0  0
 74 75  1  0  0  0
 75 76  1  0  0  0
 76 77  2  0  0  0
 76 78  1  0  0  0
 79 80  1  0  0  0
 80 81  1  0  0  0
 80 83  1  0  0  0
 81 82  2  0  0  0
 81 85  1  0  0  0
 83 84  1  0  0  0
 85 86  1  0  0  0
 86 87  1  0  0  0
 86 89  1  0  0  0
 87 88  2  0  0  0
 87 91  1  0  0  0
 89 90  1  0  0  0
 91 92  1  0  0  0
 92 93  1  0  0  0
 92 95  1  0  0  0
 93 94  2  0  0  0
 93 99  1  0  0  0
 95 96  1  0  0  0
 96 97  1  0  0  0
 96 98  1  0  0  0
 99100  1  0  0  0
100101  1  0  0  0
100103  1  0  0  0
101102  2  0  0  0
101107  1  0  0  0
103104  1  0  0  0
103105  1  0  0  0
104106  1  0  0  0
107108  1  0  0  0
108109  1  0  0  0
108111  1  0  0  0
109110  2  0  0  0
109115  1  0  0  0
111112  1  0  0  0
112113  1  0  0  0
112114  2  0  0  0
115116  1  0  0  0
116117  1  0  0  0
116119  1  0  0  0
117118  1  0  0  0
117123  2  0  0  0
119120  1  0  0  0
119121  1  0  0  0
120122  1  0  0  0
  1124  1  0  0  0
  1125  1  0  0  0
  1126  1  0  0  0
  2127  1  0  0  0
  5128  1  0  0  0
  5129  1  0  0  0
  6130  1  0  0  0
  6131  1  0  0  0
  7132  1  0  0  0
  7133  1  0  0  0
  8134  1  0  0  0
 10135  1  0  0  0
 10136  1  0  0  0
 11137  1  0  0  0
 12138  1  0  0  0
 13139  1  0  0  0
 16140  1  0  0  0
 17141  1  0  0  0
 18142  1  0  0  0
 18143  1  0  0  0
 18144  1  0  0  0
 19145  1  0  0  0
 20146  1  0  0  0
 23147  1  0  0  0
 23148  1  0  0  0
 25149  1  0  0  0
 26150  1  0  0  0
 27151  1  0  0  0
 28152  1  0  0  0
 29153  1  0  0  0
 30154  1  0  0  0
 31155  1  0  0  0
 34156  1  0  0  0
 34157  1  0  0  0
 37158  1  0  0  0
 38159  1  0  0  0
 39160  1  0  0  0
 42161  1  0  0  0
 42162  1  0  0  0
 43163  1  0  0  0
 43164  1  0  0  0
 45165  1  0  0  0
 45166  1  0  0  0
 45167  1  0  0  0
 46168  1  0  0  0
 47169  1  0  0  0
 50170  1  0  0  0
 50171  1  0  0  0
 53172  1  0  0  0
 54173  1  0  0  0
 56174  1  0  0  0
 57175  1  0  0  0
 60176  1  0  0  0
 60177  1  0  0  0
 61178  1  0  0  0
 62179  1  0  0  0
 63180  1  0  0  0
 66181  1  0  0  0
 66182  1  0  0  0
 67183  1  0  0  0
 68184  1  0  0  0
 68185  1  0  0  0
 68186  1  0  0  0
 69187  1  0  0  0
 69188  1  0  0  0
 69189  1  0  0  0
 70190  1  0  0  0
 71191  1  0  0  0
 74192  1  0  0  0
 74193  1  0  0  0
 75194  1  0  0  0
 75195  1  0  0  0
 78196  1  0  0  0
 79197  1  0  0  0
 80198  1  0  0  0
 83199  1  0  0  0
 83200  1  0  0  0
 84201  1  0  0  0
 85202  1  0  0  0
 86203  1  0  0  0
 89204  1  0  0  0
 89205  1  0  0  0
 90206  1  0  0  0
 91207  1  0  0  0
 92208  1  0  0  0
 95209  1  0  0  0
 95210  1  0  0  0
 96211  1  0  0  0
 97212  1  0  0  0
 97213  1  0  0  0
 97214  1  0  0  0
 98215  1  0  0  0
 98216  1  0  0  0
 98217  1  0  0  0
 99218  1  0  0  0
100219  1  0  0  0
103220  1  0  0  0
104221  1  0  0  0
104222  1  0  0  0
105223  1  0  0  0
105224  1  0  0  0
105225  1  0  0  0
106226  1  0  0  0
106227  1  0  0  0
106228  1  0  0  0
107229  1  0  0  0
108230  1  0  0  0
111231  1  0  0  0
111232  1  0  0  0
113233  1  0  0  0
115234  1  0  0  0
116235  1  0  0  0
118236  1  0  0  0
119237  1  0  0  0
120238  1  0  0  0
120239  1  0  0  0
121240  1  0  0  0
121241  1  0  0  0
121242  1  0  0  0
122243  1  0  0  0
122244  1  0  0  0
122245  1  0  0  0
M  END
$$$$
