2qch_ligand
  -I-interpret- 

 33 34  0  0  0  0  0  0  0  0999 V2000
   21.2840   -3.7430   14.1590 N   0  0  0  0  0
   20.8880   -4.5450   13.0540 C   0  0  0  0  0
   19.8940   -4.1490   12.2420 N   0  0  0  0  0
   19.2450   -2.9970   12.4450 C   0  0  0  0  0
   19.6450   -2.1470   13.5910 C   0  0  0  0  0
   20.6730   -2.5820   14.4000 C   0  0  0  0  0
   21.4530   -5.6340   12.8130 O   0  0  0  0  0
   18.3210   -2.6420   11.6820 O   0  0  0  0  0
   18.6970   -0.3230   14.0010 I   0  0  0  0  0
   22.3730   -4.1010   15.0770 C   0  0  0  0  0
   21.9530   -5.1240   16.1150 C   0  0  0  0  0
   23.2430   -5.8540   16.4020 C   0  0  0  0  0
   24.0620   -5.7090   15.1250 C   0  0  0  0  0
   23.9050   -5.2430   17.5130 O   0  0  0  0  0
   23.4910   -4.6430   14.3740 O   0  0  0  0  0
   24.0100   -6.9530   14.2580 C   0  0  0  0  0
   25.0300   -7.8580   14.6550 O   0  0  0  0  0
   25.3940   -9.1000   13.7050 P   0  0  0  0  0
   26.1230  -10.0170   14.6500 O   0  0  0  0  0
   26.2430   -8.4860   12.6210 O   0  0  0  0  0
   24.0460   -9.5930   13.2480 O   0  0  0  0  0
   19.6283   -4.7393   11.4537 H   0  0  0  0  0
   20.9898   -1.9710   15.2452 H   0  0  0  0  0
   22.6434   -3.1697   15.5748 H   0  0  0  0  0
   21.1596   -5.7842   15.7647 H   0  0  0  0  0
   21.5133   -4.6720   17.0040 H   0  0  0  0  0
   23.0912   -6.9012   16.6636 H   0  0  0  0  0
   25.1007   -5.5315   15.4038 H   0  0  0  0  0
   24.7244   -5.7100   17.6921 H   0  0  0  0  0
   24.1620   -6.6728   13.2156 H   0  0  0  0  0
   23.0378   -7.4323   14.3728 H   0  0  0  0  0
   25.6969   -7.9201   12.0703 H   0  0  0  0  0
   23.6562   -8.9491   12.6521 H   0  0  0  0  0
  1  2  1  0  0  0
  1  6  1  0  0  0
  1 10  1  0  0  0
  2  3  1  0  0  0
  2  7  2  0  0  0
  3  4  1  0  0  0
  4  5  1  0  0  0
  4  8  2  0  0  0
  5  6  2  0  0  0
  5  9  1  0  0  0
 10 11  1  0  0  0
 10 15  1  0  0  0
 11 12  1  0  0  0
 12 13  1  0  0  0
 12 14  1  0  0  0
 13 15  1  0  0  0
 13 16  1  0  0  0
 16 17  1  0  0  0
 17 18  1  0  0  0
 18 19  2  0  0  0
 18 20  1  0  0  0
 18 21  1  0  0  0
  3 22  1  0  0  0
  6 23  1  0  0  0
 10 24  1  0  0  0
 11 25  1  0  0  0
 11 26  1  0  0  0
 12 27  1  0  0  0
 13 28  1  0  0  0
 14 29  1  0  0  0
 16 30  1  0  0  0
 16 31  1  0  0  0
 20 32  1  0  0  0
 21 33  1  0  0  0
M  END
$$$$
