### 
### Created by X-TOOL on Mon Sep 10 21:12:56 2018
### 

@<TRIPOS>MOLECULE
2qch_ligand
   31    32     1     0     0
SMALL
GAST_HUCK


@<TRIPOS>ATOM
      1 N1         21.2840   -3.7430   14.1590 N.am      1 5IU        -0.1566
      2 C2         20.8880   -4.5450   13.0540 C.2       1 5IU         0.3354
      3 N3         19.8940   -4.1490   12.2420 N.am      1 5IU        -0.1861
      4 C4         19.2450   -2.9970   12.4450 C.2       1 5IU         0.1904
      5 C5         19.6450   -2.1470   13.5910 C.2       1 5IU         0.0751
      6 C6         20.6730   -2.5820   14.4000 C.2       1 5IU         0.0734
      7 O2         21.4530   -5.6340   12.8130 O.2       1 5IU        -0.3802
      8 O4         18.3210   -2.6420   11.6820 O.2       1 5IU        -0.4130
      9 I5         18.6970   -0.3230   14.0010 I         1 5IU        -0.0847
     10 C1'        22.3730   -4.1010   15.0770 C.3       1 5IU         0.1818
     11 C2'        21.9530   -5.1240   16.1150 C.3       1 5IU         0.0320
     12 C3'        23.2430   -5.8540   16.4020 C.3       1 5IU         0.0890
     13 C4'        24.0620   -5.7090   15.1250 C.3       1 5IU         0.1157
     14 O3'        23.9050   -5.2430   17.5130 O.3       1 5IU        -0.3890
     15 O4'        23.4910   -4.6430   14.3740 O.3       1 5IU        -0.3384
     16 C5'        24.0100   -6.9530   14.2580 C.3       1 5IU         0.1071
     17 O5'        25.0300   -7.8580   14.6550 O.3       1 5IU        -0.2734
     18 P          25.3940   -9.1000   13.7050 P.3       1 5IU         0.2008
     19 OP1        26.1230  -10.0170   14.6500 O.co2     1 5IU        -0.5537
     20 OP2        26.2430   -8.4860   12.6210 O.co2     1 5IU        -0.5537
     21 OP3        24.0460   -9.5930   13.2480 O.co2     1 5IU        -0.5537
     22 H1         19.6336   -4.7277   11.4692 H         1 5IU         0.2259
     23 H2         20.9895   -1.9715   15.2445 H         1 5IU         0.1247
     24 H3         22.6899   -3.1844   15.5961 H         1 5IU         0.0975
     25 H4         21.1913   -5.8079   15.7124 H         1 5IU         0.0345
     26 H5         21.5645   -4.6343   17.0201 H         1 5IU         0.0345
     27 H6         23.0536   -6.9149   16.6224 H         1 5IU         0.0622
     28 H7         25.1075   -5.4838   15.3822 H         1 5IU         0.0649
     29 H8         24.7491   -5.6585   17.6448 H         1 5IU         0.2099
     30 H9         24.1609   -6.6714   13.2054 H         1 5IU         0.0639
     31 H10        23.0284   -7.4364   14.3711 H         1 5IU         0.0639
@<TRIPOS>BOND
     1    1    2 am 
     2    1    6 1  
     3    1   10 1  
     4    2    3 am 
     5    2    7 2  
     6    3    4 am 
     7    4    5 1  
     8    4    8 2  
     9    5    6 2  
    10    5    9 1  
    11   10   11 1  
    12   10   15 1  
    13   11   12 1  
    14   12   13 1  
    15   12   14 1  
    16   13   15 1  
    17   13   16 1  
    18   16   17 1  
    19   17   18 1  
    20   18   19 ar 
    21   18   20 ar 
    22   18   21 ar 
    23    3   22 1  
    24    6   23 1  
    25   10   24 1  
    26   11   25 1  
    27   11   26 1  
    28   12   27 1  
    29   13   28 1  
    30   14   29 1  
    31   16   30 1  
    32   16   31 1  
@<TRIPOS>SUBSTRUCTURE
     1 5IU         1

