4pd6_ligand
  -I-interpret- 

 29 30  0  0  0  0  0  0  0  0999 V2000
   51.3240  -20.2550   -8.9720 N   0  0  0  0  0
   50.6500  -20.5480  -10.1420 C   0  0  0  0  0
   49.5860  -21.4020   -9.9980 N   0  0  0  0  0
   49.1360  -21.9800   -8.8280 C   0  0  0  0  0
   49.8840  -21.6290   -7.6610 C   0  0  0  0  0
   50.9270  -20.7990   -7.7710 C   0  0  0  0  0
   50.9660  -20.0930  -11.2260 O   0  0  0  0  0
   48.1610  -22.7280   -8.8620 O   0  0  0  0  0
   52.4890  -19.3420   -9.0550 C   0  0  0  0  0
   52.0690  -17.8900   -9.2610 C   0  0  0  0  0
   52.0480  -17.3790   -7.8250 C   0  0  0  0  0
   53.2150  -18.1170   -7.1930 C   0  0  0  0  0
   53.0810  -17.2340  -10.0080 O   0  0  0  0  0
   52.1570  -15.9710   -7.7290 O   0  0  0  0  0
   53.2100  -19.4170   -7.8410 O   0  0  0  0  0
   53.1510  -18.2980   -5.6940 C   0  0  0  0  0
   51.9010  -18.8360   -5.2900 O   0  0  0  0  0
   49.0717  -21.6351  -10.8475 H   0  0  0  0  0
   49.6061  -22.0351   -6.6884 H   0  0  0  0  0
   51.4866  -20.5423   -6.8715 H   0  0  0  0  0
   53.0924  -19.6517   -9.9083 H   0  0  0  0  0
   51.1287  -17.7413   -9.7919 H   0  0  0  0  0
   51.1010  -17.5702   -7.3202 H   0  0  0  0  0
   54.1211  -17.5286   -7.3372 H   0  0  0  0  0
   52.8315  -16.3174  -10.1466 H   0  0  0  0  0
   52.1379  -15.7120   -6.8048 H   0  0  0  0  0
   53.2772  -17.3236   -5.2220 H   0  0  0  0  0
   53.9384  -18.9898   -5.3950 H   0  0  0  0  0
   51.8916  -18.9388   -4.3356 H   0  0  0  0  0
  1  2  1  0  0  0
  1  6  1  0  0  0
  1  9  1  0  0  0
  2  3  1  0  0  0
  2  7  2  0  0  0
  3  4  1  0  0  0
  4  5  1  0  0  0
  4  8  2  0  0  0
  5  6  2  0  0  0
  9 10  1  0  0  0
  9 15  1  0  0  0
 10 11  1  0  0  0
 10 13  1  0  0  0
 11 12  1  0  0  0
 11 14  1  0  0  0
 12 15  1  0  0  0
 12 16  1  0  0  0
 16 17  1  0  0  0
  3 18  1  0  0  0
  5 19  1  0  0  0
  6 20  1  0  0  0
  9 21  1  0  0  0
 10 22  1  0  0  0
 11 23  1  0  0  0
 12 24  1  0  0  0
 13 25  1  0  0  0
 14 26  1  0  0  0
 16 27  1  0  0  0
 16 28  1  0  0  0
 17 29  1  0  0  0
M  END
$$$$
