6qhc_ligand
  -I-interpret- 

 32 33  0  0  0  0  0  0  0  0999 V2000
  -22.6440    3.9950  -23.3710 C   0  0  0  0  0
  -23.1410    4.1930  -22.0860 C   0  0  0  0  0
  -23.2140    3.1500  -21.1830 C   0  0  0  0  0
  -22.8350    1.8650  -21.5600 C   0  0  0  0  0
  -22.3800    1.6450  -22.8650 C   0  0  0  0  0
  -22.2970    2.6990  -23.7620 C   0  0  0  0  0
  -22.5830    5.1340  -24.3340 C   0  0  0  0  0
  -23.1510    6.2670  -24.0600 N   0  0  0  0  0
  -21.9740    4.9560  -25.5240 N   0  0  0  0  0
  -22.9400    0.8000  -20.6320 N   0  0  0  0  0
  -23.4200    0.8370  -19.3630 C   0  0  0  0  0
  -23.8640    1.8570  -18.8370 O   0  0  0  0  0
  -23.4350   -0.4690  -18.6250 C   0  0  0  0  0
  -23.9290   -0.4330  -17.3150 C   0  0  0  0  0
  -24.0200   -1.5910  -16.5560 C   0  0  0  0  0
  -23.6120   -2.8010  -17.0770 C   0  0  0  0  0
  -23.1270   -2.8750  -18.3720 C   0  0  0  0  0
  -23.0310   -1.7210  -19.1510 C   0  0  0  0  0
  -22.5490   -1.8540  -20.4140 O   0  0  0  0  0
  -23.4777    5.1859  -21.7877 H   0  0  0  0  0
  -23.5704    3.3345  -20.1696 H   0  0  0  0  0
  -22.0899    0.6418  -23.1773 H   0  0  0  0  0
  -21.9580    2.5151  -24.7815 H   0  0  0  0  0
  -23.1371    7.0232  -24.7444 H   0  0  0  0  0
  -21.9603    5.7124  -26.2081 H   0  0  0  0  0
  -21.5271    4.0649  -25.7400 H   0  0  0  0  0
  -22.6137   -0.1095  -20.9587 H   0  0  0  0  0
  -24.2462    0.5174  -16.8859 H   0  0  0  0  0
  -24.4164   -1.5441  -15.5417 H   0  0  0  0  0
  -23.6715   -3.7025  -16.4672 H   0  0  0  0  0
  -22.8197   -3.8363  -18.7837 H   0  0  0  0  0
  -22.3331   -2.7750  -20.5776 H   0  0  0  0  0
  1  2  4  0  0  0
  1  6  4  0  0  0
  1  7  1  0  0  0
  2  3  4  0  0  0
  3  4  4  0  0  0
  4  5  4  0  0  0
  4 10  1  0  0  0
  5  6  4  0  0  0
  7  8  2  0  0  0
  7  9  1  0  0  0
 10 11  1  0  0  0
 11 12  2  0  0  0
 11 13  1  0  0  0
 13 14  4  0  0  0
 13 18  4  0  0  0
 14 15  4  0  0  0
 15 16  4  0  0  0
 16 17  4  0  0  0
 17 18  4  0  0  0
 18 19  1  0  0  0
  2 20  1  0  0  0
  3 21  1  0  0  0
  5 22  1  0  0  0
  6 23  1  0  0  0
  8 24  1  0  0  0
  9 25  1  0  0  0
  9 26  1  0  0  0
 10 27  1  0  0  0
 14 28  1  0  0  0
 15 29  1  0  0  0
 16 30  1  0  0  0
 17 31  1  0  0  0
 19 32  1  0  0  0
M  END
$$$$
