5nfh_ligand
  -I-interpret- 

 47 50  0  0  0  0  0  0  0  0999 V2000
  -42.0360   13.9820    7.0330 C   0  0  0  0  0
  -40.8050   14.4680    7.0690 C   0  0  0  0  0
  -40.3770   15.7090    7.0400 C   0  0  0  0  0
  -41.5290   16.9720    6.9730 Cl  0  0  0  0  0
  -39.0140   15.9890    7.0740 C   0  0  0  0  0
  -38.1280   14.9330    7.1310 C   0  0  0  0  0
  -36.5470   15.2200    7.1750 Cl  0  0  0  0  0
  -38.6010   13.6400    7.1790 C   0  0  0  0  0
  -39.9250   13.4370    7.1450 C   0  0  0  0  0
  -40.6180   12.2950    7.1530 N   0  0  0  0  0
  -41.9160   12.6440    7.1030 C   0  0  0  0  0
  -43.0940   11.6640    7.1560 C   0  0  0  0  0
  -42.9020   10.6290    8.2260 N   0  3  0  0  0
  -42.9320   11.0450    9.6700 C   0  0  0  0  0
  -44.3330   11.5300   10.0800 C   0  0  0  0  0
  -44.4480   11.6550   11.6220 C   0  0  0  0  0
  -43.5140   12.6330   12.2320 N   0  0  0  0  0
  -43.9580   13.5860   13.0440 C   0  0  0  0  0
  -43.1480   14.5840   13.4110 N   0  0  0  0  0
  -43.5760   15.5620   14.2220 C   0  0  0  0  0
  -42.6970   16.5690   14.5840 C   0  0  0  0  0
  -43.1400   17.5880   15.3980 C   0  0  0  0  0
  -44.4530   17.6210   15.8630 C   0  0  0  0  0
  -45.3430   16.6180   15.5060 C   0  0  0  0  0
  -44.9030   15.5830   14.6850 C   0  0  0  0  0
  -45.7820   14.5550   14.3090 C   0  0  0  0  0
  -46.9580   14.5270   14.6920 O   0  0  0  0  0
  -45.2920   13.5390   13.4790 N   0  0  0  0  0
  -42.9621   14.5523    6.9610 H   0  0  0  0  0
  -38.6552   17.0181    7.0560 H   0  0  0  0  0
  -37.9114   12.7983    7.2434 H   0  0  0  0  0
  -43.1641   11.1566    6.1939 H   0  0  0  0  0
  -44.0008   12.2264    7.3788 H   0  0  0  0  0
  -41.9570   10.2749    8.0777 H   0  0  0  0  0
  -43.6962    9.9975    8.1215 H   0  0  0  0  0
  -42.2255   11.8629    9.8112 H   0  0  0  0  0
  -42.6675   10.1851   10.2854 H   0  0  0  0  0
  -45.0698   10.8062    9.7316 H   0  0  0  0  0
  -44.5082   12.5097    9.6354 H   0  0  0  0  0
  -44.2045   10.6782   12.0400 H   0  0  0  0  0
  -45.4585   12.0010   11.8393 H   0  0  0  0  0
  -42.5170   12.5728   12.0250 H   0  0  0  0  0
  -41.6666   16.5554   14.2289 H   0  0  0  0  0
  -42.4510   18.3829   15.6835 H   0  0  0  0  0
  -44.7816   18.4358   16.5081 H   0  0  0  0  0
  -46.3725   16.6400   15.8634 H   0  0  0  0  0
  -45.8994   12.7711   13.1929 H   0  0  0  0  0
  1  2  4  0  0  0
  1 11  4  0  0  0
  2  3  4  0  0  0
  2  9  4  0  0  0
  3  4  1  0  0  0
  3  5  4  0  0  0
  5  6  4  0  0  0
  6  7  1  0  0  0
  6  8  4  0  0  0
  9  8  4  0  0  0
  9 10  4  0  0  0
 11 10  4  0  0  0
 11 12  1  0  0  0
 12 13  1  0  0  0
 13 14  1  0  0  0
 14 15  1  0  0  0
 15 16  1  0  0  0
 16 17  1  0  0  0
 17 18  1  0  0  0
 18 19  2  0  0  0
 18 28  1  0  0  0
 19 20  1  0  0  0
 20 21  4  0  0  0
 20 25  4  0  0  0
 21 22  4  0  0  0
 22 23  4  0  0  0
 23 24  4  0  0  0
 24 25  4  0  0  0
 25 26  1  0  0  0
 26 27  2  0  0  0
 26 28  1  0  0  0
  1 29  1  0  0  0
  5 30  1  0  0  0
  8 31  1  0  0  0
 12 32  1  0  0  0
 12 33  1  0  0  0
 13 34  1  0  0  0
 13 35  1  0  0  0
 14 36  1  0  0  0
 14 37  1  0  0  0
 15 38  1  0  0  0
 15 39  1  0  0  0
 16 40  1  0  0  0
 16 41  1  0  0  0
 17 42  1  0  0  0
 21 43  1  0  0  0
 22 44  1  0  0  0
 23 45  1  0  0  0
 24 46  1  0  0  0
 28 47  1  0  0  0
M  END
$$$$
