1il9_ligand
  -I-interpret- 

 18 19  0  0  0  0  0  0  0  0999 V2000
    3.6780    1.6530    7.4100 N   0  0  0  0  0
    3.6120    1.2400    8.7030 C   0  0  0  0  0
    2.4190    0.9320    9.2570 N   0  0  0  0  0
    1.2970    1.0380    8.5140 C   0  0  0  0  0
    1.3470    1.4570    7.1900 C   0  0  0  0  0
    2.5860    1.7770    6.6220 C   0  0  0  0  0
    2.7220    2.1460    5.5060 O   0  0  0  0  0
    0.0800    1.4390    6.7860 N   0  0  0  0  0
   -0.6110    1.0220    7.8690 C   0  0  0  0  0
    0.0960    0.7640    8.9570 O   0  0  0  0  0
   -2.1250    0.8560    7.8090 C   0  0  0  0  0
    4.6870    1.1130    9.5010 N   0  0  0  0  0
    4.5914    1.8794    7.0165 H   0  0  0  0  0
   -2.5847    1.8133    7.5633 H   0  0  0  0  0
   -2.3788    0.1225    7.0437 H   0  0  0  0  0
   -2.4904    0.5139    8.7773 H   0  0  0  0  0
    4.5725    0.7994   10.4648 H   0  0  0  0  0
    5.6169    1.3302    9.1424 H   0  0  0  0  0
  1  2  1  0  0  0
  1  6  1  0  0  0
  2  3  2  0  0  0
  2 12  1  0  0  0
  3  4  1  0  0  0
  4  5  4  0  0  0
  4 10  4  0  0  0
  5  6  1  0  0  0
  5  8  4  0  0  0
  6  7  2  0  0  0
  8  9  4  0  0  0
  9 10  4  0  0  0
  9 11  1  0  0  0
  1 13  1  0  0  0
 11 14  1  0  0  0
 11 15  1  0  0  0
 11 16  1  0  0  0
 12 17  1  0  0  0
 12 18  1  0  0  0
M  END
$$$$
