### 
### Created by X-TOOL on Wed Jan  1 15:39:37 2020
### 

@<TRIPOS>MOLECULE
6b5m_ligand
  179   182     1     0     0
SMALL
GAST_HUCK


@<TRIPOS>ATOM
      1 N         -21.5390    4.1050  191.8600 N.4       1 ASN         0.2396
      2 CA        -21.8590    2.6490  191.8920 C.3       1 ASN         0.0820
      3 C         -22.5710    2.2480  190.6040 C.2       1 ASN         0.2316
      4 O         -23.1890    3.0870  189.9480 O.2       1 ASN        -0.3903
      5 CB        -22.7250    2.3170  193.1100 C.3       1 ASN         0.0972
      6 CG        -22.0940    2.7700  194.4110 C.2       1 ASN         0.1813
      7 OD1       -20.9040    3.0800  194.4560 O.2       1 ASN        -0.3969
      8 ND2       -22.8900    2.8040  195.4810 N.am      1 ASN        -0.3006
      9 N         -22.4870    0.9740  190.2270 N.am      1 PRO        -0.2470
     10 CA        -23.1790    0.5360  189.0090 C.3       1 PRO         0.1339
     11 C         -24.6830    0.7250  189.1260 C.2       1 PRO         0.2042
     12 O         -25.2600    0.6650  190.2140 O.2       1 PRO        -0.3944
     13 CB        -22.8040   -0.9470  188.8850 C.3       1 PRO        -0.0104
     14 CG        -22.2130   -1.3400  190.1900 C.3       1 PRO        -0.0281
     15 CD        -21.6890   -0.1010  190.8380 C.3       1 PRO         0.0371
     16 N         -25.3150    0.9740  187.9800 N.am      1 ASP        -0.2622
     17 CA        -26.7630    1.0740  187.8960 C.3       1 ASP         0.1425
     18 C         -27.2980   -0.2820  187.4630 C.2       1 ASP         0.2081
     19 O         -27.1730   -0.6300  186.2790 O.2       1 ASP        -0.3941
     20 CB        -27.1720    2.1570  186.9000 C.3       1 ASP         0.0406
     21 CG        -28.6810    2.3050  186.7730 C.2       1 ASP         0.0393
     22 OD1       -29.4240    1.4320  187.2660 O.co2     1 ASP        -0.5688
     23 OD2       -29.1260    3.3030  186.1660 O.co2     1 ASP        -0.5688
     24 N         -27.8880   -1.0800  188.3590 N.am      1 PRO        -0.2497
     25 CA        -28.2990   -2.4390  187.9670 C.3       1 PRO         0.1338
     26 C         -29.3600   -2.4720  186.8850 C.2       1 PRO         0.2042
     27 O         -29.5830   -3.5430  186.3030 O.2       1 PRO        -0.3944
     28 CB        -28.8270   -3.0420  189.2780 C.3       1 PRO        -0.0104
     29 CG        -28.2670   -2.1790  190.3600 C.3       1 PRO        -0.0281
     30 CD        -28.1880   -0.8110  189.7750 C.3       1 PRO         0.0369
     31 N         -30.0180   -1.3520  186.5950 N.am      1 ASN        -0.2616
     32 CA        -31.0280   -1.2940  185.5470 C.3       1 ASN         0.1476
     33 C         -30.4550   -0.8960  184.1930 C.2       1 ASN         0.2062
     34 O         -31.2070   -0.8360  183.2150 O.2       1 ASN        -0.3942
     35 CB        -32.1410   -0.3210  185.9470 C.3       1 ASN         0.0773
     36 CG        -32.9630   -0.8290  187.1160 C.2       1 ASN         0.1780
     37 OD1       -32.7020   -1.9070  187.6510 O.2       1 ASN        -0.3970
     38 ND2       -33.9570   -0.0500  187.5250 N.am      1 ASN        -0.3007
     39 N         -29.1500   -0.6220  184.1080 N.am      1 ALA        -0.2639
     40 CA        -28.5380   -0.3590  182.8090 C.3       1 ALA         0.1282
     41 C         -28.6990   -1.5570  181.8820 C.2       1 ALA         0.2037
     42 O         -29.0070   -1.3930  180.6930 O.2       1 ALA        -0.3944
     43 CB        -27.0590   -0.0090  182.9810 C.3       1 ALA        -0.0244
     44 N         -28.4880   -2.7610  182.4020 N.am      1 ASN        -0.2616
     45 CA        -28.8020   -3.9950  181.6820 C.3       1 ASN         0.1478
     46 C         -29.4430   -4.9520  182.6750 C.2       1 ASN         0.2088
     47 O         -28.7340   -5.6030  183.4600 O.2       1 ASN        -0.3940
     48 CB        -27.5690   -4.6270  181.0430 C.3       1 ASN         0.0773
     49 CG        -27.9290   -5.7800  180.1220 C.2       1 ASN         0.1780
     50 OD1       -29.0270   -6.3260  180.2060 O.2       1 ASN        -0.3970
     51 ND2       -27.0110   -6.1440  179.2300 N.am      1 ASN        -0.3007
     52 N         -30.7730   -5.0700  182.6740 N.am      1 PRO        -0.2497
     53 CA        -31.4230   -6.0000  183.6100 C.3       1 PRO         0.1338
     54 C         -30.8670   -7.4110  183.5350 C.2       1 PRO         0.2042
     55 O         -30.9650   -8.1640  184.5130 O.2       1 PRO        -0.3944
     56 CB        -32.8980   -5.9570  183.1850 C.3       1 PRO        -0.0104
     57 CG        -33.0580   -4.7040  182.3980 C.3       1 PRO        -0.0281
     58 CD        -31.7370   -4.4200  181.7690 C.3       1 PRO         0.0369
     59 N         -30.2870   -7.7950  182.3960 N.am      1 ASN        -0.2616
     60 CA        -29.7940   -9.1540  182.2080 C.3       1 ASN         0.1476
     61 C         -28.5780   -9.4770  183.0640 C.2       1 ASN         0.2063
     62 O         -28.2230  -10.6550  183.1750 O.2       1 ASN        -0.3942
     63 CB        -29.4390   -9.3830  180.7400 C.3       1 ASN         0.0773
     64 CG        -30.6340   -9.2550  179.8210 C.2       1 ASN         0.1780
     65 OD1       -31.7680   -9.5230  180.2110 O.2       1 ASN        -0.3970
     66 ND2       -30.3810   -8.8430  178.5870 N.am      1 ASN        -0.3007
     67 N         -27.9290   -8.4780  183.6540 N.am      1 VAL        -0.2633
     68 CA        -26.7090   -8.6930  184.4220 C.3       1 VAL         0.1333
     69 C         -27.0860   -8.9060  185.8810 C.2       1 VAL         0.2042
     70 O         -27.6700   -8.0200  186.5160 O.2       1 VAL        -0.3944
     71 CB        -25.7410   -7.5100  184.2690 C.3       1 VAL        -0.0063
     72 CG1       -24.5460   -7.6580  185.2120 C.3       1 VAL        -0.0584
     73 CG2       -25.2640   -7.4040  182.8300 C.3       1 VAL        -0.0584
     74 N         -26.7550  -10.0840  186.4100 N.am      1 ASP        -0.2622
     75 CA        -26.8750  -10.3410  187.8380 C.3       1 ASP         0.1425
     76 C         -25.5480   -9.9770  188.4910 C.2       1 ASP         0.2081
     77 O         -24.5730  -10.7260  188.3370 O.2       1 ASP        -0.3941
     78 CB        -27.2130  -11.8040  188.0960 C.3       1 ASP         0.0406
     79 CG        -27.3870  -12.1180  189.5750 C.2       1 ASP         0.0393
     80 OD1       -27.1660  -11.2200  190.4140 O.co2     1 ASP        -0.5688
     81 OD2       -27.7390  -13.2730  189.9000 O.co2     1 ASP        -0.5688
     82 N         -25.4500   -8.8560  189.2140 N.am      1 PRO        -0.2497
     83 CA        -24.1730   -8.5420  189.8700 C.3       1 PRO         0.1337
     84 C         -23.8190   -9.5300  190.9630 C.2       1 PRO         0.2037
     85 O         -22.6600   -9.5620  191.3930 O.2       1 PRO        -0.3944
     86 CB        -24.3900   -7.1260  190.4290 C.3       1 PRO        -0.0104
     87 CG        -25.8580   -6.8080  190.2350 C.3       1 PRO        -0.0281
     88 CD        -26.5490   -8.0450  189.7590 C.3       1 PRO         0.0369
     89 N         -24.7780  -10.3360  191.4110 N.am      1 ASN        -0.2674
     90 CA        -24.5370  -11.4180  192.3590 C.3       1 ASN         0.1110
     91 C         -24.2480  -10.8830  193.7540 C.2       1 ASN         0.0624
     92 O         -25.1560  -10.7050  194.5600 O.co2     1 ASN        -0.5665
     93 CB        -23.3740  -12.3030  191.8930 C.3       1 ASN         0.0718
     94 CG        -23.5670  -12.8380  190.4870 C.2       1 ASN         0.1774
     95 OD1       -22.9730  -12.3410  189.5310 O.2       1 ASN        -0.3971
     96 ND2       -24.3940  -13.8670  190.3580 N.am      1 ASN        -0.3007
     97 OXT       -23.1010  -10.6190  194.1010 O.co2     1 ASN        -0.5665
     98 H1        -21.0688    4.3645  192.7130 H         1 ASN         0.2017
     99 H2        -22.3921    4.6347  191.7721 H         1 ASN         0.2017
    100 H3        -20.9397    4.3001  191.0734 H         1 ASN         0.2017
    101 H4        -20.9189    2.0828  191.9662 H         1 ASN         0.1125
    102 H5        -22.8741    1.2279  193.1506 H         1 ASN         0.0585
    103 H6        -23.6986    2.8164  192.9974 H         1 ASN         0.0585
    104 H7        -22.5262    3.0953  196.3658 H         1 ASN         0.1814
    105 H8        -23.8505    2.5382  195.3983 H         1 ASN         0.1814
    106 H9        -22.8151    1.0983  188.1365 H         1 PRO         0.0802
    107 H10       -22.0707   -1.0879  188.0773 H         1 PRO         0.0313
    108 H11       -23.7000   -1.5499  188.6761 H         1 PRO         0.0313
    109 H12       -21.3930   -2.0556  190.0304 H         1 PRO         0.0287
    110 H13       -22.9825   -1.8001  190.8272 H         1 PRO         0.0287
    111 H14       -21.8416   -0.1329  191.9269 H         1 PRO         0.0524
    112 H15       -20.6189    0.0328  190.6214 H         1 PRO         0.0524
    113 H16       -24.7741    1.0965  187.1478 H         1 ASP         0.1884
    114 H17       -27.1701    1.3290  188.8855 H         1 ASP         0.0819
    115 H18       -26.7603    1.8997  185.9129 H         1 ASP         0.0478
    116 H19       -26.7520    3.1174  187.2335 H         1 ASP         0.0478
    117 H20       -27.4250   -3.0039  187.6105 H         1 PRO         0.0802
    118 H21       -28.4791   -4.0791  189.3931 H         1 PRO         0.0313
    119 H22       -29.9266   -3.0198  189.2974 H         1 PRO         0.0313
    120 H23       -27.2667   -2.5303  190.6534 H         1 PRO         0.0287
    121 H24       -28.9296   -2.1842  191.2380 H         1 PRO         0.0287
    122 H25       -29.1440   -0.2777  189.8834 H         1 PRO         0.0524
    123 H26       -27.3854   -0.2243  190.2458 H         1 PRO         0.0524
    124 H27       -29.8121   -0.5224  187.1140 H         1 ASN         0.1885
    125 H28       -31.4649   -2.2984  185.4454 H         1 ASN         0.0826
    126 H29       -32.8076   -0.1735  185.0846 H         1 ASN         0.0551
    127 H30       -31.6856    0.6403  186.2272 H         1 ASN         0.0551
    128 H31       -34.5322   -0.3346  188.2919 H         1 ASN         0.1814
    129 H32       -34.1306    0.8214  187.0662 H         1 ASN         0.1814
    130 H33       -28.5909   -0.5970  184.9367 H         1 ALA         0.1883
    131 H34       -29.0485    0.5022  182.3531 H         1 ALA         0.0797
    132 H35       -26.6115    0.1864  181.9953 H         1 ALA         0.0277
    133 H36       -26.5366   -0.8498  183.4607 H         1 ALA         0.0277
    134 H37       -26.9653    0.8881  183.6106 H         1 ALA         0.0277
    135 H38       -28.0995   -2.8263  183.3211 H         1 ASN         0.1885
    136 H39       -29.5232   -3.7662  180.8836 H         1 ASN         0.0826
    137 H40       -26.9098   -5.0022  181.8396 H         1 ASN         0.0551
    138 H41       -27.0392   -3.8595  180.4597 H         1 ASN         0.0551
    139 H42       -27.1975   -6.8976  178.5996 H         1 ASN         0.1814
    140 H43       -26.1347   -5.6640  179.1901 H         1 ASN         0.1814
    141 H44       -31.3104   -5.6357  184.6418 H         1 PRO         0.0802
    142 H45       -33.5511   -5.9392  184.0700 H         1 PRO         0.0313
    143 H46       -33.1436   -6.8321  182.5655 H         1 PRO         0.0313
    144 H47       -33.3482   -3.8751  183.0603 H         1 PRO         0.0287
    145 H48       -33.8258   -4.8394  181.6220 H         1 PRO         0.0287
    146 H49       -31.6817   -4.8538  180.7597 H         1 PRO         0.0524
    147 H50       -31.5539   -3.3368  181.7131 H         1 PRO         0.0524
    148 H51       -30.1881   -7.1336  181.6525 H         1 ASN         0.1885
    149 H52       -30.6014   -9.8467  182.4878 H         1 ASN         0.0826
    150 H53       -29.0204  -10.3946  180.6333 H         1 ASN         0.0551
    151 H54       -28.6845   -8.6405  180.4409 H         1 ASN         0.0551
    152 H55       -31.1290   -8.7382  177.9316 H         1 ASN         0.1814
    153 H56       -29.4421   -8.6369  178.3113 H         1 ASN         0.1814
    154 H57       -28.2894   -7.5492  183.5681 H         1 VAL         0.1883
    155 H58       -26.2095   -9.5990  184.0483 H         1 VAL         0.0802
    156 H59       -26.2774   -6.5856  184.5293 H         1 VAL         0.0343
    157 H60       -23.8692   -6.8004  185.0836 H         1 VAL         0.0234
    158 H61       -24.0075   -8.5882  184.9783 H         1 VAL         0.0234
    159 H62       -24.9018   -7.6917  186.2523 H         1 VAL         0.0234
    160 H63       -26.1321   -7.2981  182.1628 H         1 VAL         0.0234
    161 H64       -24.7039   -8.3118  182.5615 H         1 VAL         0.0234
    162 H65       -24.6108   -6.5253  182.7240 H         1 VAL         0.0234
    163 H66       -26.4158  -10.8093  185.8110 H         1 ASP         0.1884
    164 H67       -27.6742   -9.7118  188.2568 H         1 ASP         0.0819
    165 H68       -26.3994  -12.4281  187.6978 H         1 ASP         0.0478
    166 H69       -28.1501  -12.0456  187.5730 H         1 ASP         0.0478
    167 H70       -23.3602   -8.5373  189.1289 H         1 PRO         0.0802
    168 H71       -23.7687   -6.4019  189.8816 H         1 PRO         0.0313
    169 H72       -24.1326   -7.0958  191.4980 H         1 PRO         0.0313
    170 H73       -25.9695   -6.0090  189.4873 H         1 PRO         0.0287
    171 H74       -26.2967   -6.4811  191.1893 H         1 PRO         0.0287
    172 H75       -27.0467   -8.5638  190.5916 H         1 PRO         0.0524
    173 H76       -27.2885   -7.8085  188.9798 H         1 PRO         0.0524
    174 H77       -25.7111  -10.1928  191.0812 H         1 ASN         0.1877
    175 H78       -25.4454  -12.0363  192.4083 H         1 ASN         0.0752
    176 H79       -23.2824  -13.1546  192.5832 H         1 ASN         0.0544
    177 H80       -22.4486  -11.7090  191.9186 H         1 ASN         0.0544
    178 H81       -24.5618  -14.2635  189.4554 H         1 ASN         0.1814
    179 H82       -24.8497  -14.2462  191.1633 H         1 ASN         0.1814
@<TRIPOS>BOND
     1    1    2 1  
     2    2    3 1  
     3    2    5 1  
     4    3    4 2  
     5    3    9 am 
     6    5    6 1  
     7    6    7 2  
     8    6    8 am 
     9    9   10 1  
    10    9   15 1  
    11   10   11 1  
    12   10   13 1  
    13   11   12 2  
    14   11   16 am 
    15   13   14 1  
    16   14   15 1  
    17   16   17 1  
    18   17   18 1  
    19   17   20 1  
    20   18   19 2  
    21   18   24 am 
    22   20   21 1  
    23   21   22 ar 
    24   21   23 ar 
    25   24   25 1  
    26   24   30 1  
    27   25   26 1  
    28   25   28 1  
    29   26   27 2  
    30   26   31 am 
    31   28   29 1  
    32   29   30 1  
    33   31   32 1  
    34   32   33 1  
    35   32   35 1  
    36   33   34 2  
    37   33   39 am 
    38   35   36 1  
    39   36   37 2  
    40   36   38 am 
    41   39   40 1  
    42   40   41 1  
    43   40   43 1  
    44   41   42 2  
    45   41   44 am 
    46   44   45 1  
    47   45   46 1  
    48   45   48 1  
    49   46   47 2  
    50   46   52 am 
    51   48   49 1  
    52   49   50 2  
    53   49   51 am 
    54   52   53 1  
    55   52   58 1  
    56   53   54 1  
    57   53   56 1  
    58   54   55 2  
    59   54   59 am 
    60   56   57 1  
    61   57   58 1  
    62   59   60 1  
    63   60   61 1  
    64   60   63 1  
    65   61   62 2  
    66   61   67 am 
    67   63   64 1  
    68   64   65 2  
    69   64   66 am 
    70   67   68 1  
    71   68   69 1  
    72   68   71 1  
    73   69   70 2  
    74   69   74 am 
    75   71   72 1  
    76   71   73 1  
    77   74   75 1  
    78   75   76 1  
    79   75   78 1  
    80   76   77 2  
    81   76   82 am 
    82   78   79 1  
    83   79   80 ar 
    84   79   81 ar 
    85   82   83 1  
    86   82   88 1  
    87   83   84 1  
    88   83   86 1  
    89   84   85 2  
    90   84   89 am 
    91   86   87 1  
    92   87   88 1  
    93   89   90 1  
    94   90   91 1  
    95   90   93 1  
    96   91   92 ar 
    97   91   97 ar 
    98   93   94 1  
    99   94   95 2  
   100   94   96 am 
   101    1   98 1  
   102    1   99 1  
   103    1  100 1  
   104    2  101 1  
   105    5  102 1  
   106    5  103 1  
   107    8  104 1  
   108    8  105 1  
   109   10  106 1  
   110   13  107 1  
   111   13  108 1  
   112   14  109 1  
   113   14  110 1  
   114   15  111 1  
   115   15  112 1  
   116   16  113 1  
   117   17  114 1  
   118   20  115 1  
   119   20  116 1  
   120   25  117 1  
   121   28  118 1  
   122   28  119 1  
   123   29  120 1  
   124   29  121 1  
   125   30  122 1  
   126   30  123 1  
   127   31  124 1  
   128   32  125 1  
   129   35  126 1  
   130   35  127 1  
   131   38  128 1  
   132   38  129 1  
   133   39  130 1  
   134   40  131 1  
   135   43  132 1  
   136   43  133 1  
   137   43  134 1  
   138   44  135 1  
   139   45  136 1  
   140   48  137 1  
   141   48  138 1  
   142   51  139 1  
   143   51  140 1  
   144   53  141 1  
   145   56  142 1  
   146   56  143 1  
   147   57  144 1  
   148   57  145 1  
   149   58  146 1  
   150   58  147 1  
   151   59  148 1  
   152   60  149 1  
   153   63  150 1  
   154   63  151 1  
   155   66  152 1  
   156   66  153 1  
   157   67  154 1  
   158   68  155 1  
   159   71  156 1  
   160   72  157 1  
   161   72  158 1  
   162   72  159 1  
   163   73  160 1  
   164   73  161 1  
   165   73  162 1  
   166   74  163 1  
   167   75  164 1  
   168   78  165 1  
   169   78  166 1  
   170   83  167 1  
   171   86  168 1  
   172   86  169 1  
   173   87  170 1  
   174   87  171 1  
   175   88  172 1  
   176   88  173 1  
   177   89  174 1  
   178   90  175 1  
   179   93  176 1  
   180   93  177 1  
   181   96  178 1  
   182   96  179 1  
@<TRIPOS>SUBSTRUCTURE
     1 ASN         1

