6b5m_ligand
  -I-interpret- 

182185  0  0  0  0  0  0  0  0999 V2000
  -21.5390    4.1050  191.8600 N   0  3  0  0  0
  -21.8590    2.6490  191.8920 C   0  0  0  0  0
  -22.5710    2.2480  190.6040 C   0  0  0  0  0
  -23.1890    3.0870  189.9480 O   0  0  0  0  0
  -22.7250    2.3170  193.1100 C   0  0  0  0  0
  -22.0940    2.7700  194.4110 C   0  0  0  0  0
  -20.9040    3.0800  194.4560 O   0  0  0  0  0
  -22.8900    2.8040  195.4810 N   0  0  0  0  0
  -22.4870    0.9740  190.2270 N   0  0  0  0  0
  -23.1790    0.5360  189.0090 C   0  0  0  0  0
  -24.6830    0.7250  189.1260 C   0  0  0  0  0
  -25.2600    0.6650  190.2140 O   0  0  0  0  0
  -22.8040   -0.9470  188.8850 C   0  0  0  0  0
  -22.2130   -1.3400  190.1900 C   0  0  0  0  0
  -21.6890   -0.1010  190.8380 C   0  0  0  0  0
  -25.3150    0.9740  187.9800 N   0  0  0  0  0
  -26.7630    1.0740  187.8960 C   0  0  0  0  0
  -27.2980   -0.2820  187.4630 C   0  0  0  0  0
  -27.1730   -0.6300  186.2790 O   0  0  0  0  0
  -27.1720    2.1570  186.9000 C   0  0  0  0  0
  -28.6810    2.3050  186.7730 C   0  0  0  0  0
  -29.4240    1.4320  187.2660 O   0  0  0  0  0
  -29.1260    3.3030  186.1660 O   0  0  0  0  0
  -27.8880   -1.0800  188.3590 N   0  0  0  0  0
  -28.2990   -2.4390  187.9670 C   0  0  0  0  0
  -29.3600   -2.4720  186.8850 C   0  0  0  0  0
  -29.5830   -3.5430  186.3030 O   0  0  0  0  0
  -28.8270   -3.0420  189.2780 C   0  0  0  0  0
  -28.2670   -2.1790  190.3600 C   0  0  0  0  0
  -28.1880   -0.8110  189.7750 C   0  0  0  0  0
  -30.0180   -1.3520  186.5950 N   0  0  0  0  0
  -31.0280   -1.2940  185.5470 C   0  0  0  0  0
  -30.4550   -0.8960  184.1930 C   0  0  0  0  0
  -31.2070   -0.8360  183.2150 O   0  0  0  0  0
  -32.1410   -0.3210  185.9470 C   0  0  0  0  0
  -32.9630   -0.8290  187.1160 C   0  0  0  0  0
  -32.7020   -1.9070  187.6510 O   0  0  0  0  0
  -33.9570   -0.0500  187.5250 N   0  0  0  0  0
  -29.1500   -0.6220  184.1080 N   0  0  0  0  0
  -28.5380   -0.3590  182.8090 C   0  0  0  0  0
  -28.6990   -1.5570  181.8820 C   0  0  0  0  0
  -29.0070   -1.3930  180.6930 O   0  0  0  0  0
  -27.0590   -0.0090  182.9810 C   0  0  0  0  0
  -28.4880   -2.7610  182.4020 N   0  0  0  0  0
  -28.8020   -3.9950  181.6820 C   0  0  0  0  0
  -29.4430   -4.9520  182.6750 C   0  0  0  0  0
  -28.7340   -5.6030  183.4600 O   0  0  0  0  0
  -27.5690   -4.6270  181.0430 C   0  0  0  0  0
  -27.9290   -5.7800  180.1220 C   0  0  0  0  0
  -29.0270   -6.3260  180.2060 O   0  0  0  0  0
  -27.0110   -6.1440  179.2300 N   0  0  0  0  0
  -30.7730   -5.0700  182.6740 N   0  0  0  0  0
  -31.4230   -6.0000  183.6100 C   0  0  0  0  0
  -30.8670   -7.4110  183.5350 C   0  0  0  0  0
  -30.9650   -8.1640  184.5130 O   0  0  0  0  0
  -32.8980   -5.9570  183.1850 C   0  0  0  0  0
  -33.0580   -4.7040  182.3980 C   0  0  0  0  0
  -31.7370   -4.4200  181.7690 C   0  0  0  0  0
  -30.2870   -7.7950  182.3960 N   0  0  0  0  0
  -29.7940   -9.1540  182.2080 C   0  0  0  0  0
  -28.5780   -9.4770  183.0640 C   0  0  0  0  0
  -28.2230  -10.6550  183.1750 O   0  0  0  0  0
  -29.4390   -9.3830  180.7400 C   0  0  0  0  0
  -30.6340   -9.2550  179.8210 C   0  0  0  0  0
  -31.7680   -9.5230  180.2110 O   0  0  0  0  0
  -30.3810   -8.8430  178.5870 N   0  0  0  0  0
  -27.9290   -8.4780  183.6540 N   0  0  0  0  0
  -26.7090   -8.6930  184.4220 C   0  0  0  0  0
  -27.0860   -8.9060  185.8810 C   0  0  0  0  0
  -27.6700   -8.0200  186.5160 O   0  0  0  0  0
  -25.7410   -7.5100  184.2690 C   0  0  0  0  0
  -24.5460   -7.6580  185.2120 C   0  0  0  0  0
  -25.2640   -7.4040  182.8300 C   0  0  0  0  0
  -26.7550  -10.0840  186.4100 N   0  0  0  0  0
  -26.8750  -10.3410  187.8380 C   0  0  0  0  0
  -25.5480   -9.9770  188.4910 C   0  0  0  0  0
  -24.5730  -10.7260  188.3370 O   0  0  0  0  0
  -27.2130  -11.8040  188.0960 C   0  0  0  0  0
  -27.3870  -12.1180  189.5750 C   0  0  0  0  0
  -27.1660  -11.2200  190.4140 O   0  0  0  0  0
  -27.7390  -13.2730  189.9000 O   0  0  0  0  0
  -25.4500   -8.8560  189.2140 N   0  0  0  0  0
  -24.1730   -8.5420  189.8700 C   0  0  0  0  0
  -23.8190   -9.5300  190.9630 C   0  0  0  0  0
  -22.6600   -9.5620  191.3930 O   0  0  0  0  0
  -24.3900   -7.1260  190.4290 C   0  0  0  0  0
  -25.8580   -6.8080  190.2350 C   0  0  0  0  0
  -26.5490   -8.0450  189.7590 C   0  0  0  0  0
  -24.7780  -10.3360  191.4110 N   0  0  0  0  0
  -24.5370  -11.4180  192.3590 C   0  0  0  0  0
  -24.2480  -10.8830  193.7540 C   0  0  0  0  0
  -25.1560  -10.7050  194.5600 O   0  0  0  0  0
  -23.3740  -12.3030  191.8930 C   0  0  0  0  0
  -23.5670  -12.8380  190.4870 C   0  0  0  0  0
  -22.9730  -12.3410  189.5310 O   0  0  0  0  0
  -24.3940  -13.8670  190.3580 N   0  0  0  0  0
  -23.1010  -10.6190  194.1010 O   0  0  0  0  0
  -20.9625    4.3073  191.0433 H   0  0  0  0  0
  -22.4051    4.6412  191.8075 H   0  0  0  0  0
  -21.0313    4.3590  192.7074 H   0  0  0  0  0
  -20.9299    2.0847  191.9718 H   0  0  0  0  0
  -22.8443    1.2344  193.1530 H   0  0  0  0  0
  -23.6762    2.8374  192.9984 H   0  0  0  0  0
  -22.5177    3.0961  196.3846 H   0  0  0  0  0
  -23.8710    2.5379  195.3956 H   0  0  0  0  0
  -22.8885    1.1135  188.1314 H   0  0  0  0  0
  -22.0961   -1.1050  188.0713 H   0  0  0  0  0
  -23.6792   -1.5539  188.6531 H   0  0  0  0  0
  -21.4094   -2.0615  190.0423 H   0  0  0  0  0
  -22.9654   -1.8113  190.8223 H   0  0  0  0  0
  -21.7854   -0.1259  191.9234 H   0  0  0  0  0
  -20.6190    0.0321  190.6781 H   0  0  0  0  0
  -24.7633    1.0989  187.1312 H   0  0  0  0  0
  -27.1778    1.3511  188.8651 H   0  0  0  0  0
  -26.7816    1.8747  185.9222 H   0  0  0  0  0
  -26.7733    3.1062  187.2579 H   0  0  0  0  0
  -28.3938    3.8474  185.8676 H   0  0  0  0  0
  -27.4687   -2.9912  187.5267 H   0  0  0  0  0
  -28.5208   -4.0816  189.3942 H   0  0  0  0  0
  -29.9166   -3.0602  189.3019 H   0  0  0  0  0
  -27.2887   -2.5314  190.6867 H   0  0  0  0  0
  -28.8943   -2.1973  191.2512 H   0  0  0  0  0
  -29.1038   -0.2363  189.9134 H   0  0  0  0  0
  -27.4365   -0.1857  190.2570 H   0  0  0  0  0
  -29.8080   -0.5058  187.1244 H   0  0  0  0  0
  -31.4309   -2.3010  185.4392 H   0  0  0  0  0
  -32.8077   -0.2027  185.0929 H   0  0  0  0  0
  -31.6756    0.6183  186.2457 H   0  0  0  0  0
  -34.5395   -0.3371  188.3116 H   0  0  0  0  0
  -34.1383    0.8357  187.0527 H   0  0  0  0  0
  -28.5797   -0.5965  184.9533 H   0  0  0  0  0
  -29.0474    0.4912  182.3553 H   0  0  0  0  0
  -26.9675    0.8800  183.6050 H   0  0  0  0  0
  -26.5425   -0.8429  183.4564 H   0  0  0  0  0
  -26.6167    0.1844  182.0037 H   0  0  0  0  0
  -28.0917   -2.8276  183.3395 H   0  0  0  0  0
  -29.4819   -3.7689  180.8606 H   0  0  0  0  0
  -26.9342   -5.0144  181.8400 H   0  0  0  0  0
  -27.0646   -3.8637  180.4505 H   0  0  0  0  0
  -27.2056   -6.9051  178.5795 H   0  0  0  0  0
  -26.1128   -5.6619  179.1968 H   0  0  0  0  0
  -31.2586   -5.7100  184.6478 H   0  0  0  0  0
  -33.5602   -5.9683  184.0507 H   0  0  0  0  0
  -33.1656   -6.8329  182.5940 H   0  0  0  0  0
  -33.3671   -3.8794  183.0403 H   0  0  0  0  0
  -33.8322   -4.8187  181.6393 H   0  0  0  0  0
  -31.6715   -4.7996  180.7493 H   0  0  0  0  0
  -31.5495   -3.3519  181.6592 H   0  0  0  0  0
  -30.1861   -7.1204  181.6376 H   0  0  0  0  0
  -30.6004   -9.8170  182.5215 H   0  0  0  0  0
  -29.0516  -10.3974  180.6446 H   0  0  0  0  0
  -28.7121   -8.6243  180.4501 H   0  0  0  0  0
  -31.1438   -8.7373  177.9181 H   0  0  0  0  0
  -29.4235   -8.6316  178.3062 H   0  0  0  0  0
  -28.2966   -7.5306  183.5664 H   0  0  0  0  0
  -26.1929   -9.5759  184.0449 H   0  0  0  0  0
  -26.2739   -6.5967  184.5334 H   0  0  0  0  0
  -24.8999   -7.6913  186.2424 H   0  0  0  0  0
  -24.0133   -8.5801  184.9794 H   0  0  0  0  0
  -23.8762   -6.8077  185.0838 H   0  0  0  0  0
  -24.7508   -8.3239  182.5500 H   0  0  0  0  0
  -26.1215   -7.2509  182.1747 H   0  0  0  0  0
  -24.5789   -6.5614  182.7368 H   0  0  0  0  0
  -26.4090  -10.8238  185.7990 H   0  0  0  0  0
  -27.6813   -9.7408  188.2597 H   0  0  0  0  0
  -26.3866  -12.4082  187.7217 H   0  0  0  0  0
  -28.1566  -12.0216  187.5956 H   0  0  0  0  0
  -27.8558  -13.8051  189.1095 H   0  0  0  0  0
  -23.3323   -8.6017  189.1788 H   0  0  0  0  0
  -23.7617   -6.4013  189.9112 H   0  0  0  0  0
  -24.1156   -7.0759  191.4827 H   0  0  0  0  0
  -25.9733   -6.0102  189.5013 H   0  0  0  0  0
  -26.2953   -6.4749  191.1762 H   0  0  0  0  0
  -27.0932   -8.5547  190.5541 H   0  0  0  0  0
  -27.3233   -7.8362  189.0208 H   0  0  0  0  0
  -25.7298  -10.1899  191.0746 H   0  0  0  0  0
  -25.4462  -12.0177  192.4020 H   0  0  0  0  0
  -25.9922  -10.9509  194.1577 H   0  0  0  0  0
  -23.3130  -13.1561  192.5687 H   0  0  0  0  0
  -22.4698  -11.6942  191.8967 H   0  0  0  0  0
  -24.5580  -14.2774  189.4387 H   0  0  0  0  0
  -24.8660  -14.2479  191.1781 H   0  0  0  0  0
  1  2  1  0  0  0
  2  3  1  0  0  0
  2  5  1  0  0  0
  3  4  2  0  0  0
  3  9  1  0  0  0
  5  6  1  0  0  0
  6  7  2  0  0  0
  6  8  1  0  0  0
  9 10  1  0  0  0
  9 15  1  0  0  0
 10 11  1  0  0  0
 10 13  1  0  0  0
 11 12  2  0  0  0
 11 16  1  0  0  0
 13 14  1  0  0  0
 14 15  1  0  0  0
 16 17  1  0  0  0
 17 18  1  0  0  0
 17 20  1  0  0  0
 18 19  2  0  0  0
 18 24  1  0  0  0
 20 21  1  0  0  0
 21 22  2  0  0  0
 21 23  1  0  0  0
 24 25  1  0  0  0
 24 30  1  0  0  0
 25 26  1  0  0  0
 25 28  1  0  0  0
 26 27  2  0  0  0
 26 31  1  0  0  0
 28 29  1  0  0  0
 29 30  1  0  0  0
 31 32  1  0  0  0
 32 33  1  0  0  0
 32 35  1  0  0  0
 33 34  2  0  0  0
 33 39  1  0  0  0
 35 36  1  0  0  0
 36 37  2  0  0  0
 36 38  1  0  0  0
 39 40  1  0  0  0
 40 41  1  0  0  0
 40 43  1  0  0  0
 41 42  2  0  0  0
 41 44  1  0  0  0
 44 45  1  0  0  0
 45 46  1  0  0  0
 45 48  1  0  0  0
 46 47  2  0  0  0
 46 52  1  0  0  0
 48 49  1  0  0  0
 49 50  2  0  0  0
 49 51  1  0  0  0
 52 53  1  0  0  0
 52 58  1  0  0  0
 53 54  1  0  0  0
 53 56  1  0  0  0
 54 55  2  0  0  0
 54 59  1  0  0  0
 56 57  1  0  0  0
 57 58  1  0  0  0
 59 60  1  0  0  0
 60 61  1  0  0  0
 60 63  1  0  0  0
 61 62  2  0  0  0
 61 67  1  0  0  0
 63 64  1  0  0  0
 64 65  2  0  0  0
 64 66  1  0  0  0
 67 68  1  0  0  0
 68 69  1  0  0  0
 68 71  1  0  0  0
 69 70  2  0  0  0
 69 74  1  0  0  0
 71 72  1  0  0  0
 71 73  1  0  0  0
 74 75  1  0  0  0
 75 76  1  0  0  0
 75 78  1  0  0  0
 76 77  2  0  0  0
 76 82  1  0  0  0
 78 79  1  0  0  0
 79 80  2  0  0  0
 79 81  1  0  0  0
 82 83  1  0  0  0
 82 88  1  0  0  0
 83 84  1  0  0  0
 83 86  1  0  0  0
 84 85  2  0  0  0
 84 89  1  0  0  0
 86 87  1  0  0  0
 87 88  1  0  0  0
 89 90  1  0  0  0
 90 91  1  0  0  0
 90 93  1  0  0  0
 91 92  1  0  0  0
 91 97  2  0  0  0
 93 94  1  0  0  0
 94 95  2  0  0  0
 94 96  1  0  0  0
  1 98  1  0  0  0
  1 99  1  0  0  0
  1100  1  0  0  0
  2101  1  0  0  0
  5102  1  0  0  0
  5103  1  0  0  0
  8104  1  0  0  0
  8105  1  0  0  0
 10106  1  0  0  0
 13107  1  0  0  0
 13108  1  0  0  0
 14109  1  0  0  0
 14110  1  0  0  0
 15111  1  0  0  0
 15112  1  0  0  0
 16113  1  0  0  0
 17114  1  0  0  0
 20115  1  0  0  0
 20116  1  0  0  0
 23117  1  0  0  0
 25118  1  0  0  0
 28119  1  0  0  0
 28120  1  0  0  0
 29121  1  0  0  0
 29122  1  0  0  0
 30123  1  0  0  0
 30124  1  0  0  0
 31125  1  0  0  0
 32126  1  0  0  0
 35127  1  0  0  0
 35128  1  0  0  0
 38129  1  0  0  0
 38130  1  0  0  0
 39131  1  0  0  0
 40132  1  0  0  0
 43133  1  0  0  0
 43134  1  0  0  0
 43135  1  0  0  0
 44136  1  0  0  0
 45137  1  0  0  0
 48138  1  0  0  0
 48139  1  0  0  0
 51140  1  0  0  0
 51141  1  0  0  0
 53142  1  0  0  0
 56143  1  0  0  0
 56144  1  0  0  0
 57145  1  0  0  0
 57146  1  0  0  0
 58147  1  0  0  0
 58148  1  0  0  0
 59149  1  0  0  0
 60150  1  0  0  0
 63151  1  0  0  0
 63152  1  0  0  0
 66153  1  0  0  0
 66154  1  0  0  0
 67155  1  0  0  0
 68156  1  0  0  0
 71157  1  0  0  0
 72158  1  0  0  0
 72159  1  0  0  0
 72160  1  0  0  0
 73161  1  0  0  0
 73162  1  0  0  0
 73163  1  0  0  0
 74164  1  0  0  0
 75165  1  0  0  0
 78166  1  0  0  0
 78167  1  0  0  0
 81168  1  0  0  0
 83169  1  0  0  0
 86170  1  0  0  0
 86171  1  0  0  0
 87172  1  0  0  0
 87173  1  0  0  0
 88174  1  0  0  0
 88175  1  0  0  0
 89176  1  0  0  0
 90177  1  0  0  0
 92178  1  0  0  0
 93179  1  0  0  0
 93180  1  0  0  0
 96181  1  0  0  0
 96182  1  0  0  0
M  END
$$$$
