3pwk_ligand
  -I-interpret- 

 24 24  0  0  0  0  0  0  0  0999 V2000
    2.2710   23.2630   43.9810 O   0  0  0  0  0
   -3.5290   25.7130   47.0620 O   0  0  0  0  0
    3.4250   24.8700   44.9880 O   0  0  0  0  0
   -2.1020   25.3660   48.7120 O   0  0  0  0  0
    0.3770   23.1890   46.0160 C   0  0  0  0  0
   -0.7430   23.5750   46.9810 C   0  0  0  0  0
    0.6330   25.6210   45.3610 C   0  0  0  0  0
   -0.4870   26.0070   46.3000 C   0  0  0  0  0
    2.4200   24.1380   44.8660 C   0  0  0  0  0
   -2.4300   25.3350   47.5040 C   0  0  0  0  0
    1.3430   24.3730   45.8710 C   0  0  0  0  0
   -1.4520   24.8430   46.4950 C   0  0  0  0  0
    1.4192   22.8353   44.0956 H   0  0  0  0  0
   -1.2101   25.0243   48.8091 H   0  0  0  0  0
   -0.0463   22.9391   45.0431 H   0  0  0  0  0
    0.9133   22.3228   46.4034 H   0  0  0  0  0
   -0.3148   23.7626   47.9656 H   0  0  0  0  0
   -1.4657   22.7606   47.0306 H   0  0  0  0  0
    1.3494   26.4406   45.3052 H   0  0  0  0  0
    0.2163   25.4158   44.3749 H   0  0  0  0  0
   -1.0317   26.8483   45.8716 H   0  0  0  0  0
   -0.0599   26.2762   47.2660 H   0  0  0  0  0
    1.7526   24.4935   46.8739 H   0  0  0  0  0
   -1.9268   24.5550   45.5571 H   0  0  0  0  0
  9  1  1  0  0  0
 10  2  2  0  0  0
  9  3  2  0  0  0
 10  4  1  0  0  0
  6  5  1  0  0  0
  5 11  1  0  0  0
 12  6  1  0  0  0
  8  7  1  0  0  0
  7 11  1  0  0  0
 12  8  1  0  0  0
 11  9  1  0  0  0
 10 12  1  0  0  0
  1 13  1  0  0  0
  4 14  1  0  0  0
  5 15  1  0  0  0
  5 16  1  0  0  0
  6 17  1  0  0  0
  6 18  1  0  0  0
  7 19  1  0  0  0
  7 20  1  0  0  0
  8 21  1  0  0  0
  8 22  1  0  0  0
 11 23  1  0  0  0
 12 24  1  0  0  0
M  END
$$$$
