3igp_ligand
  -I-interpret- 

 34 35  0  0  0  0  0  0  0  0999 V2000
   -4.0610    7.2340   11.1240 C   0  0  0  0  0
   -0.2620    4.3570   12.5330 C   0  0  0  0  0
   -5.2910   -0.4010   16.1810 N   0  0  0  0  0
   -5.2360    1.2140   18.0710 O   0  0  0  0  0
   -7.3450    0.9480   16.7030 O   0  0  0  0  0
   -4.7030    5.5210   13.2720 C   0  0  0  0  0
   -2.5690    3.8940   13.9890 C   0  0  0  0  0
   -6.3290    4.0080   14.2810 C   0  0  0  0  0
   -6.4400    3.2210   15.5690 C   0  0  0  0  0
   -3.1710    7.0700   12.2540 O   0  0  0  0  0
   -1.0760    5.4600   12.9630 O   0  0  0  0  0
   -4.9130    4.3290   13.9690 C   0  0  0  0  0
   -3.4100    5.8970   12.9320 C   0  0  0  0  0
   -2.3460    5.0820   13.2960 C   0  0  0  0  0
   -3.8470    3.5110   14.3320 C   0  0  0  0  0
   -4.1050    2.1750   15.0780 C   0  0  0  0  0
   -5.3080    2.3140   15.9320 N   0  0  0  0  0
   -5.8520    0.9620   16.7650 S   0  0  0  0  0
   -3.9221    6.4047   10.4304 H   0  0  0  0  0
   -5.0929    7.2470   11.4748 H   0  0  0  0  0
   -3.8357    8.1733   10.6190 H   0  0  0  0  0
   -0.1922    3.6237   13.3365 H   0  0  0  0  0
   -0.7135    3.8944   11.6554 H   0  0  0  0  0
    0.7350    4.7190   12.2821 H   0  0  0  0  0
   -4.6094   -0.9418   16.7133 H   0  0  0  0  0
   -5.6117   -0.7371   15.2729 H   0  0  0  0  0
   -5.5482    6.1519   12.9968 H   0  0  0  0  0
   -1.7242    3.2617   14.2623 H   0  0  0  0  0
   -6.8807    4.9412   14.3945 H   0  0  0  0  0
   -6.7366    3.4060   13.4689 H   0  0  0  0  0
   -7.3041    2.5696   15.4382 H   0  0  0  0  0
   -6.4811    3.9668   16.3628 H   0  0  0  0  0
   -3.2430    1.9322   15.6994 H   0  0  0  0  0
   -4.2633    1.3771   14.3524 H   0  0  0  0  0
 10  1  1  0  0  0
 11  2  1  0  0  0
 18  3  1  0  0  0
 18  4  2  0  0  0
 18  5  2  0  0  0
 12  6  4  0  0  0
  6 13  4  0  0  0
  7 14  4  0  0  0
 15  7  4  0  0  0
  9  8  1  0  0  0
  8 12  1  0  0  0
 17  9  1  0  0  0
 13 10  1  0  0  0
 14 11  1  0  0  0
 15 12  4  0  0  0
 14 13  4  0  0  0
 16 15  1  0  0  0
 17 16  1  0  0  0
 17 18  1  0  0  0
  1 19  1  0  0  0
  1 20  1  0  0  0
  1 21  1  0  0  0
  2 22  1  0  0  0
  2 23  1  0  0  0
  2 24  1  0  0  0
  3 25  1  0  0  0
  3 26  1  0  0  0
  6 27  1  0  0  0
  7 28  1  0  0  0
  8 29  1  0  0  0
  8 30  1  0  0  0
  9 31  1  0  0  0
  9 32  1  0  0  0
 16 33  1  0  0  0
 16 34  1  0  0  0
M  END
$$$$
