2a0c_ligand
  -I-interpret- 

 53 55  0  0  0  0  0  0  0  0999 V2000
    3.4740    9.8470   27.9890 O   0  0  0  0  0
    4.1320    9.7280   29.1940 C   0  0  0  0  0
    4.2590   10.8230   30.0990 C   0  0  0  0  0
    4.9420   10.6450   31.3430 C   0  0  0  0  0
    5.4970    9.3750   31.6790 C   0  0  0  0  0
    5.3710    8.2830   30.7740 C   0  0  0  0  0
    4.7060    8.4760   29.5380 C   0  0  0  0  0
    4.5230    7.3480   28.5790 C   0  0  0  0  0
    3.5280    6.4870   28.6970 N   0  0  0  0  0
    2.4240    6.4650   28.1680 C   0  0  0  0  0
    1.5150    5.4070   28.2980 C   0  0  0  0  0
    1.4980    4.2120   28.9170 N   0  0  0  0  0
    0.3690    3.6070   28.6340 C   0  0  0  0  0
    0.2650    5.5380   27.5840 C   0  0  0  0  0
   -0.4450    4.3860   27.8110 N   0  0  0  0  0
   -1.8090    4.0590   27.2480 C   0  0  0  0  0
   -1.6370    3.7090   25.7810 C   0  0  0  0  0
   -2.9320    5.1140   27.3750 C   0  0  0  0  0
   -0.0340    6.6310   26.8070 N   0  0  0  0  0
    0.8550    7.6550   26.7100 C   0  0  0  0  0
    2.0320    7.5560   27.3930 N   0  0  0  0  0
    0.6230    8.6970   25.9820 N   0  0  0  0  0
   -0.5390    8.8980   25.0470 C   0  0  0  0  0
   -1.6670    9.6260   25.8740 C   0  0  0  0  0
   -1.5940   11.1530   26.1440 C   0  0  0  0  0
   -1.0700    7.6310   24.2720 C   0  0  0  0  0
   -0.2060    7.0360   23.2990 O   0  0  0  0  0
    3.4976    9.0051   27.5283 H   0  0  0  0  0
    3.8360   11.7944   29.8429 H   0  0  0  0  0
    5.0385   11.4813   32.0353 H   0  0  0  0  0
    6.0170    9.2404   32.6275 H   0  0  0  0  0
    5.7827    7.3068   31.0300 H   0  0  0  0  0
    5.4123    6.7358   28.7290 H   0  0  0  0  0
    4.3210    7.8464   27.6309 H   0  0  0  0  0
    3.7096    5.7119   29.3347 H   0  0  0  0  0
    0.0994    2.6155   28.9978 H   0  0  0  0  0
   -2.1634    3.2407   27.8748 H   0  0  0  0  0
   -1.2049    4.5597   25.2541 H   0  0  0  0  0
   -0.9743    2.8485   25.6894 H   0  0  0  0  0
   -2.6088    3.4684   25.3498 H   0  0  0  0  0
   -3.1094    5.3289   28.4288 H   0  0  0  0  0
   -2.6303    6.0274   26.8624 H   0  0  0  0  0
   -3.8452    4.7269   26.9231 H   0  0  0  0  0
    1.2957    9.4609   26.0477 H   0  0  0  0  0
   -0.1825    9.5032   24.2135 H   0  0  0  0  0
   -1.6020    9.1771   26.8651 H   0  0  0  0  0
   -2.5630    9.5060   25.2650 H   0  0  0  0  0
   -0.6831   11.3796   26.6981 H   0  0  0  0  0
   -1.5860   11.6886   25.1947 H   0  0  0  0  0
   -2.4618   11.4593   26.7281 H   0  0  0  0  0
   -1.9428    7.9737   23.7163 H   0  0  0  0  0
   -1.2223    6.8660   25.0334 H   0  0  0  0  0
   -0.6448    6.2796   22.9030 H   0  0  0  0  0
  1  2  1  0  0  0
  2  3  4  0  0  0
  2  7  4  0  0  0
  3  4  4  0  0  0
  4  5  4  0  0  0
  5  6  4  0  0  0
  6  7  4  0  0  0
  7  8  1  0  0  0
  8  9  1  0  0  0
  9 10  1  0  0  0
 10 11  4  0  0  0
 10 21  4  0  0  0
 11 12  4  0  0  0
 11 14  4  0  0  0
 12 13  4  0  0  0
 13 15  4  0  0  0
 14 15  4  0  0  0
 14 19  4  0  0  0
 15 16  1  0  0  0
 16 17  1  0  0  0
 16 18  1  0  0  0
 19 20  4  0  0  0
 20 21  4  0  0  0
 20 22  1  0  0  0
 22 23  1  0  0  0
 23 24  1  0  0  0
 23 26  1  0  0  0
 24 25  1  0  0  0
 26 27  1  0  0  0
  1 28  1  0  0  0
  3 29  1  0  0  0
  4 30  1  0  0  0
  5 31  1  0  0  0
  6 32  1  0  0  0
  8 33  1  0  0  0
  8 34  1  0  0  0
  9 35  1  0  0  0
 13 36  1  0  0  0
 16 37  1  0  0  0
 17 38  1  0  0  0
 17 39  1  0  0  0
 17 40  1  0  0  0
 18 41  1  0  0  0
 18 42  1  0  0  0
 18 43  1  0  0  0
 22 44  1  0  0  0
 23 45  1  0  0  0
 24 46  1  0  0  0
 24 47  1  0  0  0
 25 48  1  0  0  0
 25 49  1  0  0  0
 25 50  1  0  0  0
 26 51  1  0  0  0
 26 52  1  0  0  0
 27 53  1  0  0  0
M  END
$$$$
