4i8x_ligand
  -I-interpret- 

 24 25  0  0  0  0  0  0  0  0999 V2000
   11.9180   12.6490   43.3830 C   0  0  0  0  0
   11.6020   13.7030   42.4880 C   0  0  0  0  0
   11.9930   13.6590   41.1240 C   0  0  0  0  0
   12.7160   12.5500   40.6280 C   0  0  0  0  0
   13.0380   11.4890   41.5090 C   0  0  0  0  0
   12.6430   11.5440   42.8670 C   0  0  0  0  0
   11.4950   12.7480   44.8220 C   0  0  0  0  0
   11.3280   14.0280   45.3590 N   0  0  0  0  0
   10.9600   14.2330   46.6500 C   0  0  0  0  0
   10.7210   13.1580   47.5330 C   0  0  0  0  0
   10.8790   11.8440   47.0140 C   0  0  0  0  0
   11.2640   11.6370   45.6640 C   0  0  0  0  0
   10.3350   13.4190   48.9330 C   0  0  0  0  0
   10.5780   14.4690   49.4480 O   0  0  0  0  0
    9.7190   12.4140   49.5940 O   0  0  0  0  0
   11.0467   14.5659   42.8556 H   0  0  0  0  0
   11.7352   14.4821   40.4576 H   0  0  0  0  0
   13.0213   12.5121   39.5823 H   0  0  0  0  0
   13.5924   10.6263   41.1397 H   0  0  0  0  0
   12.9015   10.7192   43.5311 H   0  0  0  0  0
   10.8462   15.2542   47.0138 H   0  0  0  0  0
   10.7022   10.9848   47.6611 H   0  0  0  0  0
   11.3811   10.6244   45.2778 H   0  0  0  0  0
    9.6173   11.6614   49.0068 H   0  0  0  0  0
  1  2  4  0  0  0
  1  6  4  0  0  0
  1  7  1  0  0  0
  2  3  4  0  0  0
  3  4  4  0  0  0
  4  5  4  0  0  0
  5  6  4  0  0  0
  7  8  4  0  0  0
  7 12  4  0  0  0
  8  9  4  0  0  0
  9 10  4  0  0  0
 10 11  4  0  0  0
 10 13  1  0  0  0
 11 12  4  0  0  0
 13 14  2  0  0  0
 13 15  1  0  0  0
  2 16  1  0  0  0
  3 17  1  0  0  0
  4 18  1  0  0  0
  5 19  1  0  0  0
  6 20  1  0  0  0
  9 21  1  0  0  0
 11 22  1  0  0  0
 12 23  1  0  0  0
 15 24  1  0  0  0
M  END
$$$$
