4kxn_ligand
  -I-interpret- 

 47 50  0  0  0  0  0  0  0  0999 V2000
    4.3010   -7.6150   44.8330 C   0  0  0  0  0
    5.3400   -7.6770   45.6680 C   0  0  0  0  0
    6.4700   -7.6280   44.9650 C   0  0  0  0  0
    6.1340   -7.5400   43.6400 O   0  0  0  0  0
    4.7720   -7.5350   43.5940 C   0  0  0  0  0
    4.0030   -7.4310   42.2800 C   0  0  0  0  0
    3.9390   -5.9980   41.9480 N   0  0  0  0  0
    4.7890   -5.4340   41.1010 C   0  0  0  0  0
    5.8450   -6.1170   40.6010 N   0  0  0  0  0
    6.6940   -5.5670   39.7470 C   0  0  0  0  0
    6.5450   -4.3170   39.3510 N   0  0  0  0  0
    5.5190   -3.5730   39.8110 C   0  0  0  0  0
    4.6030   -4.1210   40.7010 C   0  0  0  0  0
    3.7070   -3.1840   40.9890 N   0  0  0  0  0
    4.0350   -2.0850   40.3040 C   0  0  0  0  0
    5.1410   -2.3160   39.5750 N   0  0  0  0  0
    5.8430   -1.3610   38.6640 C   0  0  0  0  0
    5.0480   -0.1440   38.5880 O   0  0  0  0  0
    6.0250   -1.8540   37.2070 C   0  0  0  0  0
    7.4110   -1.7970   36.8470 O   0  0  0  0  0
    5.2570   -0.8550   36.3570 C   0  0  0  0  0
    6.0200   -0.4770   35.2050 O   0  0  0  0  0
    5.1410    0.3580   37.2690 C   0  0  0  0  0
    3.8080    0.9020   36.8300 C   0  0  0  0  0
    3.2160    1.8740   37.7050 O   0  0  0  0  0
    1.5790    1.7090   37.6270 P   0  0  0  0  0
    0.8570    1.3480   38.9800 O   0  0  0  0  0
    0.8050    2.5340   36.4410 O   0  0  0  0  0
    1.5460    3.0650   38.2230 O   0  0  0  0  0
    3.2491   -7.6278   45.1182 H   0  0  0  0  0
    5.2743   -7.7553   46.7532 H   0  0  0  0  0
    7.4812   -7.6534   45.3712 H   0  0  0  0  0
    3.0035   -7.8550   42.3772 H   0  0  0  0  0
    4.5006   -7.9936   41.4901 H   0  0  0  0  0
    3.2187   -5.4215   42.3829 H   0  0  0  0  0
    7.5284   -6.1553   39.3653 H   0  0  0  0  0
    3.4882   -1.1425   40.3319 H   0  0  0  0  0
    6.8378   -1.2269   39.0887 H   0  0  0  0  0
    5.6775   -2.8787   37.0755 H   0  0  0  0  0
    7.5187   -2.1034   35.9436 H   0  0  0  0  0
    4.3053   -1.2544   36.0064 H   0  0  0  0  0
    5.5181    0.1530   34.6828 H   0  0  0  0  0
    5.9494    1.0882   37.2305 H   0  0  0  0  0
    3.1228    0.0548   36.7997 H   0  0  0  0  0
    3.9774    1.4051   35.8780 H   0  0  0  0  0
    0.6700    0.4066   39.0004 H   0  0  0  0  0
    0.5966    1.9354   35.7200 H   0  0  0  0  0
  1  2  4  0  0  0
  1  5  4  0  0  0
  2  3  4  0  0  0
  3  4  4  0  0  0
  4  5  4  0  0  0
  5  6  1  0  0  0
  6  7  1  0  0  0
  7  8  1  0  0  0
  8  9  4  0  0  0
  8 13  4  0  0  0
  9 10  4  0  0  0
 10 11  4  0  0  0
 11 12  4  0  0  0
 12 13  4  0  0  0
 12 16  4  0  0  0
 13 14  4  0  0  0
 14 15  4  0  0  0
 15 16  4  0  0  0
 16 17  1  0  0  0
 17 18  1  0  0  0
 17 19  1  0  0  0
 18 23  1  0  0  0
 19 20  1  0  0  0
 19 21  1  0  0  0
 21 22  1  0  0  0
 21 23  1  0  0  0
 23 24  1  0  0  0
 24 25  1  0  0  0
 25 26  1  0  0  0
 26 27  1  0  0  0
 26 28  1  0  0  0
 26 29  2  0  0  0
  1 30  1  0  0  0
  2 31  1  0  0  0
  3 32  1  0  0  0
  6 33  1  0  0  0
  6 34  1  0  0  0
  7 35  1  0  0  0
 10 36  1  0  0  0
 15 37  1  0  0  0
 17 38  1  0  0  0
 19 39  1  0  0  0
 20 40  1  0  0  0
 21 41  1  0  0  0
 22 42  1  0  0  0
 23 43  1  0  0  0
 24 44  1  0  0  0
 24 45  1  0  0  0
 27 46  1  0  0  0
 28 47  1  0  0  0
M  END
$$$$
