3zst_ligand
  -I-interpret- 

126132  0  0  0  0  0  0  0  0999 V2000
  -17.7650   93.2790   20.7000 C   0  0  0  0  0
  -17.5940   94.7440   20.3850 C   0  0  0  0  0
  -16.2670   95.1810   20.9640 C   0  0  0  0  0
  -16.1140   94.8530   22.4610 C   0  0  0  0  0
  -16.5340   93.4170   22.9270 C   0  0  0  0  0
  -16.7880   93.3790   24.4620 C   0  0  0  0  0
  -16.7050   92.7520   19.8390 O   0  0  0  0  0
  -17.5510   94.8560   18.9430 O   0  0  0  0  0
  -16.1030   96.5600   20.7380 O   0  0  0  0  0
  -17.6970   92.9320   22.1650 O   0  0  0  0  0
  -18.0380   92.7260   24.7350 O   0  0  0  0  0
  -16.2620   89.3930   17.2920 C   0  0  0  0  0
  -16.6630   90.6960   16.5710 C   0  0  0  0  0
  -16.5320   91.9090   17.5410 C   0  0  0  0  0
  -17.1110   91.6400   18.9540 C   0  0  0  0  0
  -16.7530   90.2580   19.5410 C   0  0  0  0  0
  -17.5490   89.9930   20.8530 C   0  0  0  0  0
  -14.8360   89.4250   17.6380 O   0  0  0  0  0
  -15.8580   90.8520   15.3750 O   0  0  0  0  0
  -17.2210   93.0650   17.0640 O   0  0  0  0  0
  -17.0980   89.3140   18.4950 O   0  0  0  0  0
  -16.9380   88.9550   21.5880 O   0  0  0  0  0
  -11.0720   87.8110   17.1300 C   0  0  0  0  0
  -11.7290   88.2580   15.8000 C   0  0  0  0  0
  -12.9920   89.1010   16.0550 C   0  0  0  0  0
  -13.9520   88.4050   17.0790 C   0  0  0  0  0
  -13.2290   87.6730   18.2990 C   0  0  0  0  0
  -14.1600   86.7520   19.1700 C   0  0  0  0  0
  -10.6930   88.9330   17.9920 O   0  0  0  0  0
  -10.8010   88.9500   14.9400 O   0  0  0  0  0
  -13.6580   89.3700   14.8000 O   0  0  0  0  0
  -11.9960   86.9660   17.8960 O   0  0  0  0  0
  -14.0230   87.0070   20.5810 O   0  0  0  0  0
   -7.4350   90.3200   20.1360 C   0  0  0  0  0
   -7.2730   90.2480   18.5850 C   0  0  0  0  0
   -8.5990   89.9420   17.8780 C   0  0  0  0  0
   -9.3770   88.8270   18.5870 C   0  0  0  0  0
   -9.3980   88.9900   20.1350 C   0  0  0  0  0
  -10.2960   87.9270   20.8430 C   0  0  0  0  0
   -8.2850   91.4500   20.5100 O   0  0  0  0  0
   -6.8060   91.4910   18.0530 O   0  0  0  0  0
   -8.3920   89.5890   16.4980 O   0  0  0  0  0
   -8.0190   89.0830   20.6480 O   0  0  0  0  0
   -9.5490   86.7480   21.1750 O   0  0  0  0  0
   -9.2600   93.9990   23.8110 C   0  0  0  0  0
   -7.9570   94.2550   23.0660 C   0  0  0  0  0
   -8.1070   93.6130   21.6750 C   0  0  0  0  0
   -8.0330   92.0710   21.8070 C   0  0  0  0  0
   -9.0560   91.6020   22.9030 C   0  0  0  0  0
   -8.6250   90.2300   23.4780 C   0  0  0  0  0
  -10.3570   94.6270   23.0330 O   0  0  0  0  0
   -7.7120   95.6620   22.9870 O   0  0  0  0  0
   -7.1500   94.1290   20.7270 O   0  0  0  0  0
   -9.3440   92.5290   24.0460 O   0  0  0  0  0
   -9.5450   89.8230   24.4990 O   0  0  0  0  0
  -14.3440   95.7800   23.8410 C   0  0  0  0  0
  -13.3880   96.9160   23.4030 C   0  0  0  0  0
  -12.0140   96.3880   22.9430 C   0  0  0  0  0
  -11.4450   95.2470   23.8240 C   0  0  0  0  0
  -12.5620   94.2400   24.2750 C   0  0  0  0  0
  -12.1580   93.2380   25.3640 C   0  0  0  0  0
  -14.6970   94.9780   22.6790 O   0  0  0  0  0
  -13.9740   97.6420   22.3100 O   0  0  0  0  0
  -11.0910   97.4860   22.8890 O   0  0  0  0  0
  -13.7770   94.8910   24.8160 O   0  0  0  0  0
  -13.1760   93.2740   26.3870 O   0  0  0  0  0
  -18.7495   92.8539   20.5048 H   0  0  0  0  0
  -18.3973   95.3563   20.7947 H   0  0  0  0  0
  -15.4848   94.6156   20.4574 H   0  0  0  0  0
  -16.7754   95.5136   23.0215 H   0  0  0  0  0
  -15.7070   92.7378   22.7200 H   0  0  0  0  0
  -16.8238   94.3986   24.8457 H   0  0  0  0  0
  -15.9816   92.8283   24.9462 H   0  0  0  0  0
  -18.3937   94.5784   18.5763 H   0  0  0  0  0
  -16.2018   96.7435   19.8009 H   0  0  0  0  0
  -18.1872   92.7066   25.6831 H   0  0  0  0  0
  -16.4144   88.5186   16.6593 H   0  0  0  0  0
  -17.7075   90.6485   16.2631 H   0  0  0  0  0
  -15.4555   92.0717   17.5927 H   0  0  0  0  0
  -18.1971   91.6023   18.8704 H   0  0  0  0  0
  -15.7019   90.1783   19.8184 H   0  0  0  0  0
  -18.5685   89.7013   20.6008 H   0  0  0  0  0
  -17.5586   90.9011   21.4558 H   0  0  0  0  0
  -16.1076   91.6631   14.9262 H   0  0  0  0  0
  -17.1121   93.7829   17.6920 H   0  0  0  0  0
  -17.4356   88.7994   22.3941 H   0  0  0  0  0
  -10.1709   87.2682   16.8444 H   0  0  0  0  0
  -12.0323   87.3519   15.2755 H   0  0  0  0  0
  -12.6941   90.0494   16.5022 H   0  0  0  0  0
  -14.4746   87.6294   16.5192 H   0  0  0  0  0
  -12.9434   88.4950   18.9553 H   0  0  0  0  0
  -13.8756   85.7159   18.9861 H   0  0  0  0  0
  -15.1933   86.9568   18.8898 H   0  0  0  0  0
  -11.2480   89.2080   14.1305 H   0  0  0  0  0
  -14.4447   89.8956   14.9627 H   0  0  0  0  0
  -14.6085   86.4232   21.0689 H   0  0  0  0  0
   -6.4456   90.4558   20.5728 H   0  0  0  0  0
   -6.5550   89.4478   18.4054 H   0  0  0  0  0
   -9.1915   90.8559   17.9198 H   0  0  0  0  0
   -8.9261   87.8434   18.4553 H   0  0  0  0  0
   -9.8853   89.9320   20.3866 H   0  0  0  0  0
  -11.1013   87.6467   20.1640 H   0  0  0  0  0
  -10.6852   88.3609   21.7641 H   0  0  0  0  0
   -6.7163   91.4164   17.1001 H   0  0  0  0  0
   -9.2390   89.4041   16.0857 H   0  0  0  0  0
  -10.1272   86.1155   21.6077 H   0  0  0  0  0
   -9.3296   94.4545   24.7988 H   0  0  0  0  0
   -7.1007   93.8186   23.5802 H   0  0  0  0  0
   -9.0849   93.8796   21.2740 H   0  0  0  0  0
   -7.0368   91.7609   22.1224 H   0  0  0  0  0
   -9.9938   91.5627   22.3488 H   0  0  0  0  0
   -7.6259   90.3153   23.9053 H   0  0  0  0  0
   -8.6212   89.4887   22.6789 H   0  0  0  0  0
   -6.8896   95.8165   22.5165 H   0  0  0  0  0
   -7.2807   93.7017   19.8773 H   0  0  0  0  0
   -9.2737   88.9725   24.8521 H   0  0  0  0  0
  -15.2072   96.2692   24.2923 H   0  0  0  0  0
  -13.2374   97.5559   24.2725 H   0  0  0  0  0
  -12.1558   95.9465   21.9565 H   0  0  0  0  0
  -11.0470   95.6215   24.7671 H   0  0  0  0  0
  -12.7468   93.7275   23.3309 H   0  0  0  0  0
  -11.1871   93.5020   25.7833 H   0  0  0  0  0
  -12.0732   92.2349   24.9461 H   0  0  0  0  0
  -13.3798   98.3459   22.0398 H   0  0  0  0  0
  -10.2319   97.1667   22.6033 H   0  0  0  0  0
  -12.9492   92.6546   27.0845 H   0  0  0  0  0
  2  1  1  0  0  0
  1  7  1  0  0  0
 10  1  1  0  0  0
  3  2  1  0  0  0
  2  8  1  0  0  0
  4  3  1  0  0  0
  3  9  1  0  0  0
  4  5  1  0  0  0
 62  4  1  0  0  0
  5  6  1  0  0  0
  5 10  1  0  0  0
  6 11  1  0  0  0
  7 15  1  0  0  0
 13 12  1  0  0  0
 12 18  1  0  0  0
 21 12  1  0  0  0
 14 13  1  0  0  0
 13 19  1  0  0  0
 15 14  1  0  0  0
 14 20  1  0  0  0
 15 16  1  0  0  0
 16 17  1  0  0  0
 16 21  1  0  0  0
 17 22  1  0  0  0
 18 26  1  0  0  0
 24 23  1  0  0  0
 23 29  1  0  0  0
 32 23  1  0  0  0
 25 24  1  0  0  0
 24 30  1  0  0  0
 26 25  1  0  0  0
 25 31  1  0  0  0
 26 27  1  0  0  0
 27 28  1  0  0  0
 27 32  1  0  0  0
 28 33  1  0  0  0
 29 37  1  0  0  0
 35 34  1  0  0  0
 34 40  1  0  0  0
 43 34  1  0  0  0
 36 35  1  0  0  0
 35 41  1  0  0  0
 37 36  1  0  0  0
 36 42  1  0  0  0
 37 38  1  0  0  0
 38 39  1  0  0  0
 38 43  1  0  0  0
 39 44  1  0  0  0
 40 48  1  0  0  0
 46 45  1  0  0  0
 45 51  1  0  0  0
 54 45  1  0  0  0
 47 46  1  0  0  0
 46 52  1  0  0  0
 48 47  1  0  0  0
 47 53  1  0  0  0
 48 49  1  0  0  0
 49 50  1  0  0  0
 49 54  1  0  0  0
 50 55  1  0  0  0
 51 59  1  0  0  0
 56 57  1  0  0  0
 56 62  1  0  0  0
 56 65  1  0  0  0
 57 58  1  0  0  0
 57 63  1  0  0  0
 58 59  1  0  0  0
 58 64  1  0  0  0
 59 60  1  0  0  0
 60 61  1  0  0  0
 60 65  1  0  0  0
 61 66  1  0  0  0
  1 67  1  0  0  0
  2 68  1  0  0  0
  3 69  1  0  0  0
  4 70  1  0  0  0
  5 71  1  0  0  0
  6 72  1  0  0  0
  6 73  1  0  0  0
  8 74  1  0  0  0
  9 75  1  0  0  0
 11 76  1  0  0  0
 12 77  1  0  0  0
 13 78  1  0  0  0
 14 79  1  0  0  0
 15 80  1  0  0  0
 16 81  1  0  0  0
 17 82  1  0  0  0
 17 83  1  0  0  0
 19 84  1  0  0  0
 20 85  1  0  0  0
 22 86  1  0  0  0
 23 87  1  0  0  0
 24 88  1  0  0  0
 25 89  1  0  0  0
 26 90  1  0  0  0
 27 91  1  0  0  0
 28 92  1  0  0  0
 28 93  1  0  0  0
 30 94  1  0  0  0
 31 95  1  0  0  0
 33 96  1  0  0  0
 34 97  1  0  0  0
 35 98  1  0  0  0
 36 99  1  0  0  0
 37100  1  0  0  0
 38101  1  0  0  0
 39102  1  0  0  0
 39103  1  0  0  0
 41104  1  0  0  0
 42105  1  0  0  0
 44106  1  0  0  0
 45107  1  0  0  0
 46108  1  0  0  0
 47109  1  0  0  0
 48110  1  0  0  0
 49111  1  0  0  0
 50112  1  0  0  0
 50113  1  0  0  0
 52114  1  0  0  0
 53115  1  0  0  0
 55116  1  0  0  0
 56117  1  0  0  0
 57118  1  0  0  0
 58119  1  0  0  0
 59120  1  0  0  0
 60121  1  0  0  0
 61122  1  0  0  0
 61123  1  0  0  0
 63124  1  0  0  0
 64125  1  0  0  0
 66126  1  0  0  0
M  END
$$$$
