### 
### Created by X-TOOL on Mon Sep 10 21:13:05 2018
### 

@<TRIPOS>MOLECULE
3zst_ligand
  126   132     1     0     0
SMALL
GAST_HUCK


@<TRIPOS>ATOM
      1 C1A       -17.7650   93.2790   20.7000 C.3       1 ACX         0.1884
      2 C2A       -17.5940   94.7440   20.3850 C.3       1 ACX         0.1341
      3 C3A       -16.2670   95.1810   20.9640 C.3       1 ACX         0.1144
      4 C4A       -16.1140   94.8530   22.4610 C.3       1 ACX         0.1184
      5 C5A       -16.5340   93.4170   22.9270 C.3       1 ACX         0.1134
      6 C6A       -16.7880   93.3790   24.4620 C.3       1 ACX         0.0730
      7 O1A       -16.7050   92.7520   19.8390 O.3       1 ACX        -0.3401
      8 O2A       -17.5510   94.8560   18.9430 O.3       1 ACX        -0.3841
      9 O3A       -16.1030   96.5600   20.7380 O.3       1 ACX        -0.3864
     10 O5A       -17.6970   92.9320   22.1650 O.3       1 ACX        -0.3405
     11 O6A       -18.0380   92.7260   24.7350 O.3       1 ACX        -0.3924
     12 C1B       -16.2620   89.3930   17.2920 C.3       1 ACX         0.1884
     13 C2B       -16.6630   90.6960   16.5710 C.3       1 ACX         0.1341
     14 C3B       -16.5320   91.9090   17.5410 C.3       1 ACX         0.1144
     15 C4B       -17.1110   91.6400   18.9540 C.3       1 ACX         0.1184
     16 C5B       -16.7530   90.2580   19.5410 C.3       1 ACX         0.1134
     17 C6B       -17.5490   89.9930   20.8530 C.3       1 ACX         0.0730
     18 O1B       -14.8360   89.4250   17.6380 O.3       1 ACX        -0.3401
     19 O2B       -15.8580   90.8520   15.3750 O.3       1 ACX        -0.3841
     20 O3B       -17.2210   93.0650   17.0640 O.3       1 ACX        -0.3864
     21 O5B       -17.0980   89.3140   18.4950 O.3       1 ACX        -0.3405
     22 O6B       -16.9380   88.9550   21.5880 O.3       1 ACX        -0.3924
     23 C1C       -11.0720   87.8110   17.1300 C.3       1 ACX         0.1884
     24 C2C       -11.7290   88.2580   15.8000 C.3       1 ACX         0.1341
     25 C3C       -12.9920   89.1010   16.0550 C.3       1 ACX         0.1144
     26 C4C       -13.9520   88.4050   17.0790 C.3       1 ACX         0.1184
     27 C5C       -13.2290   87.6730   18.2990 C.3       1 ACX         0.1134
     28 C6C       -14.1600   86.7520   19.1700 C.3       1 ACX         0.0730
     29 O1C       -10.6930   88.9330   17.9920 O.3       1 ACX        -0.3401
     30 O2C       -10.8010   88.9500   14.9400 O.3       1 ACX        -0.3841
     31 O3C       -13.6580   89.3700   14.8000 O.3       1 ACX        -0.3864
     32 O5C       -11.9960   86.9660   17.8960 O.3       1 ACX        -0.3405
     33 O6C       -14.0230   87.0070   20.5810 O.3       1 ACX        -0.3924
     34 C1D        -7.4350   90.3200   20.1360 C.3       1 ACX         0.1884
     35 C2D        -7.2730   90.2480   18.5850 C.3       1 ACX         0.1341
     36 C3D        -8.5990   89.9420   17.8780 C.3       1 ACX         0.1144
     37 C4D        -9.3770   88.8270   18.5870 C.3       1 ACX         0.1184
     38 C5D        -9.3980   88.9900   20.1350 C.3       1 ACX         0.1134
     39 C6D       -10.2960   87.9270   20.8430 C.3       1 ACX         0.0730
     40 O1D        -8.2850   91.4500   20.5100 O.3       1 ACX        -0.3401
     41 O2D        -6.8060   91.4910   18.0530 O.3       1 ACX        -0.3841
     42 O3D        -8.3920   89.5890   16.4980 O.3       1 ACX        -0.3864
     43 O5D        -8.0190   89.0830   20.6480 O.3       1 ACX        -0.3405
     44 O6D        -9.5490   86.7480   21.1750 O.3       1 ACX        -0.3924
     45 C1E        -9.2600   93.9990   23.8110 C.3       1 ACX         0.1884
     46 C2E        -7.9570   94.2550   23.0660 C.3       1 ACX         0.1341
     47 C3E        -8.1070   93.6130   21.6750 C.3       1 ACX         0.1144
     48 C4E        -8.0330   92.0710   21.8070 C.3       1 ACX         0.1184
     49 C5E        -9.0560   91.6020   22.9030 C.3       1 ACX         0.1134
     50 C6E        -8.6250   90.2300   23.4780 C.3       1 ACX         0.0730
     51 O1E       -10.3570   94.6270   23.0330 O.3       1 ACX        -0.3401
     52 O2E        -7.7120   95.6620   22.9870 O.3       1 ACX        -0.3841
     53 O3E        -7.1500   94.1290   20.7270 O.3       1 ACX        -0.3864
     54 O5E        -9.3440   92.5290   24.0460 O.3       1 ACX        -0.3405
     55 O6E        -9.5450   89.8230   24.4990 O.3       1 ACX        -0.3924
     56 C1F       -14.3440   95.7800   23.8410 C.3       1 ACX         0.1884
     57 C2F       -13.3880   96.9160   23.4030 C.3       1 ACX         0.1341
     58 C3F       -12.0140   96.3880   22.9430 C.3       1 ACX         0.1144
     59 C4F       -11.4450   95.2470   23.8240 C.3       1 ACX         0.1184
     60 C5F       -12.5620   94.2400   24.2750 C.3       1 ACX         0.1134
     61 C6F       -12.1580   93.2380   25.3640 C.3       1 ACX         0.0730
     62 O1F       -14.6970   94.9780   22.6790 O.3       1 ACX        -0.3401
     63 O2F       -13.9740   97.6420   22.3100 O.3       1 ACX        -0.3841
     64 O3F       -11.0910   97.4860   22.8890 O.3       1 ACX        -0.3864
     65 O5F       -13.7770   94.8910   24.8160 O.3       1 ACX        -0.3405
     66 O6F       -13.1760   93.2740   26.3870 O.3       1 ACX        -0.3924
     67 H         -18.7495   92.8539   20.5048 H         1 ACX         0.0938
     68 H         -18.3973   95.3563   20.7947 H         1 ACX         0.0671
     69 H         -15.4848   94.6156   20.4574 H         1 ACX         0.0648
     70 H         -16.7754   95.5136   23.0215 H         1 ACX         0.0651
     71 H         -15.7070   92.7378   22.7200 H         1 ACX         0.0647
     72 H         -16.8238   94.3986   24.8457 H         1 ACX         0.0584
     73 H         -15.9816   92.8283   24.9462 H         1 ACX         0.0584
     74 H         -16.8513   94.2951   18.6003 H         1 ACX         0.2101
     75 H         -15.2280   96.8287   21.0273 H         1 ACX         0.2100
     76 H         -18.7496   93.2082   24.3077 H         1 ACX         0.2095
     77 H         -16.4144   88.5186   16.6593 H         1 ACX         0.0938
     78 H         -17.7075   90.6485   16.2631 H         1 ACX         0.0671
     79 H         -15.4555   92.0717   17.5927 H         1 ACX         0.0648
     80 H         -18.1971   91.6023   18.8704 H         1 ACX         0.0651
     81 H         -15.7019   90.1783   19.8184 H         1 ACX         0.0647
     82 H         -18.5685   89.7013   20.6008 H         1 ACX         0.0584
     83 H         -17.5586   90.9011   21.4558 H         1 ACX         0.0584
     84 H         -14.9339   90.9358   15.6213 H         1 ACX         0.2101
     85 H         -17.0573   93.8014   17.6577 H         1 ACX         0.2100
     86 H         -17.4356   88.7994   22.3941 H         1 ACX         0.2095
     87 H         -10.1709   87.2682   16.8444 H         1 ACX         0.0938
     88 H         -12.0323   87.3519   15.2755 H         1 ACX         0.0671
     89 H         -12.6941   90.0494   16.5022 H         1 ACX         0.0648
     90 H         -14.4746   87.6294   16.5192 H         1 ACX         0.0651
     91 H         -12.9434   88.4950   18.9553 H         1 ACX         0.0647
     92 H         -13.8756   85.7159   18.9861 H         1 ACX         0.0584
     93 H         -15.1933   86.9568   18.8898 H         1 ACX         0.0584
     94 H         -10.5389   89.7761   15.3528 H         1 ACX         0.2101
     95 H         -14.4082   89.9486   14.9547 H         1 ACX         0.2100
     96 H         -14.6085   86.4232   21.0689 H         1 ACX         0.2095
     97 H          -6.4456   90.4558   20.5728 H         1 ACX         0.0938
     98 H          -6.5550   89.4478   18.4054 H         1 ACX         0.0671
     99 H          -9.1915   90.8559   17.9198 H         1 ACX         0.0648
    100 H          -8.9261   87.8434   18.4553 H         1 ACX         0.0651
    101 H          -9.8853   89.9320   20.3866 H         1 ACX         0.0647
    102 H         -11.1013   87.6467   20.1640 H         1 ACX         0.0584
    103 H         -10.6852   88.3609   21.7641 H         1 ACX         0.0584
    104 H          -7.4548   92.1766   18.2280 H         1 ACX         0.2101
    105 H          -9.2422   89.4710   16.0680 H         1 ACX         0.2100
    106 H          -8.8297   86.9822   21.7660 H         1 ACX         0.2095
    107 H          -9.3296   94.4545   24.7988 H         1 ACX         0.0938
    108 H          -7.1007   93.8186   23.5802 H         1 ACX         0.0671
    109 H          -9.0849   93.8796   21.2740 H         1 ACX         0.0648
    110 H          -7.0368   91.7609   22.1224 H         1 ACX         0.0651
    111 H          -9.9938   91.5627   22.3488 H         1 ACX         0.0647
    112 H          -7.6259   90.3153   23.9053 H         1 ACX         0.0584
    113 H          -8.6212   89.4887   22.6789 H         1 ACX         0.0584
    114 H          -8.4455   96.0887   22.5382 H         1 ACX         0.2101
    115 H          -7.2322   95.0843   20.6787 H         1 ACX         0.2100
    116 H          -9.5498   90.4761   25.2026 H         1 ACX         0.2095
    117 H         -15.2072   96.2692   24.2923 H         1 ACX         0.0938
    118 H         -13.2374   97.5559   24.2725 H         1 ACX         0.0671
    119 H         -12.1558   95.9465   21.9565 H         1 ACX         0.0648
    120 H         -11.0470   95.6215   24.7671 H         1 ACX         0.0651
    121 H         -12.7468   93.7275   23.3309 H         1 ACX         0.0647
    122 H         -11.1871   93.5020   25.7833 H         1 ACX         0.0584
    123 H         -12.0732   92.2349   24.9461 H         1 ACX         0.0584
    124 H         -14.0789   97.0554   21.5574 H         1 ACX         0.2101
    125 H         -11.4571   98.1837   22.3405 H         1 ACX         0.2100
    126 H         -13.2315   94.1608   26.7506 H         1 ACX         0.2095
@<TRIPOS>BOND
     1    2    1 1  
     2    1    7 1  
     3   10    1 1  
     4    3    2 1  
     5    2    8 1  
     6    4    3 1  
     7    3    9 1  
     8    4    5 1  
     9   62    4 1  
    10    5    6 1  
    11    5   10 1  
    12    6   11 1  
    13    7   15 1  
    14   13   12 1  
    15   12   18 1  
    16   21   12 1  
    17   14   13 1  
    18   13   19 1  
    19   15   14 1  
    20   14   20 1  
    21   15   16 1  
    22   16   17 1  
    23   16   21 1  
    24   17   22 1  
    25   18   26 1  
    26   24   23 1  
    27   23   29 1  
    28   32   23 1  
    29   25   24 1  
    30   24   30 1  
    31   26   25 1  
    32   25   31 1  
    33   26   27 1  
    34   27   28 1  
    35   27   32 1  
    36   28   33 1  
    37   29   37 1  
    38   35   34 1  
    39   34   40 1  
    40   43   34 1  
    41   36   35 1  
    42   35   41 1  
    43   37   36 1  
    44   36   42 1  
    45   37   38 1  
    46   38   39 1  
    47   38   43 1  
    48   39   44 1  
    49   40   48 1  
    50   46   45 1  
    51   45   51 1  
    52   54   45 1  
    53   47   46 1  
    54   46   52 1  
    55   48   47 1  
    56   47   53 1  
    57   48   49 1  
    58   49   50 1  
    59   49   54 1  
    60   50   55 1  
    61   51   59 1  
    62   56   57 1  
    63   56   62 1  
    64   56   65 1  
    65   57   58 1  
    66   57   63 1  
    67   58   59 1  
    68   58   64 1  
    69   59   60 1  
    70   60   61 1  
    71   60   65 1  
    72   61   66 1  
    73    1   67 1  
    74    2   68 1  
    75    3   69 1  
    76    4   70 1  
    77    5   71 1  
    78    6   72 1  
    79    6   73 1  
    80    8   74 1  
    81    9   75 1  
    82   11   76 1  
    83   12   77 1  
    84   13   78 1  
    85   14   79 1  
    86   15   80 1  
    87   16   81 1  
    88   17   82 1  
    89   17   83 1  
    90   19   84 1  
    91   20   85 1  
    92   22   86 1  
    93   23   87 1  
    94   24   88 1  
    95   25   89 1  
    96   26   90 1  
    97   27   91 1  
    98   28   92 1  
    99   28   93 1  
   100   30   94 1  
   101   31   95 1  
   102   33   96 1  
   103   34   97 1  
   104   35   98 1  
   105   36   99 1  
   106   37  100 1  
   107   38  101 1  
   108   39  102 1  
   109   39  103 1  
   110   41  104 1  
   111   42  105 1  
   112   44  106 1  
   113   45  107 1  
   114   46  108 1  
   115   47  109 1  
   116   48  110 1  
   117   49  111 1  
   118   50  112 1  
   119   50  113 1  
   120   52  114 1  
   121   53  115 1  
   122   55  116 1  
   123   56  117 1  
   124   57  118 1  
   125   58  119 1  
   126   59  120 1  
   127   60  121 1  
   128   61  122 1  
   129   61  123 1  
   130   63  124 1  
   131   64  125 1  
   132   66  126 1  
@<TRIPOS>SUBSTRUCTURE
     1 ACX         1

