5e2l_ligand
  -I-interpret- 

 24 24  0  0  0  0  0  0  0  0999 V2000
   92.8700  -39.2950   13.8260 N   0  3  0  0  0
   94.0280  -39.6400   14.6970 C   0  0  0  0  0
   93.6870  -40.8530   15.5150 C   0  0  0  0  0
   92.8990  -41.6790   14.9920 O   0  0  0  0  0
   94.1730  -40.9920   16.6360 O   0  0  0  0  0
   95.2770  -39.9070   13.8550 C   0  0  0  0  0
   96.5030  -39.2650   14.4710 C   0  0  0  0  0
   96.4900  -37.9330   14.8890 C   0  0  0  0  0
   97.6670  -40.0160   14.5920 C   0  0  0  0  0
   97.6220  -37.3710   15.4510 C   0  0  0  0  0
   98.8110  -39.4440   15.1610 C   0  0  0  0  0
   98.7880  -38.1180   15.5890 C   0  0  0  0  0
   92.0494  -39.1212   14.4064 H   0  0  0  0  0
   93.0896  -38.4579   13.2862 H   0  0  0  0  0
   92.6807  -40.0705   13.1910 H   0  0  0  0  0
   94.2385  -38.7996   15.3585 H   0  0  0  0  0
   92.6467  -41.3702   14.1187 H   0  0  0  0  0
   95.1242  -39.4823   12.8628 H   0  0  0  0  0
   95.4376  -40.9839   13.8040 H   0  0  0  0  0
   95.5862  -37.3349   14.7723 H   0  0  0  0  0
   97.6887  -41.0488   14.2442 H   0  0  0  0  0
   97.6006  -36.3348   15.7885 H   0  0  0  0  0
   99.7199  -40.0359   15.2693 H   0  0  0  0  0
   99.6781  -37.6686   16.0293 H   0  0  0  0  0
  1  2  1  0  0  0
  2  3  1  0  0  0
  2  6  1  0  0  0
  3  4  1  0  0  0
  3  5  2  0  0  0
  6  7  1  0  0  0
  7  8  4  0  0  0
  7  9  4  0  0  0
  8 10  4  0  0  0
  9 11  4  0  0  0
 10 12  4  0  0  0
 11 12  4  0  0  0
  1 13  1  0  0  0
  1 14  1  0  0  0
  1 15  1  0  0  0
  2 16  1  0  0  0
  4 17  1  0  0  0
  6 18  1  0  0  0
  6 19  1  0  0  0
  8 20  1  0  0  0
  9 21  1  0  0  0
 10 22  1  0  0  0
 11 23  1  0  0  0
 12 24  1  0  0  0
M  END
$$$$
