2q7q_ligand
  -I-interpret- 

 18 18  0  0  0  0  0  0  0  0999 V2000
   54.2170   22.2750   28.3760 N   0  3  0  0  0
   52.8810   21.6540   28.5660 C   0  0  0  0  0
   51.9640   22.2060   29.5990 C   0  0  0  0  0
   50.7820   22.8920   29.2660 C   0  0  0  0  0
   49.9380   23.4600   30.2370 C   0  0  0  0  0
   50.2600   23.3640   31.6110 C   0  0  0  0  0
   51.4060   22.7260   32.0040 C   0  0  0  0  0
   52.3320   22.1080   30.9250 C   0  0  0  0  0
   49.2570   24.0970   32.7780 Cl  0  0  0  0  0
   54.7173   21.7826   27.6360 H   0  0  0  0  0
   54.1014   23.2546   28.1164 H   0  0  0  0  0
   54.7464   22.2127   29.2456 H   0  0  0  0  0
   53.0907   20.6360   28.8944 H   0  0  0  0  0
   52.3629   21.8118   27.6201 H   0  0  0  0  0
   50.5097   22.9870   28.2148 H   0  0  0  0  0
   49.0297   23.9777   29.9287 H   0  0  0  0  0
   51.6636   22.6536   33.0606 H   0  0  0  0  0
   53.2566   21.6054   31.2088 H   0  0  0  0  0
  1  2  1  0  0  0
  2  3  1  0  0  0
  3  4  4  0  0  0
  3  8  4  0  0  0
  4  5  4  0  0  0
  5  6  4  0  0  0
  6  7  4  0  0  0
  6  9  1  0  0  0
  7  8  4  0  0  0
  1 10  1  0  0  0
  1 11  1  0  0  0
  1 12  1  0  0  0
  2 13  1  0  0  0
  2 14  1  0  0  0
  4 15  1  0  0  0
  5 16  1  0  0  0
  7 17  1  0  0  0
  8 18  1  0  0  0
M  END
$$$$
