3jzh_ligand
  -I-interpret- 

 95 95  0  0  0  0  0  0  0  0999 V2000
   21.6060    6.3190  -26.2990 N   0  3  0  0  0
   20.2710    6.9640  -26.2520 C   0  0  0  0  0
   20.1640    8.4390  -26.7600 C   0  0  0  0  0
   20.6760    9.3430  -26.1250 O   0  0  0  0  0
   19.7880    6.8800  -24.8200 C   0  0  0  0  0
   18.3640    7.2800  -24.6870 C   0  0  0  0  0
   17.6420    7.2150  -25.7320 O   0  0  0  0  0
   17.9490    7.6700  -23.5550 O   0  0  0  0  0
   19.4270    8.6470  -27.8610 N   0  0  0  0  0
   19.2960    9.9010  -28.6660 C   0  0  0  0  0
   18.1430   10.8050  -28.0820 C   0  0  0  0  0
   17.0520   10.3010  -27.8270 O   0  0  0  0  0
   18.8840    9.4700  -30.1090 C   0  0  0  0  0
   19.9290    9.6900  -31.2470 C   0  0  0  0  0
   21.3430    9.7410  -31.0150 C   0  0  0  0  0
   19.4610    9.7930  -32.6070 C   0  0  0  0  0
   22.2780    9.9320  -32.1330 C   0  0  0  0  0
   20.3660    9.9940  -33.7290 C   0  0  0  0  0
   21.7660   10.0580  -33.4930 C   0  0  0  0  0
   18.3740   12.1130  -27.8840 N   0  0  0  0  0
   17.3300   13.0570  -27.3810 C   0  0  0  0  0
   17.8750   14.3360  -26.6880 C   0  0  0  0  0
   16.7980   15.1740  -25.9720 C   0  0  0  0  0
   17.2470   16.5260  -25.3950 C   0  0  0  0  0
   16.1340   17.2780  -24.6190 C   0  0  0  0  0
   16.5730   18.5190  -23.9080 N   0  3  0  0  0
   16.3990   13.4150  -28.5260 C   0  0  0  0  0
   15.2310   13.7690  -28.3410 O   0  0  0  0  0
   17.2930   18.2800  -22.6270 C   0  0  0  0  0
   15.3410   19.2220  -23.5270 C   0  0  0  0  0
   17.4110   19.3380  -24.8330 C   0  0  0  0  0
   16.9540   13.2500  -29.7240 N   0  0  0  0  0
   16.3640   13.6370  -31.0060 C   0  0  0  0  0
   16.6500   12.6260  -32.1590 C   0  0  0  0  0
   17.6440   11.9070  -32.1420 O   0  0  0  0  0
   16.9440   15.0070  -31.4070 C   0  0  0  0  0
   16.3060   15.4230  -32.5890 O   0  0  0  0  0
   18.5340   14.9550  -31.6510 C   0  0  0  0  0
   15.8160   12.6100  -33.1880 N   0  0  0  0  0
   16.1260   11.8020  -34.3830 C   0  0  0  0  0
   16.8640   12.5810  -35.4590 C   0  0  0  0  0
   17.3280   11.9610  -36.4120 O   0  0  0  0  0
   14.8540   11.1410  -34.9560 C   0  0  0  0  0
   13.5640   11.8310  -34.4880 C   0  0  0  0  0
   12.5140   11.1500  -34.4960 O   0  0  0  0  0
   13.5940   13.0280  -34.0900 O   0  0  0  0  0
   16.9964   13.8312  -35.3754 O   0  0  0  0  0
   21.9666    6.3557  -27.2524 H   0  0  0  0  0
   22.2431    6.8128  -25.6740 H   0  0  0  0  0
   21.5230    5.3465  -26.0028 H   0  0  0  0  0
   19.6524    6.4172  -26.9637 H   0  0  0  0  0
   20.3901    7.5601  -24.2174 H   0  0  0  0  0
   19.8832    5.8459  -24.4889 H   0  0  0  0  0
   18.1710    6.8929  -26.4655 H   0  0  0  0  0
   18.8865    7.8477  -28.1919 H   0  0  0  0  0
   20.2320   10.4593  -28.6497 H   0  0  0  0  0
   18.0280   10.0923  -30.3699 H   0  0  0  0  0
   18.7225    8.3931  -30.0607 H   0  0  0  0  0
   21.7280    9.6372  -30.0006 H   0  0  0  0  0
   18.3912    9.7176  -32.8017 H   0  0  0  0  0
   23.3508    9.9793  -31.9463 H   0  0  0  0  0
   19.9736   10.0945  -34.7410 H   0  0  0  0  0
   22.4549   10.2008  -34.3256 H   0  0  0  0  0
   19.3044   12.4790  -28.0861 H   0  0  0  0  0
   16.7945   12.5322  -26.5899 H   0  0  0  0  0
   18.3067   14.9647  -27.4668 H   0  0  0  0  0
   18.5875   14.0120  -25.9294 H   0  0  0  0  0
   16.4702   14.5778  -25.1204 H   0  0  0  0  0
   16.0456   15.4042  -26.7263 H   0  0  0  0  0
   17.5395   17.1562  -26.2349 H   0  0  0  0  0
   18.0550   16.3262  -24.6912 H   0  0  0  0  0
   15.7714   16.5925  -23.8531 H   0  0  0  0  0
   15.3948   17.5878  -25.3577 H   0  0  0  0  0
   16.6422   17.7368  -21.9418 H   0  0  0  0  0
   18.1905   17.6925  -22.8203 H   0  0  0  0  0
   17.5716   19.2363  -22.1844 H   0  0  0  0  0
   14.7689   19.4616  -24.4233 H   0  0  0  0  0
   14.7461   18.5825  -22.8749 H   0  0  0  0  0
   15.5969   20.1418  -23.0011 H   0  0  0  0  0
   18.2834   18.7603  -25.1384 H   0  0  0  0  0
   16.8246   19.6051  -25.7121 H   0  0  0  0  0
   17.7347   20.2444  -24.3215 H   0  0  0  0  0
   17.8755   12.8136  -29.7513 H   0  0  0  0  0
   15.2831   13.6633  -30.8676 H   0  0  0  0  0
   16.7678   15.7059  -30.5893 H   0  0  0  0  0
   16.6544   16.2768  -32.8559 H   0  0  0  0  0
   19.0306   14.6345  -30.7351 H   0  0  0  0  0
   18.7545   14.2489  -32.4516 H   0  0  0  0  0
   18.8900   15.9465  -31.9309 H   0  0  0  0  0
   14.9565   13.1582  -33.1541 H   0  0  0  0  0
   16.8060   11.0183  -34.0491 H   0  0  0  0  0
   14.8270   10.1090  -34.6062 H   0  0  0  0  0
   14.8984   11.2166  -36.0425 H   0  0  0  0  0
   14.4892   13.3666  -34.1649 H   0  0  0  0  0
   16.5745   14.1435  -34.5716 H   0  0  0  0  0
  1  2  1  0  0  0
  2  3  1  0  0  0
  2  5  1  0  0  0
  3  4  2  0  0  0
  3  9  1  0  0  0
  5  6  1  0  0  0
  6  7  1  0  0  0
  6  8  2  0  0  0
  9 10  1  0  0  0
 10 11  1  0  0  0
 10 13  1  0  0  0
 11 12  2  0  0  0
 11 20  1  0  0  0
 13 14  1  0  0  0
 14 15  4  0  0  0
 14 16  4  0  0  0
 15 17  4  0  0  0
 16 18  4  0  0  0
 17 19  4  0  0  0
 18 19  4  0  0  0
 20 21  1  0  0  0
 21 22  1  0  0  0
 21 27  1  0  0  0
 22 23  1  0  0  0
 23 24  1  0  0  0
 24 25  1  0  0  0
 25 26  1  0  0  0
 26 29  1  0  0  0
 26 30  1  0  0  0
 26 31  1  0  0  0
 27 28  2  0  0  0
 27 32  1  0  0  0
 32 33  1  0  0  0
 33 34  1  0  0  0
 33 36  1  0  0  0
 34 35  2  0  0  0
 34 39  1  0  0  0
 36 37  1  0  0  0
 36 38  1  0  0  0
 39 40  1  0  0  0
 40 41  1  0  0  0
 40 43  1  0  0  0
 41 42  2  0  0  0
 43 44  1  0  0  0
 44 45  2  0  0  0
 44 46  1  0  0  0
 41 47  1  0  0  0
  1 48  1  0  0  0
  1 49  1  0  0  0
  1 50  1  0  0  0
  2 51  1  0  0  0
  5 52  1  0  0  0
  5 53  1  0  0  0
  7 54  1  0  0  0
  9 55  1  0  0  0
 10 56  1  0  0  0
 13 57  1  0  0  0
 13 58  1  0  0  0
 15 59  1  0  0  0
 16 60  1  0  0  0
 17 61  1  0  0  0
 18 62  1  0  0  0
 19 63  1  0  0  0
 20 64  1  0  0  0
 21 65  1  0  0  0
 22 66  1  0  0  0
 22 67  1  0  0  0
 23 68  1  0  0  0
 23 69  1  0  0  0
 24 70  1  0  0  0
 24 71  1  0  0  0
 25 72  1  0  0  0
 25 73  1  0  0  0
 29 74  1  0  0  0
 29 75  1  0  0  0
 29 76  1  0  0  0
 30 77  1  0  0  0
 30 78  1  0  0  0
 30 79  1  0  0  0
 31 80  1  0  0  0
 31 81  1  0  0  0
 31 82  1  0  0  0
 32 83  1  0  0  0
 33 84  1  0  0  0
 36 85  1  0  0  0
 37 86  1  0  0  0
 38 87  1  0  0  0
 38 88  1  0  0  0
 38 89  1  0  0  0
 39 90  1  0  0  0
 40 91  1  0  0  0
 43 92  1  0  0  0
 43 93  1  0  0  0
 46 94  1  0  0  0
 47 95  1  0  0  0
M  END
$$$$
