### 
### Created by X-TOOL on Mon Sep 10 21:13:16 2018
### 

@<TRIPOS>MOLECULE
4gpk_ligand
  115   115     1     0     0
SMALL
GAST_HUCK


@<TRIPOS>ATOM
      1 N          86.0240  -65.5570   59.7120 N.4       1 SER         0.2396
      2 CA         87.1390  -66.3650   60.1920 C.3       1 SER         0.0885
      3 C          86.7980  -67.0340   61.5200 C.2       1 SER         0.2290
      4 O          85.8030  -66.6970   62.1570 O.2       1 SER        -0.3906
      5 CB         88.3930  -65.5040   60.3490 C.3       1 SER         0.1041
      6 OG         88.1890  -64.2050   59.8280 O.3       1 SER        -0.3870
      7 N          87.6310  -67.9820   61.9320 N.am      1 SER        -0.2588
      8 CA         87.4190  -68.6870   63.1870 C.3       1 SER         0.1540
      9 C          88.4840  -68.3100   64.2080 C.2       1 SER         0.2062
     10 O          89.6740  -68.5080   63.9730 O.2       1 SER        -0.3943
     11 CB         87.4130  -70.1970   62.9550 C.3       1 SER         0.0843
     12 OG         86.3770  -70.5710   62.0730 O.3       1 SER        -0.3903
     13 N          88.0470  -67.7670   65.3400 N.am      1 LYS        -0.2637
     14 CA         88.9640  -67.3380   66.3880 C.3       1 LYS         0.1312
     15 C          88.7160  -68.1470   67.6530 C.2       1 LYS         0.2064
     16 O          87.5680  -68.4360   67.9880 O.2       1 LYS        -0.3942
     17 CB         88.7870  -65.8480   66.6780 C.3       1 LYS        -0.0122
     18 CG         87.7840  -65.1480   65.7750 C.3       1 LYS        -0.0440
     19 CD         88.4040  -64.7040   64.4580 C.3       1 LYS        -0.0124
     20 CE         87.3330  -64.1430   63.5330 C.3       1 LYS        -0.0354
     21 NZ         86.5890  -63.0010   64.1520 N.4       1 LYS         0.2185
     22 N          89.7950  -68.5150   68.3610 N.am      1 PRO        -0.2498
     23 CA         89.7130  -69.3440   69.5690 C.3       1 PRO         0.1338
     24 C          88.8800  -68.7010   70.6720 C.2       1 PRO         0.2042
     25 O          88.5420  -67.5210   70.5940 O.2       1 PRO        -0.3944
     26 CB         91.1740  -69.4500   70.0200 C.3       1 PRO        -0.0104
     27 CG         91.9650  -69.2300   68.7830 C.3       1 PRO        -0.0281
     28 CD         91.1910  -68.2220   67.9930 C.3       1 PRO         0.0369
     29 N          88.5560  -69.4880   71.6910 N.am      1 ASP        -0.2622
     30 CA         87.7660  -69.0130   72.8170 C.3       1 ASP         0.1423
     31 C          88.6600  -68.2590   73.7990 C.2       1 ASP         0.2056
     32 O          89.8850  -68.3440   73.7210 O.2       1 ASP        -0.3943
     33 CB         87.0880  -70.1970   73.5110 C.3       1 ASP         0.0406
     34 CG         85.9380  -69.7760   74.3990 C.2       1 ASP         0.0393
     35 OD1        85.2590  -68.7800   74.0680 O.co2     1 ASP        -0.5688
     36 OD2        85.7100  -70.4480   75.4250 O.co2     1 ASP        -0.5688
     37 N          88.0430  -67.5230   74.7190 N.am      1 ILE        -0.2634
     38 CA         88.7740  -66.7140   75.6930 C.3       1 ILE         0.1335
     39 C          89.4440  -67.5620   76.7670 C.2       1 ILE         0.2042
     40 O          89.3790  -68.7910   76.7390 O.2       1 ILE        -0.3944
     41 CB         87.8430  -65.7180   76.3950 C.3       1 ILE        -0.0037
     42 CG1        86.7770  -66.4700   77.1940 C.3       1 ILE        -0.0491
     43 CG2        87.2060  -64.7740   75.3830 C.3       1 ILE        -0.0582
     44 CD1        85.7870  -65.5730   77.9010 C.3       1 ILE        -0.0648
     45 N          90.0870  -66.8940   77.7190 N.am      1 VAL        -0.2635
     46 CA         90.6930  -67.5730   78.8630 C.3       1 VAL         0.1332
     47 C          89.7100  -67.5950   80.0300 C.2       1 VAL         0.2034
     48 O          89.3000  -66.5460   80.5290 O.2       1 VAL        -0.3944
     49 CB         91.9990  -66.8830   79.3090 C.3       1 VAL        -0.0063
     50 CG1        92.5630  -67.5610   80.5500 C.3       1 VAL        -0.0584
     51 CG2        93.0180  -66.8870   78.1900 C.3       1 VAL        -0.0584
     52 N          89.3200  -68.7930   80.4520 N.am      1 GLY        -0.2722
     53 CA         88.3680  -68.9460   81.5380 C.3       1 GLY         0.0833
     54 C          87.3680  -70.0670   81.2930 C.2       1 GLY         0.0570
     55 O          86.5500  -69.9970   80.3770 O.co2     1 GLY        -0.5669
     56 OXT        87.3610  -71.0760   82.0000 O.co2     1 GLY        -0.5669
     57 H1         86.2738  -65.1267   58.8354 H         1 SER         0.2016
     58 H2         85.8117  -64.8412   60.3892 H         1 SER         0.2016
     59 H3         85.2158  -66.1446   59.5796 H         1 SER         0.2016
     60 H4         87.3435  -67.1498   59.4489 H         1 SER         0.1122
     61 H5         89.2253  -65.9803   59.8100 H         1 SER         0.0640
     62 H6         88.6441  -65.4269   61.4172 H         1 SER         0.0640
     63 H7         88.9814  -63.6928   59.9382 H         1 SER         0.2099
     64 H8         88.4220  -68.2169   61.3671 H         1 SER         0.1885
     65 H9         86.4374  -68.3932   63.5871 H         1 SER         0.0823
     66 H10        87.2669  -70.7080   63.9181 H         1 SER         0.0606
     67 H11        88.3788  -70.4980   62.5230 H         1 SER         0.0606
     68 H12        86.3952  -71.5123   61.9459 H         1 SER         0.2097
     69 H13        87.0632  -67.6499   65.4759 H         1 LYS         0.1883
     70 H14        89.9960  -67.5126   66.0496 H         1 LYS         0.0800
     71 H15        89.7628  -65.3552   66.5556 H         1 LYS         0.0312
     72 H16        88.4485  -65.7377   67.7188 H         1 LYS         0.0312
     73 H17        87.3942  -64.2627   66.2987 H         1 LYS         0.0269
     74 H18        86.9570  -65.8410   65.5608 H         1 LYS         0.0269
     75 H19        88.8856  -65.5667   63.9744 H         1 LYS         0.0317
     76 H20        89.1568  -63.9266   64.6551 H         1 LYS         0.0317
     77 H21        86.6173  -64.9434   63.2941 H         1 LYS         0.0813
     78 H22        87.8132  -63.7922   62.6076 H         1 LYS         0.0813
     79 H23        85.8931  -62.6636   63.5055 H         1 LYS         0.1994
     80 H24        87.2344  -62.2577   64.3691 H         1 LYS         0.1994
     81 H25        86.1385  -63.3127   64.9981 H         1 LYS         0.1994
     82 H26        89.2975  -70.3341   69.3304 H         1 PRO         0.0802
     83 H27        91.3794  -70.4456   70.4402 H         1 PRO         0.0313
     84 H28        91.4054  -68.6802   70.7709 H         1 PRO         0.0313
     85 H29        92.0649  -70.1683   68.2176 H         1 PRO         0.0287
     86 H30        92.9644  -68.8418   69.0287 H         1 PRO         0.0287
     87 H31        91.4688  -67.1970   68.2796 H         1 PRO         0.0524
     88 H32        91.3522  -68.3573   66.9133 H         1 PRO         0.0524
     89 H33        88.8652  -70.4390   71.6845 H         1 ASP         0.1884
     90 H34        86.9902  -68.3275   72.4452 H         1 ASP         0.0819
     91 H35        87.8354  -70.7181   74.1274 H         1 ASP         0.0478
     92 H36        86.7047  -70.8830   72.7413 H         1 ASP         0.0478
     93 H37        87.0433  -67.5229   74.7455 H         1 ILE         0.1883
     94 H38        89.5514  -66.1538   75.1528 H         1 ILE         0.0803
     95 H39        88.4413  -65.1175   77.0961 H         1 ILE         0.0345
     96 H40        87.2839  -67.0879   77.9498 H         1 ILE         0.0267
     97 H41        86.2211  -67.1197   76.5020 H         1 ILE         0.0267
     98 H42        87.9948  -64.2484   74.8248 H         1 ILE         0.0235
     99 H43        86.5789  -64.0401   75.9103 H         1 ILE         0.0235
    100 H44        86.5845  -65.3518   74.6832 H         1 ILE         0.0235
    101 H45        85.0594  -66.1899   78.4487 H         1 ILE         0.0230
    102 H46        85.2592  -64.9541   77.1605 H         1 ILE         0.0230
    103 H47        86.3219  -64.9223   78.6084 H         1 ILE         0.0230
    104 H48        90.1583  -65.8989   77.6509 H         1 VAL         0.1883
    105 H49        90.9252  -68.6080   78.5716 H         1 VAL         0.0802
    106 H50        91.7682  -65.8374   79.5610 H         1 VAL         0.0343
    107 H51        93.4924  -67.0566   80.8530 H         1 VAL         0.0234
    108 H52        92.7750  -68.6170   80.3266 H         1 VAL         0.0234
    109 H53        91.8292  -67.4992   81.3671 H         1 VAL         0.0234
    110 H54        92.5917  -66.3935   77.3042 H         1 VAL         0.0234
    111 H55        93.2834  -67.9247   77.9394 H         1 VAL         0.0234
    112 H56        93.9195  -66.3457   78.5130 H         1 VAL         0.0234
    113 H57        89.6914  -69.6099   80.0107 H         1 GLY         0.1873
    114 H58        87.8156  -68.0022   81.6566 H         1 GLY         0.0689
    115 H59        88.9220  -69.1653   82.4626 H         1 GLY         0.0689
@<TRIPOS>BOND
     1    1    2 1  
     2    2    3 1  
     3    2    5 1  
     4    3    4 2  
     5    3    7 am 
     6    5    6 1  
     7    7    8 1  
     8    8    9 1  
     9    8   11 1  
    10    9   10 2  
    11    9   13 am 
    12   11   12 1  
    13   13   14 1  
    14   14   15 1  
    15   14   17 1  
    16   15   16 2  
    17   15   22 am 
    18   17   18 1  
    19   18   19 1  
    20   19   20 1  
    21   20   21 1  
    22   22   23 1  
    23   22   28 1  
    24   23   24 1  
    25   23   26 1  
    26   24   25 2  
    27   24   29 am 
    28   26   27 1  
    29   27   28 1  
    30   29   30 1  
    31   30   31 1  
    32   30   33 1  
    33   31   32 2  
    34   31   37 am 
    35   33   34 1  
    36   34   35 ar 
    37   34   36 ar 
    38   37   38 1  
    39   38   39 1  
    40   38   41 1  
    41   39   40 2  
    42   39   45 am 
    43   41   42 1  
    44   41   43 1  
    45   42   44 1  
    46   45   46 1  
    47   46   47 1  
    48   46   49 1  
    49   47   48 2  
    50   47   52 am 
    51   49   50 1  
    52   49   51 1  
    53   52   53 1  
    54   53   54 1  
    55   54   55 ar 
    56   54   56 ar 
    57    1   57 1  
    58    1   58 1  
    59    1   59 1  
    60    2   60 1  
    61    5   61 1  
    62    5   62 1  
    63    6   63 1  
    64    7   64 1  
    65    8   65 1  
    66   11   66 1  
    67   11   67 1  
    68   12   68 1  
    69   13   69 1  
    70   14   70 1  
    71   17   71 1  
    72   17   72 1  
    73   18   73 1  
    74   18   74 1  
    75   19   75 1  
    76   19   76 1  
    77   20   77 1  
    78   20   78 1  
    79   21   79 1  
    80   21   80 1  
    81   21   81 1  
    82   23   82 1  
    83   26   83 1  
    84   26   84 1  
    85   27   85 1  
    86   27   86 1  
    87   28   87 1  
    88   28   88 1  
    89   29   89 1  
    90   30   90 1  
    91   33   91 1  
    92   33   92 1  
    93   37   93 1  
    94   38   94 1  
    95   41   95 1  
    96   42   96 1  
    97   42   97 1  
    98   43   98 1  
    99   43   99 1  
   100   43  100 1  
   101   44  101 1  
   102   44  102 1  
   103   44  103 1  
   104   45  104 1  
   105   46  105 1  
   106   49  106 1  
   107   50  107 1  
   108   50  108 1  
   109   50  109 1  
   110   51  110 1  
   111   51  111 1  
   112   51  112 1  
   113   52  113 1  
   114   53  114 1  
   115   53  115 1  
@<TRIPOS>SUBSTRUCTURE
     1 SER         1

