4gpk_ligand
  -I-interpret- 

117117  0  0  0  0  0  0  0  0999 V2000
   86.0240  -65.5570   59.7120 N   0  3  0  0  0
   87.1390  -66.3650   60.1920 C   0  0  0  0  0
   86.7980  -67.0340   61.5200 C   0  0  0  0  0
   85.8030  -66.6970   62.1570 O   0  0  0  0  0
   88.3930  -65.5040   60.3490 C   0  0  0  0  0
   88.1890  -64.2050   59.8280 O   0  0  0  0  0
   87.6310  -67.9820   61.9320 N   0  0  0  0  0
   87.4190  -68.6870   63.1870 C   0  0  0  0  0
   88.4840  -68.3100   64.2080 C   0  0  0  0  0
   89.6740  -68.5080   63.9730 O   0  0  0  0  0
   87.4130  -70.1970   62.9550 C   0  0  0  0  0
   86.3770  -70.5710   62.0730 O   0  0  0  0  0
   88.0470  -67.7670   65.3400 N   0  0  0  0  0
   88.9640  -67.3380   66.3880 C   0  0  0  0  0
   88.7160  -68.1470   67.6530 C   0  0  0  0  0
   87.5680  -68.4360   67.9880 O   0  0  0  0  0
   88.7870  -65.8480   66.6780 C   0  0  0  0  0
   87.7840  -65.1480   65.7750 C   0  0  0  0  0
   88.4040  -64.7040   64.4580 C   0  0  0  0  0
   87.3330  -64.1430   63.5330 C   0  0  0  0  0
   86.5890  -63.0010   64.1520 N   0  3  0  0  0
   89.7950  -68.5150   68.3610 N   0  0  0  0  0
   89.7130  -69.3440   69.5690 C   0  0  0  0  0
   88.8800  -68.7010   70.6720 C   0  0  0  0  0
   88.5420  -67.5210   70.5940 O   0  0  0  0  0
   91.1740  -69.4500   70.0200 C   0  0  0  0  0
   91.9650  -69.2300   68.7830 C   0  0  0  0  0
   91.1910  -68.2220   67.9930 C   0  0  0  0  0
   88.5560  -69.4880   71.6910 N   0  0  0  0  0
   87.7660  -69.0130   72.8170 C   0  0  0  0  0
   88.6600  -68.2590   73.7990 C   0  0  0  0  0
   89.8850  -68.3440   73.7210 O   0  0  0  0  0
   87.0880  -70.1970   73.5110 C   0  0  0  0  0
   85.9380  -69.7760   74.3990 C   0  0  0  0  0
   85.2590  -68.7800   74.0680 O   0  0  0  0  0
   85.7100  -70.4480   75.4250 O   0  0  0  0  0
   88.0430  -67.5230   74.7190 N   0  0  0  0  0
   88.7740  -66.7140   75.6930 C   0  0  0  0  0
   89.4440  -67.5620   76.7670 C   0  0  0  0  0
   89.3790  -68.7910   76.7390 O   0  0  0  0  0
   87.8430  -65.7180   76.3950 C   0  0  0  0  0
   86.7770  -66.4700   77.1940 C   0  0  0  0  0
   87.2060  -64.7740   75.3830 C   0  0  0  0  0
   85.7870  -65.5730   77.9010 C   0  0  0  0  0
   90.0870  -66.8940   77.7190 N   0  0  0  0  0
   90.6930  -67.5730   78.8630 C   0  0  0  0  0
   89.7100  -67.5950   80.0300 C   0  0  0  0  0
   89.3000  -66.5460   80.5290 O   0  0  0  0  0
   91.9990  -66.8830   79.3090 C   0  0  0  0  0
   92.5630  -67.5610   80.5500 C   0  0  0  0  0
   93.0180  -66.8870   78.1900 C   0  0  0  0  0
   89.3200  -68.7930   80.4520 N   0  0  0  0  0
   88.3680  -68.9460   81.5380 C   0  0  0  0  0
   87.3680  -70.0670   81.2930 C   0  0  0  0  0
   86.5500  -69.9970   80.3770 O   0  0  0  0  0
   87.3610  -71.0760   82.0000 O   0  0  0  0  0
   85.1969  -66.1457   59.6130 H   0  0  0  0  0
   85.8336  -64.8109   60.3809 H   0  0  0  0  0
   86.2643  -65.1512   58.8076 H   0  0  0  0  0
   87.3318  -67.1432   59.4535 H   0  0  0  0  0
   89.2094  -65.9747   59.8012 H   0  0  0  0  0
   88.6276  -65.4207   61.4102 H   0  0  0  0  0
   88.9898  -63.6874   59.9393 H   0  0  0  0  0
   88.4378  -68.2216   61.3558 H   0  0  0  0  0
   86.4479  -68.3911   63.5840 H   0  0  0  0  0
   87.2547  -70.6963   63.9109 H   0  0  0  0  0
   88.3673  -70.4862   62.5149 H   0  0  0  0  0
   86.3954  -71.5222   61.9446 H   0  0  0  0  0
   87.0435  -67.6475   65.4786 H   0  0  0  0  0
   89.9861  -67.5057   66.0484 H   0  0  0  0  0
   89.7536  -65.3725   66.5119 H   0  0  0  0  0
   88.4132  -65.7626   67.6983 H   0  0  0  0  0
   87.4227  -64.2607   66.2948 H   0  0  0  0  0
   86.9821  -65.8515   65.5511 H   0  0  0  0  0
   88.8744  -65.5625   63.9786 H   0  0  0  0  0
   89.1445  -63.9292   64.6564 H   0  0  0  0  0
   86.6177  -64.9381   63.3224 H   0  0  0  0  0
   87.8231  -63.7778   62.6305 H   0  0  0  0  0
   85.8852  -62.6604   63.4970 H   0  0  0  0  0
   86.1336  -63.3176   65.0081 H   0  0  0  0  0
   87.2430  -62.2496   64.3712 H   0  0  0  0  0
   89.2308  -70.3003   69.3662 H   0  0  0  0  0
   91.3906  -70.4162   70.4757 H   0  0  0  0  0
   91.4156  -68.7207   70.7932 H   0  0  0  0  0
   92.1033  -70.1563   68.2253 H   0  0  0  0  0
   92.9712  -68.8764   69.0079 H   0  0  0  0  0
   91.4809  -67.1956   68.2178 H   0  0  0  0  0
   91.3702  -68.2974   66.9205 H   0  0  0  0  0
   88.8714  -70.4580   71.6844 H   0  0  0  0  0
   86.9960  -68.3320   72.4545 H   0  0  0  0  0
   87.8324  -70.6868   74.1387 H   0  0  0  0  0
   86.6895  -70.8536   72.7376 H   0  0  0  0  0
   85.6056  -68.4152   73.2504 H   0  0  0  0  0
   87.0234  -67.5229   74.7460 H   0  0  0  0  0
   89.5392  -66.1861   75.1238 H   0  0  0  0  0
   88.4299  -65.1154   77.0881 H   0  0  0  0  0
   87.2955  -67.0451   77.9611 H   0  0  0  0  0
   86.2129  -67.0775   76.4863 H   0  0  0  0  0
   87.9875  -64.2208   74.8621 H   0  0  0  0  0
   86.6269  -65.3523   74.6630 H   0  0  0  0  0
   86.5495  -64.0759   75.9024 H   0  0  0  0  0
   86.3183  -64.9287   78.6015 H   0  0  0  0  0
   85.2647  -64.9602   77.1663 H   0  0  0  0  0
   85.0666  -66.1854   78.4433 H   0  0  0  0  0
   90.1597  -65.8790   77.6495 H   0  0  0  0  0
   90.9337  -68.5906   78.5554 H   0  0  0  0  0
   91.7705  -65.8462   79.5560 H   0  0  0  0  0
   91.8349  -67.4992   81.3588 H   0  0  0  0  0
   92.7726  -68.6072   80.3273 H   0  0  0  0  0
   93.4838  -67.0603   80.8492 H   0  0  0  0  0
   93.2419  -67.9158   77.9079 H   0  0  0  0  0
   92.6136  -66.3530   77.3301 H   0  0  0  0  0
   93.9298  -66.3951   78.5289 H   0  0  0  0  0
   89.6988  -69.6262   80.0019 H   0  0  0  0  0
   87.8095  -68.0141   81.6258 H   0  0  0  0  0
   88.9281  -69.1900   82.4407 H   0  0  0  0  0
   88.0442  -71.0005   82.6702 H   0  0  0  0  0
  1  2  1  0  0  0
  2  3  1  0  0  0
  2  5  1  0  0  0
  3  4  2  0  0  0
  3  7  1  0  0  0
  5  6  1  0  0  0
  7  8  1  0  0  0
  8  9  1  0  0  0
  8 11  1  0  0  0
  9 10  2  0  0  0
  9 13  1  0  0  0
 11 12  1  0  0  0
 13 14  1  0  0  0
 14 15  1  0  0  0
 14 17  1  0  0  0
 15 16  2  0  0  0
 15 22  1  0  0  0
 17 18  1  0  0  0
 18 19  1  0  0  0
 19 20  1  0  0  0
 20 21  1  0  0  0
 22 23  1  0  0  0
 22 28  1  0  0  0
 23 24  1  0  0  0
 23 26  1  0  0  0
 24 25  2  0  0  0
 24 29  1  0  0  0
 26 27  1  0  0  0
 27 28  1  0  0  0
 29 30  1  0  0  0
 30 31  1  0  0  0
 30 33  1  0  0  0
 31 32  2  0  0  0
 31 37  1  0  0  0
 33 34  1  0  0  0
 34 35  1  0  0  0
 34 36  2  0  0  0
 37 38  1  0  0  0
 38 39  1  0  0  0
 38 41  1  0  0  0
 39 40  2  0  0  0
 39 45  1  0  0  0
 41 42  1  0  0  0
 41 43  1  0  0  0
 42 44  1  0  0  0
 45 46  1  0  0  0
 46 47  1  0  0  0
 46 49  1  0  0  0
 47 48  2  0  0  0
 47 52  1  0  0  0
 49 50  1  0  0  0
 49 51  1  0  0  0
 52 53  1  0  0  0
 53 54  1  0  0  0
 54 55  2  0  0  0
 54 56  1  0  0  0
  1 57  1  0  0  0
  1 58  1  0  0  0
  1 59  1  0  0  0
  2 60  1  0  0  0
  5 61  1  0  0  0
  5 62  1  0  0  0
  6 63  1  0  0  0
  7 64  1  0  0  0
  8 65  1  0  0  0
 11 66  1  0  0  0
 11 67  1  0  0  0
 12 68  1  0  0  0
 13 69  1  0  0  0
 14 70  1  0  0  0
 17 71  1  0  0  0
 17 72  1  0  0  0
 18 73  1  0  0  0
 18 74  1  0  0  0
 19 75  1  0  0  0
 19 76  1  0  0  0
 20 77  1  0  0  0
 20 78  1  0  0  0
 21 79  1  0  0  0
 21 80  1  0  0  0
 21 81  1  0  0  0
 23 82  1  0  0  0
 26 83  1  0  0  0
 26 84  1  0  0  0
 27 85  1  0  0  0
 27 86  1  0  0  0
 28 87  1  0  0  0
 28 88  1  0  0  0
 29 89  1  0  0  0
 30 90  1  0  0  0
 33 91  1  0  0  0
 33 92  1  0  0  0
 35 93  1  0  0  0
 37 94  1  0  0  0
 38 95  1  0  0  0
 41 96  1  0  0  0
 42 97  1  0  0  0
 42 98  1  0  0  0
 43 99  1  0  0  0
 43100  1  0  0  0
 43101  1  0  0  0
 44102  1  0  0  0
 44103  1  0  0  0
 44104  1  0  0  0
 45105  1  0  0  0
 46106  1  0  0  0
 49107  1  0  0  0
 50108  1  0  0  0
 50109  1  0  0  0
 50110  1  0  0  0
 51111  1  0  0  0
 51112  1  0  0  0
 51113  1  0  0  0
 52114  1  0  0  0
 53115  1  0  0  0
 53116  1  0  0  0
 56117  1  0  0  0
M  END
$$$$
