1g7q_ligand
  -I-interpret- 

113114  0  0  0  0  0  0  0  0999 V2000
   49.8290   57.5970    4.8090 N   0  3  0  0  0
   48.5910   58.3180    4.3920 C   0  0  0  0  0
   48.2830   58.0060    2.9330 C   0  0  0  0  0
   49.1260   58.1990    2.0570 O   0  0  0  0  0
   48.7750   59.8270    4.5700 C   0  0  0  0  0
   47.5700   60.5120    4.2830 O   0  0  0  0  0
   47.0700   57.5220    2.6870 N   0  0  0  0  0
   46.6310   57.1550    1.3440 C   0  0  0  0  0
   46.5360   58.3690    0.4280 C   0  0  0  0  0
   46.3920   59.5000    0.8910 O   0  0  0  0  0
   45.2730   56.4460    1.4160 C   0  0  0  0  0
   46.6400   58.1500   -0.8900 N   0  0  0  0  0
   46.5510   59.2780   -1.8210 C   0  0  0  0  0
   45.0970   59.6630   -2.0610 C   0  0  0  0  0
   44.1860   58.8870   -1.7670 O   0  0  0  0  0
   47.1990   58.7240   -3.0840 C   0  0  0  0  0
   46.7770   57.2750   -3.0470 C   0  0  0  0  0
   47.0170   56.9090   -1.5960 C   0  0  0  0  0
   44.8800   60.8660   -2.5780 N   0  0  0  0  0
   43.5290   61.3030   -2.8970 C   0  0  0  0  0
   43.2990   60.8350   -4.3250 C   0  0  0  0  0
   44.1260   61.0870   -5.2000 O   0  0  0  0  0
   43.4130   62.8280   -2.8260 C   0  0  0  0  0
   43.6800   63.3680   -1.4370 C   0  0  0  0  0
   44.8680   63.5020   -1.0670 O   0  0  0  0  0
   42.7040   63.6480   -0.7100 O   0  0  0  0  0
   42.1990   60.1330   -4.5650 N   0  0  0  0  0
   41.9110   59.6550   -5.9110 C   0  0  0  0  0
   40.8090   60.4910   -6.5390 C   0  0  0  0  0
   39.8980   60.9530   -5.8510 O   0  0  0  0  0
   41.4800   58.1710   -5.9190 C   0  0  0  0  0
   40.3180   58.0010   -5.1000 O   0  0  0  0  0
   42.6010   57.2890   -5.3990 C   0  0  0  0  0
   40.9020   60.6870   -7.8500 N   0  0  0  0  0
   39.9150   61.4780   -8.5710 C   0  0  0  0  0
   39.3350   60.7070   -9.7520 C   0  0  0  0  0
   39.9310   59.7410  -10.2200 O   0  0  0  0  0
   40.5530   62.7970   -9.0020 C   0  0  0  0  0
   40.8810   63.6620   -7.7990 C   0  0  0  0  0
   42.0150   64.6390   -8.0280 C   0  0  0  0  0
   42.4480   65.2060   -6.7530 N   0  0  0  0  0
   43.4450   66.0730   -6.6100 C   0  0  0  0  0
   44.1280   66.4820   -7.6710 N   0  0  0  0  0
   43.7480   66.5380   -5.4050 N   0  0  0  0  0
   38.1460   61.1140  -10.2310 N   0  0  0  0  0
   37.4180   60.5020  -11.3490 C   0  0  0  0  0
   38.1670   60.1150  -12.6230 C   0  0  0  0  0
   38.9730   60.8760  -13.1580 O   0  0  0  0  0
   36.3080   61.5130  -11.6210 C   0  0  0  0  0
   35.9860   61.9830  -10.2470 C   0  0  0  0  0
   37.3640   62.2320   -9.6680 C   0  0  0  0  0
   37.8550   58.9150  -13.1020 N   0  0  0  0  0
   38.4360   58.3620  -14.3170 C   0  0  0  0  0
   37.6260   58.8050  -15.5380 C   0  0  0  0  0
   37.9700   58.3930  -16.6680 O   0  0  0  0  0
   38.4560   56.8400  -14.2240 C   0  0  0  0  0
   36.6490   59.5610  -15.3500 O   0  0  0  0  0
   49.6943   56.5934    4.6860 H   0  0  0  0  0
   50.6124   57.9090    4.2351 H   0  0  0  0  0
   50.0236   57.7974    5.7900 H   0  0  0  0  0
   47.7607   57.9872    5.0160 H   0  0  0  0  0
   49.5496   60.1720    3.8851 H   0  0  0  0  0
   49.0593   60.0292    5.6027 H   0  0  0  0  0
   47.7039   61.4554    4.3997 H   0  0  0  0  0
   46.4217   57.4025    3.4654 H   0  0  0  0  0
   47.3763   56.4803    0.9227 H   0  0  0  0  0
   44.5252   57.1350    1.8086 H   0  0  0  0  0
   44.9808   56.1210    0.4174 H   0  0  0  0  0
   45.3512   55.5798    2.0730 H   0  0  0  0  0
   47.0340   60.1857   -1.4592 H   0  0  0  0  0
   48.2806   58.8571   -3.1071 H   0  0  0  0  0
   46.8856   59.2408   -3.9911 H   0  0  0  0  0
   47.3306   56.6479   -3.7459 H   0  0  0  0  0
   45.7461   57.1191   -3.3650 H   0  0  0  0  0
   48.0425   56.5977   -1.3969 H   0  0  0  0  0
   46.4424   56.0410   -1.2727 H   0  0  0  0  0
   45.6675   61.4901   -2.7534 H   0  0  0  0  0
   42.7989   60.8991   -2.1956 H   0  0  0  0  0
   42.3941   63.1001   -3.1016 H   0  0  0  0  0
   44.1570   63.2528   -3.4998 H   0  0  0  0  0
   45.4554   63.2307   -1.7762 H   0  0  0  0  0
   41.5520   59.9270   -3.8038 H   0  0  0  0  0
   42.8314   59.7485   -6.4874 H   0  0  0  0  0
   41.2507   57.8805   -6.9442 H   0  0  0  0  0
   40.0543   57.0780   -5.1082 H   0  0  0  0  0
   43.4788   57.4069   -6.0343 H   0  0  0  0  0
   42.8478   57.5812   -4.3783 H   0  0  0  0  0
   42.2784   56.2479   -5.4123 H   0  0  0  0  0
   41.6816   60.2744   -8.3622 H   0  0  0  0  0
   39.0748   61.6956   -7.9116 H   0  0  0  0  0
   39.8491   63.3345   -9.6373 H   0  0  0  0  0
   41.4767   62.5796   -9.5383 H   0  0  0  0  0
   41.1902   62.9927   -6.9962 H   0  0  0  0  0
   39.9911   64.2494   -7.5729 H   0  0  0  0  0
   41.6716   65.4419   -8.6804 H   0  0  0  0  0
   42.8517   64.1164   -8.4917 H   0  0  0  0  0
   41.9492   64.9155   -5.9121 H   0  0  0  0  0
   43.8883   66.1310   -8.5982 H   0  0  0  0  0
   44.5067   67.2106   -5.2938 H   0  0  0  0  0
   43.2222   66.2229   -4.5897 H   0  0  0  0  0
   37.1050   59.5028  -11.0460 H   0  0  0  0  0
   35.4528   61.0887  -12.1470 H   0  0  0  0  0
   36.6063   62.3151  -12.2962 H   0  0  0  0  0
   35.3993   61.2665   -9.6721 H   0  0  0  0  0
   35.3455   62.8648  -10.2315 H   0  0  0  0  0
   37.3740   62.2575   -8.5783 H   0  0  0  0  0
   37.7677   63.2112   -9.9254 H   0  0  0  0  0
   37.1736   58.3527  -12.5922 H   0  0  0  0  0
   39.4566   58.7287  -14.4262 H   0  0  0  0  0
   38.7415   57.8284  -16.5803 H   0  0  0  0  0
   37.4352   56.4696  -14.1299 H   0  0  0  0  0
   38.9118   56.4282  -15.1245 H   0  0  0  0  0
   39.0353   56.5382  -13.3514 H   0  0  0  0  0
  3  2  1  0  0  0
  2  5  1  0  0  0
  2  1  1  0  0  0
  5  6  1  0  0  0
  3  4  2  0  0  0
  9  8  1  0  0  0
  8 11  1  0  0  0
  8  7  1  0  0  0
  9 10  2  0  0  0
 13 12  1  0  0  0
 13 16  1  0  0  0
 14 13  1  0  0  0
 14 15  2  0  0  0
 16 17  1  0  0  0
 17 18  1  0  0  0
 12 18  1  0  0  0
 21 20  1  0  0  0
 20 23  1  0  0  0
 20 19  1  0  0  0
 23 24  1  0  0  0
 24 25  1  0  0  0
 24 26  2  0  0  0
 21 22  2  0  0  0
 29 28  1  0  0  0
 28 31  1  0  0  0
 28 27  1  0  0  0
 31 32  1  0  0  0
 31 33  1  0  0  0
 29 30  2  0  0  0
 36 35  1  0  0  0
 35 38  1  0  0  0
 35 34  1  0  0  0
 38 39  1  0  0  0
 39 40  1  0  0  0
 40 41  1  0  0  0
 41 42  1  0  0  0
 42 43  2  0  0  0
 42 44  1  0  0  0
 36 37  2  0  0  0
 46 45  1  0  0  0
 46 49  1  0  0  0
 47 46  1  0  0  0
 47 48  2  0  0  0
 49 50  1  0  0  0
 50 51  1  0  0  0
 45 51  1  0  0  0
 53 54  1  0  0  0
 53 56  1  0  0  0
 52 53  1  0  0  0
 54 57  2  0  0  0
 54 55  1  0  0  0
  7  3  1  0  0  0
 12  9  1  0  0  0
 19 14  1  0  0  0
 27 21  1  0  0  0
 34 29  1  0  0  0
 45 36  1  0  0  0
 47 52  1  0  0  0
  1 58  1  0  0  0
  1 59  1  0  0  0
  1 60  1  0  0  0
  2 61  1  0  0  0
  5 62  1  0  0  0
  5 63  1  0  0  0
  6 64  1  0  0  0
  7 65  1  0  0  0
  8 66  1  0  0  0
 11 67  1  0  0  0
 11 68  1  0  0  0
 11 69  1  0  0  0
 13 70  1  0  0  0
 16 71  1  0  0  0
 16 72  1  0  0  0
 17 73  1  0  0  0
 17 74  1  0  0  0
 18 75  1  0  0  0
 18 76  1  0  0  0
 19 77  1  0  0  0
 20 78  1  0  0  0
 23 79  1  0  0  0
 23 80  1  0  0  0
 25 81  1  0  0  0
 27 82  1  0  0  0
 28 83  1  0  0  0
 31 84  1  0  0  0
 32 85  1  0  0  0
 33 86  1  0  0  0
 33 87  1  0  0  0
 33 88  1  0  0  0
 34 89  1  0  0  0
 35 90  1  0  0  0
 38 91  1  0  0  0
 38 92  1  0  0  0
 39 93  1  0  0  0
 39 94  1  0  0  0
 40 95  1  0  0  0
 40 96  1  0  0  0
 41 97  1  0  0  0
 43 98  1  0  0  0
 44 99  1  0  0  0
 44100  1  0  0  0
 46101  1  0  0  0
 49102  1  0  0  0
 49103  1  0  0  0
 50104  1  0  0  0
 50105  1  0  0  0
 51106  1  0  0  0
 51107  1  0  0  0
 52108  1  0  0  0
 53109  1  0  0  0
 55110  1  0  0  0
 56111  1  0  0  0
 56112  1  0  0  0
 56113  1  0  0  0
M  END
$$$$
