4uru_ligand
  -I-interpret- 

 27 28  0  0  0  0  0  0  0  0999 V2000
   43.6850   39.6380   73.1780 O   0  0  0  0  0
   44.2990   39.3930   74.4430 S   0  0  0  0  0
   43.5370   38.7840   75.4890 O   0  0  0  0  0
   44.8170   40.8880   74.9780 N   0  0  0  0  0
   45.0220   41.2050   76.2670 C   0  0  0  0  0
   44.6900   40.1640   77.6120 S   0  0  0  0  0
   45.1800   41.3960   78.6630 C   0  0  0  0  0
   45.5440   42.4820   77.9690 C   0  0  0  0  0
   45.4740   42.3850   76.5970 N   0  0  0  0  0
   45.7530   38.4390   74.1800 C   0  0  0  0  0
   46.9900   39.0640   74.1960 C   0  0  0  0  0
   48.1380   38.3170   74.0060 C   0  0  0  0  0
   45.6520   37.0760   73.9580 C   0  0  0  0  0
   46.8040   36.3300   73.7720 C   0  0  0  0  0
   48.0480   36.9530   73.8040 C   0  0  0  0  0
   49.2900   36.3930   73.6540 O   0  0  0  0  0
   49.3760   34.9850   73.4320 C   0  0  0  0  0
   44.9894   41.6096   74.2780 H   0  0  0  0  0
   45.1970   41.3171   79.7500 H   0  0  0  0  0
   45.8779   43.3941   78.4637 H   0  0  0  0  0
   47.0576   40.1398   74.3577 H   0  0  0  0  0
   49.1132   38.8038   74.0156 H   0  0  0  0  0
   44.6746   36.5944   73.9299 H   0  0  0  0  0
   46.7363   35.2557   73.6007 H   0  0  0  0  0
   48.9302   34.4576   74.2754 H   0  0  0  0  0
   48.8404   34.7292   72.5177 H   0  0  0  0  0
   50.4227   34.6972   73.3340 H   0  0  0  0  0
  1  2  2  0  0  0
  2  3  2  0  0  0
  2  4  1  0  0  0
  2 10  1  0  0  0
  4  5  1  0  0  0
  5  6  4  0  0  0
  5  9  4  0  0  0
  6  7  4  0  0  0
  7  8  4  0  0  0
  8  9  4  0  0  0
 10 11  4  0  0  0
 10 13  4  0  0  0
 11 12  4  0  0  0
 12 15  4  0  0  0
 13 14  4  0  0  0
 14 15  4  0  0  0
 15 16  1  0  0  0
 16 17  1  0  0  0
  4 18  1  0  0  0
  7 19  1  0  0  0
  8 20  1  0  0  0
 11 21  1  0  0  0
 12 22  1  0  0  0
 13 23  1  0  0  0
 14 24  1  0  0  0
 17 25  1  0  0  0
 17 26  1  0  0  0
 17 27  1  0  0  0
M  END
$$$$
