3nzu_ligand
  -I-interpret- 

 45 48  0  0  0  0  0  0  0  0999 V2000
   21.5420   11.5970   24.5420 C   0  0  0  0  0
   20.7140   12.6420   24.0130 N   0  0  0  0  0
   21.0970   13.5410   23.1190 C   0  0  0  0  0
   20.0210   14.3560   22.8790 C   0  0  0  0  0
   18.9940   13.8830   23.6880 C   0  0  0  0  0
   19.4090   12.8700   24.3370 N   0  0  0  0  0
   20.1750   15.3930   21.9680 C   0  0  0  0  0
   21.3190   15.5330   21.3870 N   0  0  0  0  0
   22.2960   14.7290   21.6540 C   0  0  0  0  0
   22.2030   13.7600   22.4870 N   0  0  0  0  0
   23.5600   14.9030   20.9700 C   0  0  0  0  0
   23.6500   15.7670   19.9200 C   0  0  0  0  0
   24.8340   15.9310   19.2580 C   0  0  0  0  0
   25.9340   15.2300   19.6260 C   0  0  0  0  0
   25.8590   14.3430   20.6690 C   0  0  0  0  0
   24.6720   14.1660   21.3510 C   0  0  0  0  0
   24.9040   13.2200   22.3400 C   0  0  0  0  0
   26.1250   12.8470   22.2660 N   0  0  0  0  0
   26.7500   13.5240   21.2470 N   0  0  0  0  0
   19.1620   16.2590   21.6950 N   0  0  0  0  0
   19.1910   17.1660   20.5620 C   0  0  0  0  0
   18.2690   18.3500   20.8660 C   0  0  0  0  0
   19.0340   19.4770   21.5640 C   0  0  0  0  0
   18.1190   21.0380   21.6230 S   0  0  0  0  0
   17.2840   21.0390   22.7250 O   0  0  0  0  0
   19.0020   22.1080   21.5060 O   0  0  0  0  0
   17.1450   20.8970   20.1250 C   0  0  0  0  0
   21.8792   10.9552   23.7281 H   0  0  0  0  0
   22.4054   12.0368   25.0412 H   0  0  0  0  0
   20.9684   11.0076   25.2573 H   0  0  0  0  0
   17.9939   14.3111   23.7556 H   0  0  0  0  0
   22.7716   16.3310   19.6062 H   0  0  0  0  0
   24.8944   16.6324   18.4259 H   0  0  0  0  0
   26.8752   15.3708   19.0946 H   0  0  0  0  0
   24.1694   12.8564   23.0585 H   0  0  0  0  0
   18.3493   16.2715   22.3113 H   0  0  0  0  0
   18.8519   16.6507   19.6633 H   0  0  0  0  0
   20.2082   17.5195   20.3935 H   0  0  0  0  0
   17.4697   18.0102   21.5246 H   0  0  0  0  0
   17.8672   18.7300   19.9267 H   0  0  0  0  0
   19.9484   19.6534   20.9975 H   0  0  0  0  0
   19.2153   19.1634   22.5920 H   0  0  0  0  0
   16.5768   19.9671   20.1488 H   0  0  0  0  0
   16.4593   21.7417   20.0581 H   0  0  0  0  0
   17.8086   20.8968   19.2603 H   0  0  0  0  0
  1  2  1  0  0  0
  2  3  4  0  0  0
  2  6  4  0  0  0
  3  4  4  0  0  0
  3 10  4  0  0  0
  4  5  4  0  0  0
  4  7  4  0  0  0
  5  6  4  0  0  0
  7  8  4  0  0  0
  7 20  1  0  0  0
  8  9  4  0  0  0
  9 10  4  0  0  0
  9 11  1  0  0  0
 11 12  4  0  0  0
 11 16  4  0  0  0
 12 13  4  0  0  0
 13 14  4  0  0  0
 14 15  4  0  0  0
 15 16  4  0  0  0
 15 19  4  0  0  0
 16 17  4  0  0  0
 17 18  4  0  0  0
 18 19  4  0  0  0
 20 21  1  0  0  0
 21 22  1  0  0  0
 22 23  1  0  0  0
 23 24  1  0  0  0
 24 25  2  0  0  0
 24 26  2  0  0  0
 24 27  1  0  0  0
  1 28  1  0  0  0
  1 29  1  0  0  0
  1 30  1  0  0  0
  5 31  1  0  0  0
 12 32  1  0  0  0
 13 33  1  0  0  0
 14 34  1  0  0  0
 17 35  1  0  0  0
 20 36  1  0  0  0
 21 37  1  0  0  0
 21 38  1  0  0  0
 22 39  1  0  0  0
 22 40  1  0  0  0
 23 41  1  0  0  0
 23 42  1  0  0  0
 27 43  1  0  0  0
 27 44  1  0  0  0
 27 45  1  0  0  0
M  END
$$$$
