4glx_ligand
  -I-interpret- 

 25 26  0  0  0  0  0  0  0  0999 V2000
   27.3170    5.1160    6.8920 C   0  0  0  0  0
   30.9620    4.3210    6.3730 C   0  0  0  0  0
   26.7970    4.5390    5.7390 C   0  0  0  0  0
   27.6240    3.9060    4.8310 C   0  0  0  0  0
   25.4640    4.5940    5.4910 C   0  0  0  0  0
   25.0110    4.0110    4.3310 C   0  0  0  0  0
   25.8760    3.3470    3.4330 C   0  0  0  0  0
   23.0340    3.2520    3.4550 O   0  0  0  0  0
   23.5490    4.0680    4.2060 C   0  0  0  0  0
   22.8580    4.8650    5.0420 N   0  0  0  0  0
   28.6810    5.0710    7.1400 C   0  0  0  0  0
   29.5110    5.8950    8.6760 Br  0  0  0  0  0
   25.4940    2.7530    2.2670 N   0  0  0  0  0
   27.1710    3.3180    3.7190 N   0  0  0  0  0
   28.9400    3.9010    5.0610 N   0  0  0  0  0
   29.4810    4.4460    6.1860 C   0  0  0  0  0
   31.5450    5.3980    6.8760 F   0  0  0  0  0
   31.1390    3.3080    7.2280 F   0  0  0  0  0
   31.4750    4.0060    5.1880 F   0  0  0  0  0
   26.6511    5.6050    7.6030 H   0  0  0  0  0
   24.7788    5.0815    6.1845 H   0  0  0  0  0
   21.8401    4.8092    5.0750 H   0  0  0  0  0
   23.3523    5.5248    5.6426 H   0  0  0  0  0
   24.5140    2.7672    1.9846 H   0  0  0  0  0
   26.1882    2.2943    1.6770 H   0  0  0  0  0
  1  3  4  0  0  0
 11  1  4  0  0  0
 16  2  1  0  0  0
  2 17  1  0  0  0
  2 18  1  0  0  0
  2 19  1  0  0  0
  3  4  4  0  0  0
  3  5  4  0  0  0
  4 14  4  0  0  0
  4 15  4  0  0  0
  5  6  4  0  0  0
  6  7  4  0  0  0
  6  9  1  0  0  0
  7 13  1  0  0  0
 14  7  4  0  0  0
  9  8  2  0  0  0
  9 10  1  0  0  0
 11 12  1  0  0  0
 11 16  4  0  0  0
 15 16  4  0  0  0
  1 20  1  0  0  0
  5 21  1  0  0  0
 10 22  1  0  0  0
 10 23  1  0  0  0
 13 24  1  0  0  0
 13 25  1  0  0  0
M  END
$$$$
