4i4f_ligand
  -I-interpret- 

 55 58  0  0  0  0  0  0  0  0999 V2000
  -10.3180   -1.1070  -15.5770 C   0  0  0  0  0
  -11.1020    0.0190  -15.0940 N   0  0  0  0  0
  -11.0790    1.2690  -15.7690 C   0  0  0  0  0
  -11.0680    1.2500  -17.1730 C   0  0  0  0  0
  -10.9780    2.4660  -17.8810 C   0  0  0  0  0
  -10.9100    3.6870  -17.1760 C   0  0  0  0  0
  -10.8750    4.9040  -17.8950 N   0  0  0  0  0
  -10.1840    6.1430  -17.4240 C   0  0  0  0  0
   -9.7710    6.8800  -18.6980 C   0  0  0  0  0
   -8.7010    6.3810  -19.4410 C   0  0  0  0  0
   -8.3030    7.0250  -20.6040 C   0  0  0  0  0
   -9.0020    8.1520  -21.0590 C   0  0  0  0  0
  -10.0640    8.6550  -20.3030 C   0  0  0  0  0
  -10.4770    8.0010  -19.1160 C   0  0  0  0  0
   -8.5590    8.8140  -22.3590 C   0  0  0  0  0
   -8.7320    7.8230  -23.5310 C   0  0  0  0  0
   -9.3960   10.0560  -22.6790 C   0  0  0  0  0
   -7.0890    9.2540  -22.2770 C   0  0  0  0  0
  -10.9470    3.6960  -15.7870 C   0  0  0  0  0
  -10.9960    2.4910  -15.0580 C   0  0  0  0  0
  -11.0060    2.4930  -13.5710 C   0  0  0  0  0
  -11.4010    1.3650  -12.8590 C   0  0  0  0  0
  -11.2890    1.6150  -11.4960 C   0  0  0  0  0
  -10.8120    2.8260  -11.3520 N   0  0  0  0  0
  -10.6370    3.3960  -12.6200 N   0  0  0  0  0
  -10.1240    4.7490  -12.8000 C   0  0  0  0  0
  -11.9390   -0.0720  -13.6790 S   0  0  0  0  0
  -13.3140    0.1420  -14.0330 O   0  0  0  0  0
  -11.6000   -1.2660  -12.9940 O   0  0  0  0  0
   -9.5500   -1.3544  -14.8441 H   0  0  0  0  0
  -10.9717   -1.9666  -15.7244 H   0  0  0  0  0
   -9.8468   -0.8408  -16.5231 H   0  0  0  0  0
  -11.1285    0.3038  -17.7107 H   0  0  0  0  0
  -10.9610    2.4632  -18.9709 H   0  0  0  0  0
  -11.3532    4.9388  -18.7953 H   0  0  0  0  0
   -9.3233    5.9100  -16.7971 H   0  0  0  0  0
  -10.8353    6.7540  -16.7990 H   0  0  0  0  0
   -8.1774    5.4849  -19.1079 H   0  0  0  0  0
   -7.4452    6.6539  -21.1649 H   0  0  0  0  0
  -10.5792    9.5584  -20.6293 H   0  0  0  0  0
  -11.3289    8.3689  -18.5441 H   0  0  0  0  0
   -8.1231    6.9374  -23.3492 H   0  0  0  0  0
   -9.7803    7.5348  -23.6097 H   0  0  0  0  0
   -8.4143    8.2999  -24.4582 H   0  0  0  0  0
  -10.4433    9.7709  -22.7791 H   0  0  0  0  0
   -9.2910   10.7811  -21.8720 H   0  0  0  0  0
   -9.0473   10.4968  -23.6129 H   0  0  0  0  0
   -6.9695    9.9672  -21.4614 H   0  0  0  0  0
   -6.4599    8.3827  -22.0946 H   0  0  0  0  0
   -6.7985    9.7231  -23.2170 H   0  0  0  0  0
  -10.9380    4.6471  -15.2546 H   0  0  0  0  0
  -11.5510    0.9270  -10.6922 H   0  0  0  0  0
   -9.1990    4.7119  -13.3753 H   0  0  0  0  0
  -10.8618    5.3479  -13.3340 H   0  0  0  0  0
   -9.9292    5.1951  -11.8247 H   0  0  0  0  0
  1  2  1  0  0  0
  2  3  1  0  0  0
  2 27  1  0  0  0
  3  4  4  0  0  0
  3 20  4  0  0  0
  4  5  4  0  0  0
  5  6  4  0  0  0
  6  7  1  0  0  0
  6 19  4  0  0  0
  7  8  1  0  0  0
  8  9  1  0  0  0
  9 10  4  0  0  0
  9 14  4  0  0  0
 10 11  4  0  0  0
 11 12  4  0  0  0
 12 13  4  0  0  0
 12 15  1  0  0  0
 13 14  4  0  0  0
 15 16  1  0  0  0
 15 17  1  0  0  0
 15 18  1  0  0  0
 19 20  4  0  0  0
 20 21  1  0  0  0
 21 22  4  0  0  0
 21 25  4  0  0  0
 22 23  4  0  0  0
 22 27  1  0  0  0
 23 24  4  0  0  0
 24 25  4  0  0  0
 25 26  1  0  0  0
 27 28  2  0  0  0
 27 29  2  0  0  0
  1 30  1  0  0  0
  1 31  1  0  0  0
  1 32  1  0  0  0
  4 33  1  0  0  0
  5 34  1  0  0  0
  7 35  1  0  0  0
  8 36  1  0  0  0
  8 37  1  0  0  0
 10 38  1  0  0  0
 11 39  1  0  0  0
 13 40  1  0  0  0
 14 41  1  0  0  0
 16 42  1  0  0  0
 16 43  1  0  0  0
 16 44  1  0  0  0
 17 45  1  0  0  0
 17 46  1  0  0  0
 17 47  1  0  0  0
 18 48  1  0  0  0
 18 49  1  0  0  0
 18 50  1  0  0  0
 19 51  1  0  0  0
 23 52  1  0  0  0
 26 53  1  0  0  0
 26 54  1  0  0  0
 26 55  1  0  0  0
M  END
$$$$
