4j74_ligand
  -I-interpret- 

 34 36  0  0  0  0  0  0  0  0999 V2000
  -13.7500   -9.5080    2.6330 N   0  0  0  0  0
  -12.6710   -9.7260    1.6670 C   0  0  0  0  0
  -13.2230  -10.3460    0.4060 C   0  0  0  0  0
  -11.7030  -10.6570    2.4540 C   0  0  0  0  0
  -11.3800  -11.9480    1.7480 C   0  0  0  0  0
  -12.3850  -10.9090    3.7230 N   0  0  0  0  0
  -13.4820  -10.2540    3.7620 C   0  0  0  0  0
  -14.4600  -10.2400    4.9030 C   0  0  0  0  0
  -14.4750  -10.9650    0.4350 C   0  0  0  0  0
  -15.0140  -11.5130   -0.7240 C   0  0  0  0  0
  -14.2910  -11.4520   -1.9160 C   0  0  0  0  0
  -14.9460  -12.2010   -3.3550 Cl  0  0  0  0  0
  -13.0440  -10.8190   -1.9610 C   0  0  0  0  0
  -12.5080  -10.2730   -0.7950 C   0  0  0  0  0
  -10.1830  -12.0660    1.0400 C   0  0  0  0  0
   -9.8730  -13.2490    0.3820 C   0  0  0  0  0
  -10.7720  -14.3140    0.4220 C   0  0  0  0  0
  -10.4300  -15.7610   -0.4980 Cl  0  0  0  0  0
  -11.9520  -14.2220    1.1630 C   0  0  0  0  0
  -12.2560  -13.0350    1.8230 C   0  0  0  0  0
  -14.5620   -8.9065    2.4945 H   0  0  0  0  0
  -12.1668   -8.8237    1.3209 H   0  0  0  0  0
  -10.7313  -10.1775    2.5725 H   0  0  0  0  0
  -14.8205  -11.2527    5.0833 H   0  0  0  0  0
  -13.9658   -9.8640    5.7988 H   0  0  0  0  0
  -15.3005   -9.5932    4.6515 H   0  0  0  0  0
  -15.0320  -11.0187    1.3704 H   0  0  0  0  0
  -15.9952  -11.9872   -0.7014 H   0  0  0  0  0
  -12.4954  -10.7531   -2.9006 H   0  0  0  0  0
  -11.5316   -9.7891   -0.8190 H   0  0  0  0  0
   -9.4888  -11.2264    1.0034 H   0  0  0  0  0
   -8.9333  -13.3443   -0.1620 H   0  0  0  0  0
  -12.6299  -15.0734    1.2240 H   0  0  0  0  0
  -13.1778  -12.9528    2.3988 H   0  0  0  0  0
  1  2  1  0  0  0
  1  7  1  0  0  0
  2  3  1  0  0  0
  2  4  1  0  0  0
  3  9  4  0  0  0
  3 14  4  0  0  0
  4  5  1  0  0  0
  4  6  1  0  0  0
  5 15  4  0  0  0
  5 20  4  0  0  0
  6  7  2  0  0  0
  7  8  1  0  0  0
  9 10  4  0  0  0
 10 11  4  0  0  0
 11 12  1  0  0  0
 11 13  4  0  0  0
 13 14  4  0  0  0
 15 16  4  0  0  0
 16 17  4  0  0  0
 17 18  1  0  0  0
 17 19  4  0  0  0
 19 20  4  0  0  0
  1 21  1  0  0  0
  2 22  1  0  0  0
  4 23  1  0  0  0
  8 24  1  0  0  0
  8 25  1  0  0  0
  8 26  1  0  0  0
  9 27  1  0  0  0
 10 28  1  0  0  0
 13 29  1  0  0  0
 14 30  1  0  0  0
 15 31  1  0  0  0
 16 32  1  0  0  0
 19 33  1  0  0  0
 20 34  1  0  0  0
M  END
$$$$
