4wwo_ligand
  -I-interpret- 

 45 49  0  0  0  0  0  0  0  0999 V2000
   22.0970   13.4740   23.3830 C   0  0  0  0  0
   23.3550   13.0490   23.4860 N   0  0  0  0  0
   23.3340   11.8200   23.9920 C   0  0  0  0  0
   22.0740   11.4570   24.2200 N   0  0  0  0  0
   21.2890   12.4530   23.8540 C   0  0  0  0  0
   19.9640   12.6060   23.8690 N   0  0  0  0  0
   19.4280   13.7410   23.4290 C   0  0  0  0  0
   20.1740   14.7500   22.9590 N   0  0  0  0  0
   21.5100   14.6640   22.9160 C   0  0  0  0  0
   22.2640   15.6860   22.4560 N   0  0  0  0  0
   21.7420   16.9840   21.9430 C   0  0  0  0  0
   22.8810   18.0090   21.9040 C   0  0  0  0  0
   21.1910   16.8720   20.5070 C   0  0  0  0  0
   21.7230   15.9510   19.6090 C   0  0  0  0  0
   21.1820   15.8870   18.3190 C   0  0  0  0  0
   21.6850   14.9740   17.4040 C   0  0  0  0  0
   21.1520   14.8950   16.1240 C   0  0  0  0  0
   20.1190   15.7450   15.7470 C   0  0  0  0  0
   19.6050   16.6730   16.6460 C   0  0  0  0  0
   18.3150   17.7190   16.1170 Cl  0  0  0  0  0
   20.1420   16.7430   17.9370 C   0  0  0  0  0
   19.6560   17.6190   18.8220 N   0  0  0  0  0
   20.1590   17.7190   20.0580 C   0  0  0  0  0
   19.5530   18.6480   20.8830 C   0  0  0  0  0
   18.4440   18.1980   21.5770 C   0  0  0  0  0
   17.7590   19.0510   22.4220 C   0  0  0  0  0
   16.6880   18.5680   23.0770 F   0  0  0  0  0
   18.1800   20.3730   22.5780 C   0  0  0  0  0
   19.2950   20.8260   21.8730 C   0  0  0  0  0
   19.9870   19.9600   21.0190 C   0  0  0  0  0
   24.2121   11.2051   24.1895 H   0  0  0  0  0
   18.3441   13.8543   23.4515 H   0  0  0  0  0
   23.2760   15.5585   22.4601 H   0  0  0  0  0
   20.9366   17.2849   22.6130 H   0  0  0  0  0
   23.2785   18.1469   22.9095 H   0  0  0  0  0
   23.6711   17.6474   21.2460 H   0  0  0  0  0
   22.5004   18.9590   21.5289 H   0  0  0  0  0
   22.5420   15.2946   19.9032 H   0  0  0  0  0
   22.5038   14.3144   17.6914 H   0  0  0  0  0
   21.5440   14.1660   15.4147 H   0  0  0  0  0
   19.7087   15.6837   14.7390 H   0  0  0  0  0
   18.1093   17.1676   21.4571 H   0  0  0  0  0
   17.6416   21.0458   23.2455 H   0  0  0  0  0
   19.6283   21.8575   21.9876 H   0  0  0  0  0
   20.8580   20.3118   20.4661 H   0  0  0  0  0
  1  2  4  0  0  0
  1  5  4  0  0  0
  1  9  4  0  0  0
  2  3  4  0  0  0
  3  4  4  0  0  0
  4  5  4  0  0  0
  5  6  4  0  0  0
  6  7  4  0  0  0
  7  8  4  0  0  0
  8  9  4  0  0  0
  9 10  1  0  0  0
 10 11  1  0  0  0
 11 12  1  0  0  0
 11 13  1  0  0  0
 13 14  4  0  0  0
 13 23  4  0  0  0
 14 15  4  0  0  0
 15 16  4  0  0  0
 15 21  4  0  0  0
 16 17  4  0  0  0
 17 18  4  0  0  0
 18 19  4  0  0  0
 19 20  1  0  0  0
 19 21  4  0  0  0
 21 22  4  0  0  0
 22 23  4  0  0  0
 23 24  1  0  0  0
 24 25  4  0  0  0
 24 30  4  0  0  0
 25 26  4  0  0  0
 26 27  1  0  0  0
 26 28  4  0  0  0
 28 29  4  0  0  0
 29 30  4  0  0  0
  3 31  1  0  0  0
  7 32  1  0  0  0
 10 33  1  0  0  0
 11 34  1  0  0  0
 12 35  1  0  0  0
 12 36  1  0  0  0
 12 37  1  0  0  0
 14 38  1  0  0  0
 16 39  1  0  0  0
 17 40  1  0  0  0
 18 41  1  0  0  0
 25 42  1  0  0  0
 28 43  1  0  0  0
 29 44  1  0  0  0
 30 45  1  0  0  0
M  END
$$$$
