1bl4_ligand
  -I-interpret- 

 97100  0  0  0  0  0  0  0  0999 V2000
    6.5130    1.1850   -3.4200 C   0  0  0  0  0
    5.0160    1.5050   -3.4870 C   0  0  0  0  0
    4.0720    0.7010   -2.5580 C   0  0  0  0  0
    4.0060   -0.7900   -3.0250 C   0  0  0  0  0
    3.4390   -0.8850   -4.4630 C   0  0  0  0  0
    4.3100   -0.0500   -5.4230 C   0  0  0  0  0
    4.4860    2.4000   -5.7520 C   0  0  0  0  0
    4.0740    2.1860   -7.2080 C   0  0  0  0  0
    5.2780    1.7120   -8.0250 C   0  0  0  0  0
    6.4360    2.5060   -8.1080 C   0  0  0  0  0
    7.5810    2.0460   -8.7940 C   0  0  0  0  0
    7.5420    0.7970   -9.4140 C   0  0  0  0  0
    6.3750    0.0000   -9.3550 C   0  0  0  0  0
    6.3520   -1.2400   -9.9810 O   0  0  0  0  0
    2.0590    3.7820   -7.1820 C   0  0  0  0  0
    8.7460    2.8080   -8.8680 O   0  0  0  0  0
    5.3220   -2.1900   -9.6560 C   0  0  0  0  0
    8.7060    0.6920  -11.4940 C   0  0  0  0  0
    8.8100    4.0970   -8.2310 C   0  0  0  0  0
   12.4770    1.2830    1.2960 C   0  0  0  0  0
    8.2750   -1.2250   -6.5440 C   0  0  0  0  0
    8.2480   -2.5460   -7.0220 C   0  0  0  0  0
    8.4320   -3.6130   -6.1390 C   0  0  0  0  0
    8.4890   -0.9420   -5.1890 C   0  0  0  0  0
    8.4950    0.4960   -4.6400 C   0  0  0  0  0
    9.3220    1.4810   -5.5120 C   0  0  0  0  0
   10.8290    1.4840   -5.1660 C   0  0  0  0  0
   11.1830    1.6610   -3.6810 C   0  0  0  0  0
   11.3100    2.9570   -3.1730 C   0  0  0  0  0
   11.6380    3.1750   -1.8220 C   0  0  0  0  0
   11.8430    2.0830   -0.9640 C   0  0  0  0  0
   11.7160    0.7820   -1.4670 C   0  0  0  0  0
   11.3890    0.5790   -2.8110 C   0  0  0  0  0
    8.6500   -3.3630   -4.7680 C   0  0  0  0  0
    8.8190   -4.4130   -3.8280 O   0  0  0  0  0
    9.9960   -5.2510   -3.7220 C   0  0  0  0  0
   10.4530   -5.6720   -5.1030 C   0  0  0  0  0
   11.5000   -5.1490   -5.5780 O   0  0  0  0  0
    9.7610   -6.5390   -5.7260 O   0  0  0  0  0
    8.6770   -2.0240   -4.3100 C   0  0  0  0  0
   11.1230    5.5950   -1.8920 C   0  0  0  0  0
    4.5320    1.3440   -4.9000 N   0  0  0  0  0
    7.0840    0.8510   -4.5990 O   0  0  0  0  0
    7.0900    1.2300   -2.3480 O   0  0  0  0  0
    4.7630    3.5220   -5.3860 O   0  0  0  0  0
    3.4470    3.4820   -7.8060 C   0  0  0  0  0
    5.2510    0.4690   -8.6630 C   0  0  0  0  0
    8.6710    0.3420  -10.0960 O   0  0  0  0  0
   11.7730    4.4680   -1.2870 O   0  0  0  0  0
   12.1730    2.3510    0.3760 O   0  0  0  0  0
    4.9601    2.5305   -3.1219 H   0  0  0  0  0
    3.0728    1.1346   -2.5994 H   0  0  0  0  0
    4.4531    0.7410   -1.5376 H   0  0  0  0  0
    3.3529   -1.3433   -2.3501 H   0  0  0  0  0
    5.0122   -1.2091   -3.0132 H   0  0  0  0  0
    2.4191   -0.5007   -4.4747 H   0  0  0  0  0
    3.4441   -1.9264   -4.7847 H   0  0  0  0  0
    3.7958    0.0198   -6.3816 H   0  0  0  0  0
    5.2792   -0.5390   -5.5218 H   0  0  0  0  0
    3.3082    1.4115   -7.2493 H   0  0  0  0  0
    6.4496    3.4888   -7.6368 H   0  0  0  0  0
    1.3851    2.9486   -7.3804 H   0  0  0  0  0
    2.1671    3.9152   -6.1056 H   0  0  0  0  0
    1.6529    4.6923   -7.6230 H   0  0  0  0  0
    5.3735   -2.4307   -8.5942 H   0  0  0  0  0
    4.3472   -1.7598   -9.8855 H   0  0  0  0  0
    5.4676   -3.0969  -10.2429 H   0  0  0  0  0
    7.8379    0.2648  -11.9960 H   0  0  0  0  0
    8.6889    1.7771  -11.5961 H   0  0  0  0  0
    9.6176    0.2978  -11.9432 H   0  0  0  0  0
    8.0440    4.7477   -8.6528 H   0  0  0  0  0
    8.6405    3.9807   -7.1606 H   0  0  0  0  0
    9.7937    4.5354   -8.3989 H   0  0  0  0  0
   11.6173    0.6176    1.3751 H   0  0  0  0  0
   13.3382    0.7240    0.9300 H   0  0  0  0  0
   12.7044    1.7029    2.2758 H   0  0  0  0  0
    8.1261   -0.4022   -7.2432 H   0  0  0  0  0
    8.0834   -2.7384   -8.0822 H   0  0  0  0  0
    8.4071   -4.6379   -6.5093 H   0  0  0  0  0
    8.9784    0.5578   -3.6650 H   0  0  0  0  0
    8.9393    2.4851   -5.3289 H   0  0  0  0  0
    9.2224    1.1658   -6.5507 H   0  0  0  0  0
   11.2593    2.3400   -5.6859 H   0  0  0  0  0
   11.2100    0.5046   -5.4554 H   0  0  0  0  0
   11.1528    3.8106   -3.8324 H   0  0  0  0  0
   11.8723   -0.0733   -0.8097 H   0  0  0  0  0
   11.2922   -0.4383   -3.1903 H   0  0  0  0  0
    9.7548   -6.1382   -3.1365 H   0  0  0  0  0
   10.7938   -4.6913   -3.2338 H   0  0  0  0  0
    9.0130   -6.7997   -5.1836 H   0  0  0  0  0
    8.8474   -1.8267   -3.2516 H   0  0  0  0  0
   11.4751    5.7086   -2.9173 H   0  0  0  0  0
   10.0450    5.4339   -1.8925 H   0  0  0  0  0
   11.3568    6.4956   -1.3242 H   0  0  0  0  0
    3.3198    3.3406   -8.8793 H   0  0  0  0  0
    4.1112    4.3187   -7.5893 H   0  0  0  0  0
    4.3482   -0.1404   -8.6218 H   0  0  0  0  0
  1 44  2  0  0  0
  1 43  1  0  0  0
  1  2  1  0  0  0
  2 42  1  0  0  0
  2  3  1  0  0  0
  3  4  1  0  0  0
  4  5  1  0  0  0
  5  6  1  0  0  0
  6 42  1  0  0  0
 42  7  1  0  0  0
  7 45  2  0  0  0
  7  8  1  0  0  0
  8 46  1  0  0  0
  8  9  1  0  0  0
  9 47  4  0  0  0
  9 10  4  0  0  0
 10 11  4  0  0  0
 11 16  1  0  0  0
 11 12  4  0  0  0
 12 48  1  0  0  0
 12 13  4  0  0  0
 13 47  4  0  0  0
 13 14  1  0  0  0
 14 17  1  0  0  0
 48 18  1  0  0  0
 16 19  1  0  0  0
 46 15  1  0  0  0
 43 25  1  0  0  0
 25 26  1  0  0  0
 25 24  1  0  0  0
 24 40  4  0  0  0
 24 21  4  0  0  0
 21 22  4  0  0  0
 22 23  4  0  0  0
 23 34  4  0  0  0
 34 40  4  0  0  0
 34 35  1  0  0  0
 35 36  1  0  0  0
 36 37  1  0  0  0
 37 39  1  0  0  0
 37 38  2  0  0  0
 26 27  1  0  0  0
 27 28  1  0  0  0
 28 33  4  0  0  0
 28 29  4  0  0  0
 29 30  4  0  0  0
 30 49  1  0  0  0
 30 31  4  0  0  0
 31 50  1  0  0  0
 31 32  4  0  0  0
 32 33  4  0  0  0
 50 20  1  0  0  0
 49 41  1  0  0  0
  2 51  1  0  0  0
  3 52  1  0  0  0
  3 53  1  0  0  0
  4 54  1  0  0  0
  4 55  1  0  0  0
  5 56  1  0  0  0
  5 57  1  0  0  0
  6 58  1  0  0  0
  6 59  1  0  0  0
  8 60  1  0  0  0
 10 61  1  0  0  0
 15 62  1  0  0  0
 15 63  1  0  0  0
 15 64  1  0  0  0
 17 65  1  0  0  0
 17 66  1  0  0  0
 17 67  1  0  0  0
 18 68  1  0  0  0
 18 69  1  0  0  0
 18 70  1  0  0  0
 19 71  1  0  0  0
 19 72  1  0  0  0
 19 73  1  0  0  0
 20 74  1  0  0  0
 20 75  1  0  0  0
 20 76  1  0  0  0
 21 77  1  0  0  0
 22 78  1  0  0  0
 23 79  1  0  0  0
 25 80  1  0  0  0
 26 81  1  0  0  0
 26 82  1  0  0  0
 27 83  1  0  0  0
 27 84  1  0  0  0
 29 85  1  0  0  0
 32 86  1  0  0  0
 33 87  1  0  0  0
 36 88  1  0  0  0
 36 89  1  0  0  0
 39 90  1  0  0  0
 40 91  1  0  0  0
 41 92  1  0  0  0
 41 93  1  0  0  0
 41 94  1  0  0  0
 46 95  1  0  0  0
 46 96  1  0  0  0
 47 97  1  0  0  0
M  END
$$$$
