6fyp_ligand
  -I-interpret- 

 37 40  0  0  0  0  0  0  0  0999 V2000
   -8.4930  -16.9820   15.8170 C   0  0  0  0  0
   -8.2490  -17.1200   14.4310 C   0  0  0  0  0
   -7.9720  -18.4310   13.9560 C   0  0  0  0  0
   -7.9530  -19.5350   14.8260 C   0  0  0  0  0
   -8.1950  -19.3620   16.2050 C   0  0  0  0  0
   -8.4720  -18.0780   16.6880 C   0  0  0  0  0
   -8.5820  -14.6980   14.2420 C   0  0  0  0  0
   -8.2950  -15.9430   13.6330 C   0  0  0  0  0
   -8.7700  -15.7760   16.3640 N   0  0  0  0  0
   -8.8240  -14.6370   15.6290 C   0  0  0  0  0
   -8.3910  -13.6110   12.0650 C   0  0  0  0  0
   -8.1280  -14.8030   11.4900 N   0  0  0  0  0
   -8.0870  -15.9280   12.2320 C   0  0  0  0  0
   -8.6270  -13.5380   13.4460 C   0  0  0  0  0
   -9.1080  -13.4590   16.2590 N   0  0  0  0  0
   -9.2120  -13.2520   17.6030 C   0  0  0  0  0
   -8.3380  -13.8510   18.5210 C   0  0  0  0  0
   -8.4560  -13.6150   19.8940 C   0  0  0  0  0
   -9.4590  -12.7550   20.3780 C   0  0  0  0  0
  -10.3370  -12.1430   19.4740 C   0  0  0  0  0
  -10.2150  -12.3950   18.0980 C   0  0  0  0  0
   -7.3380  -14.4100   20.9940 Cl  0  0  0  0  0
   -8.2070  -20.5580   17.1330 C   0  0  0  0  0
   -8.5940  -21.7360   16.6230 O   0  0  0  0  0
   -7.9540  -20.4430   18.3260 O   0  0  0  0  0
   -7.7703  -18.5832   12.8957 H   0  0  0  0  0
   -7.7500  -20.5311   14.4326 H   0  0  0  0  0
   -8.6727  -17.9303   17.7491 H   0  0  0  0  0
   -8.4200  -12.7064   11.4576 H   0  0  0  0  0
   -7.8836  -16.8732   11.7286 H   0  0  0  0  0
   -8.8471  -12.5749   13.9064 H   0  0  0  0  0
   -9.2584  -12.6471   15.6602 H   0  0  0  0  0
   -7.5519  -14.5129   18.1576 H   0  0  0  0  0
   -9.5521  -12.5665   21.4475 H   0  0  0  0  0
  -11.1144  -11.4716   19.8386 H   0  0  0  0  0
  -10.9068  -11.9204   17.4021 H   0  0  0  0  0
   -8.7478  -21.6402   15.6803 H   0  0  0  0  0
  2  1  4  0  0  0
  1  6  4  0  0  0
  9  1  4  0  0  0
  2  3  4  0  0  0
  8  2  4  0  0  0
  3  4  4  0  0  0
  4  5  4  0  0  0
  6  5  4  0  0  0
  5 23  1  0  0  0
  7  8  4  0  0  0
  7 10  4  0  0  0
 14  7  4  0  0  0
  8 13  4  0  0  0
 10  9  4  0  0  0
 10 15  1  0  0  0
 11 12  4  0  0  0
 11 14  4  0  0  0
 12 13  4  0  0  0
 15 16  1  0  0  0
 16 17  4  0  0  0
 16 21  4  0  0  0
 17 18  4  0  0  0
 18 19  4  0  0  0
 18 22  1  0  0  0
 19 20  4  0  0  0
 20 21  4  0  0  0
 23 24  1  0  0  0
 23 25  2  0  0  0
  3 26  1  0  0  0
  4 27  1  0  0  0
  6 28  1  0  0  0
 11 29  1  0  0  0
 13 30  1  0  0  0
 14 31  1  0  0  0
 15 32  1  0  0  0
 17 33  1  0  0  0
 19 34  1  0  0  0
 20 35  1  0  0  0
 21 36  1  0  0  0
 24 37  1  0  0  0
M  END
$$$$
