1ucn_ligand
  -I-interpret- 

 42 44  0  0  0  0  0  0  0  0999 V2000
   -8.7700   96.8750   16.0660 P   0  0  0  0  0
   -8.8350   97.6750   14.8160 O   0  0  0  0  0
   -7.6870   95.8750   16.2280 O   0  0  0  0  0
   -8.6760   97.8940   17.2880 O   0  0  0  0  0
  -11.5710   96.8260   16.1870 P   0  0  0  0  0
  -11.3610   98.2290   15.7410 O   0  0  0  0  0
  -12.4890   95.9430   15.4210 O   0  0  0  0  0
  -10.1510   96.0950   16.2010 O   0  0  0  0  0
  -12.0920   96.8800   17.6910 O   0  0  0  0  0
  -11.8230   98.0040   18.5150 C   0  0  0  0  0
  -11.4430   97.5520   19.9020 C   0  0  0  0  0
  -12.5530   96.8180   20.4790 O   0  0  0  0  0
  -10.2840   96.5720   19.9820 C   0  0  0  0  0
   -9.0360   97.2550   19.9420 O   0  0  0  0  0
  -10.5270   95.9070   21.3330 C   0  0  0  0  0
  -10.0700   96.6770   22.4270 O   0  0  0  0  0
  -12.0560   95.8240   21.3610 C   0  0  0  0  0
  -12.5490   94.5180   20.9230 N   0  0  0  0  0
  -12.6720   94.0340   19.6440 C   0  0  0  0  0
  -13.1190   92.8030   19.5870 N   0  0  0  0  0
  -13.3080   92.4550   20.9180 C   0  0  0  0  0
  -13.7670   91.2770   21.5330 C   0  0  0  0  0
  -14.1340   90.1820   20.8570 N   0  0  0  0  0
  -13.8400   91.2600   22.8840 N   0  0  0  0  0
  -13.4780   92.3590   23.5580 C   0  0  0  0  0
  -13.0330   93.5250   23.0930 N   0  0  0  0  0
  -12.9700   93.5050   21.7500 C   0  0  0  0  0
   -9.5840   98.2739   14.8593 H   0  0  0  0  0
   -9.3685   98.5539   17.2069 H   0  0  0  0  0
  -10.7456   98.6639   16.3357 H   0  0  0  0  0
  -12.7164   98.6257   18.5741 H   0  0  0  0  0
  -10.9978   98.5723   18.0858 H   0  0  0  0  0
  -11.1666   98.4751   20.4114 H   0  0  0  0  0
  -10.2378   95.8641   19.1545 H   0  0  0  0  0
   -8.3212   96.6163   19.9938 H   0  0  0  0  0
   -9.9988   94.9583   21.4289 H   0  0  0  0  0
  -10.2505   96.2077   23.2448 H   0  0  0  0  0
  -12.3954   95.9744   22.3858 H   0  0  0  0  0
  -12.4214   94.6187   18.7589 H   0  0  0  0  0
  -14.0887   90.1726   19.8380 H   0  0  0  0  0
  -14.4590   89.3567   21.3607 H   0  0  0  0  0
  -13.5592   92.2893   24.6427 H   0  0  0  0  0
  1  2  1  0  0  0
  1  3  2  0  0  0
  1  4  1  0  0  0
  8  1  1  0  0  0
  5  6  1  0  0  0
  5  7  2  0  0  0
  5  8  1  0  0  0
  5  9  1  0  0  0
  9 10  1  0  0  0
 10 11  1  0  0  0
 11 12  1  0  0  0
 11 13  1  0  0  0
 12 17  1  0  0  0
 13 14  1  0  0  0
 13 15  1  0  0  0
 15 16  1  0  0  0
 15 17  1  0  0  0
 17 18  1  0  0  0
 18 19  4  0  0  0
 18 27  4  0  0  0
 19 20  4  0  0  0
 20 21  4  0  0  0
 21 22  4  0  0  0
 21 27  4  0  0  0
 22 23  1  0  0  0
 22 24  4  0  0  0
 24 25  4  0  0  0
 25 26  4  0  0  0
 26 27  4  0  0  0
  2 28  1  0  0  0
  4 29  1  0  0  0
  6 30  1  0  0  0
 10 31  1  0  0  0
 10 32  1  0  0  0
 11 33  1  0  0  0
 13 34  1  0  0  0
 14 35  1  0  0  0
 15 36  1  0  0  0
 16 37  1  0  0  0
 17 38  1  0  0  0
 19 39  1  0  0  0
 23 40  1  0  0  0
 23 41  1  0  0  0
 25 42  1  0  0  0
M  END
$$$$
