4aw5_ligand
  -I-interpret- 

 68 73  0  0  0  0  0  0  0  0999 V2000
    9.2440   -6.8380   12.5310 O   0  0  0  0  0
   10.3060   -6.1610   12.2720 C   0  0  0  0  0
   10.4140   -4.8640   12.6420 N   0  0  0  0  0
   11.6720   -4.4220   12.2650 C   0  0  0  0  0
   12.2820   -3.1690   12.3890 C   0  0  0  0  0
   12.4320   -5.4940   11.5910 C   0  0  0  0  0
   13.6950   -5.2900   11.0950 C   0  0  0  0  0
   14.2570   -4.0310   11.2570 C   0  0  0  0  0
   15.4580   -3.7740   10.7370 N   0  0  0  0  0
   16.0290   -4.5710    9.6750 C   0  0  0  0  0
   15.3760   -4.1780    8.3320 C   0  0  0  0  0
   16.1050   -4.7260    7.0960 C   0  0  0  0  0
   17.5640   -4.6030    7.1520 N   0  3  0  0  0
   18.1690   -5.3920    6.0780 C   0  0  0  0  0
   19.6780   -5.3060    5.9600 C   0  0  0  0  0
   18.0770   -5.0900    8.4300 C   0  0  0  0  0
   17.5220   -4.3400    9.6340 C   0  0  0  0  0
   13.5690   -2.9720   11.8880 C   0  0  0  0  0
   11.5400   -6.6830   11.5660 C   0  0  0  0  0
   11.9180   -8.0070   11.0050 C   0  0  0  0  0
   13.2520   -8.2490   10.3440 C   0  0  0  0  0
   13.3590   -8.2070    8.9410 C   0  0  0  0  0
   14.5830   -8.4000    8.3050 C   0  0  0  0  0
   15.7040   -8.6450    9.0790 C   0  0  0  0  0
   15.6060   -8.6920   10.4830 C   0  0  0  0  0
   14.3790   -8.5090   11.1160 C   0  0  0  0  0
   10.9730   -9.1360   10.9720 C   0  0  0  0  0
   11.3700  -10.3240   10.4060 N   0  0  0  0  0
   10.3250  -11.1610   10.4760 C   0  0  0  0  0
   10.0270  -12.5120   10.0940 C   0  0  0  0  0
    9.2610  -10.3870   11.1130 C   0  0  0  0  0
    9.6760   -9.1610   11.3960 N   0  0  0  0  0
    7.9560  -10.9530   11.3610 C   0  0  0  0  0
    7.7350  -12.2810   10.9760 C   0  0  0  0  0
    8.7630  -13.0370   10.3700 C   0  0  0  0  0
    8.5070  -14.3270    9.9620 O   0  0  0  0  0
    8.2220  -14.4610    8.5660 C   0  0  0  0  0
    9.6982   -4.3111   13.1136 H   0  0  0  0  0
   11.7533   -2.3493   12.8755 H   0  0  0  0  0
   14.2385   -6.0892   10.5910 H   0  0  0  0  0
   15.9931   -2.9862   11.1021 H   0  0  0  0  0
   15.8413   -5.6297    9.8540 H   0  0  0  0  0
   15.4030   -3.0903    8.2664 H   0  0  0  0  0
   14.3708   -4.5994    8.3267 H   0  0  0  0  0
   15.7668   -4.1427    6.2396 H   0  0  0  0  0
   15.8752   -5.7897    7.0337 H   0  0  0  0  0
   17.8023   -3.6169    7.0459 H   0  0  0  0  0
   17.7659   -4.9989    5.1447 H   0  0  0  0  0
   17.9378   -6.4346    6.2963 H   0  0  0  0  0
   19.9685   -4.2714    5.7773 H   0  0  0  0  0
   20.1341   -5.6545    6.8866 H   0  0  0  0  0
   20.0126   -5.9304    5.1316 H   0  0  0  0  0
   19.1576   -4.9469    8.4249 H   0  0  0  0  0
   17.7764   -6.1332    8.5272 H   0  0  0  0  0
   17.9860   -4.7017   10.5516 H   0  0  0  0  0
   17.7377   -3.2750    9.5484 H   0  0  0  0  0
   14.0454   -1.9963   11.9842 H   0  0  0  0  0
   12.4680   -8.0201    8.3416 H   0  0  0  0  0
   14.6567   -8.3589    7.2183 H   0  0  0  0  0
   16.6695   -8.8027    8.5984 H   0  0  0  0  0
   16.4995   -8.8734   11.0804 H   0  0  0  0  0
   14.3031   -8.5688   12.2017 H   0  0  0  0  0
   10.7794  -13.1217    9.5938 H   0  0  0  0  0
    7.1683  -10.3655   11.8327 H   0  0  0  0  0
    6.7593  -12.7363   11.1457 H   0  0  0  0  0
    7.3417  -13.8681    8.3177 H   0  0  0  0  0
    9.0750  -14.1074    7.9868 H   0  0  0  0  0
    8.0330  -15.5091    8.3340 H   0  0  0  0  0
  1  2  2  0  0  0
  2  3  1  0  0  0
  2 19  1  0  0  0
  3  4  1  0  0  0
  4  5  4  0  0  0
  4  6  4  0  0  0
  5 18  4  0  0  0
  6  7  4  0  0  0
  6 19  1  0  0  0
  7  8  4  0  0  0
  8  9  1  0  0  0
  8 18  4  0  0  0
  9 10  1  0  0  0
 10 11  1  0  0  0
 10 17  1  0  0  0
 11 12  1  0  0  0
 12 13  1  0  0  0
 13 14  1  0  0  0
 13 16  1  0  0  0
 14 15  1  0  0  0
 16 17  1  0  0  0
 19 20  2  0  0  0
 20 21  1  0  0  0
 20 27  1  0  0  0
 21 22  4  0  0  0
 21 26  4  0  0  0
 22 23  4  0  0  0
 23 24  4  0  0  0
 24 25  4  0  0  0
 25 26  4  0  0  0
 27 28  4  0  0  0
 27 32  4  0  0  0
 28 29  4  0  0  0
 29 30  4  0  0  0
 29 31  4  0  0  0
 30 35  4  0  0  0
 31 32  4  0  0  0
 31 33  4  0  0  0
 33 34  4  0  0  0
 34 35  4  0  0  0
 35 36  1  0  0  0
 36 37  1  0  0  0
  3 38  1  0  0  0
  5 39  1  0  0  0
  7 40  1  0  0  0
  9 41  1  0  0  0
 10 42  1  0  0  0
 11 43  1  0  0  0
 11 44  1  0  0  0
 12 45  1  0  0  0
 12 46  1  0  0  0
 13 47  1  0  0  0
 14 48  1  0  0  0
 14 49  1  0  0  0
 15 50  1  0  0  0
 15 51  1  0  0  0
 15 52  1  0  0  0
 16 53  1  0  0  0
 16 54  1  0  0  0
 17 55  1  0  0  0
 17 56  1  0  0  0
 18 57  1  0  0  0
 22 58  1  0  0  0
 23 59  1  0  0  0
 24 60  1  0  0  0
 25 61  1  0  0  0
 26 62  1  0  0  0
 30 63  1  0  0  0
 33 64  1  0  0  0
 34 65  1  0  0  0
 37 66  1  0  0  0
 37 67  1  0  0  0
 37 68  1  0  0  0
M  END
$$$$
