4c1d_ligand
  -I-interpret- 

 29 29  0  0  0  0  0  0  0  0999 V2000
  -29.3350   10.0540   58.8960 O   0  0  0  0  0
  -28.3530    9.8690   59.5550 C   0  0  0  0  0
  -27.1490   10.7640   59.4510 C   0  0  0  0  0
  -27.0670   11.3980   58.0890 C   0  0  0  0  0
  -26.5970   10.2600   56.7780 S   0  0  0  0  0
  -27.3770   11.8710   60.4730 C   0  0  0  0  0
  -28.3810    8.7960   60.4680 N   0  0  0  0  0
  -29.5230    8.0090   60.5840 C   0  0  0  0  0
  -30.7700    8.8060   60.9490 C   0  0  0  0  0
  -31.9090    8.4170   60.5560 O   0  0  0  0  0
  -30.6910    9.8490   61.6530 O   0  0  0  0  0
  -27.3210    8.4920   61.2810 C   0  0  0  0  0
  -27.9020    7.6540   62.3890 C   0  0  0  0  0
  -29.1440    7.0110   61.7020 C   0  0  0  0  0
  -26.2326   10.1986   59.6202 H   0  0  0  0  0
  -26.2986   12.1696   58.1377 H   0  0  0  0  0
  -28.0608   11.7754   57.8481 H   0  0  0  0  0
  -26.5530   10.9135   55.6205 H   0  0  0  0  0
  -26.5464   12.5758   60.4347 H   0  0  0  0  0
  -28.3070   12.3906   60.2425 H   0  0  0  0  0
  -27.4401   11.4357   61.4703 H   0  0  0  0  0
  -29.7889    7.5336   59.6398 H   0  0  0  0  0
  -31.8104    7.6169   60.0347 H   0  0  0  0  0
  -26.8388    9.3904   61.6664 H   0  0  0  0  0
  -26.5393    7.9584   60.7404 H   0  0  0  0  0
  -28.1548    8.2329   63.2773 H   0  0  0  0  0
  -27.2010    6.9183   62.7833 H   0  0  0  0  0
  -28.9266    6.0180   61.3086 H   0  0  0  0  0
  -29.9630    6.8505   62.4031 H   0  0  0  0  0
  1  2  2  0  0  0
  2  3  1  0  0  0
  2  7  1  0  0  0
  3  4  1  0  0  0
  3  6  1  0  0  0
  4  5  1  0  0  0
  7  8  1  0  0  0
  7 12  1  0  0  0
  8  9  1  0  0  0
  8 14  1  0  0  0
  9 10  1  0  0  0
  9 11  2  0  0  0
 12 13  1  0  0  0
 13 14  1  0  0  0
  3 15  1  0  0  0
  4 16  1  0  0  0
  4 17  1  0  0  0
  5 18  1  0  0  0
  6 19  1  0  0  0
  6 20  1  0  0  0
  6 21  1  0  0  0
  8 22  1  0  0  0
 10 23  1  0  0  0
 12 24  1  0  0  0
 12 25  1  0  0  0
 13 26  1  0  0  0
 13 27  1  0  0  0
 14 28  1  0  0  0
 14 29  1  0  0  0
M  END
$$$$
