3e16_ligand
  -I-interpret- 

 99102  0  0  0  0  0  0  0  0999 V2000
   21.1460   38.6110   -2.5510 C   0  0  0  0  0
   22.7500   40.3700   -2.1990 C   0  0  0  0  0
   20.3230   36.4090    1.7870 C   0  0  0  0  0
   11.4280   34.4250    1.4420 C   0  0  0  0  0
   12.0970   35.3460    2.4560 C   0  0  0  0  0
   12.4650   34.5550    3.7070 C   0  0  0  0  0
   13.0070   35.4730    4.8130 C   0  0  0  0  0
   14.6330   37.2650    4.5770 C   0  0  0  0  0
   19.3790   36.2420    4.0170 C   0  0  0  0  0
   21.9050   40.9490   -1.2570 C   0  0  0  0  0
   15.5230   39.2240    2.4320 C   0  0  0  0  0
   19.2840   38.3270    2.8120 C   0  0  0  0  0
   18.9900   37.5800    3.9550 C   0  0  0  0  0
   18.2990   38.2150    5.1270 C   0  0  0  0  0
   16.9670   37.5440    5.4180 C   0  0  0  0  0
   16.0480   37.6140    4.1640 C   0  0  0  0  0
   20.6740   40.3660   -0.9910 C   0  0  0  0  0
   19.8280   40.9440   -0.0850 C   0  0  0  0  0
   15.6300   40.6660    1.9460 C   0  0  0  0  0
   14.2730   41.2160    1.5320 C   0  0  0  0  0
   13.2680   41.2850    2.6770 C   0  0  0  0  0
   13.1110   34.6350    6.1360 C   0  0  0  0  0
   13.6500   35.5930    7.1640 C   0  0  0  0  0
   12.3440   42.4830    2.5340 C   0  0  0  0  0
   20.2960   39.1940   -1.6290 C   0  0  0  0  0
   22.3760   39.1910   -2.8470 C   0  0  0  0  0
   18.4170   40.8500   -0.3620 O   0  0  0  0  0
   17.7350   40.9830    0.7940 C   0  0  0  0  0
   18.2700   41.4600    1.7920 O   0  0  0  0  0
   16.4780   40.5890    0.7670 N   0  0  0  0  0
   11.2710   42.4190    3.6100 C   0  0  0  0  0
   11.8800   42.5570    4.9500 N   0  3  0  0  0
   14.9860   38.3570    1.7460 O   0  0  0  0  0
   16.0660   38.9930    3.5940 N   0  0  0  0  0
   19.9400   37.7460    1.7310 C   0  0  0  0  0
   20.0250   35.6650    2.9250 C   0  0  0  0  0
   13.8390   38.1140    4.9890 O   0  0  0  0  0
   14.3460   35.9820    4.4550 N   0  0  0  0  0
   11.2480   35.0970    0.0800 C   0  0  0  0  0
   11.9770   34.2640    6.5200 O   0  0  0  0  0
   12.8350   36.5350    7.6850 O   0  0  0  0  0
   13.6090   37.2550    8.5360 C   0  0  0  0  0
   13.2940   38.3330    9.3650 C   0  0  0  0  0
   14.2750   38.9200   10.1530 C   0  0  0  0  0
   15.5650   38.4090   10.1050 C   0  0  0  0  0
   15.8630   37.3320    9.2660 C   0  0  0  0  0
   14.8900   36.7350    8.4770 C   0  0  0  0  0
   14.9020   35.6920    7.6100 N   0  0  0  0  0
   10.6260   36.4090    0.2140 N   0  3  0  0  0
   20.8499   37.6886   -3.0506 H   0  0  0  0  0
   23.7065   40.8381   -2.4316 H   0  0  0  0  0
   20.8497   35.9504    0.9501 H   0  0  0  0  0
   10.4412   34.1618    1.8229 H   0  0  0  0  0
   12.0647   33.5507    1.3068 H   0  0  0  0  0
   11.4084   36.1469    2.7252 H   0  0  0  0  0
   13.0010   35.7689    2.0177 H   0  0  0  0  0
   13.2400   33.8347    3.4450 H   0  0  0  0  0
   11.5684   34.0586    4.0783 H   0  0  0  0  0
   12.3369   36.3230    4.9421 H   0  0  0  0  0
   19.1795   35.6526    4.9119 H   0  0  0  0  0
   22.2080   41.8546   -0.7315 H   0  0  0  0  0
   18.9962   39.3773    2.7662 H   0  0  0  0  0
   18.1138   39.2632    4.8924 H   0  0  0  0  0
   18.9380   38.1091    6.0037 H   0  0  0  0  0
   16.4809   38.0582    6.2470 H   0  0  0  0  0
   17.1414   36.4994    5.6760 H   0  0  0  0  0
   16.4066   36.9124    3.4108 H   0  0  0  0  0
   20.0641   42.0081   -0.0915 H   0  0  0  0  0
   19.9850   40.4116    0.8531 H   0  0  0  0  0
   16.0180   41.3181    2.7285 H   0  0  0  0  0
   13.8639   40.5439    0.7777 H   0  0  0  0  0
   14.4283   42.2328    1.1714 H   0  0  0  0  0
   13.8171   41.3818    3.6136 H   0  0  0  0  0
   12.6633   40.3782    2.6613 H   0  0  0  0  0
   13.7308   33.7507    5.9879 H   0  0  0  0  0
   11.8760   42.4683    1.5497 H   0  0  0  0  0
   12.9182   43.4028    2.6446 H   0  0  0  0  0
   19.3334   38.7345   -1.4047 H   0  0  0  0  0
   23.0407   38.7296   -3.5773 H   0  0  0  0  0
   16.0903   40.2211   -0.1018 H   0  0  0  0  0
   10.7613   41.4575    3.5478 H   0  0  0  0  0
   10.5627   43.2329    3.4553 H   0  0  0  0  0
   11.1494   42.5123    5.6604 H   0  0  0  0  0
   12.5472   41.7999    5.0985 H   0  0  0  0  0
   12.3621   43.4537    5.0123 H   0  0  0  0  0
   16.5030   39.7543    4.1135 H   0  0  0  0  0
   20.1538   38.3376    0.8408 H   0  0  0  0  0
   20.3020   34.6115    2.9629 H   0  0  0  0  0
   15.0562   35.3362    4.1101 H   0  0  0  0  0
   10.6031   34.4686   -0.5342 H   0  0  0  0  0
   12.2296   35.2236   -0.3767 H   0  0  0  0  0
   12.0651   33.7544    7.3288 H   0  0  0  0  0
   12.2737   38.7155    9.3938 H   0  0  0  0  0
   14.0368   39.7663   10.7973 H   0  0  0  0  0
   16.3474   38.8490   10.7234 H   0  0  0  0  0
   16.8839   36.9518    9.2305 H   0  0  0  0  0
   10.5202   36.8297   -0.7092 H   0  0  0  0  0
    9.7093   36.3065    0.6494 H   0  0  0  0  0
   11.2150   37.0054    0.7952 H   0  0  0  0  0
 25  1  4  0  0  0
  1 26  4  0  0  0
 10  2  4  0  0  0
  2 26  4  0  0  0
 35  3  4  0  0  0
 36  3  4  0  0  0
  5  4  1  0  0  0
  4 39  1  0  0  0
  6  5  1  0  0  0
  7  6  1  0  0  0
  7 22  1  0  0  0
 38  7  1  0  0  0
 16  8  1  0  0  0
  8 37  2  0  0  0
  8 38  1  0  0  0
 13  9  4  0  0  0
  9 36  4  0  0  0
 17 10  4  0  0  0
 19 11  1  0  0  0
 11 33  2  0  0  0
 11 34  1  0  0  0
 13 12  4  0  0  0
 12 35  4  0  0  0
 14 13  1  0  0  0
 15 14  1  0  0  0
 16 15  1  0  0  0
 34 16  1  0  0  0
 18 17  1  0  0  0
 17 25  4  0  0  0
 27 18  1  0  0  0
 19 20  1  0  0  0
 30 19  1  0  0  0
 20 21  1  0  0  0
 21 24  1  0  0  0
 22 23  1  0  0  0
 22 40  1  0  0  0
 23 41  4  0  0  0
 23 48  4  0  0  0
 24 31  1  0  0  0
 28 27  1  0  0  0
 28 29  2  0  0  0
 28 30  1  0  0  0
 31 32  1  0  0  0
 39 49  1  0  0  0
 41 42  4  0  0  0
 42 43  4  0  0  0
 42 47  4  0  0  0
 43 44  4  0  0  0
 44 45  4  0  0  0
 45 46  4  0  0  0
 46 47  4  0  0  0
 47 48  4  0  0  0
  1 50  1  0  0  0
  2 51  1  0  0  0
  3 52  1  0  0  0
  4 53  1  0  0  0
  4 54  1  0  0  0
  5 55  1  0  0  0
  5 56  1  0  0  0
  6 57  1  0  0  0
  6 58  1  0  0  0
  7 59  1  0  0  0
  9 60  1  0  0  0
 10 61  1  0  0  0
 12 62  1  0  0  0
 14 63  1  0  0  0
 14 64  1  0  0  0
 15 65  1  0  0  0
 15 66  1  0  0  0
 16 67  1  0  0  0
 18 68  1  0  0  0
 18 69  1  0  0  0
 19 70  1  0  0  0
 20 71  1  0  0  0
 20 72  1  0  0  0
 21 73  1  0  0  0
 21 74  1  0  0  0
 22 75  1  0  0  0
 24 76  1  0  0  0
 24 77  1  0  0  0
 25 78  1  0  0  0
 26 79  1  0  0  0
 30 80  1  0  0  0
 31 81  1  0  0  0
 31 82  1  0  0  0
 32 83  1  0  0  0
 32 84  1  0  0  0
 32 85  1  0  0  0
 34 86  1  0  0  0
 35 87  1  0  0  0
 36 88  1  0  0  0
 38 89  1  0  0  0
 39 90  1  0  0  0
 39 91  1  0  0  0
 40 92  1  0  0  0
 43 93  1  0  0  0
 44 94  1  0  0  0
 45 95  1  0  0  0
 46 96  1  0  0  0
 49 97  1  0  0  0
 49 98  1  0  0  0
 49 99  1  0  0  0
M  END
$$$$
