### 
### Created by X-TOOL on Mon Sep 10 21:12:57 2018
### 

@<TRIPOS>MOLECULE
3e16_ligand
   99   102     1     0     0
SMALL
GAST_HUCK


@<TRIPOS>ATOM
      1 C10        21.1460   38.6110   -2.5510 C.ar      1 B4C        -0.0685
      2 C12        22.7500   40.3700   -2.1990 C.ar      1 B4C        -0.0685
      3 C21        20.3230   36.4090    1.7870 C.ar      1 B4C        -0.0687
      4 C28        11.4280   34.4250    1.4420 C.3       1 B4C        -0.0126
      5 C27        12.0970   35.3460    2.4560 C.3       1 B4C        -0.0459
      6 C26        12.4650   34.5550    3.7070 C.3       1 B4C        -0.0244
      7 C25        13.0070   35.4730    4.8130 C.3       1 B4C         0.0874
      8 C24        14.6330   37.2650    4.5770 C.2       1 B4C         0.2023
      9 C23        19.3790   36.2420    4.0170 C.ar      1 B4C        -0.0603
     10 C13        21.9050   40.9490   -1.2570 C.ar      1 B4C        -0.0578
     11 C14        15.5230   39.2240    2.4320 C.2       1 B4C         0.2038
     12 C19        19.2840   38.3270    2.8120 C.ar      1 B4C        -0.0603
     13 C18        18.9900   37.5800    3.9550 C.ar      1 B4C        -0.0428
     14 C17        18.2990   38.2150    5.1270 C.3       1 B4C        -0.0149
     15 C16        16.9670   37.5440    5.4180 C.3       1 B4C        -0.0027
     16 C15        16.0480   37.6140    4.1640 C.3       1 B4C         0.1326
     17 C8         20.6740   40.3660   -0.9910 C.ar      1 B4C        -0.0130
     18 C7         19.8280   40.9440   -0.0850 C.3       1 B4C         0.1113
     19 C5         15.6300   40.6660    1.9460 C.3       1 B4C         0.1328
     20 C4         14.2730   41.2160    1.5320 C.3       1 B4C        -0.0123
     21 C3         13.2680   41.2850    2.6770 C.3       1 B4C        -0.0440
     22 C30        13.1110   34.6350    6.1360 C.3       1 B4C         0.1710
     23 C31        13.6500   35.5930    7.1640 C.2       1 B4C         0.2162
     24 C2         12.3440   42.4830    2.5340 C.3       1 B4C        -0.0124
     25 C9         20.2960   39.1940   -1.6290 C.ar      1 B4C        -0.0578
     26 C11        22.3760   39.1910   -2.8470 C.ar      1 B4C        -0.0687
     27 O2         18.4170   40.8500   -0.3620 O.3       1 B4C        -0.2506
     28 C6         17.7350   40.9830    0.7940 C.2       1 B4C         0.3239
     29 O1         18.2700   41.4600    1.7920 O.2       1 B4C        -0.3773
     30 N2         16.4780   40.5890    0.7670 N.am      1 B4C        -0.2411
     31 C1         11.2710   42.4190    3.6100 C.3       1 B4C        -0.0354
     32 N1         11.8800   42.5570    4.9500 N.4       1 B4C         0.2185
     33 O3         14.9860   38.3570    1.7460 O.2       1 B4C        -0.3944
     34 N3         16.0660   38.9930    3.5940 N.am      1 B4C        -0.2636
     35 C20        19.9400   37.7460    1.7310 C.ar      1 B4C        -0.0686
     36 C22        20.0250   35.6650    2.9250 C.ar      1 B4C        -0.0686
     37 O4         13.8390   38.1140    4.9890 O.2       1 B4C        -0.3945
     38 N4         14.3460   35.9820    4.4550 N.am      1 B4C        -0.2765
     39 C29        11.2480   35.0970    0.0800 C.3       1 B4C        -0.0354
     40 O5         11.9770   34.2640    6.5200 O.3       1 B4C        -0.3657
     41 O6         12.8350   36.5350    7.6850 O.3       1 B4C        -0.2144
     42 C37        13.6090   37.2550    8.5360 C.ar      1 B4C         0.1416
     43 C36        13.2940   38.3330    9.3650 C.ar      1 B4C        -0.0302
     44 C35        14.2750   38.9200   10.1530 C.ar      1 B4C        -0.0741
     45 C34        15.5650   38.4090   10.1050 C.ar      1 B4C        -0.0768
     46 C33        15.8630   37.3320    9.2660 C.ar      1 B4C        -0.0622
     47 C32        14.8900   36.7350    8.4770 C.ar      1 B4C         0.0370
     48 N6         14.9020   35.6920    7.6100 N.2       1 B4C        -0.2984
     49 N5         10.6260   36.4090    0.2140 N.4       1 B4C         0.2185
     50 H1         20.8515   37.6937   -3.0478 H         1 B4C         0.0599
     51 H2         23.7012   40.8356   -2.4304 H         1 B4C         0.0599
     52 H3         20.8468   35.9529    0.9547 H         1 B4C         0.0559
     53 H4         10.4394   34.1338    1.8265 H         1 B4C         0.0317
     54 H5         12.0507   33.5273    1.3142 H         1 B4C         0.0317
     55 H6         11.4039   36.1561    2.7268 H         1 B4C         0.0268
     56 H7         13.0082   35.7754    2.0141 H         1 B4C         0.0268
     57 H8         13.2355   33.8140    3.4478 H         1 B4C         0.0290
     58 H9         11.5687   34.0372    4.0793 H         1 B4C         0.0290
     59 H10        12.3208   36.3202    4.9592 H         1 B4C         0.0616
     60 H11        19.1806   35.6558    4.9070 H         1 B4C         0.0557
     61 H12        22.2064   41.8496   -0.7344 H         1 B4C         0.0557
     62 H13        18.9978   39.3716    2.7665 H         1 B4C         0.0557
     63 H14        18.1229   39.2779    4.9053 H         1 B4C         0.0428
     64 H15        18.9446   38.1273    6.0132 H         1 B4C         0.0428
     65 H16        16.4764   38.0579    6.2577 H         1 B4C         0.0334
     66 H17        17.1405   36.4907    5.6836 H         1 B4C         0.0334
     67 H18        16.4018   36.8988    3.4069 H         1 B4C         0.0801
     68 H19        20.0847   42.0119   -0.0241 H         1 B4C         0.0776
     69 H20        20.0082   40.4673    0.8898 H         1 B4C         0.0776
     70 H21        16.0758   41.3076    2.7203 H         1 B4C         0.0799
     71 H22        13.8600   40.5675    0.7453 H         1 B4C         0.0312
     72 H23        14.4160   42.2311    1.1330 H         1 B4C         0.0312
     73 H24        13.8145   41.3664    3.6282 H         1 B4C         0.0269
     74 H25        12.6640   40.3657    2.6786 H         1 B4C         0.0269
     75 H26        13.7744   33.7679    6.0020 H         1 B4C         0.0910
     76 H27        11.8707   42.4660    1.5412 H         1 B4C         0.0317
     77 H28        12.9241   43.4106    2.6479 H         1 B4C         0.0317
     78 H29        19.3387   38.7370   -1.4060 H         1 B4C         0.0557
     79 H30        23.0370   38.7321   -3.5733 H         1 B4C         0.0559
     80 H31        16.0979   40.2283   -0.0847 H         1 B4C         0.1899
     81 H32        10.7499   41.4524    3.5460 H         1 B4C         0.0813
     82 H33        10.5504   43.2351    3.4531 H         1 B4C         0.0813
     83 H34        11.1589   42.5129    5.6529 H         1 B4C         0.1994
     84 H35        12.3567   43.4429    5.0128 H         1 B4C         0.1994
     85 H36        12.5396   41.8092    5.0980 H         1 B4C         0.1994
     86 H37        16.4944   39.7394    4.1033 H         1 B4C         0.1883
     87 H38        20.1526   38.3344    0.8457 H         1 B4C         0.0599
     88 H39        20.3005   34.6173    2.9627 H         1 B4C         0.0599
     89 H40        15.0423   35.3489    4.1168 H         1 B4C         0.1858
     90 H41        10.6103   34.4612   -0.5517 H         1 B4C         0.0813
     91 H42        12.2334   35.2146   -0.3945 H         1 B4C         0.0813
     92 H43        11.6127   33.6564    5.8871 H         1 B4C         0.2146
     93 H44        12.2793   38.7134    9.3937 H         1 B4C         0.0559
     94 H45        14.0381   39.7616   10.7938 H         1 B4C         0.0536
     95 H46        16.3431   38.8466   10.7200 H         1 B4C         0.0527
     96 H47        16.8783   36.9539    9.2306 H         1 B4C         0.0542
     97 H48        10.5209   36.8257   -0.6978 H         1 B4C         0.1994
     98 H49        11.2072   36.9994    0.7882 H         1 B4C         0.1994
     99 H50         9.7199   36.3090    0.6441 H         1 B4C         0.1994
@<TRIPOS>BOND
     1   25    1 ar 
     2    1   26 ar 
     3   10    2 ar 
     4    2   26 ar 
     5   35    3 ar 
     6   36    3 ar 
     7    5    4 1  
     8    4   39 1  
     9    6    5 1  
    10    7    6 1  
    11    7   22 1  
    12   38    7 1  
    13   16    8 1  
    14    8   37 2  
    15    8   38 am 
    16   13    9 ar 
    17    9   36 ar 
    18   17   10 ar 
    19   19   11 1  
    20   11   33 2  
    21   11   34 am 
    22   13   12 ar 
    23   12   35 ar 
    24   14   13 1  
    25   15   14 1  
    26   16   15 1  
    27   34   16 1  
    28   18   17 1  
    29   17   25 ar 
    30   27   18 1  
    31   19   20 1  
    32   30   19 1  
    33   20   21 1  
    34   21   24 1  
    35   22   23 1  
    36   22   40 1  
    37   23   41 1  
    38   23   48 2  
    39   24   31 1  
    40   28   27 1  
    41   28   29 2  
    42   28   30 am 
    43   31   32 1  
    44   39   49 1  
    45   41   42 1  
    46   42   43 ar 
    47   42   47 ar 
    48   43   44 ar 
    49   44   45 ar 
    50   45   46 ar 
    51   46   47 ar 
    52   47   48 1  
    53    1   50 1  
    54    2   51 1  
    55    3   52 1  
    56    4   53 1  
    57    4   54 1  
    58    5   55 1  
    59    5   56 1  
    60    6   57 1  
    61    6   58 1  
    62    7   59 1  
    63    9   60 1  
    64   10   61 1  
    65   12   62 1  
    66   14   63 1  
    67   14   64 1  
    68   15   65 1  
    69   15   66 1  
    70   16   67 1  
    71   18   68 1  
    72   18   69 1  
    73   19   70 1  
    74   20   71 1  
    75   20   72 1  
    76   21   73 1  
    77   21   74 1  
    78   22   75 1  
    79   24   76 1  
    80   24   77 1  
    81   25   78 1  
    82   26   79 1  
    83   30   80 1  
    84   31   81 1  
    85   31   82 1  
    86   32   83 1  
    87   32   84 1  
    88   32   85 1  
    89   34   86 1  
    90   35   87 1  
    91   36   88 1  
    92   38   89 1  
    93   39   90 1  
    94   39   91 1  
    95   40   92 1  
    96   43   93 1  
    97   44   94 1  
    98   45   95 1  
    99   46   96 1  
   100   49   97 1  
   101   49   98 1  
   102   49   99 1  
@<TRIPOS>SUBSTRUCTURE
     1 B4C         1

