1uh1_ligand
  -I-interpret- 

 54 55  0  0  0  0  0  0  0  0999 V2000
   30.3420   85.0510   38.8280 C   0  0  0  0  0
   29.9290   85.0910   40.3210 C   0  0  0  0  0
   30.7820   84.0380   41.0760 C   0  0  0  0  0
   30.4850   82.5710   40.5120 C   0  0  0  0  0
   31.0090   82.5400   38.9950 C   0  0  0  0  0
   30.7990   81.1800   38.3120 C   0  0  0  0  0
   29.2800   87.5280   40.5780 C   0  0  0  0  0
   29.7270   88.8700   41.1060 C   0  0  0  0  0
   30.1570   86.4420   40.7480 N   0  0  0  0  0
   30.3830   84.0870   42.4100 O   0  0  0  0  0
   29.0850   82.2810   40.5900 O   0  0  0  0  0
   30.2030   83.6660   38.2700 O   0  0  0  0  0
   31.0710   81.2030   36.8860 O   0  0  0  0  0
   28.1750   87.4560   40.0030 O   0  0  0  0  0
   30.3850   88.0800   35.3160 C   0  0  0  0  0
   29.9760   87.6430   36.6400 C   0  0  0  0  0
   30.2070   86.0620   36.7520 C   0  0  0  0  0
   29.4350   85.3320   35.5810 C   0  0  0  0  0
   29.8440   85.9270   34.2280 C   0  0  0  0  0
   29.2320   85.3800   32.9470 C   0  0  0  0  0
   32.3410   88.6460   33.7810 C   0  0  0  0  0
   31.7940   87.9890   34.9790 O   0  0  0  0  0
   30.6710   88.2400   37.6900 O   0  0  0  0  0
   29.6600   85.7000   38.0820 O   0  0  0  0  0
   28.0840   85.5690   35.8920 O   0  0  0  0  0
   29.6300   87.3820   34.3170 O   0  0  0  0  0
   27.8720   85.7750   32.8890 O   0  0  0  0  0
   31.3586   85.4430   38.8605 H   0  0  0  0  0
   28.8863   84.8378   40.5126 H   0  0  0  0  0
   31.8443   84.2492   40.9532 H   0  0  0  0  0
   30.9952   81.8092   41.1014 H   0  0  0  0  0
   32.0864   82.7002   38.9547 H   0  0  0  0  0
   29.7524   80.9048   38.4425 H   0  0  0  0  0
   31.4924   80.4730   38.7674 H   0  0  0  0  0
   29.7930   89.5798   40.2814 H   0  0  0  0  0
   29.0051   89.2292   41.8394 H   0  0  0  0  0
   30.7045   88.7664   41.5770 H   0  0  0  0  0
   31.0406   86.6329   41.2205 H   0  0  0  0  0
   30.5555   84.9631   42.7625 H   0  0  0  0  0
   28.8045   82.3075   41.5077 H   0  0  0  0  0
   30.9225   80.3285   36.5189 H   0  0  0  0  0
   30.1804   89.1504   35.3384 H   0  0  0  0  0
   28.9305   87.9347   36.7393 H   0  0  0  0  0
   31.2528   85.7682   36.6618 H   0  0  0  0  0
   29.6502   84.2667   35.4978 H   0  0  0  0  0
   30.8822   85.6209   34.0996 H   0  0  0  0  0
   29.3026   84.2923   32.9377 H   0  0  0  0  0
   29.7688   85.7720   32.0831 H   0  0  0  0  0
   31.8461   88.2512   32.8937 H   0  0  0  0  0
   32.1689   89.7203   33.8468 H   0  0  0  0  0
   33.4117   88.4514   33.7183 H   0  0  0  0  0
   30.3422   87.8988   38.5249 H   0  0  0  0  0
   27.5268   85.1578   35.2271 H   0  0  0  0  0
   27.4752   85.4349   32.0837 H   0  0  0  0  0
  1  2  1  0  0  0
  1 12  1  0  0  0
 24  1  1  0  0  0
  2  3  1  0  0  0
  2  9  1  0  0  0
  3  4  1  0  0  0
  3 10  1  0  0  0
  5  4  1  0  0  0
  4 11  1  0  0  0
  5  6  1  0  0  0
 12  5  1  0  0  0
  6 13  1  0  0  0
  7  8  1  0  0  0
  9  7  1  0  0  0
  7 14  2  0  0  0
 16 15  1  0  0  0
 15 22  1  0  0  0
 15 26  1  0  0  0
 17 16  1  0  0  0
 16 23  1  0  0  0
 17 18  1  0  0  0
 17 24  1  0  0  0
 18 19  1  0  0  0
 18 25  1  0  0  0
 19 20  1  0  0  0
 19 26  1  0  0  0
 20 27  1  0  0  0
 22 21  1  0  0  0
  1 28  1  0  0  0
  2 29  1  0  0  0
  3 30  1  0  0  0
  4 31  1  0  0  0
  5 32  1  0  0  0
  6 33  1  0  0  0
  6 34  1  0  0  0
  8 35  1  0  0  0
  8 36  1  0  0  0
  8 37  1  0  0  0
  9 38  1  0  0  0
 10 39  1  0  0  0
 11 40  1  0  0  0
 13 41  1  0  0  0
 15 42  1  0  0  0
 16 43  1  0  0  0
 17 44  1  0  0  0
 18 45  1  0  0  0
 19 46  1  0  0  0
 20 47  1  0  0  0
 20 48  1  0  0  0
 21 49  1  0  0  0
 21 50  1  0  0  0
 21 51  1  0  0  0
 23 52  1  0  0  0
 25 53  1  0  0  0
 27 54  1  0  0  0
M  END
$$$$
