1w10_ligand
  -I-interpret- 

 61 60  0  0  0  0  0  0  0  0999 V2000
   34.0800    4.8240   27.4120 N   0  0  0  0  0
   32.8460    4.4350   27.7720 C   0  0  0  0  0
   32.6280    3.1070   27.9330 N   0  0  0  0  0
   31.9280    5.3870   27.9520 N   0  0  0  0  0
   30.6340    5.0910   28.3970 C   0  0  0  0  0
   29.8170    6.4040   28.3990 C   0  0  0  0  0
   28.3350    6.1510   28.7610 C   0  0  0  0  0
   27.6410    7.5130   28.9680 C   0  0  0  0  0
   26.1840    7.4370   29.0710 C   0  0  0  0  0
   25.4310    8.3590   29.4320 O   0  0  0  0  0
   28.1330    8.1590   30.1550 N   0  0  0  0  0
   28.4260    9.4420   30.1350 C   0  0  0  0  0
   28.3660   10.1580   29.1010 O   0  0  0  0  0
   28.8520   10.0870   31.3850 C   0  0  0  0  0
   27.6270   10.8700   31.9120 C   0  0  0  0  0
   29.8930   11.0170   31.1460 N   0  0  0  0  0
   31.1120   10.7280   30.7190 C   0  0  0  0  0
   31.4080    9.5520   30.4560 O   0  0  0  0  0
   32.1030   11.7930   30.5570 C   0  0  0  0  0
   32.8280   12.1470   31.8800 C   0  0  0  0  0
   33.4680   10.9340   32.3030 O   0  0  0  0  0
   33.0810   11.3930   29.6090 N   0  0  0  0  0
   33.1830   11.8550   28.3880 C   0  0  0  0  0
   34.1030   11.4360   27.6680 O   0  0  0  0  0
   32.3870   12.7000   27.9110 O   0  0  0  0  0
   32.5690   13.7200   27.0490 C   0  0  0  0  0
   31.4140   13.7480   26.0070 C   0  0  0  0  0
   31.8850   12.8950   24.7950 C   0  0  0  0  0
   31.1320   15.1910   25.5150 C   0  0  0  0  0
   34.2860    5.8151   27.2864 H   0  0  0  0  0
   33.3876    2.4434   27.7812 H   0  0  0  0  0
   31.7043    2.7712   28.2059 H   0  0  0  0  0
   32.1762    6.3575   27.7599 H   0  0  0  0  0
   30.6687    4.6677   29.4008 H   0  0  0  0  0
   30.1677    4.3584   27.7382 H   0  0  0  0  0
   29.8585    6.8372   27.3997 H   0  0  0  0  0
   30.2442    7.0746   29.1446 H   0  0  0  0  0
   28.2713    5.5589   29.6739 H   0  0  0  0  0
   27.8445    5.6024   27.9570 H   0  0  0  0  0
   27.8813    8.0847   28.0716 H   0  0  0  0  0
   25.7164    6.4881   28.8081 H   0  0  0  0  0
   28.2551    7.6221   31.0136 H   0  0  0  0  0
   29.2117    9.3362   32.0885 H   0  0  0  0  0
   27.3259   11.6118   31.1723 H   0  0  0  0  0
   26.8041   10.1778   32.0901 H   0  0  0  0  0
   27.8906   11.3704   32.8438 H   0  0  0  0  0
   29.6840   12.0003   31.3189 H   0  0  0  0  0
   31.5601   12.6766   30.2214 H   0  0  0  0  0
   32.1297   12.5135   32.6324 H   0  0  0  0  0
   33.5502   12.9507   31.7369 H   0  0  0  0  0
   33.9379   11.0913   33.1252 H   0  0  0  0  0
   33.7586   10.6893   29.9025 H   0  0  0  0  0
   33.5177   13.5857   26.5294 H   0  0  0  0  0
   32.5766   14.6596   27.6015 H   0  0  0  0  0
   30.5001   13.3625   26.4589 H   0  0  0  0  0
   32.7943   13.3286   24.3787 H   0  0  0  0  0
   32.0852   11.8758   25.1256 H   0  0  0  0  0
   31.1044   12.8848   24.0343 H   0  0  0  0  0
   30.8489   15.8140   26.3634 H   0  0  0  0  0
   32.0299   15.5964   25.0485 H   0  0  0  0  0
   30.3197   15.1735   24.7884 H   0  0  0  0  0
  1  2  2  0  0  0
  2  3  1  0  0  0
  2  4  1  0  0  0
  4  5  1  0  0  0
  5  6  1  0  0  0
  6  7  1  0  0  0
  7  8  1  0  0  0
  8  9  1  0  0  0
  8 11  1  0  0  0
  9 10  2  0  0  0
 11 12  1  0  0  0
 12 13  2  0  0  0
 12 14  1  0  0  0
 14 15  1  0  0  0
 14 16  1  0  0  0
 16 17  1  0  0  0
 17 18  2  0  0  0
 17 19  1  0  0  0
 19 20  1  0  0  0
 19 22  1  0  0  0
 20 21  1  0  0  0
 22 23  1  0  0  0
 23 24  2  0  0  0
 23 25  1  0  0  0
 25 26  1  0  0  0
 26 27  1  0  0  0
 27 28  1  0  0  0
 27 29  1  0  0  0
  1 30  1  0  0  0
  3 31  1  0  0  0
  3 32  1  0  0  0
  4 33  1  0  0  0
  5 34  1  0  0  0
  5 35  1  0  0  0
  6 36  1  0  0  0
  6 37  1  0  0  0
  7 38  1  0  0  0
  7 39  1  0  0  0
  8 40  1  0  0  0
  9 41  1  0  0  0
 11 42  1  0  0  0
 14 43  1  0  0  0
 15 44  1  0  0  0
 15 45  1  0  0  0
 15 46  1  0  0  0
 16 47  1  0  0  0
 19 48  1  0  0  0
 20 49  1  0  0  0
 20 50  1  0  0  0
 21 51  1  0  0  0
 22 52  1  0  0  0
 26 53  1  0  0  0
 26 54  1  0  0  0
 27 55  1  0  0  0
 28 56  1  0  0  0
 28 57  1  0  0  0
 28 58  1  0  0  0
 29 59  1  0  0  0
 29 60  1  0  0  0
 29 61  1  0  0  0
M  END
$$$$
