4lk6_ligand
  -I-interpret- 

 62 65  0  0  0  0  0  0  0  0999 V2000
  -23.9800   44.2910  -44.0320 O   0  0  0  0  0
  -23.3660   44.1410  -45.3550 S   0  0  0  0  0
  -22.1090   43.3880  -45.2320 O   0  0  0  0  0
  -23.0750   45.4740  -45.8850 O   0  0  0  0  0
  -24.4290   43.2920  -46.4750 C   0  0  0  0  0
  -24.4490   43.7430  -47.7910 C   0  0  0  0  0
  -25.2530   43.1270  -48.7490 C   0  0  0  0  0
  -26.0510   42.0520  -48.3950 C   0  0  0  0  0
  -26.0360   41.5910  -47.0790 C   0  0  0  0  0
  -25.2390   42.2000  -46.1190 C   0  0  0  0  0
  -25.3080   41.5850  -44.7000 C   0  0  0  0  0
  -26.0580   42.3800  -43.6120 C   0  0  0  0  0
  -26.0720   41.8810  -42.3080 C   0  0  0  0  0
  -26.7570   42.5700  -41.2880 C   0  0  0  0  0
  -26.7500   41.9400  -39.6780 Cl  0  0  0  0  0
  -27.4360   43.7500  -41.5860 C   0  0  0  0  0
  -28.1080   44.4280  -40.5900 O   0  0  0  0  0
  -27.4320   44.2480  -42.8960 C   0  0  0  0  0
  -26.7460   43.5570  -43.9160 C   0  0  0  0  0
  -23.9200   41.0020  -44.2890 C   0  0  0  0  0
  -23.4540   39.8960  -44.9970 C   0  0  0  0  0
  -22.2100   39.3120  -44.6740 C   0  0  0  0  0
  -21.6410   37.9350  -45.5640 Cl  0  0  0  0  0
  -23.1490   41.5470  -43.2430 C   0  0  0  0  0
  -21.9010   40.9670  -42.9210 C   0  0  0  0  0
  -21.4370   39.8510  -43.6370 C   0  0  0  0  0
  -20.1950   39.2550  -43.3340 O   0  0  0  0  0
  -19.8610   39.4770  -42.0440 C   0  0  0  0  0
  -19.6200   38.1580  -41.3920 C   0  0  0  0  0
  -18.9960   38.2750  -40.1180 C   0  0  0  0  0
  -17.7970   39.1110  -40.1680 C   0  0  0  0  0
  -18.1040   40.4710  -40.7440 C   0  0  0  0  0
  -16.8450   41.2700  -40.8550 C   0  0  0  0  0
  -20.8720   37.4710  -41.2460 O   0  0  0  0  0
  -18.6390   36.9480  -39.6490 O   0  0  0  0  0
  -16.8220   38.4840  -40.9630 O   0  0  0  0  0
  -18.6760   40.3690  -42.0140 O   0  0  0  0  0
  -16.7130   42.0790  -41.9780 O   0  0  0  0  0
  -21.7091   43.2912  -46.0994 H   0  0  0  0  0
  -23.8266   44.5908  -48.0774 H   0  0  0  0  0
  -25.2535   43.4914  -49.7763 H   0  0  0  0  0
  -26.6856   41.5702  -49.1388 H   0  0  0  0  0
  -26.6586   40.7408  -46.8002 H   0  0  0  0  0
  -26.0023   40.7487  -44.7810 H   0  0  0  0  0
  -25.5496   40.9524  -42.0778 H   0  0  0  0  0
  -28.5184   45.2132  -40.9597 H   0  0  0  0  0
  -27.9609   45.1726  -43.1272 H   0  0  0  0  0
  -26.7526   43.9395  -44.9367 H   0  0  0  0  0
  -24.0541   39.4789  -45.8057 H   0  0  0  0  0
  -23.5127   42.4103  -42.6858 H   0  0  0  0  0
  -21.2976   41.3863  -42.1159 H   0  0  0  0  0
  -20.6559   39.9760  -41.4896 H   0  0  0  0  0
  -18.9381   37.5988  -42.0327 H   0  0  0  0  0
  -19.7008   38.7519  -39.4369 H   0  0  0  0  0
  -17.4295   39.2405  -39.1500 H   0  0  0  0  0
  -18.8113   40.9607  -40.0747 H   0  0  0  0  0
  -16.0339   40.5441  -40.9120 H   0  0  0  0  0
  -16.8418   41.9441  -39.9985 H   0  0  0  0  0
  -20.7221   36.6207  -40.8264 H   0  0  0  0  0
  -18.2170   37.0164  -38.7894 H   0  0  0  0  0
  -16.0354   39.0333  -40.9953 H   0  0  0  0  0
  -15.8720   42.5405  -41.9415 H   0  0  0  0  0
  1  2  2  0  0  0
  2  3  1  0  0  0
  2  4  2  0  0  0
  2  5  1  0  0  0
  5  6  4  0  0  0
  5 10  4  0  0  0
  6  7  4  0  0  0
  7  8  4  0  0  0
  8  9  4  0  0  0
  9 10  4  0  0  0
 10 11  1  0  0  0
 11 12  1  0  0  0
 11 20  1  0  0  0
 12 13  4  0  0  0
 12 19  4  0  0  0
 13 14  4  0  0  0
 14 15  1  0  0  0
 14 16  4  0  0  0
 16 17  1  0  0  0
 16 18  4  0  0  0
 18 19  4  0  0  0
 20 21  4  0  0  0
 20 24  4  0  0  0
 21 22  4  0  0  0
 22 23  1  0  0  0
 22 26  4  0  0  0
 24 25  4  0  0  0
 25 26  4  0  0  0
 26 27  1  0  0  0
 27 28  1  0  0  0
 28 29  1  0  0  0
 28 37  1  0  0  0
 29 30  1  0  0  0
 29 34  1  0  0  0
 30 31  1  0  0  0
 30 35  1  0  0  0
 31 32  1  0  0  0
 31 36  1  0  0  0
 32 33  1  0  0  0
 32 37  1  0  0  0
 33 38  1  0  0  0
  3 39  1  0  0  0
  6 40  1  0  0  0
  7 41  1  0  0  0
  8 42  1  0  0  0
  9 43  1  0  0  0
 11 44  1  0  0  0
 13 45  1  0  0  0
 17 46  1  0  0  0
 18 47  1  0  0  0
 19 48  1  0  0  0
 21 49  1  0  0  0
 24 50  1  0  0  0
 25 51  1  0  0  0
 28 52  1  0  0  0
 29 53  1  0  0  0
 30 54  1  0  0  0
 31 55  1  0  0  0
 32 56  1  0  0  0
 33 57  1  0  0  0
 33 58  1  0  0  0
 34 59  1  0  0  0
 35 60  1  0  0  0
 36 61  1  0  0  0
 38 62  1  0  0  0
M  END
$$$$
