4owv_ligand
  -I-interpret- 

 17 17  0  0  0  0  0  0  0  0999 V2000
    0.8990   38.1210  -16.3460 C   0  0  0  0  0
    0.0120   38.2730  -17.2210 O   0  0  0  0  0
    1.8540   38.9220  -16.2540 O   0  0  0  0  0
    0.8020   36.9630  -15.3860 C   0  0  0  0  0
   -0.2910   35.9480  -15.5230 C   0  0  0  0  0
   -0.3730   34.8930  -14.6180 C   0  0  0  0  0
   -1.2170   36.0410  -16.5180 N   0  0  0  0  0
    0.5680   34.7960  -13.6060 C   0  0  0  0  0
    1.5810   35.7410  -13.4840 C   0  0  0  0  0
    1.7230   36.8170  -14.3470 C   0  0  0  0  0
   -0.6367   37.5696  -17.1431 H   0  0  0  0  0
   -1.1680   34.1524  -14.7048 H   0  0  0  0  0
   -1.1730   36.8112  -17.1852 H   0  0  0  0  0
   -1.9542   35.3404  -16.5957 H   0  0  0  0  0
    0.5138   33.9696  -12.8973 H   0  0  0  0  0
    2.2981   35.6305  -12.6706 H   0  0  0  0  0
    2.5351   37.5324  -14.2172 H   0  0  0  0  0
  1  2  1  0  0  0
  1  3  2  0  0  0
  1  4  1  0  0  0
  4  5  4  0  0  0
  4 10  4  0  0  0
  5  6  4  0  0  0
  5  7  1  0  0  0
  6  8  4  0  0  0
  8  9  4  0  0  0
  9 10  4  0  0  0
  2 11  1  0  0  0
  6 12  1  0  0  0
  7 13  1  0  0  0
  7 14  1  0  0  0
  8 15  1  0  0  0
  9 16  1  0  0  0
 10 17  1  0  0  0
M  END
$$$$
