3zsw_ligand
  -I-interpret- 

 72 74  0  0  0  0  0  0  0  0999 V2000
   -9.8260   47.5920    4.8750 C   0  0  0  0  0
  -10.6750   48.5200    4.3070 C   0  0  0  0  0
   -8.9890   46.8430    4.0750 C   0  0  0  0  0
  -10.6940   48.6950    2.9370 C   0  0  0  0  0
  -11.6330   44.9920   -2.2660 C   0  0  0  0  0
  -12.5450   44.5530   -3.2070 C   0  0  0  0  0
   -9.0170   47.0180    2.7100 C   0  0  0  0  0
  -13.3940   45.4970   -0.6970 C   0  0  0  0  0
   -9.8700   47.9430    2.1260 C   0  0  0  0  0
  -12.0410   45.4570   -1.0260 C   0  0  0  0  0
  -13.8830   44.6010   -2.8810 C   0  0  0  0  0
  -14.3130   45.0460   -1.6400 C   0  0  0  0  0
  -10.3760   49.9850   -2.4190 C   0  0  0  0  0
  -10.4640   48.6840   -2.1250 C   0  0  0  0  0
   -8.1180   46.1620    1.9080 C   0  0  0  0  0
  -13.8480   45.9580    0.6430 C   0  0  0  0  0
  -16.8830   45.5580   -6.4420 C   0  0  0  0  0
   -9.0980   42.4120    0.4650 C   0  0  0  0  0
   -7.7440   43.0790    0.5610 C   0  0  0  0  0
   -7.5000   43.6490    1.9370 C   0  0  0  0  0
   -6.0170   43.8260    2.1850 C   0  0  0  0  0
  -16.4880   44.3990   -2.2340 C   0  0  0  0  0
  -16.0540   44.6830   -3.6480 C   0  0  0  0  0
   -9.9400   48.1690    0.6530 C   0  0  0  0  0
  -10.9850   45.9470   -0.0810 C   0  0  0  0  0
  -11.5350   48.1780   -1.2430 C   0  0  0  0  0
  -16.5820   44.1220   -6.0450 C   0  0  0  0  0
  -17.0270   44.0090   -4.6020 C   0  0  0  0  0
   -8.2960   44.8310    2.2410 N   0  0  0  0  0
  -11.0820   47.4660   -0.0040 N   0  3  0  0  0
  -14.7060   45.2140    1.2190 O   0  0  0  0  0
  -17.9390   46.0780   -5.9920 O   0  0  0  0  0
   -7.3930   46.6350    1.0500 O   0  0  0  0  0
  -13.3090   46.9650    1.1780 O   0  0  0  0  0
  -16.0200   46.0890   -7.1910 O   0  0  0  0  0
  -15.6670   45.1100   -1.3110 O   0  0  0  0  0
  -14.7520   44.1530   -3.8440 O   0  0  0  0  0
   -9.8171   47.4511    5.9558 H   0  0  0  0  0
  -11.3318   49.1160    4.9407 H   0  0  0  0  0
   -8.3094   46.1168    4.5209 H   0  0  0  0  0
  -11.3642   49.4318    2.4942 H   0  0  0  0  0
  -10.5696   44.9720   -2.5044 H   0  0  0  0  0
  -12.2161   44.1803   -4.1771 H   0  0  0  0  0
  -11.1003   50.6872   -2.0062 H   0  0  0  0  0
   -9.5799   50.3437   -3.0715 H   0  0  0  0  0
   -9.7361   47.9878   -2.5415 H   0  0  0  0  0
   -9.1533   41.5990    1.1890 H   0  0  0  0  0
   -9.8778   43.1433    0.6777 H   0  0  0  0  0
   -9.2354   42.0146   -0.5406 H   0  0  0  0  0
   -7.7111   43.8956   -0.1602 H   0  0  0  0  0
   -6.9773   42.3314    0.3576 H   0  0  0  0  0
   -7.8623   42.9147    2.6564 H   0  0  0  0  0
   -5.5193   42.8592    2.1092 H   0  0  0  0  0
   -5.6044   44.5078    1.4414 H   0  0  0  0  0
   -5.8633   44.2380    3.1824 H   0  0  0  0  0
  -16.3954   43.3301   -2.0417 H   0  0  0  0  0
  -17.5225   44.7186   -2.1088 H   0  0  0  0  0
  -16.0424   45.7571   -3.8331 H   0  0  0  0  0
   -9.0204   47.7780    0.2175 H   0  0  0  0  0
  -10.0771   49.2383    0.4918 H   0  0  0  0  0
   -9.9978   45.6523   -0.4370 H   0  0  0  0  0
  -11.1351   45.5115    0.9069 H   0  0  0  0  0
  -12.0954   47.4489   -1.8282 H   0  0  0  0  0
  -12.0944   49.0513   -0.9077 H   0  0  0  0  0
  -15.5241   43.8858   -6.1598 H   0  0  0  0  0
  -17.1037   43.4097   -6.6842 H   0  0  0  0  0
  -17.9942   44.5022   -4.5052 H   0  0  0  0  0
  -17.0778   42.9512   -4.3441 H   0  0  0  0  0
   -9.1307   44.6444    2.7967 H   0  0  0  0  0
  -11.8645   47.5418    0.6459 H   0  0  0  0  0
  -14.9738   44.5132    0.6200 H   0  0  0  0  0
  -18.4030   45.4376   -5.4478 H   0  0  0  0  0
  2  1  4  0  0  0
  3  1  4  0  0  0
  4  2  4  0  0  0
  7  3  4  0  0  0
  9  4  4  0  0  0
  6  5  4  0  0  0
  5 10  4  0  0  0
 11  6  4  0  0  0
  9  7  4  0  0  0
  7 15  1  0  0  0
  8 10  4  0  0  0
 12  8  4  0  0  0
  8 16  1  0  0  0
 24  9  1  0  0  0
 10 25  1  0  0  0
 11 12  4  0  0  0
 37 11  1  0  0  0
 36 12  1  0  0  0
 14 13  2  0  0  0
 26 14  1  0  0  0
 15 29  1  0  0  0
 15 33  2  0  0  0
 16 31  1  0  0  0
 16 34  2  0  0  0
 27 17  1  0  0  0
 17 32  1  0  0  0
 17 35  2  0  0  0
 19 18  1  0  0  0
 20 19  1  0  0  0
 20 21  1  0  0  0
 29 20  1  0  0  0
 23 22  1  0  0  0
 22 36  1  0  0  0
 28 23  1  0  0  0
 23 37  1  0  0  0
 30 24  1  0  0  0
 25 30  1  0  0  0
 30 26  1  0  0  0
 27 28  1  0  0  0
  1 38  1  0  0  0
  2 39  1  0  0  0
  3 40  1  0  0  0
  4 41  1  0  0  0
  5 42  1  0  0  0
  6 43  1  0  0  0
 13 44  1  0  0  0
 13 45  1  0  0  0
 14 46  1  0  0  0
 18 47  1  0  0  0
 18 48  1  0  0  0
 18 49  1  0  0  0
 19 50  1  0  0  0
 19 51  1  0  0  0
 20 52  1  0  0  0
 21 53  1  0  0  0
 21 54  1  0  0  0
 21 55  1  0  0  0
 22 56  1  0  0  0
 22 57  1  0  0  0
 23 58  1  0  0  0
 24 59  1  0  0  0
 24 60  1  0  0  0
 25 61  1  0  0  0
 25 62  1  0  0  0
 26 63  1  0  0  0
 26 64  1  0  0  0
 27 65  1  0  0  0
 27 66  1  0  0  0
 28 67  1  0  0  0
 28 68  1  0  0  0
 29 69  1  0  0  0
 30 70  1  0  0  0
 31 71  1  0  0  0
 32 72  1  0  0  0
M  END
$$$$
