1pip_ligand
  -I-interpret- 

 96 96  0  0  0  0  0  0  0  0999 V2000
   59.2760   58.8230   18.5060 C   0  0  0  0  0
   60.1470   58.8340   19.3580 O   0  0  0  0  0
   59.0200   59.8150   17.8640 O   0  0  0  0  0
   58.4920   57.5190   18.2210 C   0  0  0  0  0
   57.3980   57.5010   17.0980 C   0  0  0  0  0
   56.1920   56.5100   17.1850 C   0  0  0  0  0
   55.8080   56.1790   18.2830 O   0  0  0  0  0
   56.6960   55.6500   16.2660 N   0  0  0  0  0
   56.0070   54.3620   16.1980 C   0  0  0  0  0
   56.9730   53.5410   16.9990 C   0  0  0  0  0
   58.1590   53.7550   16.7490 O   0  0  0  0  0
   55.9560   53.7110   14.8060 C   0  0  0  0  0
   55.3620   52.2770   14.7840 C   0  0  0  0  0
   55.5650   51.4950   13.4910 C   0  0  0  0  0
   56.2390   50.4720   13.5140 O   0  0  0  0  0
   55.0530   51.8430   12.3170 N   0  0  0  0  0
   56.3960   52.6720   17.8540 N   0  0  0  0  0
   56.9750   51.7310   18.8350 C   0  0  0  0  0
   56.7010   52.2570   20.2620 C   0  0  0  0  0
   56.7910   53.4440   20.5980 O   0  0  0  0  0
   58.4780   51.5040   18.4790 C   0  0  0  0  0
   59.5030   51.4210   19.5940 C   0  0  0  0  0
   58.3270   50.2260   17.6540 C   0  0  0  0  0
   56.1020   51.2530   20.9270 N   0  0  0  0  0
   55.3130   51.3350   22.1680 C   0  0  0  0  0
   55.0710   49.8700   22.6340 C   0  0  0  0  0
   55.4370   48.9650   21.8870 O   0  0  0  0  0
   53.9790   52.0370   21.7880 C   0  0  0  0  0
   53.2530   51.0510   20.8320 C   0  0  0  0  0
   53.1120   52.4220   22.9990 C   0  0  0  0  0
   54.4160   49.5650   23.7670 N   0  0  0  0  0
   54.1270   48.2130   24.2860 C   0  0  0  0  0
   53.8190   46.9100   23.4790 C   0  0  0  0  0
   52.7120   46.3460   23.5760 O   0  0  0  0  0
   53.0020   48.4090   25.3250 C   0  0  0  0  0
   54.8770   46.4220   22.7950 N   0  0  0  0  0
   55.0550   45.1740   22.0100 C   0  0  0  0  0
   55.3220   45.4510   20.5170 C   0  0  0  0  0
   54.4890   46.0640   19.8250 O   0  0  0  0  0
   53.8600   44.1780   22.0080 C   0  0  0  0  0
   55.9100   44.3510   19.8450 N   0  0  0  0  0
   57.1900   44.4220   19.4760 C   0  0  0  0  0
   57.6950   45.4980   18.7310 C   0  0  0  0  0
   59.0430   45.5790   18.3500 C   0  0  0  0  0
   59.9790   44.5750   18.6510 C   0  0  0  0  0
   61.2590   44.6690   18.2960 N   0  0  0  0  0
   61.6710   45.7540   17.6410 O   0  0  0  0  0
   62.0920   43.6780   18.6070 O   0  0  0  0  0
   59.4680   43.4580   19.3340 C   0  0  0  0  0
   58.1200   43.3900   19.7230 C   0  0  0  0  0
   60.2095   57.9651   19.7613 H   0  0  0  0  0
   57.9442   57.3202   19.1422 H   0  0  0  0  0
   59.2483   56.8121   17.8799 H   0  0  0  0  0
   57.9366   57.1919   16.2022 H   0  0  0  0  0
   56.9397   58.4885   17.1525 H   0  0  0  0  0
   57.4909   55.8825   15.6706 H   0  0  0  0  0
   54.9663   54.4486   16.5103 H   0  0  0  0  0
   56.9844   53.6346   14.4529 H   0  0  0  0  0
   55.3086   54.3328   14.1877 H   0  0  0  0  0
   54.2851   52.3877   14.9111 H   0  0  0  0  0
   55.8767   51.7184   15.5658 H   0  0  0  0  0
   55.2290   51.2679   11.4932 H   0  0  0  0  0
   54.4835   52.6855   12.2386 H   0  0  0  0  0
   55.3767   52.6628   17.8167 H   0  0  0  0  0
   56.5091   50.7463   18.7978 H   0  0  0  0  0
   58.9253   52.3683   17.9880 H   0  0  0  0  0
   59.4973   52.3519   20.1610 H   0  0  0  0  0
   59.2534   50.5904   20.2542 H   0  0  0  0  0
   60.4923   51.2613   19.1652 H   0  0  0  0  0
   57.8840   49.4457   18.2729 H   0  0  0  0  0
   57.6820   50.4221   16.7975 H   0  0  0  0  0
   59.3076   49.9021   17.3054 H   0  0  0  0  0
   56.2068   50.3223   20.5230 H   0  0  0  0  0
   55.7996   51.8903   22.9698 H   0  0  0  0  0
   54.1774   52.9964   21.3103 H   0  0  0  0  0
   53.8751   50.8730   19.9549 H   0  0  0  0  0
   53.0754   50.1087   21.3504 H   0  0  0  0  0
   52.3009   51.4819   20.5223 H   0  0  0  0  0
   52.8566   51.5240   23.5615 H   0  0  0  0  0
   53.6678   53.1074   23.6389 H   0  0  0  0  0
   52.1995   52.9065   22.6516 H   0  0  0  0  0
   54.0835   50.3497   24.3274 H   0  0  0  0  0
   55.1421   47.9224   24.5567 H   0  0  0  0  0
   52.0458   48.5020   24.8101 H   0  0  0  0  0
   52.9736   47.5492   25.9944 H   0  0  0  0  0
   53.1952   49.3137   25.9015 H   0  0  0  0  0
   55.7035   47.0191   22.8228 H   0  0  0  0  0
   55.9003   44.7249   22.5315 H   0  0  0  0  0
   53.0033   44.6413   21.5186 H   0  0  0  0  0
   54.1430   43.2740   21.4687 H   0  0  0  0  0
   53.5993   43.9232   23.0352 H   0  0  0  0  0
   55.3611   43.5147   19.6457 H   0  0  0  0  0
   57.0165   46.2991   18.4378 H   0  0  0  0  0
   59.3780   46.4570   17.7977 H   0  0  0  0  0
   60.1325   42.6260   19.5670 H   0  0  0  0  0
   57.7752   42.4954   20.2415 H   0  0  0  0  0
  4  1  1  0  0  0
  1  3  2  0  0  0
  1  2  1  0  0  0
  5  4  1  0  0  0
  6  5  1  0  0  0
  6  7  2  0  0  0
 10  9  1  0  0  0
  9 12  1  0  0  0
  9  8  1  0  0  0
 12 13  1  0  0  0
 13 14  1  0  0  0
 14 15  2  0  0  0
 14 16  1  0  0  0
 10 11  2  0  0  0
 19 18  1  0  0  0
 18 21  1  0  0  0
 18 17  1  0  0  0
 21 22  1  0  0  0
 21 23  1  0  0  0
 19 20  2  0  0  0
 26 25  1  0  0  0
 25 28  1  0  0  0
 25 24  1  0  0  0
 28 29  1  0  0  0
 28 30  1  0  0  0
 26 27  2  0  0  0
 33 32  1  0  0  0
 32 35  1  0  0  0
 32 31  1  0  0  0
 33 34  2  0  0  0
 38 37  1  0  0  0
 37 40  1  0  0  0
 37 36  1  0  0  0
 38 39  2  0  0  0
 41 42  1  0  0  0
 42 50  4  0  0  0
 42 43  4  0  0  0
 43 44  4  0  0  0
 44 45  4  0  0  0
 49 45  4  0  0  0
 45 46  1  0  0  0
 46 48  2  0  0  0
 46 47  2  0  0  0
 50 49  4  0  0  0
 17 10  1  0  0  0
 24 19  1  0  0  0
 31 26  1  0  0  0
 36 33  1  0  0  0
  8  6  1  0  0  0
 38 41  1  0  0  0
  2 51  1  0  0  0
  4 52  1  0  0  0
  4 53  1  0  0  0
  5 54  1  0  0  0
  5 55  1  0  0  0
  8 56  1  0  0  0
  9 57  1  0  0  0
 12 58  1  0  0  0
 12 59  1  0  0  0
 13 60  1  0  0  0
 13 61  1  0  0  0
 16 62  1  0  0  0
 16 63  1  0  0  0
 17 64  1  0  0  0
 18 65  1  0  0  0
 21 66  1  0  0  0
 22 67  1  0  0  0
 22 68  1  0  0  0
 22 69  1  0  0  0
 23 70  1  0  0  0
 23 71  1  0  0  0
 23 72  1  0  0  0
 24 73  1  0  0  0
 25 74  1  0  0  0
 28 75  1  0  0  0
 29 76  1  0  0  0
 29 77  1  0  0  0
 29 78  1  0  0  0
 30 79  1  0  0  0
 30 80  1  0  0  0
 30 81  1  0  0  0
 31 82  1  0  0  0
 32 83  1  0  0  0
 35 84  1  0  0  0
 35 85  1  0  0  0
 35 86  1  0  0  0
 36 87  1  0  0  0
 37 88  1  0  0  0
 40 89  1  0  0  0
 40 90  1  0  0  0
 40 91  1  0  0  0
 41 92  1  0  0  0
 43 93  1  0  0  0
 44 94  1  0  0  0
 49 95  1  0  0  0
 50 96  1  0  0  0
M  END
$$$$
