### 
### Created by X-TOOL on Mon Sep 10 21:12:45 2018
### 

@<TRIPOS>MOLECULE
1pip_ligand
   95    95     1     0     0
SMALL
GAST_HUCK


@<TRIPOS>ATOM
      1 C1         59.2760   58.8230   18.5060 C.2       1 SIN         0.0370
      2 O1A        60.1470   58.8340   19.3580 O.co2     1 SIN        -0.5689
      3 O1B        59.0200   59.8150   17.8640 O.co2     1 SIN        -0.5689
      4 C2         58.4920   57.5190   18.2210 C.3       1 SIN         0.0171
      5 C3         57.3980   57.5010   17.0980 C.3       1 SIN         0.0488
      6 C4         56.1920   56.5100   17.1850 C.2       1 SIN         0.1799
      7 O4A        55.8080   56.1790   18.2830 O.2       1 SIN        -0.3968
      8 N          56.6960   55.6500   16.2660 N.am      1 GLN        -0.2654
      9 CA         56.0070   54.3620   16.1980 C.3       1 GLN         0.1330
     10 C          56.9730   53.5410   16.9990 C.2       1 GLN         0.2040
     11 O          58.1590   53.7550   16.7490 O.2       1 GLN        -0.3944
     12 CB         55.9560   53.7110   14.8060 C.3       1 GLN         0.0045
     13 CG         55.3620   52.2770   14.7840 C.3       1 GLN         0.0412
     14 CD         55.5650   51.4950   13.4910 C.2       1 GLN         0.1737
     15 OE1        56.2390   50.4720   13.5140 O.2       1 GLN        -0.3973
     16 NE2        55.0530   51.8430   12.3170 N.am      1 GLN        -0.3009
     17 N          56.3960   52.6720   17.8540 N.am      1 VAL        -0.2635
     18 CA         56.9750   51.7310   18.8350 C.3       1 VAL         0.1332
     19 C          56.7010   52.2570   20.2620 C.2       1 VAL         0.2042
     20 O          56.7910   53.4440   20.5980 O.2       1 VAL        -0.3944
     21 CB         58.4780   51.5040   18.4790 C.3       1 VAL        -0.0063
     22 CG1        59.5030   51.4210   19.5940 C.3       1 VAL        -0.0584
     23 CG2        58.3270   50.2260   17.6540 C.3       1 VAL        -0.0584
     24 N          56.1020   51.2530   20.9270 N.am      1 VAL        -0.2635
     25 CA         55.3130   51.3350   22.1680 C.3       1 VAL         0.1332
     26 C          55.0710   49.8700   22.6340 C.2       1 VAL         0.2041
     27 O          55.4370   48.9650   21.8870 O.2       1 VAL        -0.3944
     28 CB         53.9790   52.0370   21.7880 C.3       1 VAL        -0.0063
     29 CG1        53.2530   51.0510   20.8320 C.3       1 VAL        -0.0584
     30 CG2        53.1120   52.4220   22.9990 C.3       1 VAL        -0.0584
     31 N          54.4160   49.5650   23.7670 N.am      1 ALA        -0.2640
     32 CA         54.1270   48.2130   24.2860 C.3       1 ALA         0.1282
     33 C          53.8190   46.9100   23.4790 C.2       1 ALA         0.2037
     34 O          52.7120   46.3460   23.5760 O.2       1 ALA        -0.3944
     35 CB         53.0020   48.4090   25.3250 C.3       1 ALA        -0.0244
     36 N          54.8770   46.4220   22.7950 N.am      1 ALA        -0.2600
     37 CA         55.0550   45.1740   22.0100 C.3       1 ALA         0.1748
     38 C          55.3220   45.4510   20.5170 C.2       1 ALA         0.3876
     39 O          54.4890   46.0640   19.8250 O.2       1 ALA        -0.2799
     40 CB         53.8600   44.1780   22.0080 C.3       1 ALA        -0.0199
     41 N1         55.9100   44.3510   19.8450 N.am      1 NIT        -0.0835
     42 C1         57.1900   44.4220   19.4760 C.ar      1 NIT         0.3148
     43 C2         57.6950   45.4980   18.7310 C.ar      1 NIT         0.1241
     44 C3         59.0430   45.5790   18.3500 C.ar      1 NIT         0.0809
     45 C4         59.9790   44.5750   18.6510 C.ar      1 NIT         0.1874
     46 N4         61.2590   44.6690   18.2960 N.2       1 NIT        -0.1366
     47 ON1        61.6710   45.7540   17.6410 O.2       1 NIT        -0.4480
     48 ON2        62.0920   43.6780   18.6070 O.2       1 NIT        -0.4480
     49 C5         59.4680   43.4580   19.3340 C.ar      1 NIT         0.0809
     50 C6         58.1200   43.3900   19.7230 C.ar      1 NIT         0.1241
     51 H1         57.9914   57.2361   19.1587 H         1 SIN         0.0455
     52 H2         59.2343   56.7518   17.9557 H         1 SIN         0.0455
     53 H3         57.9183   57.2829   16.1537 H         1 SIN         0.0520
     54 H4         56.9717   58.5142   17.0562 H         1 SIN         0.0520
     55 H5         57.4753   55.8779   15.6823 H         1 GLN         0.1883
     56 H6         54.9988   54.4151   16.6346 H         1 GLN         0.0801
     57 H7         56.9818   53.6634   14.4118 H         1 GLN         0.0337
     58 H8         55.3411   54.3470   14.1522 H         1 GLN         0.0337
     59 H9         54.2797   52.3571   14.9637 H         1 GLN         0.0504
     60 H10        55.8280   51.7060   15.6005 H         1 GLN         0.0504
     61 H11        55.2281   51.2808   11.5087 H         1 GLN         0.1814
     62 H12        54.4921   52.6674   12.2407 H         1 GLN         0.1814
     63 H13        55.3967   52.6629   17.8174 H         1 VAL         0.1883
     64 H14        56.4636   50.7619   18.7391 H         1 VAL         0.0802
     65 H15        58.8130   52.3259   17.8292 H         1 VAL         0.0343
     66 H16        60.5019   51.2598   19.1625 H         1 VAL         0.0234
     67 H17        59.2522   50.5830   20.2610 H         1 VAL         0.0234
     68 H18        59.4983   52.3599   20.1670 H         1 VAL         0.0234
     69 H19        57.5665   50.3806   16.8744 H         1 VAL         0.0234
     70 H20        58.0161   49.4002   18.3108 H         1 VAL         0.0234
     71 H21        59.2896   49.9776   17.1831 H         1 VAL         0.0234
     72 H22        56.2048   50.3405   20.5310 H         1 VAL         0.1883
     73 H23        55.8415   51.9049   22.9464 H         1 VAL         0.0802
     74 H24        54.2100   52.9631   21.2412 H         1 VAL         0.0343
     75 H25        52.2919   51.4847   20.5188 H         1 VAL         0.0234
     76 H26        53.0731   50.0996   21.3540 H         1 VAL         0.0234
     77 H27        53.8798   50.8705   19.9463 H         1 VAL         0.0234
     78 H28        53.6694   53.1188   23.6423 H         1 VAL         0.0234
     79 H29        52.8590   51.5173   23.5713 H         1 VAL         0.0234
     80 H30        52.1878   52.9053   22.6495 H         1 VAL         0.0234
     81 H31        54.0900   50.3344   24.3164 H         1 ALA         0.1883
     82 H32        55.0431   47.9503   24.8353 H         1 ALA         0.0797
     83 H33        52.7304   47.4356   25.7593 H         1 ALA         0.0277
     84 H34        52.1219   48.8497   24.8338 H         1 ALA         0.0277
     85 H35        53.3521   49.0813   26.1221 H         1 ALA         0.0277
     86 H36        55.6873   47.0074   22.8223 H         1 ALA         0.1885
     87 H37        55.9273   44.6582   22.4378 H         1 ALA         0.0845
     88 H38        54.1150   43.3006   21.3955 H         1 ALA         0.0278
     89 H39        52.9714   44.6723   21.5885 H         1 ALA         0.0278
     90 H40        53.6487   43.8567   23.0386 H         1 ALA         0.0278
     91 H41        55.3719   43.5311   19.6496 H         1 NIT         0.4309
     92 H42        57.0203   46.2947   18.4395 H         1 NIT         0.1344
     93 H43        59.3761   46.4522   17.8008 H         1 NIT         0.1018
     94 H44        60.1288   42.6306   19.5657 H         1 NIT         0.1018
     95 H45        57.7771   42.5003   20.2387 H         1 NIT         0.1344
@<TRIPOS>BOND
     1    4    1 1  
     2    1    3 ar 
     3    1    2 ar 
     4    5    4 1  
     5    6    5 1  
     6    6    7 2  
     7   10    9 1  
     8    9   12 1  
     9    9    8 1  
    10   12   13 1  
    11   13   14 1  
    12   14   15 2  
    13   14   16 am 
    14   10   11 2  
    15   19   18 1  
    16   18   21 1  
    17   18   17 1  
    18   21   22 1  
    19   21   23 1  
    20   19   20 2  
    21   26   25 1  
    22   25   28 1  
    23   25   24 1  
    24   28   29 1  
    25   28   30 1  
    26   26   27 2  
    27   33   32 1  
    28   32   35 1  
    29   32   31 1  
    30   33   34 2  
    31   38   37 1  
    32   37   40 1  
    33   37   36 1  
    34   38   39 2  
    35   41   42 1  
    36   42   50 ar 
    37   42   43 ar 
    38   43   44 ar 
    39   44   45 ar 
    40   49   45 ar 
    41   45   46 1  
    42   46   48 2  
    43   46   47 2  
    44   50   49 ar 
    45   17   10 am 
    46   24   19 am 
    47   31   26 am 
    48   36   33 am 
    49    8    6 am 
    50   38   41 am 
    51    4   51 1  
    52    4   52 1  
    53    5   53 1  
    54    5   54 1  
    55    8   55 1  
    56    9   56 1  
    57   12   57 1  
    58   12   58 1  
    59   13   59 1  
    60   13   60 1  
    61   16   61 1  
    62   16   62 1  
    63   17   63 1  
    64   18   64 1  
    65   21   65 1  
    66   22   66 1  
    67   22   67 1  
    68   22   68 1  
    69   23   69 1  
    70   23   70 1  
    71   23   71 1  
    72   24   72 1  
    73   25   73 1  
    74   28   74 1  
    75   29   75 1  
    76   29   76 1  
    77   29   77 1  
    78   30   78 1  
    79   30   79 1  
    80   30   80 1  
    81   31   81 1  
    82   32   82 1  
    83   35   83 1  
    84   35   84 1  
    85   35   85 1  
    86   36   86 1  
    87   37   87 1  
    88   40   88 1  
    89   40   89 1  
    90   40   90 1  
    91   41   91 1  
    92   43   92 1  
    93   44   93 1  
    94   49   94 1  
    95   50   95 1  
@<TRIPOS>SUBSTRUCTURE
     1 SIN         1

