3acx_ligand
  -I-interpret- 

 51 52  0  0  0  0  0  0  0  0999 V2000
   56.3780   16.2930   57.5430 C   0  0  0  0  0
   52.6540    8.7070   53.9290 C   0  0  0  0  0
   52.5750   10.8840   55.2050 C   0  0  0  0  0
   56.9430   15.7410   56.4070 C   0  0  0  0  0
   58.2420   22.3580   53.7270 C   0  0  0  0  0
   57.4630   22.0760   52.6320 C   0  0  0  0  0
   58.5460   21.3310   54.6090 C   0  0  0  0  0
   57.0470   20.7730   52.4150 C   0  0  0  0  0
   58.1220   20.0270   54.3810 C   0  0  0  0  0
   56.3720   17.9780   51.8460 C   0  0  0  0  0
   55.8350   16.6960   51.7200 C   0  0  0  0  0
   56.8210   17.5110   54.1430 C   0  0  0  0  0
   56.2240   15.3030   55.2830 C   0  0  0  0  0
   55.0340   12.3450   51.8160 C   0  0  0  0  0
   54.6010   11.8740   53.2070 C   0  0  0  0  0
   55.9130   13.5920   51.9260 C   0  0  0  0  0
   53.7210   10.7030   53.0610 N   0  3  0  0  0
   55.2290   14.5830   52.6740 O   0  0  0  0  0
   57.3810   19.7030   53.2540 C   0  0  0  0  0
   56.8940   18.3930   53.0660 C   0  0  0  0  0
   56.2800   16.2260   54.0490 C   0  0  0  0  0
   55.8020   15.8160   52.8030 C   0  0  0  0  0
   53.4150    9.9790   54.3110 C   0  0  0  0  0
   55.2969   16.4143   57.6101 H   0  0  0  0  0
   57.0140   16.6066   58.3708 H   0  0  0  0  0
   51.7349    8.9773   53.4091 H   0  0  0  0  0
   53.2761    8.0954   53.2756 H   0  0  0  0  0
   52.4110    8.1457   54.8312 H   0  0  0  0  0
   53.1348   11.7920   55.4292 H   0  0  0  0  0
   51.6500   11.1437   54.6903 H   0  0  0  0  0
   52.3417   10.3611   56.1325 H   0  0  0  0  0
   58.0279   15.6384   56.3827 H   0  0  0  0  0
   58.6139   23.3679   53.8998 H   0  0  0  0  0
   57.1753   22.8687   51.9414 H   0  0  0  0  0
   59.1311   21.5519   55.5017 H   0  0  0  0  0
   56.4254   20.5693   51.5431 H   0  0  0  0  0
   58.3757   19.2470   55.0989 H   0  0  0  0  0
   56.3822   18.6525   50.9898 H   0  0  0  0  0
   55.4340   16.3761   50.7583 H   0  0  0  0  0
   57.2057   17.8406   55.1081 H   0  0  0  0  0
   55.1779   15.2568   55.5856 H   0  0  0  0  0
   56.6725   14.3568   54.9803 H   0  0  0  0  0
   54.1469   12.5861   51.2303 H   0  0  0  0  0
   55.6030   11.5506   51.3330 H   0  0  0  0  0
   54.0668   12.6752   53.7177 H   0  0  0  0  0
   55.4786   11.6046   53.7947 H   0  0  0  0  0
   56.1313   13.9736   50.9286 H   0  0  0  0  0
   56.8470   13.3370   52.4266 H   0  0  0  0  0
   54.2116   10.0443   52.4562 H   0  0  0  0  0
   52.8320   11.0504   52.7012 H   0  0  0  0  0
   54.3178    9.7074   54.8581 H   0  0  0  0  0
  4  1  2  0  0  0
 23  2  1  0  0  0
 23  3  1  0  0  0
 13  4  1  0  0  0
  6  5  4  0  0  0
  7  5  4  0  0  0
  8  6  4  0  0  0
  9  7  4  0  0  0
 19  8  4  0  0  0
 19  9  4  0  0  0
 10 11  4  0  0  0
 20 10  4  0  0  0
 11 22  4  0  0  0
 20 12  4  0  0  0
 12 21  4  0  0  0
 21 13  1  0  0  0
 14 15  1  0  0  0
 16 14  1  0  0  0
 15 17  1  0  0  0
 18 16  1  0  0  0
 17 23  1  0  0  0
 22 18  1  0  0  0
 19 20  1  0  0  0
 21 22  4  0  0  0
  1 24  1  0  0  0
  1 25  1  0  0  0
  2 26  1  0  0  0
  2 27  1  0  0  0
  2 28  1  0  0  0
  3 29  1  0  0  0
  3 30  1  0  0  0
  3 31  1  0  0  0
  4 32  1  0  0  0
  5 33  1  0  0  0
  6 34  1  0  0  0
  7 35  1  0  0  0
  8 36  1  0  0  0
  9 37  1  0  0  0
 10 38  1  0  0  0
 11 39  1  0  0  0
 12 40  1  0  0  0
 13 41  1  0  0  0
 13 42  1  0  0  0
 14 43  1  0  0  0
 14 44  1  0  0  0
 15 45  1  0  0  0
 15 46  1  0  0  0
 16 47  1  0  0  0
 16 48  1  0  0  0
 17 49  1  0  0  0
 17 50  1  0  0  0
 23 51  1  0  0  0
M  END
$$$$
