4exh_ligand
  -I-interpret- 

 67 66  0  0  0  0  0  0  0  0999 V2000
   -5.7760    3.7080    8.2030 C   0  0  0  0  0
   -5.9920    4.6730    8.9330 O   0  0  0  0  0
   -5.7480    2.3030    8.7380 C   0  0  0  0  0
   -5.9400    3.7740    6.8860 N   0  0  0  0  0
   -6.0880    4.9970    6.1090 C   0  0  0  0  0
   -7.1410    4.7590    5.0320 C   0  0  0  0  0
   -6.9280    3.9970    4.0920 O   0  0  0  0  0
   -4.7470    5.4110    5.4430 C   0  0  0  0  0
   -4.9500    6.5790    4.4850 C   0  0  0  0  0
   -3.7000    5.7550    6.4960 C   0  0  0  0  0
   -8.2960    5.3820    5.1960 N   0  0  0  0  0
   -9.3880    5.2480    4.2340 C   0  0  0  0  0
   -9.6410    6.6170    3.6160 C   0  0  0  0  0
   -9.4590    7.6210    4.2980 O   0  0  0  0  0
  -10.6560    4.7520    4.9480 C   0  0  0  0  0
  -11.8560    4.6740    3.9840 C   0  0  0  0  0
  -10.3810    3.4020    5.5800 C   0  0  0  0  0
   -9.7160    6.5810    2.2720 N   0  0  0  0  0
   -9.9880    7.8220    1.5520 C   0  0  0  0  0
   -9.7920    7.6450    0.0510 C   0  0  0  0  0
   -8.3140    7.6970   -0.3380 C   0  0  0  0  0
   -7.6510    8.9970    0.1010 C   0  0  0  0  0
   -8.1390    7.5160   -1.8400 C   0  0  0  0  0
  -11.4090    8.2840    1.8910 C   0  0  0  0  0
  -11.6720    9.5460    1.3100 O   0  0  0  0  0
  -12.4720    7.2630    1.4810 C   0  0  0  0  0
  -13.8050    7.6700    2.0690 C   0  0  0  0  0
  -14.2280    7.4220    3.3860 O   0  0  0  0  0
  -14.6210    7.8340    1.0350 N   0  0  0  0  0
   -4.9684    2.2194    9.4952 H   0  0  0  0  0
   -6.7146    2.0654    9.1821 H   0  0  0  0  0
   -5.5407    1.6094    7.9231 H   0  0  0  0  0
   -5.9644    2.8916    6.3749 H   0  0  0  0  0
   -6.3918    5.8046    6.7751 H   0  0  0  0  0
   -4.3839    4.5599    4.8669 H   0  0  0  0  0
   -5.2854    7.4522    5.0446 H   0  0  0  0  0
   -4.0080    6.8057    3.9857 H   0  0  0  0  0
   -5.7013    6.3115    3.7420 H   0  0  0  0  0
   -2.7527    5.9782    6.0052 H   0  0  0  0  0
   -4.0301    6.6247    7.0642 H   0  0  0  0  0
   -3.5712    4.9073    7.1690 H   0  0  0  0  0
   -8.4284    5.9726    6.0170 H   0  0  0  0  0
   -9.1249    4.5270    3.4600 H   0  0  0  0  0
  -10.9193    5.4678    5.7267 H   0  0  0  0  0
  -12.0561    5.6640    3.5741 H   0  0  0  0  0
  -11.6246    3.9835    3.1730 H   0  0  0  0  0
  -12.7330    4.3195    4.5256 H   0  0  0  0  0
  -10.0966    2.6905    4.8048 H   0  0  0  0  0
   -9.5698    3.4986    6.3016 H   0  0  0  0  0
  -11.2795    3.0496    6.0865 H   0  0  0  0  0
   -9.5854    5.7045    1.7670 H   0  0  0  0  0
   -9.2802    8.5897    1.8646 H   0  0  0  0  0
  -10.3099    8.4564   -0.4604 H   0  0  0  0  0
  -10.1874    6.6700   -0.2338 H   0  0  0  0  0
   -7.8246    6.8743    0.1834 H   0  0  0  0  0
   -8.1569    9.8390   -0.3715 H   0  0  0  0  0
   -7.7210    9.0911    1.1847 H   0  0  0  0  0
   -6.6026    8.9875   -0.1972 H   0  0  0  0  0
   -8.5460    6.5498   -2.1381 H   0  0  0  0  0
   -8.6676    8.3119   -2.3646 H   0  0  0  0  0
   -7.0785    7.5572   -2.0885 H   0  0  0  0  0
  -11.4652    8.3761    2.9757 H   0  0  0  0  0
  -12.5650    9.8195    1.5322 H   0  0  0  0  0
  -12.1942    6.2765    1.8521 H   0  0  0  0  0
  -12.5466    7.2288    0.3941 H   0  0  0  0  0
  -15.6308    7.7829    1.1691 H   0  0  0  0  0
  -14.2382    8.0111    0.1063 H   0  0  0  0  0
  1  2  2  0  0  0
  1  3  1  0  0  0
  1  4  1  0  0  0
  4  5  1  0  0  0
  5  6  1  0  0  0
  5  8  1  0  0  0
  6  7  2  0  0  0
  6 11  1  0  0  0
  8  9  1  0  0  0
  8 10  1  0  0  0
 11 12  1  0  0  0
 12 13  1  0  0  0
 12 15  1  0  0  0
 13 14  2  0  0  0
 13 18  1  0  0  0
 15 16  1  0  0  0
 15 17  1  0  0  0
 18 19  1  0  0  0
 19 20  1  0  0  0
 19 24  1  0  0  0
 20 21  1  0  0  0
 21 22  1  0  0  0
 21 23  1  0  0  0
 24 25  1  0  0  0
 24 26  1  0  0  0
 26 27  1  0  0  0
 27 28  2  0  0  0
 27 29  1  0  0  0
  3 30  1  0  0  0
  3 31  1  0  0  0
  3 32  1  0  0  0
  4 33  1  0  0  0
  5 34  1  0  0  0
  8 35  1  0  0  0
  9 36  1  0  0  0
  9 37  1  0  0  0
  9 38  1  0  0  0
 10 39  1  0  0  0
 10 40  1  0  0  0
 10 41  1  0  0  0
 11 42  1  0  0  0
 12 43  1  0  0  0
 15 44  1  0  0  0
 16 45  1  0  0  0
 16 46  1  0  0  0
 16 47  1  0  0  0
 17 48  1  0  0  0
 17 49  1  0  0  0
 17 50  1  0  0  0
 18 51  1  0  0  0
 19 52  1  0  0  0
 20 53  1  0  0  0
 20 54  1  0  0  0
 21 55  1  0  0  0
 22 56  1  0  0  0
 22 57  1  0  0  0
 22 58  1  0  0  0
 23 59  1  0  0  0
 23 60  1  0  0  0
 23 61  1  0  0  0
 24 62  1  0  0  0
 25 63  1  0  0  0
 26 64  1  0  0  0
 26 65  1  0  0  0
 29 66  1  0  0  0
 29 67  1  0  0  0
M  END
$$$$
