3rw9_ligand
  -I-interpret- 

 41 43  0  0  0  0  0  0  0  0999 V2000
    0.7430   58.8340    8.7880 N   0  0  0  0  0
    1.4960   71.2080    7.8460 N   0  0  0  0  0
    0.9260   70.2580    7.0900 C   0  0  0  0  0
    1.4700   69.0360    6.9730 N   0  0  0  0  0
    2.6110   68.7320    7.6310 C   0  0  0  0  0
    3.2100   69.6980    8.4270 C   0  0  0  0  0
    2.6350   70.9550    8.5260 C   0  0  0  0  0
    3.2020   71.9160    9.2960 N   0  0  0  0  0
    4.3120   69.1410    8.9630 N   0  0  0  0  0
    4.3920   67.8730    8.5100 C   0  0  0  0  0
    3.3610   67.6280    7.6950 N   0  0  0  0  0
    1.6660   58.7760    9.7470 C   0  0  0  0  0
    2.4060   59.8390   10.0530 C   0  0  0  0  0
    3.7780   61.6460    8.6530 S   0  0  0  0  0
    2.2250   61.1430    9.3150 C   0  0  0  0  0
    3.0740   66.3360    7.0050 C   0  0  0  0  0
    4.3290   65.6810    6.4570 C   0  0  0  0  0
    4.6130   66.1530    5.1400 O   0  0  0  0  0
    3.9640   64.2100    6.4460 C   0  0  0  0  0
    3.2320   63.9230    5.2530 O   0  0  0  0  0
    2.9980   64.0480    7.6010 C   0  0  0  0  0
    2.5430   65.3720    7.9270 O   0  0  0  0  0
    3.6670   63.4040    8.8100 C   0  0  0  0  0
    0.5945   59.7030    8.2750 H   0  0  0  0  0
    0.0010   70.4829    6.5590 H   0  0  0  0  0
    2.7683   72.8367    9.3643 H   0  0  0  0  0
    4.0623   71.7184    9.8070 H   0  0  0  0  0
    5.1748   67.1597    8.7681 H   0  0  0  0  0
    1.8175   57.8429   10.2897 H   0  0  0  0  0
    3.4238   59.5341    9.8097 H   0  0  0  0  0
    2.1250   60.0727   11.0799 H   0  0  0  0  0
    1.8527   61.9049    9.9999 H   0  0  0  0  0
    1.5056   61.0116    8.5067 H   0  0  0  0  0
    2.3769   66.5908    6.2067 H   0  0  0  0  0
    5.2230   65.8955    7.0425 H   0  0  0  0  0
    5.4088   65.7269    4.8132 H   0  0  0  0  0
    4.8434   63.5691    6.5089 H   0  0  0  0  0
    2.9972   62.9923    5.2391 H   0  0  0  0  0
    2.1738   63.3914    7.3222 H   0  0  0  0  0
    4.6785   63.8022    8.8905 H   0  0  0  0  0
    3.0655   63.6289    9.6907 H   0  0  0  0  0
 12  1  2  0  0  0
  3  2  4  0  0  0
  7  2  4  0  0  0
  4  3  4  0  0  0
  5  4  4  0  0  0
  5  6  4  0  0  0
 11  5  4  0  0  0
  6  7  4  0  0  0
  9  6  4  0  0  0
  7  8  1  0  0  0
 10  9  4  0  0  0
 11 10  4  0  0  0
 16 11  1  0  0  0
 13 12  1  0  0  0
 15 13  1  0  0  0
 14 15  1  0  0  0
 23 14  1  0  0  0
 16 17  1  0  0  0
 22 16  1  0  0  0
 17 18  1  0  0  0
 19 17  1  0  0  0
 19 20  1  0  0  0
 21 19  1  0  0  0
 21 22  1  0  0  0
 21 23  1  0  0  0
  1 24  1  0  0  0
  3 25  1  0  0  0
  8 26  1  0  0  0
  8 27  1  0  0  0
 10 28  1  0  0  0
 12 29  1  0  0  0
 13 30  1  0  0  0
 13 31  1  0  0  0
 15 32  1  0  0  0
 15 33  1  0  0  0
 16 34  1  0  0  0
 17 35  1  0  0  0
 18 36  1  0  0  0
 19 37  1  0  0  0
 20 38  1  0  0  0
 21 39  1  0  0  0
 23 40  1  0  0  0
 23 41  1  0  0  0
M  END
$$$$
