### 
### Created by X-TOOL on Mon Sep 10 21:13:07 2018
### 

@<TRIPOS>MOLECULE
3rw9_ligand
   41    43     1     0     0
SMALL
GAST_HUCK


@<TRIPOS>ATOM
      1 N           0.7430   58.8340    8.7880 N.2       1 DSH        -0.3641
      2 N1          1.4960   71.2080    7.8460 N.ar      1 DSH        -0.2698
      3 C2          0.9260   70.2580    7.0900 C.ar      1 DSH         0.0533
      4 N3          1.4700   69.0360    6.9730 N.ar      1 DSH        -0.2714
      5 C4          2.6110   68.7320    7.6310 C.ar      1 DSH         0.1613
      6 C5          3.2100   69.6980    8.4270 C.ar      1 DSH         0.1045
      7 C6          2.6350   70.9550    8.5260 C.ar      1 DSH         0.1298
      8 N6          3.2020   71.9160    9.2960 N.pl3     1 DSH        -0.3152
      9 N7          4.3120   69.1410    8.9630 N.2       1 DSH        -0.2958
     10 C8          4.3920   67.8730    8.5100 C.2       1 DSH         0.1123
     11 N9          3.3610   67.6280    7.6950 N.pl3     1 DSH        -0.1919
     12 CA          1.6660   58.7760    9.7470 C.2       1 DSH        -0.0039
     13 CB          2.4060   59.8390   10.0530 C.3       1 DSH         0.0156
     14 SD          3.7780   61.6460    8.6530 S.3       1 DSH        -0.1547
     15 CG          2.2250   61.1430    9.3150 C.3       1 DSH         0.0113
     16 C1'         3.0740   66.3360    7.0050 C.3       1 DSH         0.2009
     17 C2'         4.3290   65.6810    6.4570 C.3       1 DSH         0.1385
     18 O2'         4.6130   66.1530    5.1400 O.3       1 DSH        -0.3836
     19 C3'         3.9640   64.2100    6.4460 C.3       1 DSH         0.1132
     20 O3'         3.2320   63.9230    5.2530 O.3       1 DSH        -0.3864
     21 C4'         2.9980   64.0480    7.6010 C.3       1 DSH         0.0996
     22 O4'         2.5430   65.3720    7.9270 O.3       1 DSH        -0.3383
     23 C5'         3.6670   63.4040    8.8100 C.3       1 DSH         0.0229
     24 H           0.5945   59.7030    8.2750 H         1 DSH         0.1053
     25 H           0.0010   70.4829    6.5590 H         1 DSH         0.0996
     26 H           4.0605   71.7173    9.8098 H         1 DSH         0.1820
     27 H           2.7701   72.8377    9.3615 H         1 DSH         0.1820
     28 H           5.1748   67.1597    8.7681 H         1 DSH         0.1349
     29 H           1.8175   57.8429   10.2897 H         1 DSH         0.1201
     30 H           3.4238   59.5341    9.8097 H         1 DSH         0.0551
     31 H           2.1250   60.0727   11.0799 H         1 DSH         0.0551
     32 H           1.8527   61.9049    9.9999 H         1 DSH         0.0412
     33 H           1.5056   61.0116    8.5067 H         1 DSH         0.0412
     34 H           2.3769   66.5908    6.2067 H         1 DSH         0.0996
     35 H           5.2230   65.8955    7.0425 H         1 DSH         0.0676
     36 H           3.8762   65.9447    4.5608 H         1 DSH         0.2101
     37 H           4.8434   63.5691    6.5089 H         1 DSH         0.0647
     38 H           2.4338   64.4559    5.2327 H         1 DSH         0.2100
     39 H           2.1738   63.3914    7.3222 H         1 DSH         0.0632
     40 H           4.6785   63.8022    8.8905 H         1 DSH         0.0402
     41 H           3.0655   63.6289    9.6907 H         1 DSH         0.0402
@<TRIPOS>BOND
     1   12    1 2  
     2    3    2 ar 
     3    7    2 ar 
     4    4    3 ar 
     5    5    4 ar 
     6    5    6 ar 
     7   11    5 1  
     8    6    7 ar 
     9    9    6 1  
    10    7    8 1  
    11   10    9 2  
    12   11   10 1  
    13   16   11 1  
    14   13   12 1  
    15   15   13 1  
    16   14   15 1  
    17   23   14 1  
    18   16   17 1  
    19   22   16 1  
    20   17   18 1  
    21   19   17 1  
    22   19   20 1  
    23   21   19 1  
    24   21   22 1  
    25   21   23 1  
    26    1   24 1  
    27    3   25 1  
    28    8   26 1  
    29    8   27 1  
    30   10   28 1  
    31   12   29 1  
    32   13   30 1  
    33   13   31 1  
    34   15   32 1  
    35   15   33 1  
    36   16   34 1  
    37   17   35 1  
    38   18   36 1  
    39   19   37 1  
    40   20   38 1  
    41   21   39 1  
    42   23   40 1  
    43   23   41 1  
@<TRIPOS>SUBSTRUCTURE
     1 DSH         1

