### 
### Created by X-TOOL on Mon Sep 10 21:13:24 2018
### 

@<TRIPOS>MOLECULE
4rxe_ligand
   25    25     1     0     0
SMALL
GAST_HUCK


@<TRIPOS>ATOM
      1 O5         24.9500  -15.2420    8.1070 O.co2     1 3YQ        -0.5598
      2 P1         25.9680  -14.1380    7.9940 P.3       1 3YQ         0.1023
      3 O6         25.4830  -12.7100    7.9320 O.co2     1 3YQ        -0.5598
      4 O2         27.2950  -14.4280    7.4660 O.co2     1 3YQ        -0.5598
      5 C6         26.5370  -13.9850    9.7700 C.3       1 3YQ         0.1775
      6 P2         25.1500  -13.7220   10.9700 P.3       1 3YQ         0.1023
      7 O3         24.5430  -12.5070   10.4510 O.co2     1 3YQ        -0.5598
      8 O1         25.8050  -13.4950   12.2560 O.co2     1 3YQ        -0.5598
      9 O4         24.2730  -14.9790   10.7380 O.co2     1 3YQ        -0.5598
     10 N1         27.1520  -15.2050   10.0890 N.pl3     1 3YQ        -0.2800
     11 C1         28.0710  -15.3190   11.0660 C.ar      1 3YQ         0.1159
     12 N2         28.2280  -14.3700   12.0140 N.ar      1 3YQ        -0.2935
     13 C5         29.1410  -14.5050   13.0510 C.ar      1 3YQ        -0.0120
     14 C4         29.9050  -15.6420   13.0950 C.ar      1 3YQ        -0.0554
     15 C3         29.7630  -16.6090   12.1270 C.ar      1 3YQ        -0.0528
     16 C2         28.8440  -16.4870   11.0990 C.ar      1 3YQ         0.0005
     17 C7         28.7560  -17.5550   10.1330 C.3       1 3YQ        -0.0283
     18 H1         27.2529  -13.1543    9.8564 H         1 3YQ         0.0944
     19 H2         26.8902  -16.0460    9.5550 H         1 3YQ         0.1812
     20 H3         29.2467  -13.7330   13.8046 H         1 3YQ         0.0717
     21 H4         30.6234  -15.7797   13.8950 H         1 3YQ         0.0578
     22 H5         30.3893  -17.4927   12.1705 H         1 3YQ         0.0631
     23 H6         27.9863  -17.3111    9.3859 H         1 3YQ         0.0380
     24 H7         28.4869  -18.4909   10.6445 H         1 3YQ         0.0380
     25 H8         29.7276  -17.6772    9.6320 H         1 3YQ         0.0380
@<TRIPOS>BOND
     1    1    2 ar 
     2    2    3 ar 
     3    2    4 ar 
     4    2    5 1  
     5    5    6 1  
     6    5   10 1  
     7    6    7 ar 
     8    6    8 ar 
     9    6    9 ar 
    10   10   11 1  
    11   11   12 ar 
    12   11   16 ar 
    13   12   13 ar 
    14   13   14 ar 
    15   14   15 ar 
    16   15   16 ar 
    17   16   17 1  
    18    5   18 1  
    19   10   19 1  
    20   13   20 1  
    21   14   21 1  
    22   15   22 1  
    23   17   23 1  
    24   17   24 1  
    25   17   25 1  
@<TRIPOS>SUBSTRUCTURE
     1 3YQ         1

