4rxe_ligand
  -I-interpret- 

 29 29  0  0  0  0  0  0  0  0999 V2000
   24.9500  -15.2420    8.1070 O   0  0  0  0  0
   25.9680  -14.1380    7.9940 P   0  0  0  0  0
   25.4830  -12.7100    7.9320 O   0  0  0  0  0
   27.2950  -14.4280    7.4660 O   0  0  0  0  0
   26.5370  -13.9850    9.7700 C   0  0  0  0  0
   25.1500  -13.7220   10.9700 P   0  0  0  0  0
   24.5430  -12.5070   10.4510 O   0  0  0  0  0
   25.8050  -13.4950   12.2560 O   0  0  0  0  0
   24.2730  -14.9790   10.7380 O   0  0  0  0  0
   27.1520  -15.2050   10.0890 N   0  0  0  0  0
   28.0710  -15.3190   11.0660 C   0  0  0  0  0
   28.2280  -14.3700   12.0140 N   0  0  0  0  0
   29.1410  -14.5050   13.0510 C   0  0  0  0  0
   29.9050  -15.6420   13.0950 C   0  0  0  0  0
   29.7630  -16.6090   12.1270 C   0  0  0  0  0
   28.8440  -16.4870   11.0990 C   0  0  0  0  0
   28.7560  -17.5550   10.1330 C   0  0  0  0  0
   24.1348  -14.8881    8.4701 H   0  0  0  0  0
   24.6019  -12.6558    8.3093 H   0  0  0  0  0
   27.1942  -13.1191    9.8493 H   0  0  0  0  0
   26.1927  -14.3168   12.5659 H   0  0  0  0  0
   24.7184  -15.7495   11.0980 H   0  0  0  0  0
   26.8927  -16.0378    9.5602 H   0  0  0  0  0
   29.2472  -13.7287   13.8088 H   0  0  0  0  0
   30.6273  -15.7804   13.8995 H   0  0  0  0  0
   30.3928  -17.4976   12.1707 H   0  0  0  0  0
   27.7452  -17.9628   10.1353 H   0  0  0  0  0
   28.9903  -17.1669    9.1418 H   0  0  0  0  0
   29.4662  -18.3393   10.3947 H   0  0  0  0  0
  1  2  1  0  0  0
  2  3  1  0  0  0
  2  4  2  0  0  0
  2  5  1  0  0  0
  5  6  1  0  0  0
  5 10  1  0  0  0
  6  7  2  0  0  0
  6  8  1  0  0  0
  6  9  1  0  0  0
 10 11  1  0  0  0
 11 12  4  0  0  0
 11 16  4  0  0  0
 12 13  4  0  0  0
 13 14  4  0  0  0
 14 15  4  0  0  0
 15 16  4  0  0  0
 16 17  1  0  0  0
  1 18  1  0  0  0
  3 19  1  0  0  0
  5 20  1  0  0  0
  8 21  1  0  0  0
  9 22  1  0  0  0
 10 23  1  0  0  0
 13 24  1  0  0  0
 14 25  1  0  0  0
 15 26  1  0  0  0
 17 27  1  0  0  0
 17 28  1  0  0  0
 17 29  1  0  0  0
M  END
$$$$
