4mcv_ligand
  -I-interpret- 

 63 68  0  0  0  0  0  0  0  0999 V2000
   86.4200   71.3170  -40.8320 C   0  0  0  0  0
   88.7380   72.6710  -39.8120 C   0  0  0  0  0
   90.3430   71.4440  -40.9530 C   0  0  0  0  0
   92.4240   72.5160  -40.1600 C   0  0  0  0  0
   91.1060   70.5680  -41.7470 C   0  0  0  0  0
   90.3620   74.2620  -38.5440 C   0  0  0  0  0
   91.6900   73.7500  -36.3570 C   0  0  0  0  0
   85.6110   74.1010  -38.4050 C   0  0  0  0  0
   84.1520   70.4740  -41.4180 O   0  0  0  0  0
   85.4330   70.4340  -41.5280 C   0  0  0  0  0
   86.1700   69.5150  -42.3520 N   0  0  0  0  0
   87.5630   69.7990  -42.2070 C   0  0  0  0  0
   87.9500   70.1570  -43.6440 C   0  0  0  0  0
   88.9990   69.3530  -44.3680 C   0  0  0  0  0
   89.4340   69.9700  -45.6240 C   0  0  0  0  0
   88.6480   67.8510  -44.5350 C   0  0  0  0  0
   87.7010   70.9260  -41.2400 C   0  0  0  0  0
   86.2640   72.4400  -39.8640 C   0  0  0  0  0
   87.3980   73.0910  -39.3750 C   0  0  0  0  0
   88.8830   71.6200  -40.7180 C   0  0  0  0  0
   90.9980   72.4260  -40.1540 C   0  0  0  0  0
   93.1700   71.6480  -40.9450 C   0  0  0  0  0
   92.5010   70.6560  -41.7540 C   0  0  0  0  0
   90.0480   73.1470  -39.4850 N   0  0  0  0  0
   90.3360   73.9130  -37.0700 C   0  0  0  0  0
   92.3490   72.4040  -36.4420 C   0  0  0  0  0
   93.3300   72.0770  -35.4560 N   0  3  0  0  0
   86.9910   74.0820  -38.5030 N   0  0  0  0  0
   84.7290   74.9190  -37.6550 C   0  0  0  0  0
   83.3180   74.7170  -37.7460 C   0  0  0  0  0
   82.8070   73.7060  -38.5790 C   0  0  0  0  0
   83.6770   72.9020  -39.3170 C   0  0  0  0  0
   85.1040   73.1010  -39.2300 C   0  0  0  0  0
   92.9256   73.2659  -39.5484 H   0  0  0  0  0
   90.6068   69.8172  -42.3595 H   0  0  0  0  0
   89.5895   75.0163  -38.6940 H   0  0  0  0  0
   91.3825   74.5732  -38.7673 H   0  0  0  0  0
   91.4902   73.9166  -35.2985 H   0  0  0  0  0
   92.3703   74.4453  -36.8488 H   0  0  0  0  0
   85.7674   68.7850  -42.9397 H   0  0  0  0  0
   88.1959   69.0038  -41.8130 H   0  0  0  0  0
   88.3784   71.1565  -43.5686 H   0  0  0  0  0
   87.0385   69.9940  -44.2190 H   0  0  0  0  0
   89.8607   69.3717  -43.7008 H   0  0  0  0  0
   88.5787   70.0738  -46.2917 H   0  0  0  0  0
   89.8564   70.9533  -45.4171 H   0  0  0  0  0
   90.1893   69.3403  -46.0942 H   0  0  0  0  0
   88.5194   67.3978  -43.5521 H   0  0  0  0  0
   87.7231   67.7564  -45.1040 H   0  0  0  0  0
   89.4558   67.3473  -45.0659 H   0  0  0  0  0
   94.2579   71.7148  -40.9510 H   0  0  0  0  0
   93.0855   69.9741  -42.3717 H   0  0  0  0  0
   89.8510   72.9389  -37.0068 H   0  0  0  0  0
   89.8433   74.7514  -36.5777 H   0  0  0  0  0
   92.8814   72.4011  -37.3931 H   0  0  0  0  0
   91.5468   71.6790  -36.3048 H   0  0  0  0  0
   93.6910   71.1400  -35.6350 H   0  0  0  0  0
   94.0939   72.7514  -35.5014 H   0  0  0  0  0
   92.9029   72.1070  -34.5302 H   0  0  0  0  0
   85.1274   75.7016  -37.0093 H   0  0  0  0  0
   82.6384   75.3456  -37.1706 H   0  0  0  0  0
   81.7305   73.5500  -38.6484 H   0  0  0  0  0
   83.2769   72.1199  -39.9623 H   0  0  0  0  0
  1 10  1  0  0  0
  1 17  4  0  0  0
 18  1  4  0  0  0
 19  2  4  0  0  0
  2 20  4  0  0  0
  2 24  4  0  0  0
  3  5  4  0  0  0
 20  3  4  0  0  0
  3 21  4  0  0  0
 21  4  4  0  0  0
  4 22  4  0  0  0
  5 23  4  0  0  0
 24  6  1  0  0  0
  6 25  1  0  0  0
 25  7  1  0  0  0
  7 26  1  0  0  0
  8 28  4  0  0  0
  8 29  4  0  0  0
 33  8  4  0  0  0
 10  9  2  0  0  0
 10 11  1  0  0  0
 12 11  1  0  0  0
 12 13  1  0  0  0
 17 12  1  0  0  0
 13 14  1  0  0  0
 14 15  1  0  0  0
 14 16  1  0  0  0
 17 20  4  0  0  0
 18 19  4  0  0  0
 18 33  4  0  0  0
 19 28  4  0  0  0
 21 24  4  0  0  0
 22 23  4  0  0  0
 26 27  1  0  0  0
 29 30  4  0  0  0
 30 31  4  0  0  0
 31 32  4  0  0  0
 32 33  4  0  0  0
  4 34  1  0  0  0
  5 35  1  0  0  0
  6 36  1  0  0  0
  6 37  1  0  0  0
  7 38  1  0  0  0
  7 39  1  0  0  0
 11 40  1  0  0  0
 12 41  1  0  0  0
 13 42  1  0  0  0
 13 43  1  0  0  0
 14 44  1  0  0  0
 15 45  1  0  0  0
 15 46  1  0  0  0
 15 47  1  0  0  0
 16 48  1  0  0  0
 16 49  1  0  0  0
 16 50  1  0  0  0
 22 51  1  0  0  0
 23 52  1  0  0  0
 25 53  1  0  0  0
 25 54  1  0  0  0
 26 55  1  0  0  0
 26 56  1  0  0  0
 27 57  1  0  0  0
 27 58  1  0  0  0
 27 59  1  0  0  0
 29 60  1  0  0  0
 30 61  1  0  0  0
 31 62  1  0  0  0
 32 63  1  0  0  0
M  END
$$$$
