3rpy_ligand
  -I-interpret- 

 31 32  0  0  0  0  0  0  0  0999 V2000
   94.8100   79.4090  -50.3500 C   0  0  0  0  0
   92.0210   81.7540  -51.1040 N   0  0  0  0  0
   85.9700   80.6000  -45.1070 O   0  0  0  0  0
   92.7240   80.6410  -48.8960 S   0  0  0  0  0
   93.5940   80.9370  -52.6470 N   0  0  0  0  0
   86.5650   83.0100  -44.1800 O   0  0  0  0  0
   87.1590   81.5620  -44.6400 S   0  0  0  0  0
   90.6290   82.3810  -49.3290 N   0  0  0  0  0
   87.9220   80.8690  -43.4730 N   0  0  0  0  0
   93.6250   80.3140  -50.3160 C   0  0  0  0  0
   93.1030   80.9970  -51.3970 C   0  0  0  0  0
   91.6990   81.6690  -49.8140 C   0  0  0  0  0
   89.8510   82.1390  -48.2220 C   0  0  0  0  0
   90.0270   80.9680  -47.2870 C   0  0  0  0  0
   89.1820   80.7890  -46.1620 C   0  0  0  0  0
   88.1210   81.7600  -45.9030 C   0  0  0  0  0
   87.9320   82.9100  -46.7980 C   0  0  0  0  0
   88.7780   83.0970  -47.9370 C   0  0  0  0  0
   95.4340   79.2110  -51.4000 O   0  0  0  0  0
   95.1510   78.8240  -49.2010 N   0  0  0  0  0
   93.1495   81.4685  -53.3956 H   0  0  0  0  0
   94.4110   80.3600  -52.8469 H   0  0  0  0  0
   90.3752   83.2088  -49.8682 H   0  0  0  0  0
   87.6237   79.9513  -43.1425 H   0  0  0  0  0
   88.7201   81.3327  -43.0390 H   0  0  0  0  0
   90.8195   80.2450  -47.4800 H   0  0  0  0  0
   89.3225   79.9363  -45.4977 H   0  0  0  0  0
   87.1387   83.6286  -46.5921 H   0  0  0  0  0
   88.6245   83.9531  -48.5939 H   0  0  0  0  0
   95.9494   78.1900  -49.1688 H   0  0  0  0  0
   94.6134   79.0106  -48.3545 H   0  0  0  0  0
 10  1  1  0  0  0
  1 19  2  0  0  0
  1 20  1  0  0  0
  2 11  4  0  0  0
 12  2  4  0  0  0
  7  3  2  0  0  0
  4 10  4  0  0  0
 12  4  4  0  0  0
 11  5  1  0  0  0
  7  6  2  0  0  0
  7  9  1  0  0  0
 16  7  1  0  0  0
  8 12  1  0  0  0
 13  8  1  0  0  0
 10 11  4  0  0  0
 14 13  4  0  0  0
 13 18  4  0  0  0
 15 14  4  0  0  0
 15 16  4  0  0  0
 16 17  4  0  0  0
 17 18  4  0  0  0
  5 21  1  0  0  0
  5 22  1  0  0  0
  8 23  1  0  0  0
  9 24  1  0  0  0
  9 25  1  0  0  0
 14 26  1  0  0  0
 15 27  1  0  0  0
 17 28  1  0  0  0
 18 29  1  0  0  0
 20 30  1  0  0  0
 20 31  1  0  0  0
M  END
$$$$
