5nw0_ligand
  -I-interpret- 

 76 79  0  0  0  0  0  0  0  0999 V2000
    8.2580   53.5360   97.3110 C   0  0  0  0  0
    9.4000   54.5570   97.3220 C   0  0  0  0  0
   10.4130   54.3440   97.9790 O   0  0  0  0  0
    9.2220   55.6480   96.5500 N   0  0  0  0  0
   10.2480   56.6950   96.4490 C   0  0  0  0  0
   10.3470   57.5580   97.6840 C   0  0  0  0  0
    9.8080   58.1430   96.3950 C   0  0  0  0  0
   11.5720   56.2810   95.7390 C   0  0  0  0  0
   12.5720   56.9820   95.8650 O   0  0  0  0  0
   11.5410   55.1230   95.0560 N   0  0  0  0  0
   12.6740   54.5390   94.3170 C   0  0  0  0  0
   12.9430   53.0950   94.8450 C   0  0  0  0  0
   13.9730   52.3430   93.9840 C   0  0  0  0  0
   11.6440   52.2560   94.9030 C   0  0  0  0  0
   13.5240   53.1850   96.2690 C   0  0  0  0  0
   12.3050   54.5750   92.7870 C   0  0  0  0  0
   11.1590   54.3130   92.4280 O   0  0  0  0  0
   13.2720   54.9020   91.8900 N   0  0  0  0  0
   14.7140   55.2890   92.1140 C   0  0  0  0  0
   15.1190   56.0750   90.8690 C   0  0  0  0  0
   14.7650   57.4520   91.0260 O   0  0  0  0  0
   14.3050   55.4570   89.7580 C   0  0  0  0  0
   12.9800   55.0020   90.4080 C   0  0  0  0  0
   12.5790   53.7900   89.8090 C   0  0  0  0  0
   13.0250   52.7200   90.2040 O   0  0  0  0  0
   11.7480   53.9070   88.7420 N   0  0  0  0  0
   11.2720   52.7650   87.9260 C   0  0  0  0  0
   12.0700   52.5650   86.7520 C   0  0  0  0  0
   12.0480   51.3320   86.0960 C   0  0  0  0  0
   12.8150   51.1080   84.9470 C   0  0  0  0  0
   12.8880   53.5640   86.2170 C   0  0  0  0  0
   13.6610   53.3370   85.0640 C   0  0  0  0  0
   13.6310   52.1140   84.4040 C   0  0  0  0  0
   14.3790   51.9190   83.2950 C   0  0  0  0  0
   15.9930   52.4280   83.0800 S   0  0  0  0  0
   16.1430   51.8100   81.5430 C   0  0  0  0  0
   14.9850   51.2370   81.2050 N   0  0  0  0  0
   14.0220   51.2950   82.1510 C   0  0  0  0  0
   12.6450   50.6630   81.8700 C   0  0  0  0  0
    8.6257   52.5857   96.9240 H   0  0  0  0  0
    7.8868   53.3971   98.3264 H   0  0  0  0  0
    7.4518   53.9013   96.6748 H   0  0  0  0  0
    8.3543   55.7490   96.0234 H   0  0  0  0  0
   11.0818   57.8071   98.4496 H   0  0  0  0  0
   10.0715   57.5109   98.7376 H   0  0  0  0  0
    8.9528   58.7271   96.0551 H   0  0  0  0  0
    9.9586   59.0221   95.7684 H   0  0  0  0  0
   10.6613   54.6068   95.0490 H   0  0  0  0  0
   13.5966   55.1006   94.4636 H   0  0  0  0  0
   13.6033   52.2666   92.9614 H   0  0  0  0  0
   14.9171   52.8877   93.9907 H   0  0  0  0  0
   14.1256   51.3439   94.3921 H   0  0  0  0  0
   10.9306   52.7389   95.5708 H   0  0  0  0  0
   11.2156   52.1824   93.9034 H   0  0  0  0  0
   11.8740   51.2578   95.2755 H   0  0  0  0  0
   14.4565   53.7489   96.2446 H   0  0  0  0  0
   12.8099   53.6892   96.9202 H   0  0  0  0  0
   13.7152   52.1804   96.6462 H   0  0  0  0  0
   15.3464   54.4131   92.2585 H   0  0  0  0  0
   14.8336   55.8833   93.0199 H   0  0  0  0  0
   16.1911   56.0357   90.6763 H   0  0  0  0  0
   15.0226   57.9391   90.2399 H   0  0  0  0  0
   14.8306   54.6183   89.3015 H   0  0  0  0  0
   14.1268   56.1706   88.9536 H   0  0  0  0  0
   12.1459   55.6886   90.2629 H   0  0  0  0  0
   11.4305   54.8417   88.4851 H   0  0  0  0  0
   10.2513   52.9784   87.6087 H   0  0  0  0  0
   11.3359   51.8638   88.5358 H   0  0  0  0  0
   11.4220   50.5295   86.4862 H   0  0  0  0  0
   12.7783   50.1320   84.4632 H   0  0  0  0  0
   12.9277   54.5388   86.7031 H   0  0  0  0  0
   14.2959   54.1357   84.6806 H   0  0  0  0  0
   17.0345   51.8636   80.9182 H   0  0  0  0  0
   12.4487   49.8816   82.6041 H   0  0  0  0  0
   11.8737   51.4301   81.9389 H   0  0  0  0  0
   12.6420   50.2318   80.8689 H   0  0  0  0  0
  1  2  1  0  0  0
  2  3  2  0  0  0
  2  4  1  0  0  0
  4  5  1  0  0  0
  5  6  1  0  0  0
  5  7  1  0  0  0
  5  8  1  0  0  0
  6  7  1  0  0  0
  8  9  2  0  0  0
  8 10  1  0  0  0
 10 11  1  0  0  0
 11 12  1  0  0  0
 11 16  1  0  0  0
 12 13  1  0  0  0
 12 14  1  0  0  0
 12 15  1  0  0  0
 16 17  2  0  0  0
 16 18  1  0  0  0
 18 19  1  0  0  0
 18 23  1  0  0  0
 19 20  1  0  0  0
 20 21  1  0  0  0
 20 22  1  0  0  0
 22 23  1  0  0  0
 23 24  1  0  0  0
 24 25  2  0  0  0
 24 26  1  0  0  0
 26 27  1  0  0  0
 27 28  1  0  0  0
 28 29  4  0  0  0
 28 31  4  0  0  0
 29 30  4  0  0  0
 30 33  4  0  0  0
 31 32  4  0  0  0
 32 33  4  0  0  0
 33 34  1  0  0  0
 34 35  4  0  0  0
 34 38  4  0  0  0
 35 36  4  0  0  0
 36 37  4  0  0  0
 37 38  4  0  0  0
 38 39  1  0  0  0
  1 40  1  0  0  0
  1 41  1  0  0  0
  1 42  1  0  0  0
  4 43  1  0  0  0
  6 44  1  0  0  0
  6 45  1  0  0  0
  7 46  1  0  0  0
  7 47  1  0  0  0
 10 48  1  0  0  0
 11 49  1  0  0  0
 13 50  1  0  0  0
 13 51  1  0  0  0
 13 52  1  0  0  0
 14 53  1  0  0  0
 14 54  1  0  0  0
 14 55  1  0  0  0
 15 56  1  0  0  0
 15 57  1  0  0  0
 15 58  1  0  0  0
 19 59  1  0  0  0
 19 60  1  0  0  0
 20 61  1  0  0  0
 21 62  1  0  0  0
 22 63  1  0  0  0
 22 64  1  0  0  0
 23 65  1  0  0  0
 26 66  1  0  0  0
 27 67  1  0  0  0
 27 68  1  0  0  0
 29 69  1  0  0  0
 30 70  1  0  0  0
 31 71  1  0  0  0
 32 72  1  0  0  0
 36 73  1  0  0  0
 39 74  1  0  0  0
 39 75  1  0  0  0
 39 76  1  0  0  0
M  END
$$$$
