### 
### Created by X-TOOL on Mon Sep 10 21:13:27 2018
### 

@<TRIPOS>MOLECULE
5hed_ligand
  134   135     1     0     0
SMALL
GAST_HUCK


@<TRIPOS>ATOM
      1 N          37.2300   41.1300   25.7420 N.4       1 LYS         0.2377
      2 CA         37.2880   42.1550   26.7320 C.3       1 LYS         0.0621
      3 C          36.3890   43.2390   26.2350 C.2       1 LYS         0.2265
      4 O          36.0980   44.1390   26.9630 O.2       1 LYS        -0.3907
      5 CB         38.6930   42.7590   26.8550 C.3       1 LYS        -0.0040
      6 N          35.9910   43.1680   24.9800 N.am      1 ASN        -0.2589
      7 CA         35.1730   44.2370   24.3800 C.3       1 ASN         0.1477
      8 C          35.9530   45.5550   24.2530 C.2       1 ASN         0.2064
      9 O          35.3620   46.5690   24.0590 O.2       1 ASN        -0.3942
     10 CB         33.9000   44.5030   25.1640 C.3       1 ASN         0.0773
     11 CG         32.9470   45.4170   24.4460 C.2       1 ASN         0.1780
     12 OD1        32.4870   46.3890   24.9870 O.2       1 ASN        -0.3970
     13 ND2        32.5970   45.0610   23.2310 N.am      1 ASN        -0.3007
     14 N          37.2690   45.4930   24.3820 N.am      1 TYR        -0.2620
     15 CA         38.1230   46.6860   24.4040 C.3       1 TYR         0.1390
     16 C          37.9640   47.6180   23.1960 C.2       1 TYR         0.2057
     17 O          37.9150   47.1730   22.0500 O.2       1 TYR        -0.3942
     18 CB         39.5800   46.2590   24.5060 C.3       1 TYR         0.0163
     19 CG         40.5630   47.3270   24.0990 C.ar      1 TYR        -0.0493
     20 CD1        40.8750   48.3650   24.9670 C.ar      1 TYR        -0.0685
     21 CD2        41.1870   47.2890   22.8680 C.ar      1 TYR        -0.0685
     22 CE1        41.7770   49.3380   24.6160 C.ar      1 TYR        -0.0398
     23 CE2        42.0920   48.2600   22.5030 C.ar      1 TYR        -0.0398
     24 CZ         42.3890   49.2750   23.3890 C.ar      1 TYR         0.0805
     25 OH         43.2810   50.2390   23.0640 O.3       1 TYR        -0.3376
     26 N          37.9050   48.9180   23.4800 N.am      1 LYS        -0.2636
     27 CA         37.9160   49.9580   22.4510 C.3       1 LYS         0.1310
     28 C          38.5230   51.2420   23.0030 C.2       1 LYS         0.2039
     29 O          38.3820   51.5410   24.1970 O.2       1 LYS        -0.3944
     30 CB         36.4990   50.2410   21.9390 C.3       1 LYS        -0.0122
     31 CG         36.0190   49.3230   20.8150 C.3       1 LYS        -0.0440
     32 CD         36.7820   49.5680   19.5090 C.3       1 LYS        -0.0124
     33 CE         36.4300   50.8970   18.8620 C.3       1 LYS        -0.0354
     34 NZ         37.5960   51.4360   18.1100 N.4       1 LYS         0.2185
     35 N          39.1940   51.9990   22.1350 N.am      1 GLN        -0.2636
     36 CA         39.6450   53.3410   22.4810 C.3       1 GLN         0.1330
     37 C          38.9040   54.3750   21.6780 C.2       1 GLN         0.2042
     38 O          38.5330   54.1380   20.5290 O.2       1 GLN        -0.3944
     39 CB         41.1290   53.5350   22.2150 C.3       1 GLN         0.0045
     40 CG         42.0220   52.6320   22.9710 C.3       1 GLN         0.0412
     41 CD         43.1240   53.3810   23.7020 C.2       1 GLN         0.1737
     42 OE1        43.0410   54.5910   23.9320 O.2       1 GLN        -0.3973
     43 NE2        44.1690   52.6610   24.0590 N.am      1 GLN        -0.3009
     44 N          38.7240   55.5380   22.2820 N.am      1 PHE        -0.2619
     45 CA         38.1990   56.6930   21.5530 C.3       1 PHE         0.1404
     46 C          38.9130   57.9690   21.9470 C.2       1 PHE         0.2060
     47 O          39.1890   58.1720   23.1160 O.2       1 PHE        -0.3942
     48 CB         36.7160   56.9100   21.8210 C.3       1 PHE         0.0214
     49 CG         35.8420   55.7960   21.3480 C.ar      1 PHE        -0.0386
     50 CD1        35.3380   55.8100   20.0640 C.ar      1 PHE        -0.0601
     51 CD2        35.5120   54.7500   22.1930 C.ar      1 PHE        -0.0601
     52 CE1        34.5050   54.7670   19.6210 C.ar      1 PHE        -0.0686
     53 CE2        34.6970   53.7160   21.7560 C.ar      1 PHE        -0.0686
     54 CZ         34.1960   53.7300   20.4740 C.ar      1 PHE        -0.0687
     55 N          39.1180   58.8510   20.9740 N.am      1 SER        -0.2614
     56 CA         39.6280   60.1930   21.2350 C.3       1 SER         0.1539
     57 C          38.4460   61.1170   21.4080 C.2       1 SER         0.2056
     58 O          37.4890   61.0590   20.6200 O.2       1 SER        -0.3943
     59 CB         40.5000   60.7050   20.0840 C.3       1 SER         0.0843
     60 OG         41.6420   59.9020   19.9000 O.3       1 SER        -0.3903
     61 N          38.5160   62.0010   22.3970 N.am      1 VAL        -0.2692
     62 CA         37.4270   62.9190   22.6580 C.3       1 VAL         0.0967
     63 C          38.0060   64.3160   22.8120 C.2       1 VAL         0.0603
     64 O          37.2510   65.2870   22.8310 O.co2     1 VAL        -0.5666
     65 CB         36.6140   62.5080   23.9000 C.3       1 VAL        -0.0118
     66 CG1        35.9960   61.1210   23.7100 C.3       1 VAL        -0.0590
     67 CG2        37.4990   62.5220   25.1300 C.3       1 VAL        -0.0590
     68 OXT        39.2290   64.4730   22.8960 O.co2     1 VAL        -0.5666
     69 H1         37.8205   40.3615   26.0191 H         1 LYS         0.2015
     70 H2         37.5487   41.4972   24.8590 H         1 LYS         0.2015
     71 H3         36.2799   40.8068   25.6482 H         1 LYS         0.2015
     72 H4         36.9544   41.7686   27.7064 H         1 LYS         0.1095
     73 H5         38.6891   43.5421   27.6275 H         1 LYS         0.0310
     74 H6         38.9896   43.1969   25.8905 H         1 LYS         0.0310
     75 H7         39.4076   41.9711   27.1352 H         1 LYS         0.0310
     76 H8         36.2484   42.3760   24.4264 H         1 ASN         0.1886
     77 H9         34.8893   43.9070   23.3697 H         1 ASN         0.0826
     78 H10        34.1705   44.9642   26.1253 H         1 ASN         0.0551
     79 H11        33.3943   43.5435   25.3470 H         1 ASN         0.0551
     80 H12        31.9653   45.6308   22.7055 H         1 ASN         0.1814
     81 H13        32.9623   44.2201   22.8316 H         1 ASN         0.1814
     82 H14        37.6996   44.5946   24.4682 H         1 TYR         0.1885
     83 H15        37.8613   47.2622   25.3037 H         1 TYR         0.0821
     84 H16        39.7304   45.3848   23.8555 H         1 TYR         0.0453
     85 H17        39.7860   45.9793   25.5497 H         1 TYR         0.0453
     86 H18        40.3976   48.4075   25.9393 H         1 TYR         0.0530
     87 H19        40.9611   46.4831   22.1791 H         1 TYR         0.0530
     88 H20        42.0037   50.1475   25.3004 H         1 TYR         0.0525
     89 H21        42.5666   48.2274   21.5290 H         1 TYR         0.0525
     90 H22        44.1257   49.8412   22.8887 H         1 TYR         0.2458
     91 H23        37.8508   49.1955   24.4392 H         1 LYS         0.1883
     92 H24        38.5311   49.6087   21.6086 H         1 LYS         0.0800
     93 H25        36.4713   51.2763   21.5683 H         1 LYS         0.0312
     94 H26        35.8039   50.1356   22.7850 H         1 LYS         0.0312
     95 H27        34.9483   49.5052   20.6404 H         1 LYS         0.0269
     96 H28        36.1677   48.2774   21.1224 H         1 LYS         0.0269
     97 H29        36.5407   48.7590   18.8038 H         1 LYS         0.0317
     98 H30        37.8606   49.5569   19.7247 H         1 LYS         0.0317
     99 H31        36.1404   51.6147   19.6437 H         1 LYS         0.0813
    100 H32        35.5886   50.7505   18.1687 H         1 LYS         0.0813
    101 H33        37.3456   52.3164   17.6878 H         1 LYS         0.1994
    102 H34        37.8632   50.7824   17.3907 H         1 LYS         0.1994
    103 H35        38.3688   51.5743   18.7422 H         1 LYS         0.1994
    104 H36        39.3928   51.6373   21.2242 H         1 GLN         0.1883
    105 H37        39.4500   53.5053   23.5510 H         1 GLN         0.0801
    106 H38        41.3901   54.5710   22.4768 H         1 GLN         0.0337
    107 H39        41.3076   53.3718   21.1419 H         1 GLN         0.0337
    108 H40        42.4838   51.9229   22.2682 H         1 GLN         0.0504
    109 H41        41.4221   52.0790   23.7087 H         1 GLN         0.0504
    110 H42        44.9306   53.0912   24.5436 H         1 GLN         0.1814
    111 H43        44.2001   51.6846   23.8452 H         1 GLN         0.1814
    112 H44        38.9502   55.6293   23.2518 H         1 PHE         0.1885
    113 H45        38.3464   56.5152   20.4775 H         1 PHE         0.0823
    114 H46        36.4044   57.8337   21.3115 H         1 PHE         0.0474
    115 H47        36.5740   57.0237   22.9058 H         1 PHE         0.0474
    116 H48        35.5845   56.6266   19.3951 H         1 PHE         0.0557
    117 H49        35.8947   54.7389   23.2071 H         1 PHE         0.0557
    118 H50        34.1077   54.7789   18.6125 H         1 PHE         0.0599
    119 H51        34.4548   52.8973   22.4239 H         1 PHE         0.0599
    120 H52        33.5567   52.9231   20.1346 H         1 PHE         0.0559
    121 H53        38.9159   58.5859   20.0312 H         1 SER         0.1884
    122 H54        40.2264   60.1789   22.1579 H         1 SER         0.0823
    123 H55        40.8195   61.7333   20.3087 H         1 SER         0.0606
    124 H56        39.9071   60.6994   19.1575 H         1 SER         0.0606
    125 H57        42.1621   59.9061   20.6950 H         1 SER         0.2097
    126 H58        39.3344   62.0331   22.9708 H         1 VAL         0.1875
    127 H59        36.7489   62.9127   21.7919 H         1 VAL         0.0729
    128 H60        35.8017   63.2358   24.0428 H         1 VAL         0.0336
    129 H61        35.4214   60.8495   24.6078 H         1 VAL         0.0234
    130 H62        36.7951   60.3824   23.5489 H         1 VAL         0.0234
    131 H63        35.3272   61.1340   22.8368 H         1 VAL         0.0234
    132 H64        37.9367   63.5233   25.2554 H         1 VAL         0.0234
    133 H65        38.3043   61.7822   25.0108 H         1 VAL         0.0234
    134 H66        36.8985   62.2707   26.0167 H         1 VAL         0.0234
@<TRIPOS>BOND
     1    1    2 1  
     2    2    3 1  
     3    2    5 1  
     4    3    4 2  
     5    3    6 am 
     6    6    7 1  
     7    7    8 1  
     8    7   10 1  
     9    8    9 2  
    10    8   14 am 
    11   10   11 1  
    12   11   12 2  
    13   11   13 am 
    14   14   15 1  
    15   15   16 1  
    16   15   18 1  
    17   16   17 2  
    18   16   26 am 
    19   18   19 1  
    20   19   20 ar 
    21   19   21 ar 
    22   20   22 ar 
    23   21   23 ar 
    24   22   24 ar 
    25   23   24 ar 
    26   24   25 1  
    27   26   27 1  
    28   27   28 1  
    29   27   30 1  
    30   28   29 2  
    31   28   35 am 
    32   30   31 1  
    33   31   32 1  
    34   32   33 1  
    35   33   34 1  
    36   35   36 1  
    37   36   37 1  
    38   36   39 1  
    39   37   38 2  
    40   37   44 am 
    41   39   40 1  
    42   40   41 1  
    43   41   42 2  
    44   41   43 am 
    45   44   45 1  
    46   45   46 1  
    47   45   48 1  
    48   46   47 2  
    49   46   55 am 
    50   48   49 1  
    51   49   50 ar 
    52   49   51 ar 
    53   50   52 ar 
    54   51   53 ar 
    55   52   54 ar 
    56   53   54 ar 
    57   55   56 1  
    58   56   57 1  
    59   56   59 1  
    60   57   58 2  
    61   57   61 am 
    62   59   60 1  
    63   61   62 1  
    64   62   63 1  
    65   62   65 1  
    66   63   64 ar 
    67   63   68 ar 
    68   65   66 1  
    69   65   67 1  
    70    1   69 1  
    71    1   70 1  
    72    1   71 1  
    73    2   72 1  
    74    5   73 1  
    75    5   74 1  
    76    5   75 1  
    77    6   76 1  
    78    7   77 1  
    79   10   78 1  
    80   10   79 1  
    81   13   80 1  
    82   13   81 1  
    83   14   82 1  
    84   15   83 1  
    85   18   84 1  
    86   18   85 1  
    87   20   86 1  
    88   21   87 1  
    89   22   88 1  
    90   23   89 1  
    91   25   90 1  
    92   26   91 1  
    93   27   92 1  
    94   30   93 1  
    95   30   94 1  
    96   31   95 1  
    97   31   96 1  
    98   32   97 1  
    99   32   98 1  
   100   33   99 1  
   101   33  100 1  
   102   34  101 1  
   103   34  102 1  
   104   34  103 1  
   105   35  104 1  
   106   36  105 1  
   107   39  106 1  
   108   39  107 1  
   109   40  108 1  
   110   40  109 1  
   111   43  110 1  
   112   43  111 1  
   113   44  112 1  
   114   45  113 1  
   115   48  114 1  
   116   48  115 1  
   117   50  116 1  
   118   51  117 1  
   119   52  118 1  
   120   53  119 1  
   121   54  120 1  
   122   55  121 1  
   123   56  122 1  
   124   59  123 1  
   125   59  124 1  
   126   60  125 1  
   127   61  126 1  
   128   62  127 1  
   129   65  128 1  
   130   66  129 1  
   131   66  130 1  
   132   66  131 1  
   133   67  132 1  
   134   67  133 1  
   135   67  134 1  
@<TRIPOS>SUBSTRUCTURE
     1 LYS         1

