5hed_ligand
  -I-interpret- 

135136  0  0  0  0  0  0  0  0999 V2000
   37.2300   41.1300   25.7420 N   0  3  0  0  0
   37.2880   42.1550   26.7320 C   0  0  0  0  0
   36.3890   43.2390   26.2350 C   0  0  0  0  0
   36.0980   44.1390   26.9630 O   0  0  0  0  0
   38.6930   42.7590   26.8550 C   0  0  0  0  0
   35.9910   43.1680   24.9800 N   0  0  0  0  0
   35.1730   44.2370   24.3800 C   0  0  0  0  0
   35.9530   45.5550   24.2530 C   0  0  0  0  0
   35.3620   46.5690   24.0590 O   0  0  0  0  0
   33.9000   44.5030   25.1640 C   0  0  0  0  0
   32.9470   45.4170   24.4460 C   0  0  0  0  0
   32.4870   46.3890   24.9870 O   0  0  0  0  0
   32.5970   45.0610   23.2310 N   0  0  0  0  0
   37.2690   45.4930   24.3820 N   0  0  0  0  0
   38.1230   46.6860   24.4040 C   0  0  0  0  0
   37.9640   47.6180   23.1960 C   0  0  0  0  0
   37.9150   47.1730   22.0500 O   0  0  0  0  0
   39.5800   46.2590   24.5060 C   0  0  0  0  0
   40.5630   47.3270   24.0990 C   0  0  0  0  0
   40.8750   48.3650   24.9670 C   0  0  0  0  0
   41.1870   47.2890   22.8680 C   0  0  0  0  0
   41.7770   49.3380   24.6160 C   0  0  0  0  0
   42.0920   48.2600   22.5030 C   0  0  0  0  0
   42.3890   49.2750   23.3890 C   0  0  0  0  0
   43.2810   50.2390   23.0640 O   0  0  0  0  0
   37.9050   48.9180   23.4800 N   0  0  0  0  0
   37.9160   49.9580   22.4510 C   0  0  0  0  0
   38.5230   51.2420   23.0030 C   0  0  0  0  0
   38.3820   51.5410   24.1970 O   0  0  0  0  0
   36.4990   50.2410   21.9390 C   0  0  0  0  0
   36.0190   49.3230   20.8150 C   0  0  0  0  0
   36.7820   49.5680   19.5090 C   0  0  0  0  0
   36.4300   50.8970   18.8620 C   0  0  0  0  0
   37.5960   51.4360   18.1100 N   0  3  0  0  0
   39.1940   51.9990   22.1350 N   0  0  0  0  0
   39.6450   53.3410   22.4810 C   0  0  0  0  0
   38.9040   54.3750   21.6780 C   0  0  0  0  0
   38.5330   54.1380   20.5290 O   0  0  0  0  0
   41.1290   53.5350   22.2150 C   0  0  0  0  0
   42.0220   52.6320   22.9710 C   0  0  0  0  0
   43.1240   53.3810   23.7020 C   0  0  0  0  0
   43.0410   54.5910   23.9320 O   0  0  0  0  0
   44.1690   52.6610   24.0590 N   0  0  0  0  0
   38.7240   55.5380   22.2820 N   0  0  0  0  0
   38.1990   56.6930   21.5530 C   0  0  0  0  0
   38.9130   57.9690   21.9470 C   0  0  0  0  0
   39.1890   58.1720   23.1160 O   0  0  0  0  0
   36.7160   56.9100   21.8210 C   0  0  0  0  0
   35.8420   55.7960   21.3480 C   0  0  0  0  0
   35.3380   55.8100   20.0640 C   0  0  0  0  0
   35.5120   54.7500   22.1930 C   0  0  0  0  0
   34.5050   54.7670   19.6210 C   0  0  0  0  0
   34.6970   53.7160   21.7560 C   0  0  0  0  0
   34.1960   53.7300   20.4740 C   0  0  0  0  0
   39.1180   58.8510   20.9740 N   0  0  0  0  0
   39.6280   60.1930   21.2350 C   0  0  0  0  0
   38.4460   61.1170   21.4080 C   0  0  0  0  0
   37.4890   61.0590   20.6200 O   0  0  0  0  0
   40.5000   60.7050   20.0840 C   0  0  0  0  0
   41.6420   59.9020   19.9000 O   0  0  0  0  0
   38.5160   62.0010   22.3970 N   0  0  0  0  0
   37.4270   62.9190   22.6580 C   0  0  0  0  0
   38.0060   64.3160   22.8120 C   0  0  0  0  0
   37.2510   65.2870   22.8310 O   0  0  0  0  0
   36.6140   62.5080   23.9000 C   0  0  0  0  0
   35.9960   61.1210   23.7100 C   0  0  0  0  0
   37.4990   62.5220   25.1300 C   0  0  0  0  0
   39.2290   64.4730   22.8960 O   0  0  0  0  0
   36.2814   40.7582   25.6944 H   0  0  0  0  0
   37.4898   41.5192   24.8357 H   0  0  0  0  0
   37.8775   40.3821   25.9904 H   0  0  0  0  0
   37.0082   41.7443   27.7021 H   0  0  0  0  0
   39.0210   43.1147   25.8783 H   0  0  0  0  0
   38.6687   43.5923   27.5572 H   0  0  0  0  0
   39.3840   41.9976   27.2166 H   0  0  0  0  0
   36.2535   42.3602   24.4153 H   0  0  0  0  0
   34.9081   43.8739   23.3870 H   0  0  0  0  0
   34.1815   44.9861   26.0996 H   0  0  0  0  0
   33.3958   43.5480   25.3118 H   0  0  0  0  0
   31.9141   45.6149   22.7141 H   0  0  0  0  0
   33.0081   44.2307   22.8045 H   0  0  0  0  0
   37.7082   44.5766   24.4699 H   0  0  0  0  0
   37.8018   47.2603   25.2730 H   0  0  0  0  0
   39.7181   45.4174   23.8273 H   0  0  0  0  0
   39.7748   46.0226   25.5521 H   0  0  0  0  0
   40.3949   48.4078   25.9446 H   0  0  0  0  0
   40.9598   46.4787   22.1753 H   0  0  0  0  0
   42.0049   50.1520   25.3042 H   0  0  0  0  0
   42.5693   48.2272   21.5236 H   0  0  0  0  0
   43.6272   50.0698   22.1847 H   0  0  0  0  0
   37.8497   49.2011   24.4584 H   0  0  0  0  0
   38.5223   49.5984   21.6196 H   0  0  0  0  0
   36.5082   51.2532   21.5346 H   0  0  0  0  0
   35.8245   50.0847   22.7809 H   0  0  0  0  0
   34.9631   49.5262   20.6363 H   0  0  0  0  0
   36.1898   48.2909   21.1212 H   0  0  0  0  0
   36.5125   48.7752   18.8112 H   0  0  0  0  0
   37.8467   49.5817   19.7419 H   0  0  0  0  0
   36.1519   51.6072   19.6407 H   0  0  0  0  0
   35.6017   50.7454   18.1699 H   0  0  0  0  0
   37.3415   52.3268   17.6833 H   0  0  0  0  0
   38.3773   51.5755   18.7507 H   0  0  0  0  0
   37.8654   50.7738   17.3825 H   0  0  0  0  0
   39.3968   51.6300   21.2059 H   0  0  0  0  0
   39.4488   53.4602   23.5465 H   0  0  0  0  0
   41.3740   54.5512   22.5240 H   0  0  0  0  0
   41.2895   53.3239   21.1578 H   0  0  0  0  0
   42.4918   51.9517   22.2607 H   0  0  0  0  0
   41.4204   52.1092   23.7145 H   0  0  0  0  0
   44.9499   53.1017   24.5451 H   0  0  0  0  0
   44.1966   51.6632   23.8491 H   0  0  0  0  0
   38.9547   55.6311   23.2712 H   0  0  0  0  0
   38.3613   56.4719   20.4981 H   0  0  0  0  0
   36.4179   57.8068   21.2779 H   0  0  0  0  0
   36.5906   56.9820   22.9014 H   0  0  0  0  0
   35.5859   56.6311   19.3914 H   0  0  0  0  0
   35.8968   54.7389   23.2128 H   0  0  0  0  0
   34.1055   54.7790   18.6069 H   0  0  0  0  0
   34.4534   52.8927   22.4276 H   0  0  0  0  0
   33.5531   52.9186   20.1327 H   0  0  0  0  0
   38.9118   58.5806   20.0123 H   0  0  0  0  0
   40.2470   60.1641   22.1317 H   0  0  0  0  0
   40.8263   61.7170   20.3238 H   0  0  0  0  0
   39.9101   60.6788   19.1678 H   0  0  0  0  0
   42.1634   60.2509   19.1734 H   0  0  0  0  0
   39.3507   62.0337   22.9823 H   0  0  0  0  0
   36.7300   62.8980   21.8202 H   0  0  0  0  0
   35.8062   63.2271   24.0356 H   0  0  0  0  0
   35.3336   61.1352   22.8445 H   0  0  0  0  0
   36.7888   60.3902   23.5504 H   0  0  0  0  0
   35.4269   60.8531   24.6002 H   0  0  0  0  0
   38.3217   61.8204   24.9921 H   0  0  0  0  0
   37.8969   63.5259   25.2784 H   0  0  0  0  0
   36.9127   62.2297   26.0012 H   0  0  0  0  0
   39.6632   63.6173   22.8654 H   0  0  0  0  0
  1  2  1  0  0  0
  2  3  1  0  0  0
  2  5  1  0  0  0
  3  4  2  0  0  0
  3  6  1  0  0  0
  6  7  1  0  0  0
  7  8  1  0  0  0
  7 10  1  0  0  0
  8  9  2  0  0  0
  8 14  1  0  0  0
 10 11  1  0  0  0
 11 12  2  0  0  0
 11 13  1  0  0  0
 14 15  1  0  0  0
 15 16  1  0  0  0
 15 18  1  0  0  0
 16 17  2  0  0  0
 16 26  1  0  0  0
 18 19  1  0  0  0
 19 20  4  0  0  0
 19 21  4  0  0  0
 20 22  4  0  0  0
 21 23  4  0  0  0
 22 24  4  0  0  0
 23 24  4  0  0  0
 24 25  1  0  0  0
 26 27  1  0  0  0
 27 28  1  0  0  0
 27 30  1  0  0  0
 28 29  2  0  0  0
 28 35  1  0  0  0
 30 31  1  0  0  0
 31 32  1  0  0  0
 32 33  1  0  0  0
 33 34  1  0  0  0
 35 36  1  0  0  0
 36 37  1  0  0  0
 36 39  1  0  0  0
 37 38  2  0  0  0
 37 44  1  0  0  0
 39 40  1  0  0  0
 40 41  1  0  0  0
 41 42  2  0  0  0
 41 43  1  0  0  0
 44 45  1  0  0  0
 45 46  1  0  0  0
 45 48  1  0  0  0
 46 47  2  0  0  0
 46 55  1  0  0  0
 48 49  1  0  0  0
 49 50  4  0  0  0
 49 51  4  0  0  0
 50 52  4  0  0  0
 51 53  4  0  0  0
 52 54  4  0  0  0
 53 54  4  0  0  0
 55 56  1  0  0  0
 56 57  1  0  0  0
 56 59  1  0  0  0
 57 58  2  0  0  0
 57 61  1  0  0  0
 59 60  1  0  0  0
 61 62  1  0  0  0
 62 63  1  0  0  0
 62 65  1  0  0  0
 63 64  2  0  0  0
 63 68  1  0  0  0
 65 66  1  0  0  0
 65 67  1  0  0  0
  1 69  1  0  0  0
  1 70  1  0  0  0
  1 71  1  0  0  0
  2 72  1  0  0  0
  5 73  1  0  0  0
  5 74  1  0  0  0
  5 75  1  0  0  0
  6 76  1  0  0  0
  7 77  1  0  0  0
 10 78  1  0  0  0
 10 79  1  0  0  0
 13 80  1  0  0  0
 13 81  1  0  0  0
 14 82  1  0  0  0
 15 83  1  0  0  0
 18 84  1  0  0  0
 18 85  1  0  0  0
 20 86  1  0  0  0
 21 87  1  0  0  0
 22 88  1  0  0  0
 23 89  1  0  0  0
 25 90  1  0  0  0
 26 91  1  0  0  0
 27 92  1  0  0  0
 30 93  1  0  0  0
 30 94  1  0  0  0
 31 95  1  0  0  0
 31 96  1  0  0  0
 32 97  1  0  0  0
 32 98  1  0  0  0
 33 99  1  0  0  0
 33100  1  0  0  0
 34101  1  0  0  0
 34102  1  0  0  0
 34103  1  0  0  0
 35104  1  0  0  0
 36105  1  0  0  0
 39106  1  0  0  0
 39107  1  0  0  0
 40108  1  0  0  0
 40109  1  0  0  0
 43110  1  0  0  0
 43111  1  0  0  0
 44112  1  0  0  0
 45113  1  0  0  0
 48114  1  0  0  0
 48115  1  0  0  0
 50116  1  0  0  0
 51117  1  0  0  0
 52118  1  0  0  0
 53119  1  0  0  0
 54120  1  0  0  0
 55121  1  0  0  0
 56122  1  0  0  0
 59123  1  0  0  0
 59124  1  0  0  0
 60125  1  0  0  0
 61126  1  0  0  0
 62127  1  0  0  0
 65128  1  0  0  0
 66129  1  0  0  0
 66130  1  0  0  0
 66131  1  0  0  0
 67132  1  0  0  0
 67133  1  0  0  0
 67134  1  0  0  0
 68135  1  0  0  0
M  END
$$$$
