3d9z_ligand
  -I-interpret- 

 22 23  0  0  0  0  0  0  0  0999 V2000
   -7.4330    0.6790   16.6650 O   0  0  0  0  0
   -6.0400    0.4340   16.8960 S   0  0  0  0  0
   -5.6600    0.5280   18.2670 O   0  0  0  0  0
   -5.6170   -0.9840   16.3240 N   0  0  0  0  0
   -5.2560    1.6870   16.1700 C   0  0  0  0  0
   -5.8450    2.9550   15.1770 S   0  0  0  0  0
   -3.9180    1.6980   16.3110 N   0  0  0  0  0
   -3.3600    2.6980   15.5570 N   0  0  0  0  0
   -4.2210    3.4800   14.8850 C   0  0  0  0  0
   -3.7710    4.5600   14.1230 C   0  0  0  0  0
   -2.4180    4.8460   14.0190 C   0  0  0  0  0
   -4.6800    5.3520   13.4860 C   0  0  0  0  0
   -4.3390    6.4230   12.6900 C   0  0  0  0  0
   -2.9740    6.7100   12.5720 C   0  0  0  0  0
   -2.0270    5.9450   13.2300 C   0  0  0  0  0
   -6.3760    5.3160   13.4270 Cl  0  0  0  0  0
   -6.3099   -1.5771   15.8674 H   0  0  0  0  0
   -4.6521   -1.3026   16.4128 H   0  0  0  0  0
   -1.6764    4.2359   14.5346 H   0  0  0  0  0
   -5.0948    7.0178   12.1772 H   0  0  0  0  0
   -2.6525    7.5478   11.9532 H   0  0  0  0  0
   -0.9702    6.1950   13.1369 H   0  0  0  0  0
  1  2  2  0  0  0
  2  3  2  0  0  0
  2  4  1  0  0  0
  2  5  1  0  0  0
  5  6  4  0  0  0
  5  7  4  0  0  0
  6  9  4  0  0  0
  7  8  4  0  0  0
  8  9  4  0  0  0
  9 10  1  0  0  0
 10 11  4  0  0  0
 10 12  4  0  0  0
 11 15  4  0  0  0
 12 13  4  0  0  0
 12 16  1  0  0  0
 13 14  4  0  0  0
 14 15  4  0  0  0
  4 17  1  0  0  0
  4 18  1  0  0  0
 11 19  1  0  0  0
 13 20  1  0  0  0
 14 21  1  0  0  0
 15 22  1  0  0  0
M  END
$$$$
