1z9h_ligand
  -I-interpret- 

 41 43  0  0  0  0  0  0  0  0999 V2000
  -21.0830   54.3620   11.9650 C   0  0  0  0  0
  -20.0730   53.8420   12.9560 C   0  0  0  0  0
  -19.2180   54.7880   13.6700 C   0  0  0  0  0
  -19.3010   56.1930   13.4580 C   0  0  0  0  0
  -20.2600   56.6990   12.5240 C   0  0  0  0  0
  -21.1170   55.8210   11.8010 C   0  0  0  0  0
  -18.3930   58.4500   14.0940 C   0  0  0  0  0
  -20.1790   52.3460   12.9970 C   0  0  0  0  0
  -21.2590   51.9990   12.0100 C   0  0  0  0  0
  -22.8120   53.3270   10.4300 C   0  0  0  0  0
  -23.0870   54.5000    9.4140 C   0  0  0  0  0
  -24.3180   55.2360    9.6580 C   0  0  0  0  0
  -24.7170   56.3590    8.8300 C   0  0  0  0  0
  -23.8800   56.7630    7.7500 C   0  0  0  0  0
  -22.6740   56.0640    7.4820 C   0  0  0  0  0
  -22.2660   54.9400    8.3040 C   0  0  0  0  0
  -21.7080   50.5690   11.7180 C   0  0  0  0  0
  -19.2720   51.5520   13.9330 C   0  0  0  0  0
  -19.2530   51.7160   15.4600 C   0  0  0  0  0
  -21.7240   53.2230   11.4620 N   0  0  0  0  0
  -18.4500   57.0040   14.1740 O   0  0  0  0  0
  -23.6280   52.4090   10.3280 O   0  0  0  0  0
  -20.2210   51.7340   16.2070 O   0  0  0  0  0
  -18.0540   51.8800   16.0350 O   0  0  0  0  0
  -24.2890   58.1010    6.7910 Cl  0  0  0  0  0
  -18.4931   54.4051   14.3883 H   0  0  0  0  0
  -20.3357   57.7744   12.3633 H   0  0  0  0  0
  -21.8286   56.2502   11.0957 H   0  0  0  0  0
  -18.1509   58.7469   13.0735 H   0  0  0  0  0
  -19.3602   58.8666   14.3752 H   0  0  0  0  0
  -17.6251   58.8202   14.7733 H   0  0  0  0  0
  -24.9591   54.9352   10.4866 H   0  0  0  0  0
  -25.6481   56.8884    9.0323 H   0  0  0  0  0
  -22.0459   56.3758    6.6475 H   0  0  0  0  0
  -21.3327   54.4215    8.0843 H   0  0  0  0  0
  -20.8620   49.9935   11.3423 H   0  0  0  0  0
  -22.0813   50.1124   12.6347 H   0  0  0  0  0
  -22.5001   50.5840   10.9693 H   0  0  0  0  0
  -18.2766   51.8892   13.6441 H   0  0  0  0  0
  -19.6331   50.5313   13.8068 H   0  0  0  0  0
  -17.3705   51.8492   15.3616 H   0  0  0  0  0
  1  2  4  0  0  0
  1  6  4  0  0  0
 20  1  4  0  0  0
  2  3  4  0  0  0
  8  2  4  0  0  0
  3  4  4  0  0  0
  5  4  4  0  0  0
  4 21  1  0  0  0
  6  5  4  0  0  0
 21  7  1  0  0  0
  9  8  4  0  0  0
  8 18  1  0  0  0
  9 17  1  0  0  0
 20  9  4  0  0  0
 10 11  1  0  0  0
 10 20  1  0  0  0
 10 22  2  0  0  0
 11 12  4  0  0  0
 11 16  4  0  0  0
 12 13  4  0  0  0
 13 14  4  0  0  0
 14 15  4  0  0  0
 14 25  1  0  0  0
 15 16  4  0  0  0
 18 19  1  0  0  0
 19 23  2  0  0  0
 19 24  1  0  0  0
  3 26  1  0  0  0
  5 27  1  0  0  0
  6 28  1  0  0  0
  7 29  1  0  0  0
  7 30  1  0  0  0
  7 31  1  0  0  0
 12 32  1  0  0  0
 13 33  1  0  0  0
 15 34  1  0  0  0
 16 35  1  0  0  0
 17 36  1  0  0  0
 17 37  1  0  0  0
 17 38  1  0  0  0
 18 39  1  0  0  0
 18 40  1  0  0  0
 24 41  1  0  0  0
M  END
$$$$
