1mu6_ligand
  -I-interpret- 

 50 52  0  0  0  0  0  0  0  0999 V2000
   21.0030  -16.5290   25.1660 N   0  0  0  0  0
   19.9150  -15.9270   25.8320 C   0  0  0  0  0
   20.0020  -14.5590   26.3240 C   0  0  0  0  0
   21.2530  -13.8830   26.0790 C   0  0  0  0  0
   22.3420  -14.5410   25.3720 C   0  0  0  0  0
   22.2100  -15.9040   24.9070 C   0  0  0  0  0
   18.6310  -16.7480   25.9420 C   0  0  0  0  0
   18.0830  -17.1760   24.5920 C   0  0  0  0  0
   17.6280  -16.1140   26.5880 F   0  0  0  0  0
   18.9320  -17.8750   26.6020 F   0  0  0  0  0
   17.4760  -16.0450   23.8730 N   0  0  0  0  0
   18.0880  -15.3250   22.8760 C   0  0  0  0  0
   17.4500  -14.0430   22.4650 C   0  0  0  0  0
   18.0980  -13.3440   21.4690 N   0  0  0  0  0
   19.3180  -13.8330   20.8740 C   0  0  0  0  0
   19.8710  -15.0400   21.3370 C   0  0  0  0  0
   19.2510  -15.7300   22.2940 N   0  0  0  0  0
   16.4120  -13.6170   22.9680 O   0  0  0  0  0
   20.0270  -13.1170   19.7930 C   0  0  0  0  0
   17.4940  -12.0810   21.0030 C   0  0  0  0  0
   16.0640  -12.2970   20.5380 C   0  0  0  0  0
   15.1990  -11.3330   20.9400 N   0  0  0  0  0
   15.7760  -13.2640   19.8350 O   0  0  0  0  0
   13.7930  -11.3680   20.5230 C   0  0  0  0  0
   12.8490  -11.3470   21.7030 C   0  0  0  0  0
   11.8640  -12.3760   21.8290 C   0  0  0  0  0
   10.9730  -12.3960   22.9570 C   0  0  0  0  0
   11.0960  -11.3520   23.9430 C   0  0  0  0  0
   12.9510  -10.3500   22.6580 N   0  0  0  0  0
   11.8270  -13.2730   20.8440 F   0  0  0  0  0
   12.1070  -10.3310   23.7580 C   0  0  0  0  0
   19.1746  -14.0764   26.8443 H   0  0  0  0  0
   21.3851  -12.8596   26.4302 H   0  0  0  0  0
   23.2700  -13.9988   25.1905 H   0  0  0  0  0
   23.0182  -16.4118   24.3806 H   0  0  0  0  0
   17.3159  -17.9330   24.7551 H   0  0  0  0  0
   18.9065  -17.5641   23.9925 H   0  0  0  0  0
   16.5280  -15.7748   24.1349 H   0  0  0  0  0
   20.8048  -15.4106   20.9141 H   0  0  0  0  0
   21.0321  -12.8600   20.1275 H   0  0  0  0  0
   20.0882  -13.7581   18.9136 H   0  0  0  0  0
   19.4818  -12.2067   19.5434 H   0  0  0  0  0
   18.0797  -11.7027   20.1651 H   0  0  0  0  0
   17.4882  -11.3713   21.8302 H   0  0  0  0  0
   15.5294  -10.5759   21.5384 H   0  0  0  0  0
   13.6254  -12.2923   19.9701 H   0  0  0  0  0
   13.5967  -10.4849   19.9150 H   0  0  0  0  0
   10.2238  -13.1804   23.0638 H   0  0  0  0  0
   10.4396  -11.3310   24.8130 H   0  0  0  0  0
   12.2058   -9.5347   24.4957 H   0  0  0  0  0
  1  2  4  0  0  0
  1  6  4  0  0  0
  2  3  4  0  0  0
  2  7  1  0  0  0
  3  4  4  0  0  0
  4  5  4  0  0  0
  5  6  4  0  0  0
  7  8  1  0  0  0
  7  9  1  0  0  0
  7 10  1  0  0  0
  8 11  1  0  0  0
 11 12  1  0  0  0
 12 13  1  0  0  0
 12 17  2  0  0  0
 13 14  1  0  0  0
 13 18  2  0  0  0
 14 15  1  0  0  0
 14 20  1  0  0  0
 15 16  2  0  0  0
 15 19  1  0  0  0
 16 17  1  0  0  0
 20 21  1  0  0  0
 21 22  1  0  0  0
 21 23  2  0  0  0
 22 24  1  0  0  0
 24 25  1  0  0  0
 25 26  4  0  0  0
 25 29  4  0  0  0
 26 27  4  0  0  0
 26 30  1  0  0  0
 27 28  4  0  0  0
 28 31  4  0  0  0
 29 31  4  0  0  0
  3 32  1  0  0  0
  4 33  1  0  0  0
  5 34  1  0  0  0
  6 35  1  0  0  0
  8 36  1  0  0  0
  8 37  1  0  0  0
 11 38  1  0  0  0
 16 39  1  0  0  0
 19 40  1  0  0  0
 19 41  1  0  0  0
 19 42  1  0  0  0
 20 43  1  0  0  0
 20 44  1  0  0  0
 22 45  1  0  0  0
 24 46  1  0  0  0
 24 47  1  0  0  0
 27 48  1  0  0  0
 28 49  1  0  0  0
 31 50  1  0  0  0
M  END
$$$$
