5vnd_ligand
  -I-interpret- 

 80 83  0  0  0  0  0  0  0  0999 V2000
   22.4840  -22.5330   -4.0120 C   0  0  0  0  0
   21.9820  -23.8630   -4.5730 C   0  0  0  0  0
   22.4220  -22.8680   -6.9020 C   0  0  0  0  0
   23.2510  -21.7950   -6.1620 C   0  0  0  0  0
   20.5430  -24.5140   -6.5080 C   0  0  0  0  0
   18.5230  -26.2770   -7.5690 C   0  0  0  0  0
   16.9280  -26.3630   -9.3490 C   0  0  0  0  0
   17.0980  -25.0940   -9.9180 C   0  0  0  0  0
   16.3340  -24.7420  -11.0270 C   0  0  0  0  0
   15.3450  -26.8870  -10.9280 C   0  0  0  0  0
   17.1000  -22.4370  -11.0640 C   0  0  0  0  0
   14.6690  -25.3380  -17.0970 C   0  0  0  0  0
   14.9080  -26.4390  -19.2170 C   0  0  0  0  0
   15.5280  -26.7050   -4.3830 O   0  0  0  0  0
   16.0710  -26.3710   -5.4310 C   0  0  0  0  0
   15.3850  -26.8370   -6.6730 C   0  0  0  0  0
   13.9050  -27.1180   -6.4830 C   0  0  0  0  0
   17.2350  -25.7120   -5.3910 N   0  0  0  0  0
   18.3090  -25.6260   -6.2330 C   0  0  0  0  0
   19.3650  -24.7980   -5.7660 C   0  0  0  0  0
   21.6100  -23.7120   -6.0030 N   0  0  0  0  0
   23.6850  -22.1820   -4.7990 N   0  3  0  0  0
   24.4930  -21.1130   -4.1640 C   0  0  0  0  0
   25.8830  -21.6210   -3.8430 C   0  0  0  0  0
   19.6940  -25.9430   -8.2720 C   0  0  0  0  0
   20.6880  -25.0930   -7.7750 C   0  0  0  0  0
   17.5750  -26.9120   -8.3000 N   0  0  0  0  0
   16.0220  -27.2510   -9.8450 N   0  0  0  0  0
   15.4790  -25.6780  -11.4780 N   0  0  0  0  0
   16.4090  -23.5200  -11.7730 N   0  0  0  0  0
   15.7880  -23.3730  -12.9900 C   0  0  0  0  0
   15.8100  -22.3270  -13.5940 O   0  0  0  0  0
   15.1380  -24.4380  -13.4720 N   0  0  0  0  0
   14.5120  -24.5500  -14.6910 C   0  0  0  0  0
   15.1380  -25.2850  -15.7470 C   0  0  0  0  0
   16.5760  -26.2200  -15.3610 Cl  0  0  0  0  0
   15.3870  -26.1600  -17.9130 O   0  0  0  0  0
   13.5700  -24.5970  -17.4870 C   0  0  0  0  0
   12.8980  -23.8260  -16.5340 C   0  0  0  0  0
   13.3870  -23.7480  -15.1570 C   0  0  0  0  0
   12.5400  -22.8330  -13.9270 Cl  0  0  0  0  0
   11.7920  -23.1200  -16.8170 O   0  0  0  0  0
   11.1240  -23.2110  -18.1070 C   0  0  0  0  0
   22.7196  -22.6173   -2.9511 H   0  0  0  0  0
   21.7208  -21.7589   -4.0924 H   0  0  0  0  0
   21.1046  -24.1787   -4.0086 H   0  0  0  0  0
   22.7744  -24.6067   -4.4881 H   0  0  0  0  0
   23.1229  -23.5226   -7.4200 H   0  0  0  0  0
   21.7356  -22.3475   -7.5698 H   0  0  0  0  0
   22.6130  -20.9176   -6.0555 H   0  0  0  0  0
   24.1547  -21.6306   -6.7489 H   0  0  0  0  0
   17.8185  -24.3921   -9.4981 H   0  0  0  0  0
   14.6568  -27.5993  -11.3831 H   0  0  0  0  0
   16.5735  -22.2187  -10.1349 H   0  0  0  0  0
   18.1216  -22.7445  -10.8406 H   0  0  0  0  0
   17.1165  -21.5460  -11.6917 H   0  0  0  0  0
   13.9294  -26.9141  -19.1493 H   0  0  0  0  0
   14.8235  -25.5085  -19.7784 H   0  0  0  0  0
   15.6040  -27.1082  -19.7229 H   0  0  0  0  0
   15.8581  -27.7710   -6.9761 H   0  0  0  0  0
   15.4737  -26.0414   -7.4128 H   0  0  0  0  0
   13.7779  -27.8955   -5.7297 H   0  0  0  0  0
   13.4027  -26.2077   -6.1558 H   0  0  0  0  0
   13.4757  -27.4519   -7.4276 H   0  0  0  0  0
   17.3454  -25.1503   -4.5468 H   0  0  0  0  0
   19.2651  -24.3526   -4.7762 H   0  0  0  0  0
   24.2978  -22.9962   -4.8437 H   0  0  0  0  0
   24.0065  -20.8024   -3.2394 H   0  0  0  0  0
   24.5729  -20.2721   -4.8529 H   0  0  0  0  0
   25.8105  -22.4659   -3.1582 H   0  0  0  0  0
   26.3739  -21.9384   -4.7630 H   0  0  0  0  0
   26.4616  -20.8230   -3.3776 H   0  0  0  0  0
   19.8359  -26.3721   -9.2639 H   0  0  0  0  0
   21.5743  -24.8816   -8.3732 H   0  0  0  0  0
   17.3346  -27.8685   -8.0399 H   0  0  0  0  0
   15.1028  -25.2589  -12.8676 H   0  0  0  0  0
   13.2318  -24.6134  -18.5231 H   0  0  0  0  0
   11.8139  -22.9070  -18.8942 H   0  0  0  0  0
   10.8058  -24.2394  -18.2782 H   0  0  0  0  0
   10.2538  -22.5546  -18.1112 H   0  0  0  0  0
  2  1  1  0  0  0
  1 22  1  0  0  0
 21  2  1  0  0  0
  3  4  1  0  0  0
 21  3  1  0  0  0
  4 22  1  0  0  0
 20  5  4  0  0  0
  5 21  1  0  0  0
 26  5  4  0  0  0
  6 19  4  0  0  0
  6 25  4  0  0  0
 27  6  1  0  0  0
  8  7  4  0  0  0
  7 27  1  0  0  0
  7 28  4  0  0  0
  9  8  4  0  0  0
  9 29  4  0  0  0
 30  9  1  0  0  0
 10 28  4  0  0  0
 29 10  4  0  0  0
 30 11  1  0  0  0
 35 12  4  0  0  0
 12 37  1  0  0  0
 12 38  4  0  0  0
 37 13  1  0  0  0
 15 14  2  0  0  0
 15 16  1  0  0  0
 18 15  1  0  0  0
 16 17  1  0  0  0
 19 18  1  0  0  0
 19 20  4  0  0  0
 22 23  1  0  0  0
 23 24  1  0  0  0
 25 26  4  0  0  0
 31 30  1  0  0  0
 31 32  2  0  0  0
 33 31  1  0  0  0
 34 33  1  0  0  0
 34 35  4  0  0  0
 34 40  4  0  0  0
 35 36  1  0  0  0
 38 39  4  0  0  0
 39 40  4  0  0  0
 39 42  1  0  0  0
 40 41  1  0  0  0
 42 43  1  0  0  0
  1 44  1  0  0  0
  1 45  1  0  0  0
  2 46  1  0  0  0
  2 47  1  0  0  0
  3 48  1  0  0  0
  3 49  1  0  0  0
  4 50  1  0  0  0
  4 51  1  0  0  0
  8 52  1  0  0  0
 10 53  1  0  0  0
 11 54  1  0  0  0
 11 55  1  0  0  0
 11 56  1  0  0  0
 13 57  1  0  0  0
 13 58  1  0  0  0
 13 59  1  0  0  0
 16 60  1  0  0  0
 16 61  1  0  0  0
 17 62  1  0  0  0
 17 63  1  0  0  0
 17 64  1  0  0  0
 18 65  1  0  0  0
 20 66  1  0  0  0
 22 67  1  0  0  0
 23 68  1  0  0  0
 23 69  1  0  0  0
 24 70  1  0  0  0
 24 71  1  0  0  0
 24 72  1  0  0  0
 25 73  1  0  0  0
 26 74  1  0  0  0
 27 75  1  0  0  0
 33 76  1  0  0  0
 38 77  1  0  0  0
 43 78  1  0  0  0
 43 79  1  0  0  0
 43 80  1  0  0  0
M  END
$$$$
