1prl_ligand
  -I-interpret- 

151154  0  0  0  0  0  0  0  0999 V2000
    2.1760   16.4660    9.4510 N   0  3  0  0  0
    3.1570   15.7660   10.3280 C   0  0  0  0  0
    3.5830   14.4530    9.6680 C   0  0  0  0  0
    3.1400   14.1180    8.5870 O   0  0  0  0  0
    2.5100   15.4700   11.6820 C   0  0  0  0  0
    4.4380   13.7070   10.3100 N   0  0  0  0  0
    4.8900   12.4160    9.7180 C   0  0  0  0  0
    5.5750   12.6840    8.3760 C   0  0  0  0  0
    5.0600   12.3480    7.3290 O   0  0  0  0  0
    3.6820   11.5040    9.5000 C   0  0  0  0  0
    3.6760   10.4020   10.5620 C   0  0  0  0  0
    4.5950    9.3710   10.5080 C   0  0  0  0  0
    2.7500   10.4250   11.5900 C   0  0  0  0  0
    4.5890    8.3790   11.4670 C   0  0  0  0  0
    2.7450    9.4320   12.5470 C   0  0  0  0  0
    3.6640    8.4090   12.4860 C   0  0  0  0  0
    6.7320   13.2860    8.3980 N   0  0  0  0  0
    7.4450   13.5730    7.1220 C   0  0  0  0  0
    7.5720   12.2760    6.3110 C   0  0  0  0  0
    7.9280   11.2500    6.8530 O   0  0  0  0  0
    8.8410   14.1170    7.4320 C   0  0  0  0  0
    7.2780   12.3600    5.0350 N   0  0  0  0  0
    7.3550   11.1930    4.1340 C   0  0  0  0  0
    8.7980   10.6750    4.0540 C   0  0  0  0  0
    9.6460   11.3150    3.4650 O   0  0  0  0  0
    6.9040   11.7240    2.7660 C   0  0  0  0  0
    6.5830   13.2320    2.9260 C   0  0  0  0  0
    6.8530   13.6150    4.3890 C   0  0  0  0  0
    9.0360    9.5280    4.6430 N   0  0  0  0  0
   10.3770    8.9150    4.6450 C   0  0  0  0  0
   10.8270    8.6230    3.2100 C   0  0  0  0  0
   10.0410    8.2300    2.3720 O   0  0  0  0  0
   10.2120    7.6090    5.4340 C   0  0  0  0  0
    8.7300    7.5120    5.8810 C   0  0  0  0  0
    7.9970    8.7510    5.3440 C   0  0  0  0  0
   12.0860    8.8180    2.9210 N   0  0  0  0  0
   12.5830    8.5510    1.5420 C   0  0  0  0  0
   11.9900    7.2260    1.0390 C   0  0  0  0  0
   12.2290    6.1910    1.6290 O   0  0  0  0  0
   14.1100    8.4450    1.5650 C   0  0  0  0  0
   14.7040    9.7640    2.0610 C   0  0  0  0  0
   16.2190    9.6140    2.2190 C   0  0  0  0  0
   14.4060   10.8710    1.0480 C   0  0  0  0  0
   11.2000    7.3010   -0.0100 N   0  0  0  0  0
   10.5570    6.1100   -0.6050 C   0  0  0  0  0
   11.5480    5.3150   -1.4670 C   0  0  0  0  0
   11.2380    4.9290   -2.5770 O   0  0  0  0  0
    9.4420    6.6780   -1.4900 C   0  0  0  0  0
    9.6500    8.2140   -1.5750 C   0  0  0  0  0
   10.8110    8.5780   -0.6340 C   0  0  0  0  0
   12.7230    5.0580   -0.9610 N   0  0  0  0  0
   13.7400    4.2890   -1.7400 C   0  0  0  0  0
   13.6640    4.6630   -3.2230 C   0  0  0  0  0
   13.4070    3.8290   -4.0690 O   0  0  0  0  0
   13.4770    2.7900   -1.5830 C   0  0  0  0  0
   14.6510    2.0030   -2.1720 C   0  0  0  0  0
   14.8980    0.7480   -1.3330 C   0  0  0  0  0
   15.4130   -0.3420   -2.2090 N   0  0  0  0  0
   16.6480   -0.3140   -2.6350 C   0  0  0  0  0
   17.4380    0.6680   -2.2920 N   0  0  0  0  0
   17.0940   -1.2700   -3.4030 N   0  0  0  0  0
   13.8810    5.9080   -3.5470 N   0  0  0  0  0
   13.8190    6.3240   -4.9750 C   0  0  0  0  0
   12.4610    5.9330   -5.5620 C   0  0  0  0  0
   12.4390    5.0990   -6.4530 O   0  0  0  0  0
   14.9330    5.6260   -5.7580 C   0  0  0  0  0
   16.2920    6.0470   -5.1950 C   0  0  0  0  0
   16.5140    7.5360   -5.4670 C   0  0  0  0  0
   17.9590    7.8620   -5.2970 N   0  0  0  0  0
   18.3530    9.1070   -5.2890 C   0  0  0  0  0
   17.4840   10.0720   -5.4270 N   0  0  0  0  0
   19.6190    9.3880   -5.1420 N   0  0  0  0  0
   11.4650    6.4760   -5.1130 O   0  0  0  0  0
    2.6085   16.6628    8.5485 H   0  0  0  0  0
    1.3585   15.8714    9.3151 H   0  0  0  0  0
    1.8920   17.3411    9.8914 H   0  0  0  0  0
    4.0315   16.4000   10.4746 H   0  0  0  0  0
    1.6354   14.8364   11.5346 H   0  0  0  0  0
    3.2280   14.9573   12.3220 H   0  0  0  0  0
    2.2071   16.4062   12.1509 H   0  0  0  0  0
    4.7972   14.0065   11.2164 H   0  0  0  0  0
    5.5930   11.9315   10.3956 H   0  0  0  0  0
    3.7413   11.0533    8.5093 H   0  0  0  0  0
    2.7660   12.0895    9.5789 H   0  0  0  0  0
    5.3291    9.3414    9.7028 H   0  0  0  0  0
    2.0202   11.2328   11.6437 H   0  0  0  0  0
    5.3180    7.5702   11.4176 H   0  0  0  0  0
    2.0119    9.4573   13.3533 H   0  0  0  0  0
    3.6593    7.6246   13.2428 H   0  0  0  0  0
    7.1481   13.5599    9.2881 H   0  0  0  0  0
    6.8859   14.3114    6.5473 H   0  0  0  0  0
    8.7511   15.0342    8.0140 H   0  0  0  0  0
    9.3997   13.3758    8.0035 H   0  0  0  0  0
    9.3632   14.3272    6.4986 H   0  0  0  0  0
    6.7382   10.3634    4.4797 H   0  0  0  0  0
    6.0220   11.1836    2.4222 H   0  0  0  0  0
    7.6915   11.5810    2.0260 H   0  0  0  0  0
    5.5419   13.4273    2.6690 H   0  0  0  0  0
    7.2068   13.8254    2.2575 H   0  0  0  0  0
    7.6136   14.3914    4.4713 H   0  0  0  0  0
    5.9697   14.0384    4.8671 H   0  0  0  0  0
   11.1306    9.5670    5.0867 H   0  0  0  0  0
   10.8711    7.6045    6.3022 H   0  0  0  0  0
   10.4773    6.7541    4.8121 H   0  0  0  0  0
    8.6639    7.4742    6.9683 H   0  0  0  0  0
    8.2746    6.6027    5.4888 H   0  0  0  0  0
    7.1752    8.4810    4.6808 H   0  0  0  0  0
    7.5309    9.3257    6.1443 H   0  0  0  0  0
   12.7284    9.1529    3.6390 H   0  0  0  0  0
   12.2830    9.3634    0.8801 H   0  0  0  0  0
   14.4754    8.2369    0.5594 H   0  0  0  0  0
   14.4085    7.6375    2.2335 H   0  0  0  0  0
   14.2612   10.0220    3.0230 H   0  0  0  0  0
   16.4314    8.8251    2.9405 H   0  0  0  0  0
   16.6596    9.3557    1.2561 H   0  0  0  0  0
   16.6411   10.5547    2.5725 H   0  0  0  0  0
   14.8493   10.6111    0.0867 H   0  0  0  0  0
   13.3271   10.9776    0.9351 H   0  0  0  0  0
   14.8300   11.8103    1.4030 H   0  0  0  0  0
   10.1903    5.4259    0.1603 H   0  0  0  0  0
    8.4646    6.4487   -1.0656 H   0  0  0  0  0
    9.4804    6.2327   -2.4841 H   0  0  0  0  0
    8.7413    8.7380   -1.2786 H   0  0  0  0  0
    9.8820    8.5106   -2.5979 H   0  0  0  0  0
   11.6407    9.0382   -1.1705 H   0  0  0  0  0
   10.5163    9.3203    0.1078 H   0  0  0  0  0
   12.9500    5.3861   -0.0222 H   0  0  0  0  0
   14.7327    4.5320   -1.3610 H   0  0  0  0  0
   12.5602    2.5243   -2.1093 H   0  0  0  0  0
   13.3707    2.5480   -0.5255 H   0  0  0  0  0
   15.5454    2.6260   -2.1647 H   0  0  0  0  0
   14.4163    1.7140   -3.1965 H   0  0  0  0  0
   13.9636    0.4309   -0.8699 H   0  0  0  0  0
   15.6317    0.9681   -0.5575 H   0  0  0  0  0
   14.7999   -1.1119   -2.4768 H   0  0  0  0  0
   18.4021    0.6868   -2.6244 H   0  0  0  0  0
   17.0908    1.4160   -1.6917 H   0  0  0  0  0
   16.4787   -2.0384   -3.6704 H   0  0  0  0  0
   14.0927    6.5949   -2.8233 H   0  0  0  0  0
   13.9473    7.4042   -5.0447 H   0  0  0  0  0
   13.3350    4.8115   -6.6429 H   0  0  0  0  0
   14.8712    5.9091   -6.8088 H   0  0  0  0  0
   14.8202    4.5458   -5.6661 H   0  0  0  0  0
   17.0806    5.4673   -5.6747 H   0  0  0  0  0
   16.3133    5.8657   -4.1204 H   0  0  0  0  0
   15.9235    8.1255   -4.7657 H   0  0  0  0  0
   16.2063    7.7690   -6.4864 H   0  0  0  0  0
   18.6408    7.1114   -5.1868 H   0  0  0  0  0
   17.7951   11.0434   -5.4198 H   0  0  0  0  0
   16.4941    9.8544   -5.5420 H   0  0  0  0  0
   20.2992    8.6357   -5.0336 H   0  0  0  0  0
  1  2  1  0  0  0
  2  3  1  0  0  0
  2  5  1  0  0  0
  3  4  2  0  0  0
  3  6  1  0  0  0
  6  7  1  0  0  0
  7  8  1  0  0  0
  7 10  1  0  0  0
  8  9  2  0  0  0
  8 17  1  0  0  0
 10 11  1  0  0  0
 11 12  4  0  0  0
 11 13  4  0  0  0
 12 14  4  0  0  0
 13 15  4  0  0  0
 14 16  4  0  0  0
 15 16  4  0  0  0
 17 18  1  0  0  0
 18 19  1  0  0  0
 18 21  1  0  0  0
 19 20  2  0  0  0
 19 22  1  0  0  0
 22 23  1  0  0  0
 22 28  1  0  0  0
 23 24  1  0  0  0
 23 26  1  0  0  0
 24 25  2  0  0  0
 24 29  1  0  0  0
 26 27  1  0  0  0
 27 28  1  0  0  0
 29 30  1  0  0  0
 29 35  1  0  0  0
 30 31  1  0  0  0
 30 33  1  0  0  0
 31 32  2  0  0  0
 31 36  1  0  0  0
 33 34  1  0  0  0
 34 35  1  0  0  0
 36 37  1  0  0  0
 37 38  1  0  0  0
 37 40  1  0  0  0
 38 39  2  0  0  0
 38 44  1  0  0  0
 40 41  1  0  0  0
 41 42  1  0  0  0
 41 43  1  0  0  0
 44 45  1  0  0  0
 44 50  1  0  0  0
 45 46  1  0  0  0
 45 48  1  0  0  0
 46 47  2  0  0  0
 46 51  1  0  0  0
 48 49  1  0  0  0
 49 50  1  0  0  0
 51 52  1  0  0  0
 52 53  1  0  0  0
 52 55  1  0  0  0
 53 54  2  0  0  0
 53 62  1  0  0  0
 55 56  1  0  0  0
 56 57  1  0  0  0
 57 58  1  0  0  0
 58 59  1  0  0  0
 59 60  1  0  0  0
 59 61  2  0  0  0
 62 63  1  0  0  0
 63 64  1  0  0  0
 63 66  1  0  0  0
 64 65  1  0  0  0
 64 73  2  0  0  0
 66 67  1  0  0  0
 67 68  1  0  0  0
 68 69  1  0  0  0
 69 70  1  0  0  0
 70 71  1  0  0  0
 70 72  2  0  0  0
  1 74  1  0  0  0
  1 75  1  0  0  0
  1 76  1  0  0  0
  2 77  1  0  0  0
  5 78  1  0  0  0
  5 79  1  0  0  0
  5 80  1  0  0  0
  6 81  1  0  0  0
  7 82  1  0  0  0
 10 83  1  0  0  0
 10 84  1  0  0  0
 12 85  1  0  0  0
 13 86  1  0  0  0
 14 87  1  0  0  0
 15 88  1  0  0  0
 16 89  1  0  0  0
 17 90  1  0  0  0
 18 91  1  0  0  0
 21 92  1  0  0  0
 21 93  1  0  0  0
 21 94  1  0  0  0
 23 95  1  0  0  0
 26 96  1  0  0  0
 26 97  1  0  0  0
 27 98  1  0  0  0
 27 99  1  0  0  0
 28100  1  0  0  0
 28101  1  0  0  0
 30102  1  0  0  0
 33103  1  0  0  0
 33104  1  0  0  0
 34105  1  0  0  0
 34106  1  0  0  0
 35107  1  0  0  0
 35108  1  0  0  0
 36109  1  0  0  0
 37110  1  0  0  0
 40111  1  0  0  0
 40112  1  0  0  0
 41113  1  0  0  0
 42114  1  0  0  0
 42115  1  0  0  0
 42116  1  0  0  0
 43117  1  0  0  0
 43118  1  0  0  0
 43119  1  0  0  0
 45120  1  0  0  0
 48121  1  0  0  0
 48122  1  0  0  0
 49123  1  0  0  0
 49124  1  0  0  0
 50125  1  0  0  0
 50126  1  0  0  0
 51127  1  0  0  0
 52128  1  0  0  0
 55129  1  0  0  0
 55130  1  0  0  0
 56131  1  0  0  0
 56132  1  0  0  0
 57133  1  0  0  0
 57134  1  0  0  0
 58135  1  0  0  0
 60136  1  0  0  0
 60137  1  0  0  0
 61138  1  0  0  0
 62139  1  0  0  0
 63140  1  0  0  0
 65141  1  0  0  0
 66142  1  0  0  0
 66143  1  0  0  0
 67144  1  0  0  0
 67145  1  0  0  0
 68146  1  0  0  0
 68147  1  0  0  0
 69148  1  0  0  0
 71149  1  0  0  0
 71150  1  0  0  0
 72151  1  0  0  0
M  END
$$$$
