### 
### Created by X-TOOL on Mon Sep 10 21:12:45 2018
### 

@<TRIPOS>MOLECULE
1prl_ligand
  152   155     1     0     0
SMALL
GAST_HUCK


@<TRIPOS>ATOM
      1 N           2.1760   16.4660    9.4510 N.4       1 ALA         0.2377
      2 CA          3.1570   15.7660   10.3280 C.3       1 ALA         0.0621
      3 C           3.5830   14.4530    9.6680 C.2       1 ALA         0.2265
      4 O           3.1400   14.1180    8.5870 O.2       1 ALA        -0.3907
      5 CB          2.5100   15.4700   11.6820 C.3       1 ALA        -0.0040
      6 H1          1.8948   17.3312    9.8851 H         1 ALA         0.2015
      7 H2          1.3674   15.8794    9.3162 H         1 ALA         0.2015
      8 H3          2.6023   16.6609    8.5586 H         1 ALA         0.2015
      9 H4          4.0395   16.4059   10.4753 H         1 ALA         0.1095
     10 H5          3.2340   14.9534   12.3292 H         1 ALA         0.0310
     11 H6          1.6278   14.8297   11.5347 H         1 ALA         0.0310
     12 H7          2.2030   16.4140   12.1559 H         1 ALA         0.0310
     13 N           4.4380   13.7070   10.3100 N.am      1 PHE        -0.2592
     14 CA          4.8900   12.4160    9.7180 C.3       1 PHE         0.1406
     15 C           5.5750   12.6840    8.3760 C.2       1 PHE         0.2059
     16 O           5.0600   12.3480    7.3290 O.2       1 PHE        -0.3942
     17 CB          3.6820   11.5040    9.5000 C.3       1 PHE         0.0214
     18 CG          3.6760   10.4020   10.5620 C.ar      1 PHE        -0.0386
     19 CD1         4.5950    9.3710   10.5080 C.ar      1 PHE        -0.0601
     20 CD2         2.7500   10.4250   11.5900 C.ar      1 PHE        -0.0601
     21 CE1         4.5890    8.3790   11.4670 C.ar      1 PHE        -0.0686
     22 CE2         2.7450    9.4320   12.5470 C.ar      1 PHE        -0.0686
     23 CZ          3.6640    8.4090   12.4860 C.ar      1 PHE        -0.0687
     24 H8          4.7902   14.0007   11.1987 H         1 PHE         0.1886
     25 H9          5.5999   11.9274   10.4015 H         1 PHE         0.0823
     26 H10         3.7417   11.0492    8.5002 H         1 PHE         0.0474
     27 H11         2.7575   12.0948    9.5796 H         1 PHE         0.0474
     28 H12         5.3250    9.3416    9.7072 H         1 PHE         0.0557
     29 H13         2.0242   11.2284   11.6434 H         1 PHE         0.0557
     30 H14         5.3140    7.5746   11.4179 H         1 PHE         0.0599
     31 H15         2.0159    9.4571   13.3488 H         1 PHE         0.0599
     32 H16         3.6593    7.6289   13.2386 H         1 PHE         0.0559
     33 N           6.7320   13.2860    8.3980 N.am      1 ALA        -0.2639
     34 CA          7.4450   13.5730    7.1220 C.3       1 ALA         0.1284
     35 C           7.5720   12.2760    6.3110 C.2       1 ALA         0.2061
     36 O           7.9280   11.2500    6.8530 O.2       1 ALA        -0.3942
     37 CB          8.8410   14.1170    7.4320 C.3       1 ALA        -0.0244
     38 H17         7.1399   13.5546    9.2706 H         1 ALA         0.1883
     39 H18         6.8795   14.3173    6.5422 H         1 ALA         0.0797
     40 H19         9.3690   14.3295    6.4907 H         1 ALA         0.0277
     41 H20         9.4060   13.3699    8.0087 H         1 ALA         0.0277
     42 H21         8.7517   15.0427    8.0194 H         1 ALA         0.0277
     43 N           7.2780   12.3600    5.0350 N.am      1 PRO        -0.2498
     44 CA          7.3550   11.1930    4.1340 C.3       1 PRO         0.1340
     45 C           8.7980   10.6750    4.0540 C.2       1 PRO         0.2066
     46 O           9.6460   11.3150    3.4650 O.2       1 PRO        -0.3942
     47 CB          6.9040   11.7240    2.7660 C.3       1 PRO        -0.0104
     48 CG          6.5830   13.2320    2.9260 C.3       1 PRO        -0.0281
     49 CD          6.8530   13.6150    4.3890 C.3       1 PRO         0.0369
     50 H22         6.6901   10.3878    4.4796 H         1 PRO         0.0802
     51 H23         6.0059   11.1836    2.4323 H         1 PRO         0.0313
     52 H24         7.7086   11.5889    2.0282 H         1 PRO         0.0313
     53 H25         5.5275   13.4186    2.6787 H         1 PRO         0.0287
     54 H26         7.2262   13.8247    2.2589 H         1 PRO         0.0287
     55 H27         7.6492   14.3715    4.4508 H         1 PRO         0.0524
     56 H28         5.9396   14.0044    4.8624 H         1 PRO         0.0524
     57 N           9.0360    9.5280    4.6430 N.am      1 PRO        -0.2498
     58 CA         10.3770    8.9150    4.6450 C.3       1 PRO         0.1338
     59 C          10.8270    8.6230    3.2100 C.2       1 PRO         0.2041
     60 O          10.0410    8.2300    2.3720 O.2       1 PRO        -0.3944
     61 CB         10.2120    7.6090    5.4340 C.3       1 PRO        -0.0104
     62 CG          8.7300    7.5120    5.8810 C.3       1 PRO        -0.0281
     63 CD          7.9970    8.7510    5.3440 C.3       1 PRO         0.0369
     64 H29        11.1075    9.5757    5.1347 H         1 PRO         0.0802
     65 H30        10.8694    7.6185    6.3159 H         1 PRO         0.0313
     66 H31        10.4676    6.7506    4.7953 H         1 PRO         0.0313
     67 H32         8.6708    7.4886    6.9791 H         1 PRO         0.0287
     68 H33         8.2738    6.5995    5.4697 H         1 PRO         0.0287
     69 H34         7.1973    8.4570    4.6483 H         1 PRO         0.0524
     70 H35         7.5673    9.3357    6.1707 H         1 PRO         0.0524
     71 N          12.0860    8.8180    2.9210 N.am      1 LEU        -0.2637
     72 CA         12.5830    8.5510    1.5420 C.3       1 LEU         0.1314
     73 C          11.9900    7.2260    1.0390 C.2       1 LEU         0.2064
     74 O          12.2290    6.1910    1.6290 O.2       1 LEU        -0.3942
     75 CB         14.1100    8.4450    1.5650 C.3       1 LEU        -0.0101
     76 CG         14.7040    9.7640    2.0610 C.3       1 LEU        -0.0425
     77 CD1        16.2190    9.6140    2.2190 C.3       1 LEU        -0.0625
     78 CD2        14.4060   10.8710    1.0480 C.3       1 LEU        -0.0625
     79 H36        12.7158    9.1463    3.6249 H         1 LEU         0.1883
     80 H37        12.2791    9.3702    0.8738 H         1 LEU         0.0800
     81 H38        14.4786    8.2354    0.5500 H         1 LEU         0.0315
     82 H39        14.4111    7.6303    2.2400 H         1 LEU         0.0315
     83 H40        14.2577   10.0251    3.0319 H         1 LEU         0.0298
     84 H41        16.6461   10.5628    2.5758 H         1 LEU         0.0232
     85 H42        16.6649    9.3534    1.2478 H         1 LEU         0.0232
     86 H43        16.4347    8.8181    2.9470 H         1 LEU         0.0232
     87 H44        13.3174   10.9799    0.9335 H         1 LEU         0.0232
     88 H45        14.8524   10.6096    0.0773 H         1 LEU         0.0232
     89 H46        14.8338   11.8195    1.4049 H         1 LEU         0.0232
     90 N          11.2000    7.3010   -0.0100 N.am      1 PRO        -0.2498
     91 CA         10.5570    6.1100   -0.6050 C.3       1 PRO         0.1338
     92 C          11.5480    5.3150   -1.4670 C.2       1 PRO         0.2041
     93 O          11.2380    4.9290   -2.5770 O.2       1 PRO        -0.3944
     94 CB          9.4420    6.6780   -1.4900 C.3       1 PRO        -0.0104
     95 CG          9.6500    8.2140   -1.5750 C.3       1 PRO        -0.0281
     96 CD         10.8110    8.5780   -0.6340 C.3       1 PRO         0.0369
     97 H47        10.1442    5.4588    0.1795 H         1 PRO         0.0802
     98 H48         8.4604    6.4561   -1.0460 H         1 PRO         0.0313
     99 H49         9.4983    6.2353   -2.4954 H         1 PRO         0.0313
    100 H50         8.7339    8.7348   -1.2595 H         1 PRO         0.0287
    101 H51         9.8989    8.5024   -2.6069 H         1 PRO         0.0287
    102 H52        11.6513    9.0045   -1.2015 H         1 PRO         0.0524
    103 H53        10.4808    9.2981    0.1291 H         1 PRO         0.0524
    104 N          12.7230    5.0580   -0.9610 N.am      1 ARG        -0.2637
    105 CA         13.7400    4.2890   -1.7400 C.3       1 ARG         0.1310
    106 C          13.6640    4.6630   -3.2230 C.2       1 ARG         0.2033
    107 O          13.4070    3.8290   -4.0690 O.2       1 ARG        -0.3944
    108 CB         13.4770    2.7900   -1.5830 C.3       1 ARG        -0.0092
    109 CG         14.6510    2.0030   -2.1720 C.3       1 ARG        -0.0156
    110 CD         14.8980    0.7480   -1.3330 C.3       1 ARG         0.0627
    111 NE         15.4130   -0.3420   -2.2090 N.pl3     1 ARG        -0.2723
    112 CZ         16.6480   -0.3140   -2.6350 C.cat     1 ARG         0.2882
    113 NH1        17.4380    0.6680   -2.2920 N.pl3     1 ARG        -0.2849
    114 NH2        17.0940   -1.2700   -3.4030 N.pl3     1 ARG        -0.2849
    115 H54        12.9455    5.3796   -0.0407 H         1 ARG         0.1883
    116 H55        14.7437    4.5257   -1.3573 H         1 ARG         0.0800
    117 H56        12.5521    2.5220   -2.1147 H         1 ARG         0.0313
    118 H57        13.3703    2.5459   -0.5157 H         1 ARG         0.0313
    119 H58        15.5536    2.6316   -2.1652 H         1 ARG         0.0301
    120 H59        14.4147    1.7117   -3.2061 H         1 ARG         0.0301
    121 H60        13.9551    0.4280   -0.8656 H         1 ARG         0.0689
    122 H61        15.6384    0.9700   -0.5504 H         1 ARG         0.0689
    123 H62        14.7939   -1.1195   -2.4794 H         1 ARG         0.2642
    124 H63        18.4111    0.6879   -2.6290 H         1 ARG         0.2615
    125 H64        17.0879    1.4225   -1.6845 H         1 ARG         0.2615
    126 H65        16.4722   -2.0450   -3.6743 H         1 ARG         0.2615
    127 H66        18.0678   -1.2496   -3.7379 H         1 ARG         0.2615
    128 N          13.8810    5.9080   -3.5470 N.am      1 ARG        -0.2695
    129 CA         13.8190    6.3240   -4.9750 C.3       1 ARG         0.0945
    130 C          12.4610    5.9330   -5.5620 C.2       1 ARG         0.0601
    131 O          12.4390    5.0990   -6.4530 O.co2     1 ARG        -0.5666
    132 CB         14.9330    5.6260   -5.7580 C.3       1 ARG        -0.0148
    133 CG         16.2920    6.0470   -5.1950 C.3       1 ARG        -0.0162
    134 CD         16.5140    7.5360   -5.4670 C.3       1 ARG         0.0627
    135 NE         17.9590    7.8620   -5.2970 N.pl3     1 ARG        -0.2723
    136 CZ         18.3530    9.1070   -5.2890 C.cat     1 ARG         0.2882
    137 NH1        17.4840   10.0720   -5.4270 N.pl3     1 ARG        -0.2849
    138 NH2        19.6190    9.3880   -5.1420 N.pl3     1 ARG        -0.2849
    139 OXT        11.4650    6.4760   -5.1130 O.co2     1 ARG        -0.5666
    140 H67        14.0886    6.5815   -2.8375 H         1 ARG         0.1875
    141 H68        13.9488    7.4140   -5.0454 H         1 ARG         0.0726
    142 H69        14.8708    5.9120   -6.8183 H         1 ARG         0.0307
    143 H70        14.8192    4.5359   -5.6649 H         1 ARG         0.0307
    144 H71        17.0876    5.4625   -5.6802 H         1 ARG         0.0301
    145 H72        16.3126    5.8648   -4.1104 H         1 ARG         0.0301
    146 H73        15.9182    8.1309   -4.7592 H         1 ARG         0.0689
    147 H74        16.2036    7.7711   -6.4958 H         1 ARG         0.0689
    148 H75        18.6475    7.1040   -5.1857 H         1 ARG         0.2642
    149 H76        17.7982   11.0529   -5.4202 H         1 ARG         0.2615
    150 H77        16.4844    9.8522   -5.5426 H         1 ARG         0.2615
    151 H78        20.3059    8.6283   -5.0330 H         1 ARG         0.2615
    152 H79        19.9312   10.3695   -5.1350 H         1 ARG         0.2615
@<TRIPOS>BOND
     1    1    2 1  
     2    1    6 1  
     3    1    7 1  
     4    1    8 1  
     5    2    3 1  
     6    2    5 1  
     7    2    9 1  
     8    3    4 2  
     9    3   13 am 
    10    5   10 1  
    11    5   11 1  
    12    5   12 1  
    13   13   14 1  
    14   13   24 1  
    15   14   15 1  
    16   14   17 1  
    17   14   25 1  
    18   15   16 2  
    19   15   33 am 
    20   17   18 1  
    21   17   26 1  
    22   17   27 1  
    23   18   19 ar 
    24   18   20 ar 
    25   19   21 ar 
    26   19   28 1  
    27   20   22 ar 
    28   20   29 1  
    29   21   23 ar 
    30   21   30 1  
    31   22   23 ar 
    32   22   31 1  
    33   23   32 1  
    34   33   34 1  
    35   33   38 1  
    36   34   35 1  
    37   34   37 1  
    38   34   39 1  
    39   35   36 2  
    40   35   43 am 
    41   37   40 1  
    42   37   41 1  
    43   37   42 1  
    44   43   44 1  
    45   43   49 1  
    46   44   45 1  
    47   44   47 1  
    48   44   50 1  
    49   45   46 2  
    50   45   57 am 
    51   47   48 1  
    52   47   51 1  
    53   47   52 1  
    54   48   49 1  
    55   48   53 1  
    56   48   54 1  
    57   49   55 1  
    58   49   56 1  
    59   57   58 1  
    60   57   63 1  
    61   58   59 1  
    62   58   61 1  
    63   58   64 1  
    64   59   60 2  
    65   59   71 am 
    66   61   62 1  
    67   61   65 1  
    68   61   66 1  
    69   62   63 1  
    70   62   67 1  
    71   62   68 1  
    72   63   69 1  
    73   63   70 1  
    74   71   72 1  
    75   71   79 1  
    76   72   73 1  
    77   72   75 1  
    78   72   80 1  
    79   73   74 2  
    80   73   90 am 
    81   75   76 1  
    82   75   81 1  
    83   75   82 1  
    84   76   77 1  
    85   76   78 1  
    86   76   83 1  
    87   77   84 1  
    88   77   85 1  
    89   77   86 1  
    90   78   87 1  
    91   78   88 1  
    92   78   89 1  
    93   90   91 1  
    94   90   96 1  
    95   91   92 1  
    96   91   94 1  
    97   91   97 1  
    98   92   93 2  
    99   92  104 am 
   100   94   95 1  
   101   94   98 1  
   102   94   99 1  
   103   95   96 1  
   104   95  100 1  
   105   95  101 1  
   106   96  102 1  
   107   96  103 1  
   108  104  105 1  
   109  104  115 1  
   110  105  106 1  
   111  105  108 1  
   112  105  116 1  
   113  106  107 2  
   114  106  128 am 
   115  108  109 1  
   116  108  117 1  
   117  108  118 1  
   118  109  110 1  
   119  109  119 1  
   120  109  120 1  
   121  110  111 1  
   122  110  121 1  
   123  110  122 1  
   124  111  112 ar 
   125  111  123 1  
   126  112  113 ar 
   127  112  114 ar 
   128  113  124 1  
   129  113  125 1  
   130  114  126 1  
   131  114  127 1  
   132  128  129 1  
   133  128  140 1  
   134  129  130 1  
   135  129  132 1  
   136  129  141 1  
   137  130  131 ar 
   138  130  139 ar 
   139  132  133 1  
   140  132  142 1  
   141  132  143 1  
   142  133  134 1  
   143  133  144 1  
   144  133  145 1  
   145  134  135 1  
   146  134  146 1  
   147  134  147 1  
   148  135  136 ar 
   149  135  148 1  
   150  136  137 ar 
   151  136  138 ar 
   152  137  149 1  
   153  137  150 1  
   154  138  151 1  
   155  138  152 1  
@<TRIPOS>SUBSTRUCTURE
     1 ALA         1

