6fz4_ligand
  -I-interpret- 

 36 38  0  0  0  0  0  0  0  0999 V2000
   19.9180   29.6690   62.8190 C   0  0  0  0  0
   19.1600   30.6720   63.3710 C   0  0  0  0  0
   19.7530   31.8300   63.8760 C   0  0  0  0  0
   21.1330   31.9500   63.8180 C   0  0  0  0  0
   27.1210   26.1690   61.6560 C   0  0  0  0  0
   27.2950   26.5230   62.9910 C   0  0  0  0  0
   26.5320   27.5360   63.5650 C   0  0  0  0  0
   26.1760   26.8310   60.8720 C   0  0  0  0  0
   25.6000   28.2070   62.7940 C   0  0  0  0  0
   25.3850   27.8420   61.4560 C   0  0  0  0  0
   21.2940   29.7860   62.7470 C   0  0  0  0  0
   23.1290   33.2670   64.3090 C   0  0  0  0  0
   17.6640   30.4630   63.4320 C   0  0  0  0  0
   23.9590   32.1470   63.6990 C   0  0  0  0  0
   21.9000   30.9210   63.2370 C   0  0  0  0  0
   24.7730   29.2810   63.4400 C   0  0  0  0  0
   19.3780   28.5650   62.2950 F   0  0  0  0  0
   17.3770   29.4470   64.2340 F   0  0  0  0  0
   17.0800   31.5500   63.8730 F   0  0  0  0  0
   17.1490   30.1870   62.2610 F   0  0  0  0  0
   21.8230   33.0490   64.3290 N   0  0  0  0  0
   23.2690   31.0570   63.2180 N   0  0  0  0  0
   24.0500   30.0320   62.6020 N   0  0  0  0  0
   23.6850   34.2810   64.7680 O   0  0  0  0  0
   25.1690   32.2840   63.5880 O   0  0  0  0  0
   24.7650   29.4030   64.6790 O   0  0  0  0  0
   26.7370   27.8420   64.8850 O   0  0  0  0  0
   19.1435   32.6241   64.3073 H   0  0  0  0  0
   27.7250   25.3722   61.2220 H   0  0  0  0  0
   28.0376   26.0007   63.5941 H   0  0  0  0  0
   26.0505   26.5701   59.8211 H   0  0  0  0  0
   24.6103   28.3376   60.8710 H   0  0  0  0  0
   21.8924   28.9882   62.3070 H   0  0  0  0  0
   21.2538   33.7709   64.7708 H   0  0  0  0  0
   24.0560   29.8830   61.5930 H   0  0  0  0  0
   26.1461   28.5533   65.1429 H   0  0  0  0  0
  1  2  4  0  0  0
 11  1  4  0  0  0
  1 17  1  0  0  0
  3  2  4  0  0  0
  2 13  1  0  0  0
  4  3  4  0  0  0
 15  4  4  0  0  0
  4 21  1  0  0  0
  6  5  4  0  0  0
  8  5  4  0  0  0
  7  6  4  0  0  0
  9  7  4  0  0  0
  7 27  1  0  0  0
 10  8  4  0  0  0
  9 10  4  0  0  0
 16  9  1  0  0  0
 15 11  4  0  0  0
 14 12  1  0  0  0
 12 21  1  0  0  0
 12 24  2  0  0  0
 13 18  1  0  0  0
 13 19  1  0  0  0
 13 20  1  0  0  0
 22 14  1  0  0  0
 14 25  2  0  0  0
 22 15  1  0  0  0
 23 16  1  0  0  0
 16 26  2  0  0  0
 22 23  1  0  0  0
  3 28  1  0  0  0
  5 29  1  0  0  0
  6 30  1  0  0  0
  8 31  1  0  0  0
 10 32  1  0  0  0
 11 33  1  0  0  0
 21 34  1  0  0  0
 23 35  1  0  0  0
 27 36  1  0  0  0
M  END
$$$$
