5zop_ligand
  -I-interpret- 

185186  0  0  0  0  0  0  0  0999 V2000
  -42.4510    2.7450   -9.5950 N   0  3  0  0  0
  -43.6960    3.2350  -10.1760 C   0  0  0  0  0
  -44.8970    2.6900   -9.4060 C   0  0  0  0  0
  -45.2090    1.5010   -9.4850 O   0  0  0  0  0
  -43.7840    2.8430  -11.6550 C   0  0  0  0  0
  -44.6110    3.7840  -12.5320 C   0  0  0  0  0
  -46.0890    3.7920  -12.1780 C   0  0  0  0  0
  -46.5100    4.6800  -11.4070 O   0  0  0  0  0
  -46.8260    2.9080  -12.6660 O   0  0  0  0  0
  -45.5600    3.5650   -8.6530 N   0  0  0  0  0
  -46.7680    3.1980   -7.9380 C   0  0  0  0  0
  -47.9690    4.0000   -8.3950 C   0  0  0  0  0
  -47.8130    5.0480   -9.0270 O   0  0  0  0  0
  -49.1740    3.5400   -8.0680 N   0  0  0  0  0
  -50.3900    4.1630   -8.5690 C   0  0  0  0  0
  -51.3240    4.5190   -7.4220 C   0  0  0  0  0
  -51.4230    3.7820   -6.4360 O   0  0  0  0  0
  -51.1120    3.2410   -9.5500 C   0  0  0  0  0
  -52.2860    3.8510  -10.0560 O   0  0  0  0  0
  -51.9870    5.6690   -7.5490 N   0  0  0  0  0
  -53.0370    6.0230   -6.6010 C   0  0  0  0  0
  -54.3000    5.1930   -6.8350 C   0  0  0  0  0
  -55.0710    4.9560   -5.8980 O   0  0  0  0  0
  -53.3250    7.5340   -6.6700 C   0  0  0  0  0
  -54.2740    7.9540   -5.5440 C   0  0  0  0  0
  -53.8860    7.9170   -8.0290 C   0  0  0  0  0
  -54.5260    9.4460   -5.4800 C   0  0  0  0  0
  -54.5330    4.7360   -8.0710 N   0  0  0  0  0
  -55.7000    3.9030   -8.3480 C   0  0  0  0  0
  -55.6240    2.5660   -7.6200 C   0  0  0  0  0
  -56.6520    2.0440   -7.1710 O   0  0  0  0  0
  -55.8350    3.6800   -9.8580 C   0  0  0  0  0
  -56.0320    4.9380  -10.5150 O   0  0  0  0  0
  -57.0070    2.7620  -10.1730 C   0  0  0  0  0
  -54.4230    2.0090   -7.4750 N   0  0  0  0  0
  -54.2360    0.7190   -6.8260 C   0  0  0  0  0
  -53.8080    0.8270   -5.3690 C   0  0  0  0  0
  -53.7470   -0.1980   -4.6830 O   0  0  0  0  0
  -53.1980   -0.1090   -7.5910 C   0  0  0  0  0
  -53.5540   -0.3470   -9.0420 C   0  0  0  0  0
  -52.5040   -1.1530   -9.7750 C   0  0  0  0  0
  -51.3850   -1.3320   -9.2900 O   0  0  0  0  0
  -52.8610   -1.6480  -10.9500 N   0  0  0  0  0
  -53.5060    2.0280   -4.8840 N   0  0  0  0  0
  -52.9430    2.1680   -3.5590 C   0  0  0  0  0
  -51.4770    1.8200   -3.4650 C   0  0  0  0  0
  -50.9580    1.6790   -2.3520 O   0  0  0  0  0
  -50.7930    1.6750   -4.5990 N   0  0  0  0  0
  -49.4050    1.2360   -4.6150 C   0  0  0  0  0
  -48.4780    2.4300   -4.4320 C   0  0  0  0  0
  -48.5570    3.3870   -5.2140 O   0  0  0  0  0
  -49.0850    0.5230   -5.9180 C   0  0  0  0  0
  -49.9430   -0.6170   -6.0580 O   0  0  0  0  0
  -47.6350    0.0640   -5.9340 C   0  0  0  0  0
  -47.6110    2.4270   -3.4220 N   0  0  0  0  0
  -46.6990    3.5570   -3.2190 C   0  0  0  0  0
  -45.7030    3.7150   -4.3560 C   0  0  0  0  0
  -45.2930    2.7440   -4.9970 O   0  0  0  0  0
  -45.9840    3.1980   -1.9120 C   0  0  0  0  0
  -46.0060    1.7050   -1.8920 C   0  0  0  0  0
  -47.3300    1.3180   -2.4930 C   0  0  0  0  0
  -45.3180    4.9650   -4.6030 N   0  0  0  0  0
  -44.1840    5.2280   -5.4780 C   0  0  0  0  0
  -42.9100    4.6820   -4.8490 C   0  0  0  0  0
  -42.7060    4.7800   -3.6350 O   0  0  0  0  0
  -44.0380    6.7300   -5.7280 C   0  0  0  0  0
  -45.2380    7.4900   -6.2910 C   0  0  0  0  0
  -44.9230    8.9730   -6.3950 C   0  0  0  0  0
  -45.6330    6.9300   -7.6440 C   0  0  0  0  0
  -42.0450    4.1070   -5.6790 N   0  0  0  0  0
  -40.7670    3.6030   -5.1970 C   0  0  0  0  0
  -39.7920    3.5410   -6.3620 C   0  0  0  0  0
  -40.1900    3.4730   -7.5280 O   0  0  0  0  0
  -40.9100    2.2310   -4.5280 C   0  0  0  0  0
  -41.5300    1.1590   -5.4050 C   0  0  0  0  0
  -41.6060   -0.1660   -4.6650 C   0  0  0  0  0
  -42.3440   -1.2110   -5.4810 C   0  0  0  0  0
  -43.7410   -0.7900   -5.7750 N   0  3  0  0  0
  -38.5070    3.5630   -6.0250 N   0  0  0  0  0
  -37.4500    3.6220   -7.0260 C   0  0  0  0  0
  -36.4770    2.4570   -6.8720 C   0  0  0  0  0
  -36.5190    1.4940   -7.6380 O   0  0  0  0  0
  -36.7030    4.9540   -6.9280 C   0  0  0  0  0
  -37.6110    6.1660   -6.9250 C   0  0  0  0  0
  -37.9920    6.7750   -8.1130 C   0  0  0  0  0
  -38.0890    6.6990   -5.7330 C   0  0  0  0  0
  -38.8230    7.8820   -8.1160 C   0  0  0  0  0
  -38.9210    7.8040   -5.7250 C   0  0  0  0  0
  -39.2840    8.3910   -6.9190 C   0  0  0  0  0
  -40.1110    9.4910   -6.9180 O   0  0  0  0  0
  -35.6300    2.4560   -5.9790 O   0  0  0  0  0
  -42.4072    3.0134   -8.6119 H   0  0  0  0  0
  -42.4177    1.7285   -9.6730 H   0  0  0  0  0
  -41.6606    3.1517  -10.0952 H   0  0  0  0  0
  -43.7071    4.3226  -10.1043 H   0  0  0  0  0
  -44.2746    1.8703  -11.6916 H   0  0  0  0  0
  -42.7665    2.8661  -12.0452 H   0  0  0  0  0
  -44.5208    3.4387  -13.5619 H   0  0  0  0  0
  -44.2306    4.7943  -12.3811 H   0  0  0  0  0
  -46.3030    2.3309  -13.2273 H   0  0  0  0  0
  -45.2091    4.5197   -8.5766 H   0  0  0  0  0
  -46.6093    3.3987   -6.8785 H   0  0  0  0  0
  -46.9700    2.1445   -8.1316 H   0  0  0  0  0
  -49.2472    2.7310   -7.4511 H   0  0  0  0  0
  -50.1028    5.0758   -9.0909 H   0  0  0  0  0
  -51.3925    2.3269   -9.0266 H   0  0  0  0  0
  -50.4433    3.0278  -10.3839 H   0  0  0  0  0
  -52.7185    3.2512  -10.6682 H   0  0  0  0  0
  -51.7585    6.3045   -8.3134 H   0  0  0  0  0
  -52.6893    5.7905   -5.5944 H   0  0  0  0  0
  -52.3842    8.0678   -6.5358 H   0  0  0  0  0
  -53.8092    7.6626   -4.6021 H   0  0  0  0  0
  -55.2330    7.4705   -5.7304 H   0  0  0  0  0
  -53.1634    7.6615   -8.8041 H   0  0  0  0  0
  -54.8150    7.3741   -8.2033 H   0  0  0  0  0
  -54.0806    8.9892   -8.0512 H   0  0  0  0  0
  -53.5818    9.9661   -5.3185 H   0  0  0  0  0
  -54.9697    9.7788   -6.4183 H   0  0  0  0  0
  -55.2073    9.6632   -4.6573 H   0  0  0  0  0
  -53.8896    4.9717   -8.8265 H   0  0  0  0  0
  -56.5818    4.4271   -7.9793 H   0  0  0  0  0
  -54.9188    3.2102  -10.2156 H   0  0  0  0  0
  -56.1161    4.7943  -11.4604 H   0  0  0  0  0
  -56.8514    1.7974   -9.6898 H   0  0  0  0  0
  -57.9284    3.2110   -9.8023 H   0  0  0  0  0
  -57.0777    2.6223  -11.2517 H   0  0  0  0  0
  -53.6051    2.5036   -7.8312 H   0  0  0  0  0
  -55.2101    0.2302   -6.8402 H   0  0  0  0  0
  -53.1397   -1.0839   -7.1070 H   0  0  0  0  0
  -52.2615    0.4484   -7.5738 H   0  0  0  0  0
  -53.6332    0.6238   -9.5312 H   0  0  0  0  0
  -54.4877   -0.9087   -9.0702 H   0  0  0  0  0
  -52.1987   -2.2027  -11.4922 H   0  0  0  0  0
  -53.7983   -1.4746  -11.3129 H   0  0  0  0  0
  -53.6731    2.8586   -5.4520 H   0  0  0  0  0
  -53.4785    1.4761   -2.9089 H   0  0  0  0  0
  -53.0417    3.2166   -3.2785 H   0  0  0  0  0
  -51.2567    1.8781   -5.4845 H   0  0  0  0  0
  -49.2532    0.5376   -3.7920 H   0  0  0  0  0
  -49.2441    1.2154   -6.7447 H   0  0  0  0  0
  -49.7418   -1.0684   -6.8810 H   0  0  0  0  0
  -46.9801    0.9296   -5.8340 H   0  0  0  0  0
  -47.4630   -0.6212   -5.1040 H   0  0  0  0  0
  -47.4265   -0.4441   -6.8755 H   0  0  0  0  0
  -47.2276    4.5096   -3.1834 H   0  0  0  0  0
  -46.4722    3.6318   -1.0393 H   0  0  0  0  0
  -44.9712    3.5986   -1.8696 H   0  0  0  0  0
  -45.8965    1.3162   -0.8796 H   0  0  0  0  0
  -45.1724    1.2844   -2.4544 H   0  0  0  0  0
  -47.3003    0.3485   -2.9902 H   0  0  0  0  0
  -48.1110    1.1869   -1.7441 H   0  0  0  0  0
  -45.8204    5.7436   -4.1767 H   0  0  0  0  0
  -44.3566    4.7312   -6.4327 H   0  0  0  0  0
  -43.2599    6.8203   -6.4860 H   0  0  0  0  0
  -43.8560    7.1678   -4.7465 H   0  0  0  0  0
  -46.0799    7.3644   -5.6102 H   0  0  0  0  0
  -44.6870    9.3633   -5.4050 H   0  0  0  0  0
  -44.0686    9.1161   -7.0566 H   0  0  0  0  0
  -45.7882    9.4995   -6.7977 H   0  0  0  0  0
  -44.7953    7.0272   -8.3346 H   0  0  0  0  0
  -45.8973    5.8779   -7.5372 H   0  0  0  0  0
  -46.4892    7.4838   -8.0291 H   0  0  0  0  0
  -42.2801    4.0177   -6.6675 H   0  0  0  0  0
  -40.3866    4.2829   -4.4347 H   0  0  0  0  0
  -41.5722    2.3629   -3.6723 H   0  0  0  0  0
  -39.9041    1.8937   -4.2781 H   0  0  0  0  0
  -40.9116    1.0305   -6.2934 H   0  0  0  0  0
  -42.5392    1.4679   -5.6774 H   0  0  0  0  0
  -42.1449   -0.0112   -3.7302 H   0  0  0  0  0
  -40.5915   -0.5206   -4.4828 H   0  0  0  0  0
  -42.3769   -2.1367   -4.9064 H   0  0  0  0  0
  -41.8182   -1.3443   -6.4264 H   0  0  0  0  0
  -44.2049   -1.5144   -6.3231 H   0  0  0  0  0
  -44.2442   -0.6502   -4.8989 H   0  0  0  0  0
  -43.7279    0.0821   -6.3038 H   0  0  0  0  0
  -38.2533    3.5379   -5.0374 H   0  0  0  0  0
  -37.9125    3.5454   -8.0101 H   0  0  0  0  0
  -37.2210    1.6269   -8.2792 H   0  0  0  0  0
  -36.0607    5.0315   -7.8053 H   0  0  0  0  0
  -36.1596    4.9529   -5.9831 H   0  0  0  0  0
  -37.6304    6.3744   -9.0600 H   0  0  0  0  0
  -37.8029    6.2377   -4.7878 H   0  0  0  0  0
  -39.1114    8.3487   -9.0578 H   0  0  0  0  0
  -39.2873    8.2081   -4.7813 H   0  0  0  0  0
  -40.3400    9.7169   -6.0135 H   0  0  0  0  0
  1  2  1  0  0  0
  2  3  1  0  0  0
  2  5  1  0  0  0
  3  4  2  0  0  0
  3 10  1  0  0  0
  5  6  1  0  0  0
  6  7  1  0  0  0
  7  8  2  0  0  0
  7  9  1  0  0  0
 10 11  1  0  0  0
 11 12  1  0  0  0
 12 13  2  0  0  0
 12 14  1  0  0  0
 14 15  1  0  0  0
 15 16  1  0  0  0
 15 18  1  0  0  0
 16 17  2  0  0  0
 16 20  1  0  0  0
 18 19  1  0  0  0
 20 21  1  0  0  0
 21 22  1  0  0  0
 21 24  1  0  0  0
 22 23  2  0  0  0
 22 28  1  0  0  0
 24 25  1  0  0  0
 24 26  1  0  0  0
 25 27  1  0  0  0
 28 29  1  0  0  0
 29 30  1  0  0  0
 29 32  1  0  0  0
 30 31  2  0  0  0
 30 35  1  0  0  0
 32 33  1  0  0  0
 32 34  1  0  0  0
 35 36  1  0  0  0
 36 37  1  0  0  0
 36 39  1  0  0  0
 37 38  2  0  0  0
 37 44  1  0  0  0
 39 40  1  0  0  0
 40 41  1  0  0  0
 41 42  2  0  0  0
 41 43  1  0  0  0
 44 45  1  0  0  0
 45 46  1  0  0  0
 46 47  2  0  0  0
 46 48  1  0  0  0
 48 49  1  0  0  0
 49 50  1  0  0  0
 49 52  1  0  0  0
 50 51  2  0  0  0
 50 55  1  0  0  0
 52 53  1  0  0  0
 52 54  1  0  0  0
 55 56  1  0  0  0
 55 61  1  0  0  0
 56 57  1  0  0  0
 56 59  1  0  0  0
 57 58  2  0  0  0
 57 62  1  0  0  0
 59 60  1  0  0  0
 60 61  1  0  0  0
 62 63  1  0  0  0
 63 64  1  0  0  0
 63 66  1  0  0  0
 64 65  2  0  0  0
 64 70  1  0  0  0
 66 67  1  0  0  0
 67 68  1  0  0  0
 67 69  1  0  0  0
 70 71  1  0  0  0
 71 72  1  0  0  0
 71 74  1  0  0  0
 72 73  2  0  0  0
 72 79  1  0  0  0
 74 75  1  0  0  0
 75 76  1  0  0  0
 76 77  1  0  0  0
 77 78  1  0  0  0
 79 80  1  0  0  0
 80 81  1  0  0  0
 80 83  1  0  0  0
 81 82  1  0  0  0
 81 91  2  0  0  0
 83 84  1  0  0  0
 84 85  4  0  0  0
 84 86  4  0  0  0
 85 87  4  0  0  0
 86 88  4  0  0  0
 87 89  4  0  0  0
 88 89  4  0  0  0
 89 90  1  0  0  0
  1 92  1  0  0  0
  1 93  1  0  0  0
  1 94  1  0  0  0
  2 95  1  0  0  0
  5 96  1  0  0  0
  5 97  1  0  0  0
  6 98  1  0  0  0
  6 99  1  0  0  0
  9100  1  0  0  0
 10101  1  0  0  0
 11102  1  0  0  0
 11103  1  0  0  0
 14104  1  0  0  0
 15105  1  0  0  0
 18106  1  0  0  0
 18107  1  0  0  0
 19108  1  0  0  0
 20109  1  0  0  0
 21110  1  0  0  0
 24111  1  0  0  0
 25112  1  0  0  0
 25113  1  0  0  0
 26114  1  0  0  0
 26115  1  0  0  0
 26116  1  0  0  0
 27117  1  0  0  0
 27118  1  0  0  0
 27119  1  0  0  0
 28120  1  0  0  0
 29121  1  0  0  0
 32122  1  0  0  0
 33123  1  0  0  0
 34124  1  0  0  0
 34125  1  0  0  0
 34126  1  0  0  0
 35127  1  0  0  0
 36128  1  0  0  0
 39129  1  0  0  0
 39130  1  0  0  0
 40131  1  0  0  0
 40132  1  0  0  0
 43133  1  0  0  0
 43134  1  0  0  0
 44135  1  0  0  0
 45136  1  0  0  0
 45137  1  0  0  0
 48138  1  0  0  0
 49139  1  0  0  0
 52140  1  0  0  0
 53141  1  0  0  0
 54142  1  0  0  0
 54143  1  0  0  0
 54144  1  0  0  0
 56145  1  0  0  0
 59146  1  0  0  0
 59147  1  0  0  0
 60148  1  0  0  0
 60149  1  0  0  0
 61150  1  0  0  0
 61151  1  0  0  0
 62152  1  0  0  0
 63153  1  0  0  0
 66154  1  0  0  0
 66155  1  0  0  0
 67156  1  0  0  0
 68157  1  0  0  0
 68158  1  0  0  0
 68159  1  0  0  0
 69160  1  0  0  0
 69161  1  0  0  0
 69162  1  0  0  0
 70163  1  0  0  0
 71164  1  0  0  0
 74165  1  0  0  0
 74166  1  0  0  0
 75167  1  0  0  0
 75168  1  0  0  0
 76169  1  0  0  0
 76170  1  0  0  0
 77171  1  0  0  0
 77172  1  0  0  0
 78173  1  0  0  0
 78174  1  0  0  0
 78175  1  0  0  0
 79176  1  0  0  0
 80177  1  0  0  0
 82178  1  0  0  0
 83179  1  0  0  0
 83180  1  0  0  0
 85181  1  0  0  0
 86182  1  0  0  0
 87183  1  0  0  0
 88184  1  0  0  0
 90185  1  0  0  0
M  END
$$$$
