### 
### Created by X-TOOL on Mon Aug  2 16:12:29 2021
### 

@<TRIPOS>MOLECULE
5zop_ligand
  183   184     1     0     0
SMALL
GAST_HUCK


@<TRIPOS>ATOM
      1 N         -42.4510    2.7450   -9.5950 N.4       1 GLU         0.2380
      2 CA        -43.6960    3.2350  -10.1760 C.3       1 GLU         0.0665
      3 C         -44.8970    2.6900   -9.4060 C.2       1 GLU         0.2266
      4 O         -45.2090    1.5010   -9.4850 O.2       1 GLU        -0.3907
      5 CB        -43.7840    2.8430  -11.6550 C.3       1 GLU         0.0194
      6 CG        -44.6110    3.7840  -12.5320 C.3       1 GLU         0.0075
      7 CD        -46.0890    3.7920  -12.1780 C.2       1 GLU         0.0351
      8 OE1       -46.5100    4.6800  -11.4070 O.co2     1 GLU        -0.5690
      9 OE2       -46.8260    2.9080  -12.6660 O.co2     1 GLU        -0.5690
     10 N         -45.5600    3.5650   -8.6530 N.am      1 GLU        -0.2637
     11 CA        -46.7680    3.1980   -7.9380 C.3       1 GLU         0.1202
     12 C         -47.9690    4.0000   -8.3950 C.2       1 GLU         0.2008
     13 O         -47.8130    5.0480   -9.0270 O.2       1 GLU        -0.3947
     14 N         -49.1740    3.5400   -8.0680 N.am      1 GLU        -0.2618
     15 CA        -50.3900    4.1630   -8.5690 C.3       1 GLU         0.1539
     16 C         -51.3240    4.5190   -7.4220 C.2       1 GLU         0.2062
     17 O         -51.4230    3.7820   -6.4360 O.2       1 GLU        -0.3943
     18 CB        -51.1120    3.2410   -9.5500 C.3       1 GLU         0.0843
     19 OG        -52.2860    3.8510  -10.0560 O.3       1 GLU        -0.3903
     20 N         -51.9870    5.6690   -7.5490 N.am      1 GLU        -0.2634
     21 CA        -53.0370    6.0230   -6.6010 C.3       1 GLU         0.1335
     22 C         -54.3000    5.1930   -6.8350 C.2       1 GLU         0.2042
     23 O         -55.0710    4.9560   -5.8980 O.2       1 GLU        -0.3944
     24 CB        -53.3250    7.5340   -6.6700 C.3       1 GLU        -0.0037
     25 CG1       -54.2740    7.9540   -5.5440 C.3       1 GLU        -0.0491
     26 CG2       -53.8860    7.9170   -8.0290 C.3       1 GLU        -0.0582
     27 CD1       -54.5260    9.4460   -5.4800 C.3       1 GLU        -0.0648
     28 N         -54.5330    4.7360   -8.0710 N.am      1 GLU        -0.2613
     29 CA        -55.7000    3.9030   -8.3480 C.3       1 GLU         0.1565
     30 C         -55.6240    2.5660   -7.6200 C.2       1 GLU         0.2065
     31 O         -56.6520    2.0440   -7.1710 O.2       1 GLU        -0.3943
     32 CB        -55.8350    3.6800   -9.8580 C.3       1 GLU         0.0924
     33 OG1       -56.0320    4.9380  -10.5150 O.3       1 GLU        -0.3874
     34 CG2       -57.0070    2.7620  -10.1730 C.3       1 GLU        -0.0346
     35 N         -54.4230    2.0090   -7.4750 N.am      1 GLU        -0.2635
     36 CA        -54.2360    0.7190   -6.8260 C.3       1 GLU         0.1330
     37 C         -53.8080    0.8270   -5.3690 C.2       1 GLU         0.2038
     38 O         -53.7470   -0.1980   -4.6830 O.2       1 GLU        -0.3944
     39 CB        -53.1980   -0.1090   -7.5910 C.3       1 GLU         0.0045
     40 CG        -53.5540   -0.3470   -9.0420 C.3       1 GLU         0.0412
     41 CD        -52.5040   -1.1530   -9.7750 C.2       1 GLU         0.1737
     42 OE1       -51.3850   -1.3320   -9.2900 O.2       1 GLU        -0.3973
     43 NE2       -52.8610   -1.6480  -10.9500 N.am      1 GLU        -0.3009
     44 N         -53.5060    2.0280   -4.8840 N.am      1 GLU        -0.2664
     45 CA        -52.9430    2.1680   -3.5590 C.3       1 GLU         0.1201
     46 C         -51.4770    1.8200   -3.4650 C.2       1 GLU         0.2008
     47 O         -50.9580    1.6790   -2.3520 O.2       1 GLU        -0.3947
     48 N         -50.7930    1.6750   -4.5990 N.am      1 GLU        -0.2616
     49 CA        -49.4050    1.2360   -4.6150 C.3       1 GLU         0.1567
     50 C         -48.4780    2.4300   -4.4320 C.2       1 GLU         0.2090
     51 O         -48.5570    3.3870   -5.2140 O.2       1 GLU        -0.3941
     52 CB        -49.0850    0.5230   -5.9180 C.3       1 GLU         0.0924
     53 OG1       -49.9430   -0.6170   -6.0580 O.3       1 GLU        -0.3874
     54 CG2       -47.6350    0.0640   -5.9340 C.3       1 GLU        -0.0346
     55 N         -47.6110    2.4270   -3.4220 N.am      1 GLU        -0.2498
     56 CA        -46.6990    3.5570   -3.2190 C.3       1 GLU         0.1338
     57 C         -45.7030    3.7150   -4.3560 C.2       1 GLU         0.2041
     58 O         -45.2930    2.7440   -4.9970 O.2       1 GLU        -0.3944
     59 CB        -45.9840    3.1980   -1.9120 C.3       1 GLU        -0.0104
     60 CG        -46.0060    1.7050   -1.8920 C.3       1 GLU        -0.0281
     61 CD        -47.3300    1.3180   -2.4930 C.3       1 GLU         0.0369
     62 N         -45.3180    4.9650   -4.6030 N.am      1 GLU        -0.2637
     63 CA        -44.1840    5.2280   -5.4780 C.3       1 GLU         0.1312
     64 C         -42.9100    4.6820   -4.8490 C.2       1 GLU         0.2039
     65 O         -42.7060    4.7800   -3.6350 O.2       1 GLU        -0.3944
     66 CB        -44.0380    6.7300   -5.7280 C.3       1 GLU        -0.0101
     67 CG        -45.2380    7.4900   -6.2910 C.3       1 GLU        -0.0425
     68 CD1       -44.9230    8.9730   -6.3950 C.3       1 GLU        -0.0625
     69 CD2       -45.6330    6.9300   -7.6440 C.3       1 GLU        -0.0625
     70 N         -42.0450    4.1070   -5.6790 N.am      1 GLU        -0.2637
     71 CA        -40.7670    3.6030   -5.1970 C.3       1 GLU         0.1309
     72 C         -39.7920    3.5410   -6.3620 C.2       1 GLU         0.2035
     73 O         -40.1900    3.4730   -7.5280 O.2       1 GLU        -0.3944
     74 CB        -40.9100    2.2310   -4.5280 C.3       1 GLU        -0.0122
     75 CG        -41.5300    1.1590   -5.4050 C.3       1 GLU        -0.0440
     76 CD        -41.6060   -0.1660   -4.6650 C.3       1 GLU        -0.0124
     77 CE        -42.3440   -1.2110   -5.4810 C.3       1 GLU        -0.0354
     78 NZ        -43.7410   -0.7900   -5.7750 N.4       1 GLU         0.2185
     79 N         -38.5070    3.5630   -6.0250 N.am      1 GLU        -0.2679
     80 CA        -37.4500    3.6220   -7.0260 C.3       1 GLU         0.1025
     81 C         -36.4770    2.4570   -6.8720 C.2       1 GLU         0.0619
     82 O         -36.5190    1.4940   -7.6380 O.co2     1 GLU        -0.5665
     83 CB        -36.7030    4.9540   -6.9280 C.3       1 GLU         0.0108
     84 CG        -37.6110    6.1660   -6.9250 C.ar      1 GLU        -0.0499
     85 CD1       -37.9920    6.7750   -8.1130 C.ar      1 GLU        -0.0686
     86 CD2       -38.0890    6.6990   -5.7330 C.ar      1 GLU        -0.0686
     87 CE1       -38.8230    7.8820   -8.1160 C.ar      1 GLU        -0.0398
     88 CE2       -38.9210    7.8040   -5.7250 C.ar      1 GLU        -0.0398
     89 CZ        -39.2840    8.3910   -6.9190 C.ar      1 GLU         0.0805
     90 OH        -40.1110    9.4910   -6.9180 O.3       1 GLU        -0.3376
     91 OXT       -35.6300    2.4560   -5.9790 O.co2     1 GLU        -0.5665
     92 H1        -41.6698    3.1137  -10.1145 H         1 GLU         0.2015
     93 H2        -42.4353    1.7379   -9.6344 H         1 GLU         0.2015
     94 H3        -42.3874    3.0448   -8.6347 H         1 GLU         0.2015
     95 H4        -43.7058    4.3326  -10.1049 H         1 GLU         0.1099
     96 H5        -44.2328    1.8405  -11.7148 H         1 GLU         0.0363
     97 H6        -42.7617    2.8119  -12.0598 H         1 GLU         0.0363
     98 H7        -44.5048    3.4678  -13.5802 H         1 GLU         0.0434
     99 H8        -44.2186    4.8050  -12.4154 H         1 GLU         0.0434
    100 H9        -45.2160    4.5010   -8.5781 H         1 GLU         0.1882
    101 H10       -46.6116    3.3753   -6.8637 H         1 GLU         0.0763
    102 H11       -46.9697    2.1301   -8.1079 H         1 GLU         0.0763
    103 H12       -49.2458    2.7468   -7.4632 H         1 GLU         0.1884
    104 H13       -50.1133    5.0878   -9.0965 H         1 GLU         0.0823
    105 H14       -51.3859    2.3099   -9.0323 H         1 GLU         0.0606
    106 H15       -50.4379    3.0100  -10.3880 H         1 GLU         0.0606
    107 H16       -52.0547    4.6540  -10.5078 H         1 GLU         0.2097
    108 H17       -51.7629    6.2920   -8.2984 H         1 GLU         0.1883
    109 H18       -52.6713    5.7951   -5.5889 H         1 GLU         0.0803
    110 H19       -52.3742    8.0695   -6.5318 H         1 GLU         0.0345
    111 H20       -53.8378    7.6348   -4.5860 H         1 GLU         0.0267
    112 H21       -55.2378    7.4460   -5.6955 H         1 GLU         0.0267
    113 H22       -53.1849    7.6038   -8.8166 H         1 GLU         0.0235
    114 H23       -54.0250    9.0072   -8.0743 H         1 GLU         0.0235
    115 H24       -54.8542    7.4173   -8.1801 H         1 GLU         0.0235
    116 H25       -55.2135    9.6664   -4.6501 H         1 GLU         0.0230
    117 H26       -54.9738    9.7832   -6.4264 H         1 GLU         0.0230
    118 H27       -53.5738    9.9721   -5.3169 H         1 GLU         0.0230
    119 H28       -53.9022    4.9671   -8.8117 H         1 GLU         0.1884
    120 H29       -56.5945    4.4356   -7.9929 H         1 GLU         0.0826
    121 H30       -54.9098    3.2177  -10.2324 H         1 GLU         0.0639
    122 H31       -56.1152    4.7958  -11.4506 H         1 GLU         0.2101
    123 H32       -57.0794    2.6202  -11.2614 H         1 GLU         0.0257
    124 H33       -57.9376    3.2141   -9.7994 H         1 GLU         0.0257
    125 H34       -56.8512    1.7881   -9.6860 H         1 GLU         0.0257
    126 H35       -53.6212    2.4939   -7.8242 H         1 GLU         0.1883
    127 H36       -55.1987    0.1878   -6.8562 H         1 GLU         0.0801
    128 H37       -53.0987   -1.0852   -7.0939 H         1 GLU         0.0337
    129 H38       -52.2351    0.4215   -7.5530 H         1 GLU         0.0337
    130 H39       -53.6631    0.6266   -9.5421 H         1 GLU         0.0504
    131 H40       -54.5092   -0.8907   -9.0856 H         1 GLU         0.0504
    132 H41       -52.2108   -2.1897  -11.4828 H         1 GLU         0.1814
    133 H42       -53.7808   -1.4802  -11.3047 H         1 GLU         0.1814
    134 H43       -53.6698    2.8423   -5.4409 H         1 GLU         0.1881
    135 H44       -53.4981    1.5066   -2.8775 H         1 GLU         0.0763
    136 H45       -53.0697    3.2130   -3.2398 H         1 GLU         0.0763
    137 H46       -51.2476    1.8741   -5.4672 H         1 GLU         0.1884
    138 H47       -49.2478    0.5348   -3.7822 H         1 GLU         0.0826
    139 H48       -49.2543    1.2131   -6.7577 H         1 GLU         0.0639
    140 H49       -49.7439   -1.0637   -6.8724 H         1 GLU         0.2101
    141 H50       -47.4233   -0.4490   -6.8837 H         1 GLU         0.0257
    142 H51       -47.4601   -0.6277   -5.0968 H         1 GLU         0.0257
    143 H52       -46.9730    0.9367   -5.8332 H         1 GLU         0.0257
    144 H53       -47.2661    4.4931   -3.1091 H         1 GLU         0.0802
    145 H54       -46.5220    3.6094   -1.0453 H         1 GLU         0.0313
    146 H55       -44.9505    3.5746   -1.9145 H         1 GLU         0.0313
    147 H56       -45.9281    1.3325   -0.8599 H         1 GLU         0.0287
    148 H57       -45.1777    1.2996   -2.4917 H         1 GLU         0.0287
    149 H58       -47.2552    0.3614   -3.0308 H         1 GLU         0.0524
    150 H59       -48.1084    1.2438   -1.7193 H         1 GLU         0.0524
    151 H60       -45.8106    5.7283   -4.1851 H         1 GLU         0.1883
    152 H61       -44.3528    4.7226   -6.4403 H         1 GLU         0.0800
    153 H62       -43.2067    6.8632   -6.4360 H         1 GLU         0.0315
    154 H63       -43.7789    7.1967   -4.7662 H         1 GLU         0.0315
    155 H64       -46.0857    7.3623   -5.6017 H         1 GLU         0.0298
    156 H65       -45.7955    9.5055   -6.8014 H         1 GLU         0.0232
    157 H66       -44.0609    9.1188   -7.0625 H         1 GLU         0.0232
    158 H67       -44.6846    9.3682   -5.3965 H         1 GLU         0.0232
    159 H68       -45.8563    5.8574   -7.5458 H         1 GLU         0.0232
    160 H69       -44.8045    7.0685   -8.3542 H         1 GLU         0.0232
    161 H70       -46.5247    7.4578   -8.0132 H         1 GLU         0.0232
    162 H71       -42.2755    4.0195   -6.6481 H         1 GLU         0.1883
    163 H72       -40.3753    4.3074   -4.4484 H         1 GLU         0.0800
    164 H73       -41.5406    2.3496   -3.6345 H         1 GLU         0.0312
    165 H74       -39.9082    1.8904   -4.2273 H         1 GLU         0.0312
    166 H75       -40.9158    1.0326   -6.3088 H         1 GLU         0.0269
    167 H76       -42.5452    1.4704   -5.6921 H         1 GLU         0.0269
    168 H77       -42.1358   -0.0150   -3.7129 H         1 GLU         0.0317
    169 H78       -40.5853   -0.5234   -4.4640 H         1 GLU         0.0317
    170 H79       -42.3669   -2.1545   -4.9160 H         1 GLU         0.0813
    171 H80       -41.8103   -1.3650   -6.4304 H         1 GLU         0.0813
    172 H81       -44.2005   -1.5052   -6.3167 H         1 GLU         0.1994
    173 H82       -43.7293    0.0718   -6.2976 H         1 GLU         0.1994
    174 H83       -44.2394   -0.6516   -4.9098 H         1 GLU         0.1994
    175 H84       -38.2582    3.5384   -5.0567 H         1 GLU         0.1877
    176 H85       -37.9133    3.5548   -8.0214 H         1 GLU         0.0747
    177 H86       -36.0217    5.0335   -7.7879 H         1 GLU         0.0446
    178 H87       -36.1189    4.9562   -5.9959 H         1 GLU         0.0446
    179 H88       -37.6324    6.3766   -9.0548 H         1 GLU         0.0530
    180 H89       -37.8045    6.2402   -4.7930 H         1 GLU         0.0530
    181 H90       -39.1098    8.3462   -9.0527 H         1 GLU         0.0525
    182 H91       -39.2853    8.2059   -4.7865 H         1 GLU         0.0525
    183 H92       -40.2635    9.7719   -7.8126 H         1 GLU         0.2458
@<TRIPOS>BOND
     1    1    2 1  
     2    2    3 1  
     3    2    5 1  
     4    3    4 2  
     5    3   10 am 
     6    5    6 1  
     7    6    7 1  
     8    7    8 ar 
     9    7    9 ar 
    10   10   11 1  
    11   11   12 1  
    12   12   13 2  
    13   12   14 am 
    14   14   15 1  
    15   15   16 1  
    16   15   18 1  
    17   16   17 2  
    18   16   20 am 
    19   18   19 1  
    20   20   21 1  
    21   21   22 1  
    22   21   24 1  
    23   22   23 2  
    24   22   28 am 
    25   24   25 1  
    26   24   26 1  
    27   25   27 1  
    28   28   29 1  
    29   29   30 1  
    30   29   32 1  
    31   30   31 2  
    32   30   35 am 
    33   32   33 1  
    34   32   34 1  
    35   35   36 1  
    36   36   37 1  
    37   36   39 1  
    38   37   38 2  
    39   37   44 am 
    40   39   40 1  
    41   40   41 1  
    42   41   42 2  
    43   41   43 am 
    44   44   45 1  
    45   45   46 1  
    46   46   47 2  
    47   46   48 am 
    48   48   49 1  
    49   49   50 1  
    50   49   52 1  
    51   50   51 2  
    52   50   55 am 
    53   52   53 1  
    54   52   54 1  
    55   55   56 1  
    56   55   61 1  
    57   56   57 1  
    58   56   59 1  
    59   57   58 2  
    60   57   62 am 
    61   59   60 1  
    62   60   61 1  
    63   62   63 1  
    64   63   64 1  
    65   63   66 1  
    66   64   65 2  
    67   64   70 am 
    68   66   67 1  
    69   67   68 1  
    70   67   69 1  
    71   70   71 1  
    72   71   72 1  
    73   71   74 1  
    74   72   73 2  
    75   72   79 am 
    76   74   75 1  
    77   75   76 1  
    78   76   77 1  
    79   77   78 1  
    80   79   80 1  
    81   80   81 1  
    82   80   83 1  
    83   81   82 ar 
    84   81   91 ar 
    85   83   84 1  
    86   84   85 ar 
    87   84   86 ar 
    88   85   87 ar 
    89   86   88 ar 
    90   87   89 ar 
    91   88   89 ar 
    92   89   90 1  
    93    1   92 1  
    94    1   93 1  
    95    1   94 1  
    96    2   95 1  
    97    5   96 1  
    98    5   97 1  
    99    6   98 1  
   100    6   99 1  
   101   10  100 1  
   102   11  101 1  
   103   11  102 1  
   104   14  103 1  
   105   15  104 1  
   106   18  105 1  
   107   18  106 1  
   108   19  107 1  
   109   20  108 1  
   110   21  109 1  
   111   24  110 1  
   112   25  111 1  
   113   25  112 1  
   114   26  113 1  
   115   26  114 1  
   116   26  115 1  
   117   27  116 1  
   118   27  117 1  
   119   27  118 1  
   120   28  119 1  
   121   29  120 1  
   122   32  121 1  
   123   33  122 1  
   124   34  123 1  
   125   34  124 1  
   126   34  125 1  
   127   35  126 1  
   128   36  127 1  
   129   39  128 1  
   130   39  129 1  
   131   40  130 1  
   132   40  131 1  
   133   43  132 1  
   134   43  133 1  
   135   44  134 1  
   136   45  135 1  
   137   45  136 1  
   138   48  137 1  
   139   49  138 1  
   140   52  139 1  
   141   53  140 1  
   142   54  141 1  
   143   54  142 1  
   144   54  143 1  
   145   56  144 1  
   146   59  145 1  
   147   59  146 1  
   148   60  147 1  
   149   60  148 1  
   150   61  149 1  
   151   61  150 1  
   152   62  151 1  
   153   63  152 1  
   154   66  153 1  
   155   66  154 1  
   156   67  155 1  
   157   68  156 1  
   158   68  157 1  
   159   68  158 1  
   160   69  159 1  
   161   69  160 1  
   162   69  161 1  
   163   70  162 1  
   164   71  163 1  
   165   74  164 1  
   166   74  165 1  
   167   75  166 1  
   168   75  167 1  
   169   76  168 1  
   170   76  169 1  
   171   77  170 1  
   172   77  171 1  
   173   78  172 1  
   174   78  173 1  
   175   78  174 1  
   176   79  175 1  
   177   80  176 1  
   178   83  177 1  
   179   83  178 1  
   180   85  179 1  
   181   86  180 1  
   182   87  181 1  
   183   88  182 1  
   184   90  183 1  
@<TRIPOS>SUBSTRUCTURE
     1 GLU         1

