2cgf_ligand
  -I-interpret- 

 42 43  0  0  0  0  0  0  0  0999 V2000
  -18.2190   34.3800   -6.0990 C   0  0  0  0  0
  -18.1900   33.4980   -4.8780 C   0  0  0  0  0
  -17.2660   32.4460   -4.8280 C   0  0  0  0  0
  -17.2280   31.5870   -3.7330 C   0  0  0  0  0
  -18.1340   31.7990   -2.7030 C   0  0  0  0  0
  -19.0290   32.8350   -2.7570 C   0  0  0  0  0
  -19.0900   33.6870   -3.8500 C   0  0  0  0  0
  -20.1050   34.8210   -3.8800 C   0  0  0  0  0
  -21.5320   34.4120   -4.3000 C   0  0  0  0  0
  -21.9440   32.9920   -4.7090 C   0  0  0  0  0
  -23.3330   32.8690   -5.3490 C   0  0  0  0  0
  -23.4590   31.7980   -6.4340 C   0  0  0  0  0
  -22.9590   32.1430   -7.8560 C   0  0  0  0  0
  -22.4020   33.5330   -8.1750 C   0  0  0  0  0
  -21.1360   33.5520   -8.5580 C   0  0  0  0  0
  -20.2980   34.7510   -8.9350 C   0  0  0  0  0
  -19.6770   35.5220   -7.7640 C   0  0  0  0  0
  -19.5220   34.7070   -6.5990 O   0  0  0  0  0
  -17.2250   34.7300   -6.7120 O   0  0  0  0  0
  -16.3960   32.2760   -5.8640 O   0  0  0  0  0
  -18.1560   30.9810   -1.6260 O   0  0  0  0  0
  -20.1290   33.0530   -1.3780 Cl  0  0  0  0  0
  -22.3390   35.3080   -4.2800 O   0  0  0  0  0
  -16.5070   30.7709   -3.6859 H   0  0  0  0  0
  -19.7529   35.5374   -4.6222 H   0  0  0  0  0
  -20.1757   35.2056   -2.8625 H   0  0  0  0  0
  -21.9689   32.3994   -3.7945 H   0  0  0  0  0
  -21.2251   32.6631   -5.4594 H   0  0  0  0  0
  -23.5421   33.8254   -5.8282 H   0  0  0  0  0
  -24.0209   32.5883   -4.5514 H   0  0  0  0  0
  -24.5288   31.6177   -6.5395 H   0  0  0  0  0
  -22.8314   30.9720   -6.0993 H   0  0  0  0  0
  -23.8507   32.0645   -8.4779 H   0  0  0  0  0
  -22.1114   31.4751   -8.0093 H   0  0  0  0  0
  -23.0032   34.4385   -8.0927 H   0  0  0  0  0
  -20.6365   32.5844   -8.6076 H   0  0  0  0  0
  -20.9653   35.4467   -9.4437 H   0  0  0  0  0
  -19.4674   34.3724   -9.5307 H   0  0  0  0  0
  -20.3418   36.3484   -7.5126 H   0  0  0  0  0
  -18.6889   35.8648   -8.0709 H   0  0  0  0  0
  -15.8311   31.5206   -5.6853 H   0  0  0  0  0
  -18.8392   31.2727   -1.0179 H   0  0  0  0  0
  1  2  1  0  0  0
  1 18  1  0  0  0
  1 19  2  0  0  0
  2  3  4  0  0  0
  2  7  4  0  0  0
  3  4  4  0  0  0
  3 20  1  0  0  0
  4  5  4  0  0  0
  5  6  4  0  0  0
  5 21  1  0  0  0
  6  7  4  0  0  0
  6 22  1  0  0  0
  7  8  1  0  0  0
  8  9  1  0  0  0
  9 10  1  0  0  0
  9 23  2  0  0  0
 10 11  1  0  0  0
 11 12  1  0  0  0
 12 13  1  0  0  0
 13 14  1  0  0  0
 14 15  2  0  0  0
 15 16  1  0  0  0
 16 17  1  0  0  0
 17 18  1  0  0  0
  4 24  1  0  0  0
  8 25  1  0  0  0
  8 26  1  0  0  0
 10 27  1  0  0  0
 10 28  1  0  0  0
 11 29  1  0  0  0
 11 30  1  0  0  0
 12 31  1  0  0  0
 12 32  1  0  0  0
 13 33  1  0  0  0
 13 34  1  0  0  0
 14 35  1  0  0  0
 15 36  1  0  0  0
 16 37  1  0  0  0
 16 38  1  0  0  0
 17 39  1  0  0  0
 17 40  1  0  0  0
 20 41  1  0  0  0
 21 42  1  0  0  0
M  END
$$$$
