3bwj_ligand
  -I-interpret- 

 97 99  0  0  0  0  0  0  0  0999 V2000
   25.0130   24.8410    8.0200 C   0  0  0  0  0
   35.4060   21.3600   13.5000 O   0  0  0  0  0
   36.3220   21.9960   12.9650 C   0  0  0  0  0
   37.4730   22.2240   13.6370 N   0  0  0  0  0
   36.1130   22.5140   11.5270 C   0  0  0  0  0
   36.7070   23.9100   11.2190 C   0  0  0  0  0
   38.2280   23.9250   11.0120 C   0  0  0  0  0
   38.7890   25.3250   10.7680 C   0  0  0  0  0
   40.0010   25.3040    9.9650 N   0  0  0  0  0
   40.2690   26.2090    9.0070 C   0  0  0  0  0
   40.5510   25.8200    7.7540 N   0  0  0  0  0
   40.2770   27.4440    9.2820 N   0  0  0  0  0
   36.3500   21.5330   10.4370 N   0  0  0  0  0
   37.3900   20.7160   10.1890 C   0  0  0  0  0
   38.5710   21.0280   10.3210 O   0  0  0  0  0
   37.0350   19.3320    9.6920 C   0  0  0  0  0
   36.8030   18.3720   10.8750 C   0  0  0  0  0
   38.0340   18.0830   11.7410 C   0  0  0  0  0
   38.0240   18.8420   13.0850 C   0  0  0  0  0
   37.4000   18.1340   14.2020 N   0  0  0  0  0
   36.1530   18.3920   14.6260 C   0  0  0  0  0
   35.1530   18.0260   13.9310 N   0  0  0  0  0
   35.9590   19.0230   15.7930 N   0  0  0  0  0
   35.8270   19.3740    8.8720 N   0  0  0  0  0
   35.7640   19.7640    7.6010 C   0  0  0  0  0
   36.7260   20.1060    6.9220 O   0  0  0  0  0
   34.4010   19.7650    6.9550 C   0  0  0  0  0
   34.0940   21.1600    6.4050 C   0  0  0  0  0
   33.5710   22.0920    7.4870 C   0  0  0  0  0
   32.4400   21.4350    8.2830 C   0  0  0  0  0
   32.2310   22.0290    9.6720 C   0  0  0  0  0
   31.8460   23.4180    9.5940 N   0  0  0  0  0
   30.5390   23.7150    9.5380 C   0  0  0  0  0
   29.6630   22.8450    9.4920 O   0  0  0  0  0
   30.1970   25.1850    9.5590 C   0  0  0  0  0
   29.4840   25.5210    8.3440 O   0  0  0  0  0
   28.3280   26.3210    8.6350 C   0  0  0  0  0
   28.3910   26.6480   10.1030 C   0  0  0  0  0
   29.0070   27.9100   10.1370 O   0  0  0  0  0
   29.2820   25.6030   10.7420 C   0  0  0  0  0
   29.9640   26.1520   11.9030 O   0  0  0  0  0
   27.0960   25.5190    8.4280 N   0  0  0  0  0
   25.8840   26.0060    8.1280 C   0  0  0  0  0
   25.7800   23.7630    8.2720 N   0  0  0  0  0
   27.0270   24.1860    8.5130 C   0  0  0  0  0
   25.3550   27.2370    7.9450 N   0  0  0  0  0
   24.0430   27.3810    7.6620 C   0  0  0  0  0
   23.1710   26.3690    7.5560 N   0  0  0  0  0
   23.5810   25.0690    7.7130 C   0  0  0  0  0
   22.7430   23.9950    7.6090 N   0  0  0  0  0
   37.5872   21.8712   14.5872 H   0  0  0  0  0
   38.2270   22.7488   13.1937 H   0  0  0  0  0
   35.0334   22.6642   11.5279 H   0  0  0  0  0
   36.4968   24.5428   12.0813 H   0  0  0  0  0
   36.2555   24.2495   10.2868 H   0  0  0  0  0
   38.4471   23.3232   10.1300 H   0  0  0  0  0
   38.6887   23.5386   11.9211 H   0  0  0  0  0
   39.0329   25.7640   11.7354 H   0  0  0  0  0
   38.0368   25.9005   10.2285 H   0  0  0  0  0
   40.6828   24.5651   10.1371 H   0  0  0  0  0
   40.7674   26.5160    7.0404 H   0  0  0  0  0
   40.5490   24.8284    7.5152 H   0  0  0  0  0
   40.0798   27.7561   10.2329 H   0  0  0  0  0
   35.5919   21.4672    9.7578 H   0  0  0  0  0
   37.8699   18.9716    9.0910 H   0  0  0  0  0
   36.4948   17.4188   10.4455 H   0  0  0  0  0
   36.0716   18.8518   11.5253 H   0  0  0  0  0
   38.9130   18.4084   11.1845 H   0  0  0  0  0
   38.0376   17.0161   11.9643 H   0  0  0  0  0
   37.4393   19.7481   12.9259 H   0  0  0  0  0
   39.0667   18.9997   13.3606 H   0  0  0  0  0
   37.9370   17.4110   14.6808 H   0  0  0  0  0
   35.2974   17.5349   13.0487 H   0  0  0  0  0
   35.0112   19.2083   16.1212 H   0  0  0  0  0
   36.7592   19.3177   16.3526 H   0  0  0  0  0
   34.9554   19.0786    9.3119 H   0  0  0  0  0
   33.6489   19.4945    7.6961 H   0  0  0  0  0
   34.3867   19.0428    6.1387 H   0  0  0  0  0
   33.3274   21.0638    5.6362 H   0  0  0  0  0
   35.0168   21.5817    6.0067 H   0  0  0  0  0
   33.1847   22.9942    7.0127 H   0  0  0  0  0
   34.3876   22.3255    8.1701 H   0  0  0  0  0
   32.7062   20.3865    8.4169 H   0  0  0  0  0
   31.5180   21.5912    7.7230 H   0  0  0  0  0
   33.1677   21.9584   10.2248 H   0  0  0  0  0
   31.4356   21.4753   10.1708 H   0  0  0  0  0
   32.5504   24.1556    9.5818 H   0  0  0  0  0
   31.1468   25.7101    9.6601 H   0  0  0  0  0
   28.3107   27.2058    7.9986 H   0  0  0  0  0
   27.4308   26.6565   10.6189 H   0  0  0  0  0
   29.0889   28.2004   11.0483 H   0  0  0  0  0
   28.7714   24.7357   11.1606 H   0  0  0  0  0
   29.3172   26.3784   12.5753 H   0  0  0  0  0
   27.8692   23.5345    8.7461 H   0  0  0  0  0
   23.6661   28.3922    7.5088 H   0  0  0  0  0
   23.1051   23.0508    7.7422 H   0  0  0  0  0
   21.7552   24.1374    7.3982 H   0  0  0  0  0
 43  1  4  0  0  0
  1 44  4  0  0  0
  1 49  4  0  0  0
  3  2  2  0  0  0
  3  4  1  0  0  0
  5  3  1  0  0  0
  5  6  1  0  0  0
 13  5  1  0  0  0
  6  7  1  0  0  0
  7  8  1  0  0  0
  8  9  1  0  0  0
  9 10  1  0  0  0
 10 11  1  0  0  0
 10 12  2  0  0  0
 14 13  1  0  0  0
 14 15  2  0  0  0
 16 14  1  0  0  0
 16 17  1  0  0  0
 24 16  1  0  0  0
 17 18  1  0  0  0
 18 19  1  0  0  0
 19 20  1  0  0  0
 20 21  1  0  0  0
 21 22  2  0  0  0
 21 23  1  0  0  0
 25 24  1  0  0  0
 25 26  2  0  0  0
 27 25  1  0  0  0
 28 27  1  0  0  0
 29 28  1  0  0  0
 30 29  1  0  0  0
 31 30  1  0  0  0
 32 31  1  0  0  0
 33 32  1  0  0  0
 33 34  2  0  0  0
 35 33  1  0  0  0
 36 35  1  0  0  0
 40 35  1  0  0  0
 37 36  1  0  0  0
 37 38  1  0  0  0
 42 37  1  0  0  0
 38 39  1  0  0  0
 38 40  1  0  0  0
 40 41  1  0  0  0
 42 43  4  0  0  0
 42 45  4  0  0  0
 43 46  4  0  0  0
 44 45  4  0  0  0
 46 47  4  0  0  0
 47 48  4  0  0  0
 48 49  4  0  0  0
 49 50  1  0  0  0
  4 51  1  0  0  0
  4 52  1  0  0  0
  5 53  1  0  0  0
  6 54  1  0  0  0
  6 55  1  0  0  0
  7 56  1  0  0  0
  7 57  1  0  0  0
  8 58  1  0  0  0
  8 59  1  0  0  0
  9 60  1  0  0  0
 11 61  1  0  0  0
 11 62  1  0  0  0
 12 63  1  0  0  0
 13 64  1  0  0  0
 16 65  1  0  0  0
 17 66  1  0  0  0
 17 67  1  0  0  0
 18 68  1  0  0  0
 18 69  1  0  0  0
 19 70  1  0  0  0
 19 71  1  0  0  0
 20 72  1  0  0  0
 22 73  1  0  0  0
 23 74  1  0  0  0
 23 75  1  0  0  0
 24 76  1  0  0  0
 27 77  1  0  0  0
 27 78  1  0  0  0
 28 79  1  0  0  0
 28 80  1  0  0  0
 29 81  1  0  0  0
 29 82  1  0  0  0
 30 83  1  0  0  0
 30 84  1  0  0  0
 31 85  1  0  0  0
 31 86  1  0  0  0
 32 87  1  0  0  0
 35 88  1  0  0  0
 37 89  1  0  0  0
 38 90  1  0  0  0
 39 91  1  0  0  0
 40 92  1  0  0  0
 41 93  1  0  0  0
 45 94  1  0  0  0
 47 95  1  0  0  0
 50 96  1  0  0  0
 50 97  1  0  0  0
M  END
$$$$
