6mlg_ligand
  -I-interpret- 

 27 26  0  0  0  0  0  0  0  0999 V2000
  -14.0300    1.3140   12.0460 N   0  3  0  0  0
  -13.8710    1.9850   10.7600 C   0  0  0  0  0
  -14.4900    1.1230    9.6570 C   0  0  0  0  0
  -14.6220    1.5600    8.5060 O   0  0  0  0  0
  -12.3810    2.2810   10.4570 C   0  0  0  0  0
  -11.4360    1.0820   10.5940 C   0  0  0  0  0
  -10.0020    1.3910   10.1150 C   0  0  0  0  0
   -9.0690    0.2970   10.4160 N   0  0  0  0  0
   -7.7910    0.2510   10.0350 C   0  0  0  0  0
   -7.0340   -0.7950   10.3580 N   0  0  0  0  0
   -7.2620    1.2330    9.3150 N   0  0  0  0  0
  -14.8960   -0.0210    9.9110 O   0  0  0  0  0
  -15.0198    1.1342   12.2142 H   0  0  0  0  0
  -13.5202    0.4306   12.0325 H   0  0  0  0  0
  -13.6607    1.9098   12.7870 H   0  0  0  0  0
  -14.3879    2.9438   10.8003 H   0  0  0  0  0
  -12.0545    3.0216   11.1870 H   0  0  0  0  0
  -12.3311    2.6013    9.4163 H   0  0  0  0  0
  -11.8281    0.2760    9.9737 H   0  0  0  0  0
  -11.3848    0.8170   11.6501 H   0  0  0  0  0
   -9.6560    2.2846   10.6344 H   0  0  0  0  0
  -10.0274    1.5274    9.0339 H   0  0  0  0  0
   -9.4261   -0.4892   10.9589 H   0  0  0  0  0
   -6.0615   -0.8344   10.0528 H   0  0  0  0  0
   -7.4263   -1.5572   10.9107 H   0  0  0  0  0
   -7.8338    2.0341    9.0471 H   0  0  0  0  0
  -14.7276   -0.2214   10.8346 H   0  0  0  0  0
  1  2  1  0  0  0
  2  3  1  0  0  0
  2  5  1  0  0  0
  3  4  2  0  0  0
  3 12  1  0  0  0
  5  6  1  0  0  0
  6  7  1  0  0  0
  7  8  1  0  0  0
  8  9  1  0  0  0
  9 10  1  0  0  0
  9 11  2  0  0  0
  1 13  1  0  0  0
  1 14  1  0  0  0
  1 15  1  0  0  0
  2 16  1  0  0  0
  5 17  1  0  0  0
  5 18  1  0  0  0
  6 19  1  0  0  0
  6 20  1  0  0  0
  7 21  1  0  0  0
  7 22  1  0  0  0
  8 23  1  0  0  0
 10 24  1  0  0  0
 10 25  1  0  0  0
 11 26  1  0  0  0
 12 27  1  0  0  0
M  END
$$$$
