6imo_ligand
  -I-interpret- 

 47 50  0  0  0  0  0  0  0  0999 V2000
   25.0610  157.3150   24.8740 C   0  0  0  0  0
   24.8980  156.6890   28.8590 C   0  0  0  0  0
   24.3720  158.3110   25.5850 C   0  0  0  0  0
   23.5050  159.1600   24.9060 C   0  0  0  0  0
   26.3470  155.2850   23.3740 C   0  0  0  0  0
   24.5890  158.4420   27.0850 C   0  0  0  0  0
   22.6890  159.9980   27.1110 C   0  0  0  0  0
   22.7370  160.2410   25.6210 C   0  0  0  0  0
   23.0880  158.7280   20.7510 C   0  0  0  0  0
   24.7360  160.5530   28.3840 C   0  0  0  0  0
   23.9550  157.2480   27.8340 C   0  0  0  0  0
   24.0420  159.7140   27.5820 N   0  0  0  0  0
   26.0680  156.4590   30.7570 N   0  0  0  0  0
   24.8930  157.1700   23.5150 C   0  0  0  0  0
   23.3400  159.0030   23.5270 C   0  0  0  0  0
   25.1470  157.2240   30.0910 C   0  0  0  0  0
   26.4410  155.4030   29.9650 C   0  0  0  0  0
   25.7260  155.5100   28.7530 C   0  0  0  0  0
   27.3410  154.3650   30.2060 C   0  0  0  0  0
   27.5130  153.4340   29.2070 C   0  0  0  0  0
   24.0240  158.0360   22.8290 C   0  0  0  0  0
   26.8140  153.5170   28.0020 C   0  0  0  0  0
   25.9270  154.5430   27.7610 C   0  0  0  0  0
   23.9140  157.8180   21.4820 O   0  0  0  0  0
   25.5120  156.2400   22.7260 O   0  0  0  0  0
   25.8220  160.3010   28.8770 O   0  0  0  0  0
   25.7386  156.6470   25.4057 H   0  0  0  0  0
   27.1505  155.8029   23.8978 H   0  0  0  0  0
   25.7555  154.7126   24.0885 H   0  0  0  0  0
   26.7718  154.6114   22.6298 H   0  0  0  0  0
   25.6623  158.4351   27.2748 H   0  0  0  0  0
   22.0360  159.1526   27.3278 H   0  0  0  0  0
   22.2976  160.8800   27.6179 H   0  0  0  0  0
   21.7156  160.2465   25.2403 H   0  0  0  0  0
   23.2373  161.1930   25.4437 H   0  0  0  0  0
   22.0715  158.6888   21.1425 H   0  0  0  0  0
   23.4810  159.7391   20.8574 H   0  0  0  0  0
   23.0841  158.4473   19.6978 H   0  0  0  0  0
   24.2927  161.5238   28.6054 H   0  0  0  0  0
   23.0543  157.5937   28.3413 H   0  0  0  0  0
   23.7237  156.4662   27.1105 H   0  0  0  0  0
   22.6543  159.6613   22.9935 H   0  0  0  0  0
   24.6814  158.1269   30.4861 H   0  0  0  0  0
   27.8860  154.2940   31.1473 H   0  0  0  0  0
   28.2121  152.6120   29.3607 H   0  0  0  0  0
   26.9728  152.7562   27.2377 H   0  0  0  0  0
   25.3907  154.6009   26.8138 H   0  0  0  0  0
  1  3  4  0  0  0
 14  1  4  0  0  0
 11  2  1  0  0  0
  2 16  4  0  0  0
  2 18  4  0  0  0
  4  3  4  0  0  0
  3  6  1  0  0  0
  4  8  1  0  0  0
 15  4  4  0  0  0
 25  5  1  0  0  0
  6 11  1  0  0  0
  6 12  1  0  0  0
  8  7  1  0  0  0
  7 12  1  0  0  0
 24  9  1  0  0  0
 12 10  1  0  0  0
 10 26  2  0  0  0
 16 13  4  0  0  0
 17 13  4  0  0  0
 21 14  4  0  0  0
 14 25  1  0  0  0
 21 15  4  0  0  0
 18 17  4  0  0  0
 17 19  4  0  0  0
 18 23  4  0  0  0
 19 20  4  0  0  0
 20 22  4  0  0  0
 21 24  1  0  0  0
 22 23  4  0  0  0
  1 27  1  0  0  0
  5 28  1  0  0  0
  5 29  1  0  0  0
  5 30  1  0  0  0
  6 31  1  0  0  0
  7 32  1  0  0  0
  7 33  1  0  0  0
  8 34  1  0  0  0
  8 35  1  0  0  0
  9 36  1  0  0  0
  9 37  1  0  0  0
  9 38  1  0  0  0
 10 39  1  0  0  0
 11 40  1  0  0  0
 11 41  1  0  0  0
 15 42  1  0  0  0
 16 43  1  0  0  0
 19 44  1  0  0  0
 20 45  1  0  0  0
 22 46  1  0  0  0
 23 47  1  0  0  0
M  END
$$$$
