4lge_ligand
  -I-interpret- 

 84 89  0  0  0  0  0  0  0  0999 V2000
  -22.9550    6.4510  -10.4690 N   0  3  0  0  0
  -24.4100    6.2740  -10.2760 C   0  0  0  0  0
  -22.5470    7.8260  -10.8130 C   0  0  0  0  0
  -21.0270    7.9660  -10.7110 C   0  0  0  0  0
  -23.0080    8.2050  -12.1940 C   0  0  0  0  0
  -23.3220    7.3350  -13.0110 O   0  0  0  0  0
  -23.1200    9.4980  -12.4800 N   0  0  0  0  0
  -23.5710   10.0070  -13.7700 C   0  0  0  0  0
  -22.4850   10.9380  -14.2890 C   0  0  0  0  0
  -21.6390   11.3820  -13.4960 O   0  0  0  0  0
  -24.9300   10.7830  -13.6850 C   0  0  0  0  0
  -24.7290   12.0800  -12.8630 C   0  0  0  0  0
  -26.0880   12.8050  -12.7130 C   0  0  0  0  0
  -27.0950   11.8730  -12.0350 C   0  0  0  0  0
  -27.3330   10.6180  -12.9040 C   0  0  0  0  0
  -26.0090    9.8440  -13.1070 C   0  0  0  0  0
  -22.3650   11.2430  -15.5970 N   0  0  0  0  0
  -23.3800   10.8100  -16.6310 C   0  0  0  0  0
  -22.7180   10.6150  -17.9860 C   0  0  0  0  0
  -23.7150   10.4300  -19.1580 C   0  0  0  0  0
  -22.8550   10.9130  -20.3590 C   0  0  0  0  0
  -21.3900   10.4540  -20.4350 C   0  0  0  0  0
  -21.7460   11.8190  -19.7730 C   0  0  0  0  0
  -22.0310   11.8950  -18.3400 N   0  3  0  0  0
  -20.8640   12.0610  -17.4770 C   0  0  0  0  0
  -21.3240   12.2010  -16.0050 C   0  0  0  0  0
  -21.8180   13.5900  -15.6900 C   0  0  0  0  0
  -23.0180   13.8200  -15.5150 O   0  0  0  0  0
  -20.8630   14.5200  -15.5810 N   0  0  0  0  0
  -21.1440   15.9110  -15.2080 C   0  0  0  0  0
  -21.5570   16.6710  -16.4840 C   0  0  0  0  0
  -20.3270   17.2330  -17.2200 C   0  0  0  0  0
  -19.5700   18.0640  -16.3050 O   0  0  0  0  0
  -19.2220   17.5340  -15.0870 C   0  0  0  0  0
  -18.1020   18.0540  -14.4150 C   0  0  0  0  0
  -17.7120   17.5380  -13.1780 C   0  0  0  0  0
  -18.3980   16.4900  -12.6100 C   0  0  0  0  0
  -19.5030   15.9840  -13.2730 C   0  0  0  0  0
  -19.9220   16.4970  -14.5040 C   0  0  0  0  0
  -22.6825    5.8543  -11.2501 H   0  0  0  0  0
  -22.5058    6.2189   -9.5832 H   0  0  0  0  0
  -24.7487    6.9184   -9.4647 H   0  0  0  0  0
  -24.9321    6.5400  -11.1951 H   0  0  0  0  0
  -24.6182    5.2336  -10.0264 H   0  0  0  0  0
  -23.0194    8.5036  -10.1018 H   0  0  0  0  0
  -20.5532    7.3091  -11.4404 H   0  0  0  0  0
  -20.7442    8.9991  -10.9128 H   0  0  0  0  0
  -20.7045    7.6891   -9.7073 H   0  0  0  0  0
  -22.8765   10.1733  -11.7554 H   0  0  0  0  0
  -23.7447    9.1621  -14.4364 H   0  0  0  0  0
  -25.2749   11.0917  -14.6718 H   0  0  0  0  0
  -24.0220   12.7318  -13.3762 H   0  0  0  0  0
  -24.3374   11.8304  -11.8769 H   0  0  0  0  0
  -26.4600   13.0847  -13.6986 H   0  0  0  0  0
  -25.9560   13.6997  -12.1046 H   0  0  0  0  0
  -28.0395   12.4019  -11.9073 H   0  0  0  0  0
  -26.6998   11.5658  -11.0667 H   0  0  0  0  0
  -27.7165   10.9269  -13.8764 H   0  0  0  0  0
  -28.0503    9.9690  -12.4016 H   0  0  0  0  0
  -25.6695    9.4573  -12.1461 H   0  0  0  0  0
  -26.1780    9.0219  -13.8025 H   0  0  0  0  0
  -24.1436   11.5827  -16.7200 H   0  0  0  0  0
  -23.8225    9.8650  -16.3160 H   0  0  0  0  0
  -22.0864    9.7327  -17.8821 H   0  0  0  0  0
  -24.6477   10.9803  -19.0342 H   0  0  0  0  0
  -24.0867    9.4108  -19.2637 H   0  0  0  0  0
  -23.6306   10.9296  -21.1246 H   0  0  0  0  0
  -20.6935   10.0615  -21.1759 H   0  0  0  0  0
  -20.7986    9.5662  -20.2111 H   0  0  0  0  0
  -21.2736   12.7938  -19.8946 H   0  0  0  0  0
  -22.5931   12.7310  -18.1801 H   0  0  0  0  0
  -20.3183   12.9569  -17.7732 H   0  0  0  0  0
  -20.2152   11.1904  -17.5730 H   0  0  0  0  0
  -20.4208   11.9802  -15.4362 H   0  0  0  0  0
  -19.8967   14.2504  -15.7653 H   0  0  0  0  0
  -21.9689   15.9922  -14.5002 H   0  0  0  0  0
  -22.2025   17.5022  -16.2003 H   0  0  0  0  0
  -22.0743   15.9793  -17.1489 H   0  0  0  0  0
  -20.6494   17.8267  -18.0754 H   0  0  0  0  0
  -19.7030   16.4123  -17.5738 H   0  0  0  0  0
  -17.5328   18.8678  -14.8642 H   0  0  0  0  0
  -16.8567   17.9693  -12.6579 H   0  0  0  0  0
  -18.0784   16.0667  -11.6578 H   0  0  0  0  0
  -20.0615   15.1633  -12.8229 H   0  0  0  0  0
  1  2  1  0  0  0
  1  3  1  0  0  0
  3  4  1  0  0  0
  3  5  1  0  0  0
  5  6  2  0  0  0
  5  7  1  0  0  0
  7  8  1  0  0  0
  8  9  1  0  0  0
  8 11  1  0  0  0
  9 10  2  0  0  0
  9 17  1  0  0  0
 11 12  1  0  0  0
 11 16  1  0  0  0
 12 13  1  0  0  0
 13 14  1  0  0  0
 14 15  1  0  0  0
 15 16  1  0  0  0
 17 18  1  0  0  0
 17 26  1  0  0  0
 18 19  1  0  0  0
 19 20  1  0  0  0
 19 24  1  0  0  0
 20 21  1  0  0  0
 21 22  1  0  0  0
 21 23  1  0  0  0
 22 23  1  0  0  0
 23 24  1  0  0  0
 24 25  1  0  0  0
 25 26  1  0  0  0
 26 27  1  0  0  0
 27 28  2  0  0  0
 27 29  1  0  0  0
 29 30  1  0  0  0
 30 31  1  0  0  0
 30 39  1  0  0  0
 31 32  1  0  0  0
 32 33  1  0  0  0
 33 34  1  0  0  0
 34 35  4  0  0  0
 34 39  4  0  0  0
 35 36  4  0  0  0
 36 37  4  0  0  0
 37 38  4  0  0  0
 38 39  4  0  0  0
  1 40  1  0  0  0
  1 41  1  0  0  0
  2 42  1  0  0  0
  2 43  1  0  0  0
  2 44  1  0  0  0
  3 45  1  0  0  0
  4 46  1  0  0  0
  4 47  1  0  0  0
  4 48  1  0  0  0
  7 49  1  0  0  0
  8 50  1  0  0  0
 11 51  1  0  0  0
 12 52  1  0  0  0
 12 53  1  0  0  0
 13 54  1  0  0  0
 13 55  1  0  0  0
 14 56  1  0  0  0
 14 57  1  0  0  0
 15 58  1  0  0  0
 15 59  1  0  0  0
 16 60  1  0  0  0
 16 61  1  0  0  0
 18 62  1  0  0  0
 18 63  1  0  0  0
 19 64  1  0  0  0
 20 65  1  0  0  0
 20 66  1  0  0  0
 21 67  1  0  0  0
 22 68  1  0  0  0
 22 69  1  0  0  0
 23 70  1  0  0  0
 24 71  1  0  0  0
 25 72  1  0  0  0
 25 73  1  0  0  0
 26 74  1  0  0  0
 29 75  1  0  0  0
 30 76  1  0  0  0
 31 77  1  0  0  0
 31 78  1  0  0  0
 32 79  1  0  0  0
 32 80  1  0  0  0
 35 81  1  0  0  0
 36 82  1  0  0  0
 37 83  1  0  0  0
 38 84  1  0  0  0
M  END
$$$$
