1o5e_ligand
  -I-interpret- 

 41 44  0  0  0  0  0  0  0  0999 V2000
   16.2360   -6.7590   25.1990 C   0  0  0  0  0
   14.9550   -6.0960   24.9820 C   0  0  0  0  0
   14.5530   -5.0590   25.8430 C   0  0  0  0  0
   15.4290   -4.7470   26.8720 C   0  0  0  0  0
   16.6010   -5.3500   27.0870 C   0  0  0  0  0
   17.0170   -6.3370   26.2690 C   0  0  0  0  0
   16.7520   -7.7960   24.4310 C   0  0  0  0  0
   17.9970   -8.1410   24.4950 N   0  0  0  0  0
   15.9630   -8.4220   23.6370 N   0  0  0  0  0
   15.3130   -3.8600   27.8410 N   0  0  0  0  0
   17.1700   -4.8250   28.1650 C   0  0  0  0  0
   16.3550   -3.8520   28.6810 C   0  0  0  0  0
   16.4660   -3.0320   29.8300 C   0  0  0  0  0
   17.5220   -3.2740   30.7300 C   0  0  0  0  0
   17.6860   -2.5520   31.8820 C   0  0  0  0  0
   16.7850   -1.5420   32.1780 C   0  0  0  0  0
   15.7020   -1.2250   31.3350 C   0  0  0  0  0
   15.5690   -2.0000   30.1640 C   0  0  0  0  0
   14.5140   -1.7840   29.3030 O   0  0  0  0  0
   14.8470   -0.1540   31.6900 C   0  0  0  0  0
   14.2990   -0.0390   32.9760 C   0  0  0  0  0
   13.4760    1.0430   33.3570 C   0  0  0  0  0
   13.1950    2.0280   32.4510 C   0  0  0  0  0
   13.7230    1.9370   31.1700 C   0  0  0  0  0
   14.5310    0.8720   30.7970 C   0  0  0  0  0
   13.7470   -6.5600   23.7390 Cl  0  0  0  0  0
   13.6085   -4.5316   25.7094 H   0  0  0  0  0
   17.9813   -6.8121   26.4492 H   0  0  0  0  0
   18.3447   -8.9058   23.9166 H   0  0  0  0  0
   18.6311   -7.6482   25.1239 H   0  0  0  0  0
   16.3186   -9.1857   23.0619 H   0  0  0  0  0
   18.1351   -5.1216   28.5757 H   0  0  0  0  0
   18.2354   -4.0656   30.5010 H   0  0  0  0  0
   18.5140   -2.7689   32.5568 H   0  0  0  0  0
   16.9192   -0.9717   33.0971 H   0  0  0  0  0
   13.9756   -1.0611   29.6334 H   0  0  0  0  0
   14.5170   -0.8151   33.7097 H   0  0  0  0  0
   13.0674    1.0929   34.3663 H   0  0  0  0  0
   12.5654    2.8727   32.7305 H   0  0  0  0  0
   13.4985    2.7174   30.4430 H   0  0  0  0  0
   14.9284    0.8356   29.7827 H   0  0  0  0  0
  1  2  4  0  0  0
  1  6  4  0  0  0
  1  7  1  0  0  0
  2  3  4  0  0  0
  2 26  1  0  0  0
  3  4  4  0  0  0
  4  5  4  0  0  0
  4 10  4  0  0  0
  5  6  4  0  0  0
  5 11  4  0  0  0
  7  8  1  0  0  0
  7  9  2  0  0  0
 10 12  4  0  0  0
 11 12  4  0  0  0
 12 13  1  0  0  0
 13 14  4  0  0  0
 13 18  4  0  0  0
 14 15  4  0  0  0
 15 16  4  0  0  0
 16 17  4  0  0  0
 17 18  4  0  0  0
 17 20  1  0  0  0
 18 19  1  0  0  0
 20 21  4  0  0  0
 20 25  4  0  0  0
 21 22  4  0  0  0
 22 23  4  0  0  0
 23 24  4  0  0  0
 24 25  4  0  0  0
  3 27  1  0  0  0
  6 28  1  0  0  0
  8 29  1  0  0  0
  8 30  1  0  0  0
  9 31  1  0  0  0
 11 32  1  0  0  0
 14 33  1  0  0  0
 15 34  1  0  0  0
 16 35  1  0  0  0
 19 36  1  0  0  0
 21 37  1  0  0  0
 22 38  1  0  0  0
 23 39  1  0  0  0
 24 40  1  0  0  0
 25 41  1  0  0  0
M  END
$$$$
