6ny4_ligand
  -I-interpret- 

 45 47  0  0  0  0  0  0  0  0999 V2000
    1.3820  -11.9230   -4.5850 O   0  0  0  0  0
    0.2700  -11.8040   -4.0600 C   0  0  0  0  0
   -0.2430  -10.6100   -3.7550 N   0  0  0  0  0
   -0.5670  -13.0170   -3.7910 C   0  0  0  0  0
   -1.8400  -12.8230   -3.3250 C   0  0  0  0  0
   -2.7830  -13.7370   -3.0810 N   0  0  0  0  0
   -0.1510  -14.3500   -4.0460 C   0  0  0  0  0
    0.9890  -14.4510   -4.6400 N   0  0  0  0  0
    1.5660  -15.7150   -5.0970 C   0  0  0  0  0
    2.3910  -15.4800   -6.3660 C   0  0  0  0  0
    1.5530  -15.1880   -7.5950 C   0  0  0  0  0
    3.2460  -14.3640   -6.1290 O   0  0  0  0  0
    2.4550  -16.2960   -4.0120 C   0  0  0  0  0
    2.8370  -17.6200   -4.3570 O   0  0  0  0  0
   -1.0640  -15.3960   -3.7110 C   0  0  0  0  0
   -1.0280  -16.7900   -3.6270 C   0  0  0  0  0
   -2.3100  -17.2460   -3.1450 C   0  0  0  0  0
   -3.0790  -16.1280   -2.9520 C   0  0  0  0  0
   -2.3280  -15.0210   -3.2750 N   0  0  0  0  0
   -2.7360  -18.6570   -2.9180 C   0  0  0  0  0
   -1.8690  -19.7190   -3.1930 C   0  0  0  0  0
   -2.2890  -21.0350   -3.0240 C   0  0  0  0  0
   -3.5770  -21.3080   -2.5800 C   0  0  0  0  0
   -4.4360  -20.2640   -2.2850 C   0  0  0  0  0
   -4.0230  -18.9480   -2.4480 C   0  0  0  0  0
    0.2863   -9.7613   -3.9550 H   0  0  0  0  0
   -1.1643  -10.5463   -3.3220 H   0  0  0  0  0
   -2.1201  -11.7883   -3.1275 H   0  0  0  0  0
    1.5216  -13.5962   -4.8012 H   0  0  0  0  0
    0.7605  -16.4159   -5.3162 H   0  0  0  0  0
    2.9405  -16.3986   -6.5716 H   0  0  0  0  0
    0.8907  -16.0314   -7.7904 H   0  0  0  0  0
    0.9592  -14.2902   -7.4234 H   0  0  0  0  0
    2.2087  -15.0332   -8.4519 H   0  0  0  0  0
    3.7753  -14.1958   -6.9121 H   0  0  0  0  0
    1.9072  -16.3140   -3.0698 H   0  0  0  0  0
    3.3480  -15.6792   -3.9105 H   0  0  0  0  0
    3.3985  -17.9800   -3.6665 H   0  0  0  0  0
   -0.1786  -17.4239   -3.8815 H   0  0  0  0  0
   -4.1112  -16.1175   -2.6018 H   0  0  0  0  0
   -0.8569  -19.5147   -3.5423 H   0  0  0  0  0
   -1.6046  -21.8551   -3.2409 H   0  0  0  0  0
   -3.9092  -22.3397   -2.4646 H   0  0  0  0  0
   -5.4421  -20.4756   -1.9228 H   0  0  0  0  0
   -4.7069  -18.1339   -2.2079 H   0  0  0  0  0
  1  2  2  0  0  0
  2  3  1  0  0  0
  2  4  1  0  0  0
  4  5  4  0  0  0
  4  7  4  0  0  0
  5  6  4  0  0  0
  6 19  4  0  0  0
  7  8  1  0  0  0
  7 15  4  0  0  0
  8  9  1  0  0  0
  9 10  1  0  0  0
  9 13  1  0  0  0
 10 11  1  0  0  0
 10 12  1  0  0  0
 13 14  1  0  0  0
 15 16  4  0  0  0
 15 19  4  0  0  0
 16 17  4  0  0  0
 17 18  4  0  0  0
 17 20  1  0  0  0
 18 19  4  0  0  0
 20 21  4  0  0  0
 20 25  4  0  0  0
 21 22  4  0  0  0
 22 23  4  0  0  0
 23 24  4  0  0  0
 24 25  4  0  0  0
  3 26  1  0  0  0
  3 27  1  0  0  0
  5 28  1  0  0  0
  8 29  1  0  0  0
  9 30  1  0  0  0
 10 31  1  0  0  0
 11 32  1  0  0  0
 11 33  1  0  0  0
 11 34  1  0  0  0
 12 35  1  0  0  0
 13 36  1  0  0  0
 13 37  1  0  0  0
 14 38  1  0  0  0
 16 39  1  0  0  0
 18 40  1  0  0  0
 21 41  1  0  0  0
 22 42  1  0  0  0
 23 43  1  0  0  0
 24 44  1  0  0  0
 25 45  1  0  0  0
M  END
$$$$
