5enc_ligand
  -I-interpret- 

 22 22  0  0  0  0  0  0  0  0999 V2000
  -26.7760    1.3340   -6.7740 C   0  0  0  0  0
  -27.5910    0.6610   -5.8740 C   0  0  0  0  0
  -28.7310    1.2840   -5.3940 C   0  0  0  0  0
  -29.0410    2.5720   -5.7960 C   0  0  0  0  0
  -28.2030    3.2250   -6.6900 C   0  0  0  0  0
  -23.6850    3.3430   -9.5760 O   0  0  0  0  0
  -23.7410    3.6760   -8.4060 C   0  0  0  0  0
  -22.5350    4.1790   -7.6700 C   0  0  0  0  0
  -24.8770    3.6100   -7.7080 N   0  0  0  0  0
  -26.1900    3.3130   -8.2710 C   0  0  0  0  0
  -27.0550    2.6250   -7.2360 C   0  0  0  0  0
  -28.5450    4.8810   -7.0760 Cl  0  0  0  0  0
  -25.3210    0.5620   -7.3160 Cl  0  0  0  0  0
  -27.3363   -0.3476   -5.5484 H   0  0  0  0  0
  -29.3856    0.7591   -4.6982 H   0  0  0  0  0
  -29.9335    3.0682   -5.4147 H   0  0  0  0  0
  -21.7633    3.4092   -7.6706 H   0  0  0  0  0
  -22.1571    5.0745   -8.1634 H   0  0  0  0  0
  -22.8111    4.4177   -6.6429 H   0  0  0  0  0
  -24.8230    3.7803   -6.7038 H   0  0  0  0  0
  -26.0701    2.6554   -9.1320 H   0  0  0  0  0
  -26.6680    4.2440   -8.5756 H   0  0  0  0  0
  1  2  4  0  0  0
 11  1  4  0  0  0
  1 13  1  0  0  0
  2  3  4  0  0  0
  4  3  4  0  0  0
  5  4  4  0  0  0
 11  5  4  0  0  0
  5 12  1  0  0  0
  7  6  2  0  0  0
  7  8  1  0  0  0
  9  7  1  0  0  0
 10  9  1  0  0  0
 10 11  1  0  0  0
  2 14  1  0  0  0
  3 15  1  0  0  0
  4 16  1  0  0  0
  8 17  1  0  0  0
  8 18  1  0  0  0
  8 19  1  0  0  0
  9 20  1  0  0  0
 10 21  1  0  0  0
 10 22  1  0  0  0
M  END
$$$$
