3gk1_ligand
  -I-interpret- 

 36 36  0  0  0  0  0  0  0  0999 V2000
    5.8760    6.7570   13.3360 C   0  0  0  0  0
    6.4690    7.2010   12.0470 C   0  0  0  0  0
    9.4810    8.7800   11.0270 C   0  0  0  0  0
    4.2320    6.1990   14.5350 C   0  0  0  0  0
    6.4080    6.4580   14.5960 C   0  0  0  0  0
    2.9720    5.9810   14.8500 C   0  0  0  0  0
    1.8310    5.8980   15.2430 C   0  0  0  0  0
    7.4870    8.0560   12.0580 N   0  0  0  0  0
    8.3010    8.1810   10.9130 N   0  0  0  0  0
   10.1870    9.1260    9.9280 N   0  0  0  0  0
    0.4230    6.0070   15.5790 C   0  0  0  0  0
    5.3260    6.0960   15.3810 C   0  0  0  0  0
    6.0000    6.7630   11.0040 O   0  0  0  0  0
   10.8160    8.2150    8.9790 C   0  0  0  0  0
    9.9770    9.0960   12.4940 S   0  0  0  0  0
    4.5190    6.6150   13.2660 O   0  0  0  0  0
   -0.2920    6.9710   14.6570 C   0  0  0  0  0
   -1.1910    6.2010   13.7000 C   0  0  0  0  0
   -2.5540    6.8500   13.5450 C   0  0  0  0  0
    7.4549    6.5011   14.8964 H   0  0  0  0  0
    7.6779    8.6172   12.8881 H   0  0  0  0  0
    7.9888    7.8175   10.0126 H   0  0  0  0  0
   10.2902   10.1239    9.7439 H   0  0  0  0  0
    0.3387    6.3781   16.6004 H   0  0  0  0  0
   -0.0350    5.0235   15.4739 H   0  0  0  0  0
    5.3328    5.7970   16.4292 H   0  0  0  0  0
   11.5495    7.5994    9.4998 H   0  0  0  0  0
   10.0548    7.5755    8.5321 H   0  0  0  0  0
   11.3123    8.7914    8.1983 H   0  0  0  0  0
    0.4446    7.5343   14.0841 H   0  0  0  0  0
   -0.8998    7.6534   15.2512 H   0  0  0  0  0
   -1.3367    5.1992   14.1041 H   0  0  0  0  0
   -0.7100    6.1853   12.7220 H   0  0  0  0  0
   -3.0482    6.8905   14.5157 H   0  0  0  0  0
   -2.4316    7.8607   13.1557 H   0  0  0  0  0
   -3.1577    6.2633   12.8526 H   0  0  0  0  0
  2  1  1  0  0  0
  1  5  4  0  0  0
  1 16  4  0  0  0
  8  2  1  0  0  0
  2 13  2  0  0  0
  9  3  1  0  0  0
  3 10  1  0  0  0
  3 15  2  0  0  0
  4  6  1  0  0  0
  4 12  4  0  0  0
 16  4  4  0  0  0
  5 12  4  0  0  0
  6  7  3  0  0  0
  7 11  1  0  0  0
  8  9  1  0  0  0
 10 14  1  0  0  0
 11 17  1  0  0  0
 17 18  1  0  0  0
 18 19  1  0  0  0
  5 20  1  0  0  0
  8 21  1  0  0  0
  9 22  1  0  0  0
 10 23  1  0  0  0
 11 24  1  0  0  0
 11 25  1  0  0  0
 12 26  1  0  0  0
 14 27  1  0  0  0
 14 28  1  0  0  0
 14 29  1  0  0  0
 17 30  1  0  0  0
 17 31  1  0  0  0
 18 32  1  0  0  0
 18 33  1  0  0  0
 19 34  1  0  0  0
 19 35  1  0  0  0
 19 36  1  0  0  0
M  END
$$$$
