3u6w_ligand
  -I-interpret- 

 16 15  0  0  0  0  0  0  0  0999 V2000
  -24.2270  -24.9420  -31.5270 O   0  0  0  0  0
  -25.2910  -25.4390  -31.0690 C   0  0  0  0  0
  -25.8080  -26.4620  -31.5800 O   0  0  0  0  0
  -25.9470  -24.8230  -29.8980 C   0  0  0  0  0
  -25.3450  -23.5460  -29.3350 C   0  0  0  0  0
  -26.3740  -22.6450  -28.6580 C   0  0  0  0  0
  -24.1990  -23.8750  -28.3950 C   0  0  0  0  0
  -26.9340  -25.3750  -29.3850 O   0  0  0  0  0
  -23.9875  -24.1694  -31.0099 H   0  0  0  0  0
  -24.9596  -22.9763  -30.1806 H   0  0  0  0  0
  -26.7775  -23.1514  -27.7812 H   0  0  0  0  0
  -25.8955  -21.7142  -28.3534 H   0  0  0  0  0
  -27.1813  -22.4281  -29.3575 H   0  0  0  0  0
  -23.7058  -22.9525  -28.0886 H   0  0  0  0  0
  -24.5878  -24.3898  -27.5164 H   0  0  0  0  0
  -23.4836  -24.5181  -28.9075 H   0  0  0  0  0
  1  2  1  0  0  0
  2  3  2  0  0  0
  2  4  1  0  0  0
  4  5  1  0  0  0
  4  8  2  0  0  0
  5  6  1  0  0  0
  5  7  1  0  0  0
  1  9  1  0  0  0
  5 10  1  0  0  0
  6 11  1  0  0  0
  6 12  1  0  0  0
  6 13  1  0  0  0
  7 14  1  0  0  0
  7 15  1  0  0  0
  7 16  1  0  0  0
M  END
$$$$
