4e34_ligand
  -I-interpret- 

162164  0  0  0  0  0  0  0  0999 V2000
   26.3420   18.2500   15.0640 N   0  3  0  0  0
   25.8810   19.1950   14.0510 C   0  0  0  0  0
   25.7220   20.6030   14.6230 C   0  0  0  0  0
   25.8880   20.8200   15.8270 O   0  0  0  0  0
   24.5680   18.7170   13.4440 C   0  0  0  0  0
   25.4020   21.5560   13.7520 N   0  0  0  0  0
   25.1990   22.9410   14.1650 C   0  0  0  0  0
   23.9620   23.0920   15.0470 C   0  0  0  0  0
   22.9460   22.4320   14.8240 O   0  0  0  0  0
   25.0950   23.8560   12.9400 C   0  0  0  0  0
   25.0210   25.3270   13.3130 C   0  0  0  0  0
   23.9370   25.8730   13.5200 O   0  0  0  0  0
   26.1780   25.9770   13.3940 N   0  0  0  0  0
   24.0520   23.9600   16.0490 N   0  0  0  0  0
   22.9510   24.1560   16.9860 C   0  0  0  0  0
   22.5510   25.6270   17.1070 C   0  0  0  0  0
   22.3160   26.1240   18.2070 O   0  0  0  0  0
   23.3220   23.5970   18.3630 C   0  0  0  0  0
   24.4630   24.2530   18.8930 O   0  0  0  0  0
   22.4630   26.3170   15.9740 N   0  0  0  0  0
   22.1470   27.7430   15.9750 C   0  0  0  0  0
   20.6470   28.0180   16.1060 C   0  0  0  0  0
   20.2470   29.0390   16.6760 O   0  0  0  0  0
   22.7190   28.4240   14.7300 C   0  0  0  0  0
   22.6620   29.9400   14.7700 C   0  0  0  0  0
   21.7090   30.4550   13.7190 C   0  0  0  0  0
   22.1230   30.0480   12.3810 N   0  0  0  0  0
   22.6970   30.8590   11.5020 C   0  0  0  0  0
   23.0430   30.4040   10.3050 N   0  0  0  0  0
   22.9160   32.1280   11.8170 N   0  0  0  0  0
   19.8200   27.1130   15.5790 N   0  0  0  0  0
   18.3760   27.1830   15.8040 C   0  0  0  0  0
   18.0360   26.4000   17.0620 C   0  0  0  0  0
   18.7300   25.4450   17.4080 O   0  0  0  0  0
   17.5800   26.5660   14.6540 C   0  0  0  0  0
   17.8090   27.1420   13.2980 C   0  0  0  0  0
   18.3510   28.3600   12.9880 C   0  0  0  0  0
   17.5140   26.5050   12.0520 C   0  0  0  0  0
   18.4040   28.5160   11.6210 N   0  0  0  0  0
   17.9010   27.3890   11.0250 C   0  0  0  0  0
   16.9640   25.2660   11.7050 C   0  0  0  0  0
   17.7480   27.0760    9.6750 C   0  0  0  0  0
   16.8150   24.9540   10.3640 C   0  0  0  0  0
   17.2050   25.8570    9.3670 C   0  0  0  0  0
   16.9630   26.7980   17.7490 N   0  0  0  0  0
   16.4930   26.0360   18.9070 C   0  0  0  0  0
   15.7560   24.7650   18.4880 C   0  0  0  0  0
   15.1910   24.6890   17.3900 O   0  0  0  0  0
   15.5180   27.0020   19.5790 C   0  0  0  0  0
   14.9920   27.8200   18.4620 C   0  0  0  0  0
   16.1660   28.0180   17.5380 C   0  0  0  0  0
   15.7840   23.7760   19.3660 N   0  0  0  0  0
   14.9980   22.5670   19.1790 C   0  0  0  0  0
   14.1670   22.3770   20.4270 C   0  0  0  0  0
   14.6830   22.5270   21.5410 O   0  0  0  0  0
   15.9020   21.3550   18.9980 C   0  0  0  0  0
   16.6270   21.5050   17.7770 O   0  0  0  0  0
   15.0790   20.0770   18.9360 C   0  0  0  0  0
   12.8810   22.0700   20.2550 N   0  0  0  0  0
   12.0220   21.7700   21.3960 C   0  0  0  0  0
   11.4140   20.3940   21.2100 C   0  0  0  0  0
   10.9730   20.0490   20.1090 O   0  0  0  0  0
   10.9010   22.7980   21.5180 C   0  0  0  0  0
   11.4050   24.0940   21.7920 O   0  0  0  0  0
   11.4100   19.6100   22.2830 N   0  0  0  0  0
   10.7460   18.3140   22.3320 C   0  0  0  0  0
    9.3240   18.5500   22.8080 C   0  0  0  0  0
    9.1190   19.1700   23.8660 O   0  0  0  0  0
   11.4470   17.3990   23.3580 C   0  0  0  0  0
   12.9320   17.2310   23.0260 C   0  0  0  0  0
   10.7580   16.0550   23.4300 C   0  0  0  0  0
   13.7450   16.6520   24.1810 C   0  0  0  0  0
    8.3430   18.0780   22.0390 N   0  0  0  0  0
    6.9420   18.3730   22.3160 C   0  0  0  0  0
    6.0410   17.1710   22.0690 C   0  0  0  0  0
    6.4750   16.1340   21.5440 O   0  0  0  0  0
    6.4230   19.5580   21.4600 C   0  0  0  0  0
    6.4310   19.2220   19.9660 C   0  0  0  0  0
    7.2350   20.8230   21.7120 C   0  0  0  0  0
    5.7750   20.2960   19.0860 C   0  0  0  0  0
    4.8540   17.2520   22.3870 O   0  0  0  0  0
   27.2207   18.5816   15.4618 H   0  0  0  0  0
   25.6408   18.1745   15.8009 H   0  0  0  0  0
   26.4853   17.3360   14.6345 H   0  0  0  0  0
   26.6396   19.2412   13.2696 H   0  0  0  0  0
   23.7969   18.7029   14.2143 H   0  0  0  0  0
   24.2713   19.3946   12.6435 H   0  0  0  0  0
   24.6996   17.7126   13.0415 H   0  0  0  0  0
   25.2955   21.3119   12.7674 H   0  0  0  0  0
   26.0652   23.2376   14.7565 H   0  0  0  0  0
   24.1798   23.5991   12.4066 H   0  0  0  0  0
   25.9893   23.7084   12.3346 H   0  0  0  0  0
   26.1905   26.9678   13.6358 H   0  0  0  0  0
   27.0531   25.4848   13.2143 H   0  0  0  0  0
   24.9090   24.5007   16.1656 H   0  0  0  0  0
   22.0905   23.6146   16.5929 H   0  0  0  0  0
   23.5483   22.5359   18.2582 H   0  0  0  0  0
   22.4832   23.7563   19.0406 H   0  0  0  0  0
   24.6720   23.8835   19.7540 H   0  0  0  0  0
   22.6194   25.8407   15.0857 H   0  0  0  0  0
   22.6201   28.1696   16.8595 H   0  0  0  0  0
   22.1164   28.1014   13.8809 H   0  0  0  0  0
   23.7700   28.1429   14.6634 H   0  0  0  0  0
   23.6573   30.3393   14.5748 H   0  0  0  0  0
   22.3140   30.2577   15.7529 H   0  0  0  0  0
   21.7006   31.5441   13.7628 H   0  0  0  0  0
   20.7197   30.0420   13.9162 H   0  0  0  0  0
   21.9611   29.0798   12.1040 H   0  0  0  0  0
   23.4774   31.0304    9.6273 H   0  0  0  0  0
   22.8747   29.4277   10.0623 H   0  0  0  0  0
   22.6432   32.4801   12.7346 H   0  0  0  0  0
   20.2017   26.3584   15.0087 H   0  0  0  0  0
   18.1115   28.2369   15.8897 H   0  0  0  0  0
   16.5300   26.7468   14.8841 H   0  0  0  0  0
   17.8950   25.5242   14.5953 H   0  0  0  0  0
   18.6904   29.0973   13.7155 H   0  0  0  0  0
   16.6583   24.5591   12.4763 H   0  0  0  0  0
   18.0491   27.7748    8.8945 H   0  0  0  0  0
   16.3881   23.9920   10.0804 H   0  0  0  0  0
   17.0731   25.5829    8.3203 H   0  0  0  0  0
   17.3114   25.7075   19.5476 H   0  0  0  0  0
   16.0018   27.6105   20.3431 H   0  0  0  0  0
   14.7259   26.4805   20.1163 H   0  0  0  0  0
   14.5883   28.7701   18.8119 H   0  0  0  0  0
   14.1595   27.3287   17.9583 H   0  0  0  0  0
   15.8673   28.1529   16.4984 H   0  0  0  0  0
   16.7238   28.9294   17.7531 H   0  0  0  0  0
   16.3717   23.8637   20.1950 H   0  0  0  0  0
   14.3757   22.6630   18.2893 H   0  0  0  0  0
   16.5852   21.2886   19.8447 H   0  0  0  0  0
   17.2012   20.7459   17.6518 H   0  0  0  0  0
   14.5165   19.9633   19.8627 H   0  0  0  0  0
   14.3883   20.1317   18.0946 H   0  0  0  0  0
   15.7446   19.2236   18.8064 H   0  0  0  0  0
   12.4920   22.0444   19.3124 H   0  0  0  0  0
   12.6244   21.8014   22.3039 H   0  0  0  0  0
   10.2513   22.5013   22.3414 H   0  0  0  0  0
   10.3623   22.8324   20.5710 H   0  0  0  0  0
   10.6739   24.7123   21.8618 H   0  0  0  0  0
   11.8985   19.9332   23.1180 H   0  0  0  0  0
   10.7738   17.8437   21.3491 H   0  0  0  0  0
   11.3766   17.8747   24.3362 H   0  0  0  0  0
   13.3341   18.2190   22.8019 H   0  0  0  0  0
   13.0067   16.5368   22.1890 H   0  0  0  0  0
    9.7203   16.1959   23.7324 H   0  0  0  0  0
   10.7908   15.5784   22.4503 H   0  0  0  0  0
   11.2680   15.4253   24.1591 H   0  0  0  0  0
   13.6728   17.3154   25.0429 H   0  0  0  0  0
   13.3525   15.6695   24.4432 H   0  0  0  0  0
   14.7881   16.5592   23.8787 H   0  0  0  0  0
    8.5784   17.4952   21.2357 H   0  0  0  0  0
    6.9019   18.6393   23.3722 H   0  0  0  0  0
    7.4117   16.2372   21.3609 H   0  0  0  0  0
    5.3924   19.7391   21.7653 H   0  0  0  0  0
    5.8603   18.3024   19.8365 H   0  0  0  0  0
    7.4730   19.1401   19.6567 H   0  0  0  0  0
    7.1611   21.0970   22.7644 H   0  0  0  0  0
    8.2785   20.6406   21.4551 H   0  0  0  0  0
    6.8441   21.6329   21.0961 H   0  0  0  0  0
    4.7343   20.4225   19.3844 H   0  0  0  0  0
    6.3069   21.2394   19.2091 H   0  0  0  0  0
    5.8198   19.9857   18.0421 H   0  0  0  0  0
  1  2  1  0  0  0
  2  3  1  0  0  0
  2  5  1  0  0  0
  3  4  2  0  0  0
  3  6  1  0  0  0
  6  7  1  0  0  0
  7  8  1  0  0  0
  7 10  1  0  0  0
  8  9  2  0  0  0
  8 14  1  0  0  0
 10 11  1  0  0  0
 11 12  2  0  0  0
 11 13  1  0  0  0
 14 15  1  0  0  0
 15 16  1  0  0  0
 15 18  1  0  0  0
 16 17  2  0  0  0
 16 20  1  0  0  0
 18 19  1  0  0  0
 20 21  1  0  0  0
 21 22  1  0  0  0
 21 24  1  0  0  0
 22 23  2  0  0  0
 22 31  1  0  0  0
 24 25  1  0  0  0
 25 26  1  0  0  0
 26 27  1  0  0  0
 27 28  1  0  0  0
 28 29  1  0  0  0
 28 30  2  0  0  0
 31 32  1  0  0  0
 32 33  1  0  0  0
 32 35  1  0  0  0
 33 34  2  0  0  0
 33 45  1  0  0  0
 35 36  1  0  0  0
 36 37  4  0  0  0
 36 38  4  0  0  0
 37 39  4  0  0  0
 38 40  4  0  0  0
 38 41  4  0  0  0
 39 40  4  0  0  0
 40 42  4  0  0  0
 41 43  4  0  0  0
 42 44  4  0  0  0
 43 44  4  0  0  0
 45 46  1  0  0  0
 45 51  1  0  0  0
 46 47  1  0  0  0
 46 49  1  0  0  0
 47 48  2  0  0  0
 47 52  1  0  0  0
 49 50  1  0  0  0
 50 51  1  0  0  0
 52 53  1  0  0  0
 53 54  1  0  0  0
 53 56  1  0  0  0
 54 55  2  0  0  0
 54 59  1  0  0  0
 56 57  1  0  0  0
 56 58  1  0  0  0
 59 60  1  0  0  0
 60 61  1  0  0  0
 60 63  1  0  0  0
 61 62  2  0  0  0
 61 65  1  0  0  0
 63 64  1  0  0  0
 65 66  1  0  0  0
 66 67  1  0  0  0
 66 69  1  0  0  0
 67 68  2  0  0  0
 67 73  1  0  0  0
 69 70  1  0  0  0
 69 71  1  0  0  0
 70 72  1  0  0  0
 73 74  1  0  0  0
 74 75  1  0  0  0
 74 77  1  0  0  0
 75 76  1  0  0  0
 75 81  2  0  0  0
 77 78  1  0  0  0
 77 79  1  0  0  0
 78 80  1  0  0  0
  1 82  1  0  0  0
  1 83  1  0  0  0
  1 84  1  0  0  0
  2 85  1  0  0  0
  5 86  1  0  0  0
  5 87  1  0  0  0
  5 88  1  0  0  0
  6 89  1  0  0  0
  7 90  1  0  0  0
 10 91  1  0  0  0
 10 92  1  0  0  0
 13 93  1  0  0  0
 13 94  1  0  0  0
 14 95  1  0  0  0
 15 96  1  0  0  0
 18 97  1  0  0  0
 18 98  1  0  0  0
 19 99  1  0  0  0
 20100  1  0  0  0
 21101  1  0  0  0
 24102  1  0  0  0
 24103  1  0  0  0
 25104  1  0  0  0
 25105  1  0  0  0
 26106  1  0  0  0
 26107  1  0  0  0
 27108  1  0  0  0
 29109  1  0  0  0
 29110  1  0  0  0
 30111  1  0  0  0
 31112  1  0  0  0
 32113  1  0  0  0
 35114  1  0  0  0
 35115  1  0  0  0
 37116  1  0  0  0
 41117  1  0  0  0
 42118  1  0  0  0
 43119  1  0  0  0
 44120  1  0  0  0
 46121  1  0  0  0
 49122  1  0  0  0
 49123  1  0  0  0
 50124  1  0  0  0
 50125  1  0  0  0
 51126  1  0  0  0
 51127  1  0  0  0
 52128  1  0  0  0
 53129  1  0  0  0
 56130  1  0  0  0
 57131  1  0  0  0
 58132  1  0  0  0
 58133  1  0  0  0
 58134  1  0  0  0
 59135  1  0  0  0
 60136  1  0  0  0
 63137  1  0  0  0
 63138  1  0  0  0
 64139  1  0  0  0
 65140  1  0  0  0
 66141  1  0  0  0
 69142  1  0  0  0
 70143  1  0  0  0
 70144  1  0  0  0
 71145  1  0  0  0
 71146  1  0  0  0
 71147  1  0  0  0
 72148  1  0  0  0
 72149  1  0  0  0
 72150  1  0  0  0
 73151  1  0  0  0
 74152  1  0  0  0
 76153  1  0  0  0
 77154  1  0  0  0
 78155  1  0  0  0
 78156  1  0  0  0
 79157  1  0  0  0
 79158  1  0  0  0
 79159  1  0  0  0
 80160  1  0  0  0
 80161  1  0  0  0
 80162  1  0  0  0
M  END
$$$$
