### 
### Created by X-TOOL on Mon Sep 10 21:13:09 2018
### 

@<TRIPOS>MOLECULE
4e34_ligand
  163   165     1     0     0
SMALL
GAST_HUCK


@<TRIPOS>ATOM
      1 N          26.3420   18.2500   15.0640 N.4       1 ALA         0.2377
      2 CA         25.8810   19.1950   14.0510 C.3       1 ALA         0.0621
      3 C          25.7220   20.6030   14.6230 C.2       1 ALA         0.2265
      4 O          25.8880   20.8200   15.8270 O.2       1 ALA        -0.3907
      5 CB         24.5680   18.7170   13.4440 C.3       1 ALA        -0.0040
      6 N          25.4020   21.5560   13.7520 N.am      1 ASN        -0.2589
      7 CA         25.1990   22.9410   14.1650 C.3       1 ASN         0.1477
      8 C          23.9620   23.0920   15.0470 C.2       1 ASN         0.2063
      9 O          22.9460   22.4320   14.8240 O.2       1 ASN        -0.3942
     10 CB         25.0950   23.8560   12.9400 C.3       1 ASN         0.0773
     11 CG         25.0210   25.3270   13.3130 C.2       1 ASN         0.1780
     12 OD1        23.9370   25.8730   13.5200 O.2       1 ASN        -0.3970
     13 ND2        26.1780   25.9770   13.3940 N.am      1 ASN        -0.3007
     14 N          24.0520   23.9600   16.0490 N.am      1 SER        -0.2614
     15 CA         22.9510   24.1560   16.9860 C.3       1 SER         0.1539
     16 C          22.5510   25.6270   17.1070 C.2       1 SER         0.2062
     17 O          22.3160   26.1240   18.2070 O.2       1 SER        -0.3943
     18 CB         23.3220   23.5970   18.3630 C.3       1 SER         0.0843
     19 OG         24.4630   24.2530   18.8930 O.3       1 SER        -0.3903
     20 N          22.4630   26.3170   15.9740 N.am      1 ARG        -0.2637
     21 CA         22.1470   27.7430   15.9750 C.3       1 ARG         0.1311
     22 C          20.6470   28.0180   16.1060 C.2       1 ARG         0.2040
     23 O          20.2470   29.0390   16.6760 O.2       1 ARG        -0.3944
     24 CB         22.7190   28.4240   14.7300 C.3       1 ARG        -0.0092
     25 CG         22.6620   29.9400   14.7700 C.3       1 ARG        -0.0156
     26 CD         21.7090   30.4550   13.7190 C.3       1 ARG         0.0627
     27 NE         22.1230   30.0480   12.3810 N.pl3     1 ARG        -0.2723
     28 CZ         22.6970   30.8590   11.5020 C.cat     1 ARG         0.2882
     29 NH1        23.0430   30.4040   10.3050 N.pl3     1 ARG        -0.2849
     30 NH2        22.9160   32.1280   11.8170 N.pl3     1 ARG        -0.2849
     31 N          19.8200   27.1130   15.5790 N.am      1 TRP        -0.2627
     32 CA         18.3760   27.1830   15.8040 C.3       1 TRP         0.1354
     33 C          18.0360   26.4000   17.0620 C.2       1 TRP         0.2077
     34 O          18.7300   25.4450   17.4080 O.2       1 TRP        -0.3940
     35 CB         17.5800   26.5660   14.6540 C.3       1 TRP         0.0042
     36 CG         17.8090   27.1420   13.2980 C.2       1 TRP        -0.0418
     37 CD1        18.3510   28.3600   12.9880 C.2       1 TRP         0.0167
     38 CD2        17.5140   26.5050   12.0520 C.ar      1 TRP        -0.0214
     39 NE1        18.4040   28.5160   11.6210 N.pl3     1 TRP        -0.2890
     40 CE2        17.9010   27.3890   11.0250 C.ar      1 TRP         0.0603
     41 CE3        16.9640   25.2660   11.7050 C.ar      1 TRP        -0.0747
     42 CZ2        17.7480   27.0760    9.6750 C.ar      1 TRP        -0.0443
     43 CZ3        16.8150   24.9540   10.3640 C.ar      1 TRP        -0.0792
     44 CH2        17.2050   25.8570    9.3670 C.ar      1 TRP        -0.0768
     45 N          16.9630   26.7980   17.7490 N.am      1 PRO        -0.2497
     46 CA         16.4930   26.0360   18.9070 C.3       1 PRO         0.1338
     47 C          15.7560   24.7650   18.4880 C.2       1 PRO         0.2042
     48 O          15.1910   24.6890   17.3900 O.2       1 PRO        -0.3944
     49 CB         15.5180   27.0020   19.5790 C.3       1 PRO        -0.0104
     50 CG         14.9920   27.8200   18.4620 C.3       1 PRO        -0.0281
     51 CD         16.1660   28.0180   17.5380 C.3       1 PRO         0.0369
     52 N          15.7840   23.7760   19.3660 N.am      1 THR        -0.2613
     53 CA         14.9980   22.5670   19.1790 C.3       1 THR         0.1565
     54 C          14.1670   22.3770   20.4270 C.2       1 THR         0.2065
     55 O          14.6830   22.5270   21.5410 O.2       1 THR        -0.3943
     56 CB         15.9020   21.3550   18.9980 C.3       1 THR         0.0924
     57 OG1        16.6270   21.5050   17.7770 O.3       1 THR        -0.3874
     58 CG2        15.0790   20.0770   18.9360 C.3       1 THR        -0.0346
     59 N          12.8810   22.0700   20.2550 N.am      1 SER        -0.2615
     60 CA         12.0220   21.7700   21.3960 C.3       1 SER         0.1539
     61 C          11.4140   20.3940   21.2100 C.2       1 SER         0.2062
     62 O          10.9730   20.0490   20.1090 O.2       1 SER        -0.3943
     63 CB         10.9010   22.7980   21.5180 C.3       1 SER         0.0843
     64 OG         11.4050   24.0940   21.7920 O.3       1 SER        -0.3903
     65 N          11.4100   19.6100   22.2830 N.am      1 ILE        -0.2634
     66 CA         10.7460   18.3140   22.3320 C.3       1 ILE         0.1335
     67 C           9.3240   18.5500   22.8080 C.2       1 ILE         0.2036
     68 O           9.1190   19.1700   23.8660 O.2       1 ILE        -0.3944
     69 CB         11.4470   17.3990   23.3580 C.3       1 ILE        -0.0037
     70 CG1        12.9320   17.2310   23.0260 C.3       1 ILE        -0.0491
     71 CG2        10.7580   16.0550   23.4300 C.3       1 ILE        -0.0582
     72 CD1        13.7450   16.6520   24.1810 C.3       1 ILE        -0.0648
     73 N           8.3430   18.0780   22.0390 N.am      1 ILE        -0.2692
     74 CA          6.9420   18.3730   22.3160 C.3       1 ILE         0.0969
     75 C           6.0410   17.1710   22.0690 C.2       1 ILE         0.0604
     76 O           6.4750   16.1340   21.5440 O.co2     1 ILE        -0.5666
     77 CB          6.4230   19.5580   21.4600 C.3       1 ILE        -0.0092
     78 CG1         6.4310   19.2220   19.9660 C.3       1 ILE        -0.0497
     79 CG2         7.2350   20.8230   21.7120 C.3       1 ILE        -0.0588
     80 CD1         5.7750   20.2960   19.0860 C.3       1 ILE        -0.0649
     81 OXT         4.8540   17.2520   22.3870 O.co2     1 ILE        -0.5666
     82 H1         26.4352   17.3348   14.6520 H         1 ALA         0.2015
     83 H2         25.6737   18.2127   15.8177 H         1 ALA         0.2015
     84 H3         27.2354   18.5500   15.4216 H         1 ALA         0.2015
     85 H4         26.6367   19.2351   13.2527 H         1 ALA         0.1095
     86 H5         24.2321   19.4371   12.6833 H         1 ALA         0.0310
     87 H6         23.8067   18.6363   14.2339 H         1 ALA         0.0310
     88 H7         24.7171   17.7325   12.9765 H         1 ALA         0.0310
     89 H8         25.2975   21.3167   12.7867 H         1 ASN         0.1886
     90 H9         26.0753   23.2515   14.7530 H         1 ASN         0.0826
     91 H10        24.1882   23.5894   12.3773 H         1 ASN         0.0551
     92 H11        25.9798   23.6976   12.3060 H         1 ASN         0.0551
     93 H12        26.1906   26.9473   13.6357 H         1 ASN         0.1814
     94 H13        27.0357   25.4956   13.2132 H         1 ASN         0.1814
     95 H14        24.8922   24.4901   16.1633 H         1 SER         0.1884
     96 H15        22.0815   23.5979   16.6085 H         1 SER         0.0823
     97 H16        23.5379   22.5226   18.2678 H         1 SER         0.0606
     98 H17        22.4743   23.7413   19.0490 H         1 SER         0.0606
     99 H18        24.2807   25.1812   18.9813 H         1 SER         0.2097
    100 H19        22.6163   25.8500   15.1031 H         1 ARG         0.1883
    101 H20        22.6382   28.1863   16.8537 H         1 ARG         0.0800
    102 H21        22.1477   28.0801   13.8552 H         1 ARG         0.0313
    103 H22        23.7710   28.1209   14.6233 H         1 ARG         0.0313
    104 H23        23.6663   30.3463   14.5798 H         1 ARG         0.0301
    105 H24        22.3172   30.2644   15.7629 H         1 ARG         0.0301
    106 H25        21.6828   31.5536   13.7669 H         1 ARG         0.0689
    107 H26        20.7042   30.0551   13.9200 H         1 ARG         0.0689
    108 H27        21.9596   29.0703   12.1012 H         1 ARG         0.2642
    109 H28        23.4886   31.0347    9.6234 H         1 ARG         0.2615
    110 H29        22.8661   29.4200   10.0572 H         1 ARG         0.2615
    111 H30        22.6475   32.4817   12.7464 H         1 ARG         0.2615
    112 H31        23.3547   32.7603   11.1324 H         1 ARG         0.2615
    113 H32        20.1942   26.3732   15.0199 H         1 TRP         0.1884
    114 H33        18.0828   28.2362   15.9255 H         1 TRP         0.0815
    115 H34        16.5115   26.6804   14.8888 H         1 TRP         0.0397
    116 H35        17.8332   25.4965   14.6091 H         1 TRP         0.0397
    117 H36        18.6901   29.0966   13.7149 H         1 TRP         0.0795
    118 H37        18.7633   29.3451   11.1266 H         1 TRP         0.2216
    119 H38        16.6600   24.5630   12.4721 H         1 TRP         0.0540
    120 H39        18.0474   27.7709    8.8988 H         1 TRP         0.0541
    121 H40        16.3905   23.9973   10.0820 H         1 TRP         0.0510
    122 H41        17.0739   25.5844    8.3261 H         1 TRP         0.0530
    123 H42        17.3278   25.7774   19.5750 H         1 PRO         0.0802
    124 H43        16.0384   27.6336   20.3141 H         1 PRO         0.0313
    125 H44        14.7054   26.4530   20.0772 H         1 PRO         0.0313
    126 H45        14.6233   28.7882   18.8318 H         1 PRO         0.0287
    127 H46        14.1779   27.2908   17.9450 H         1 PRO         0.0287
    128 H47        15.8363   28.0989   16.4917 H         1 PRO         0.0524
    129 H48        16.7381   28.9164   17.8127 H         1 PRO         0.0524
    130 H49        16.3602   23.8619   20.1788 H         1 THR         0.1884
    131 H50        14.3466   22.6756   18.2993 H         1 THR         0.0826
    132 H51        16.6051   21.2941   19.8418 H         1 THR         0.0639
    133 H52        17.1508   22.2966   17.8162 H         1 THR         0.2101
    134 H53        15.7497   19.2150   18.8053 H         1 THR         0.0257
    135 H54        14.3815   20.1309   18.0872 H         1 THR         0.0257
    136 H55        14.5109   19.9610   19.8707 H         1 THR         0.0257
    137 H56        12.4996   22.0449   19.3309 H         1 SER         0.1884
    138 H57        12.6256   21.7837   22.3155 H         1 SER         0.0823
    139 H58        10.2288   22.4970   22.3350 H         1 SER         0.0606
    140 H59        10.3393   22.8266   20.5727 H         1 SER         0.0606
    141 H60        11.9828   24.3633   21.0876 H         1 SER         0.2097
    142 H61        11.8890   19.9269   23.1017 H         1 ILE         0.1883
    143 H62        10.7512   17.8439   21.3375 H         1 ILE         0.0803
    144 H63        11.3715   17.8754   24.3466 H         1 ILE         0.0345
    145 H64        13.3459   18.2166   22.7668 H         1 ILE         0.0267
    146 H65        13.0229   16.5564   22.1619 H         1 ILE         0.0267
    147 H66         9.6943   16.2007   23.6693 H         1 ILE         0.0235
    148 H67        11.2294   15.4427   24.2129 H         1 ILE         0.0235
    149 H68        10.8490   15.5439   22.4602 H         1 ILE         0.0235
    150 H69        14.7980   16.5578   23.8771 H         1 ILE         0.0230
    151 H70        13.3500   15.6604   24.4466 H         1 ILE         0.0230
    152 H71        13.6730   17.3206   25.0515 H         1 ILE         0.0230
    153 H72         8.5738   17.5066   21.2514 H         1 ILE         0.1875
    154 H73         6.8635   18.6512   23.3773 H         1 ILE         0.0729
    155 H74         5.3828   19.7558   21.7582 H         1 ILE         0.0338
    156 H75         5.8892   18.2758   19.8203 H         1 ILE         0.0267
    157 H76         7.4755   19.0999   19.6435 H         1 ILE         0.0267
    158 H77         7.2244   21.0575   22.7867 H         1 ILE         0.0234
    159 H78         6.7945   21.6596   21.1499 H         1 ILE         0.0234
    160 H79         8.2722   20.6649   21.3815 H         1 ILE         0.0234
    161 H80         5.8196   19.9840   18.0321 H         1 ILE         0.0230
    162 H81         6.3109   21.2487   19.2093 H         1 ILE         0.0230
    163 H82         4.7246   20.4246   19.3861 H         1 ILE         0.0230
@<TRIPOS>BOND
     1    1    2 1  
     2    2    3 1  
     3    2    5 1  
     4    3    4 2  
     5    3    6 am 
     6    6    7 1  
     7    7    8 1  
     8    7   10 1  
     9    8    9 2  
    10    8   14 am 
    11   10   11 1  
    12   11   12 2  
    13   11   13 am 
    14   14   15 1  
    15   15   16 1  
    16   15   18 1  
    17   16   17 2  
    18   16   20 am 
    19   18   19 1  
    20   20   21 1  
    21   21   22 1  
    22   21   24 1  
    23   22   23 2  
    24   22   31 am 
    25   24   25 1  
    26   25   26 1  
    27   26   27 1  
    28   27   28 ar 
    29   28   29 ar 
    30   28   30 ar 
    31   31   32 1  
    32   32   33 1  
    33   32   35 1  
    34   33   34 2  
    35   33   45 am 
    36   35   36 1  
    37   36   37 2  
    38   36   38 1  
    39   37   39 1  
    40   38   40 ar 
    41   38   41 ar 
    42   39   40 1  
    43   40   42 ar 
    44   41   43 ar 
    45   42   44 ar 
    46   43   44 ar 
    47   45   46 1  
    48   45   51 1  
    49   46   47 1  
    50   46   49 1  
    51   47   48 2  
    52   47   52 am 
    53   49   50 1  
    54   50   51 1  
    55   52   53 1  
    56   53   54 1  
    57   53   56 1  
    58   54   55 2  
    59   54   59 am 
    60   56   57 1  
    61   56   58 1  
    62   59   60 1  
    63   60   61 1  
    64   60   63 1  
    65   61   62 2  
    66   61   65 am 
    67   63   64 1  
    68   65   66 1  
    69   66   67 1  
    70   66   69 1  
    71   67   68 2  
    72   67   73 am 
    73   69   70 1  
    74   69   71 1  
    75   70   72 1  
    76   73   74 1  
    77   74   75 1  
    78   74   77 1  
    79   75   76 ar 
    80   75   81 ar 
    81   77   78 1  
    82   77   79 1  
    83   78   80 1  
    84    1   82 1  
    85    1   83 1  
    86    1   84 1  
    87    2   85 1  
    88    5   86 1  
    89    5   87 1  
    90    5   88 1  
    91    6   89 1  
    92    7   90 1  
    93   10   91 1  
    94   10   92 1  
    95   13   93 1  
    96   13   94 1  
    97   14   95 1  
    98   15   96 1  
    99   18   97 1  
   100   18   98 1  
   101   19   99 1  
   102   20  100 1  
   103   21  101 1  
   104   24  102 1  
   105   24  103 1  
   106   25  104 1  
   107   25  105 1  
   108   26  106 1  
   109   26  107 1  
   110   27  108 1  
   111   29  109 1  
   112   29  110 1  
   113   30  111 1  
   114   30  112 1  
   115   31  113 1  
   116   32  114 1  
   117   35  115 1  
   118   35  116 1  
   119   37  117 1  
   120   39  118 1  
   121   41  119 1  
   122   42  120 1  
   123   43  121 1  
   124   44  122 1  
   125   46  123 1  
   126   49  124 1  
   127   49  125 1  
   128   50  126 1  
   129   50  127 1  
   130   51  128 1  
   131   51  129 1  
   132   52  130 1  
   133   53  131 1  
   134   56  132 1  
   135   57  133 1  
   136   58  134 1  
   137   58  135 1  
   138   58  136 1  
   139   59  137 1  
   140   60  138 1  
   141   63  139 1  
   142   63  140 1  
   143   64  141 1  
   144   65  142 1  
   145   66  143 1  
   146   69  144 1  
   147   70  145 1  
   148   70  146 1  
   149   71  147 1  
   150   71  148 1  
   151   71  149 1  
   152   72  150 1  
   153   72  151 1  
   154   72  152 1  
   155   73  153 1  
   156   74  154 1  
   157   77  155 1  
   158   78  156 1  
   159   78  157 1  
   160   79  158 1  
   161   79  159 1  
   162   79  160 1  
   163   80  161 1  
   164   80  162 1  
   165   80  163 1  
@<TRIPOS>SUBSTRUCTURE
     1 ALA         1

