6d5g_ligand
  -I-interpret- 

 63 67  0  0  0  0  0  0  0  0999 V2000
   34.1780   28.6840   22.8260 N   0  0  0  0  0
   36.4760   26.6120   18.8340 N   0  3  0  0  0
   32.7880   30.0900   21.2450 C   0  0  0  0  0
   33.0170   28.7920   21.9660 C   0  0  0  0  0
   35.3930   28.0880   22.5860 C   0  0  0  0  0
   36.6320   26.4590   21.2480 C   0  0  0  0  0
   36.4040   25.7060   19.9650 C   0  0  0  0  0
   35.4900   28.4220   20.1470 C   0  0  0  0  0
   36.9650   28.3770   26.6040 C   0  0  0  0  0
   39.3930   28.0250   26.5260 C   0  0  0  0  0
   36.9430   28.0280   28.0490 C   0  0  0  0  0
   33.1930   29.5760   24.9440 C   0  0  0  0  0
   34.1610   28.9990   24.1540 C   0  0  0  0  0
   33.4200   31.2610   21.6170 C   0  0  0  0  0
   33.8740   33.7060   21.3510 C   0  0  0  0  0
   38.0710   28.2990   25.9050 C   0  0  0  0  0
   39.3560   28.1650   27.9750 N   0  3  0  0  0
   38.2330   27.4660   28.5990 C   0  0  0  0  0
   35.6870   28.8130   26.0010 C   0  0  0  0  0
   34.7180   29.3710   26.8020 C   0  0  0  0  0
   33.4950   29.7590   26.2780 C   0  0  0  0  0
   32.3110   30.4740   27.3390 Cl  0  0  0  0  0
   35.3920   28.6150   24.6540 C   0  0  0  0  0
   36.1480   28.0650   23.6410 N   0  0  0  0  0
   35.7730   27.6420   21.3540 N   0  0  0  0  0
   35.3790   27.5600   18.9100 C   0  0  0  0  0
   31.8780   30.1160   20.2100 C   0  0  0  0  0
   31.6090   31.2730   19.5170 C   0  0  0  0  0
   30.6300   31.2710   18.3840 C   0  0  0  0  0
   32.2690   32.4130   19.9090 C   0  0  0  0  0
   32.0140   33.5390   19.2410 F   0  0  0  0  0
   33.1600   32.4520   20.9610 C   0  0  0  0  0
   36.4096   26.0810   17.9657 H   0  0  0  0  0
   37.3637   27.1139   18.8538 H   0  0  0  0  0
   32.1576   28.6735   22.6259 H   0  0  0  0  0
   33.1691   28.0500   21.1822 H   0  0  0  0  0
   37.6703   26.7902   21.2676 H   0  0  0  0  0
   36.3976   25.7934   22.0788 H   0  0  0  0  0
   37.1725   24.9403   19.8588 H   0  0  0  0  0
   35.4163   25.2457   19.9916 H   0  0  0  0  0
   36.3146   29.1189   19.9971 H   0  0  0  0  0
   34.5348   28.9271   20.2905 H   0  0  0  0  0
   40.1098   28.7458   26.1326 H   0  0  0  0  0
   39.6736   26.9984   26.2903 H   0  0  0  0  0
   36.1881   27.2512   28.1703 H   0  0  0  0  0
   36.7511   28.9544   28.5903 H   0  0  0  0  0
   32.2288   29.8757   24.5334 H   0  0  0  0  0
   34.1346   31.2468   22.4400 H   0  0  0  0  0
   33.6609   33.9341   22.3953 H   0  0  0  0  0
   34.9471   33.5674   21.2197 H   0  0  0  0  0
   33.5328   34.5277   20.7213 H   0  0  0  0  0
   38.0191   28.4407   24.8255 H   0  0  0  0  0
   39.2544   29.1580   28.1850 H   0  0  0  0  0
   40.2149   27.7576   28.3448 H   0  0  0  0  0
   38.2942   26.3999   28.3803 H   0  0  0  0  0
   38.2656   27.6057   29.6795 H   0  0  0  0  0
   34.9149   29.5102   27.8650 H   0  0  0  0  0
   34.4413   27.0059   18.9537 H   0  0  0  0  0
   35.4130   28.2043   18.0315 H   0  0  0  0  0
   31.3593   29.1978   19.9343 H   0  0  0  0  0
   30.9705   30.5804   17.6125 H   0  0  0  0  0
   29.6530   30.9556   18.7502 H   0  0  0  0  0
   30.5563   32.2756   17.9674 H   0  0  0  0  0
  1  4  1  0  0  0
  1  5  4  0  0  0
 13  1  4  0  0  0
  7  2  1  0  0  0
 26  2  1  0  0  0
  4  3  1  0  0  0
  3 14  4  0  0  0
  3 27  4  0  0  0
  5 24  4  0  0  0
  5 25  1  0  0  0
  6  7  1  0  0  0
 25  6  1  0  0  0
 25  8  1  0  0  0
  8 26  1  0  0  0
  9 11  1  0  0  0
  9 16  2  0  0  0
 19  9  1  0  0  0
 16 10  1  0  0  0
 10 17  1  0  0  0
 11 18  1  0  0  0
 13 12  4  0  0  0
 12 21  4  0  0  0
 23 13  4  0  0  0
 14 32  4  0  0  0
 32 15  1  0  0  0
 18 17  1  0  0  0
 19 20  4  0  0  0
 19 23  4  0  0  0
 20 21  4  0  0  0
 21 22  1  0  0  0
 23 24  4  0  0  0
 27 28  4  0  0  0
 28 29  1  0  0  0
 28 30  4  0  0  0
 30 31  1  0  0  0
 30 32  4  0  0  0
  2 33  1  0  0  0
  2 34  1  0  0  0
  4 35  1  0  0  0
  4 36  1  0  0  0
  6 37  1  0  0  0
  6 38  1  0  0  0
  7 39  1  0  0  0
  7 40  1  0  0  0
  8 41  1  0  0  0
  8 42  1  0  0  0
 10 43  1  0  0  0
 10 44  1  0  0  0
 11 45  1  0  0  0
 11 46  1  0  0  0
 12 47  1  0  0  0
 14 48  1  0  0  0
 15 49  1  0  0  0
 15 50  1  0  0  0
 15 51  1  0  0  0
 16 52  1  0  0  0
 17 53  1  0  0  0
 17 54  1  0  0  0
 18 55  1  0  0  0
 18 56  1  0  0  0
 20 57  1  0  0  0
 26 58  1  0  0  0
 26 59  1  0  0  0
 27 60  1  0  0  0
 29 61  1  0  0  0
 29 62  1  0  0  0
 29 63  1  0  0  0
M  END
$$$$
