5ene_ligand
  -I-interpret- 

 24 25  0  0  0  0  0  0  0  0999 V2000
  -31.6510    5.2360   -7.5010 N   0  0  0  0  0
  -22.8770    4.5130   -8.5890 C   0  0  0  0  0
  -22.8550    3.1400   -8.4980 C   0  0  0  0  0
  -24.0050    2.4450   -8.1530 C   0  0  0  0  0
  -27.6570    3.0630   -8.0010 C   0  0  0  0  0
  -29.4300    4.1050   -8.3240 C   0  0  0  0  0
  -28.9360    3.9830   -9.6840 C   0  0  0  0  0
  -30.6830    4.7470   -7.8570 C   0  0  0  0  0
  -28.6720    3.5790   -7.3710 N   0  0  0  0  0
  -29.3280    4.3380  -10.8980 N   0  0  0  0  0
  -27.7300    3.2880   -9.4840 O   0  0  0  0  0
  -26.4370    2.3610   -7.5070 C   0  0  0  0  0
  -25.1870    3.1170   -7.8900 C   0  0  0  0  0
  -24.0460    5.1960   -8.3340 C   0  0  0  0  0
  -25.1930    4.5030   -7.9800 C   0  0  0  0  0
  -21.9732    5.0579   -8.8617 H   0  0  0  0  0
  -21.9312    2.5970   -8.6976 H   0  0  0  0  0
  -23.9779    1.3573   -8.0882 H   0  0  0  0  0
  -30.2063    4.8413  -11.0235 H   0  0  0  0  0
  -28.7517    4.1082  -11.7076 H   0  0  0  0  0
  -26.3977    1.3687   -7.9564 H   0  0  0  0  0
  -26.4870    2.2947   -6.4202 H   0  0  0  0  0
  -24.0689    6.2831   -8.4108 H   0  0  0  0  0
  -26.1107    5.0523   -7.7697 H   0  0  0  0  0
  8  1  3  0  0  0
  3  2  4  0  0  0
  2 14  4  0  0  0
  4  3  4  0  0  0
 13  4  4  0  0  0
  5  9  4  0  0  0
  5 11  4  0  0  0
 12  5  1  0  0  0
  7  6  4  0  0  0
  6  8  1  0  0  0
  9  6  4  0  0  0
  7 10  1  0  0  0
 11  7  4  0  0  0
 12 13  1  0  0  0
 13 15  4  0  0  0
 14 15  4  0  0  0
  2 16  1  0  0  0
  3 17  1  0  0  0
  4 18  1  0  0  0
 10 19  1  0  0  0
 10 20  1  0  0  0
 12 21  1  0  0  0
 12 22  1  0  0  0
 14 23  1  0  0  0
 15 24  1  0  0  0
M  END
$$$$
