### 
### Created by X-TOOL on Mon Sep 10 21:13:16 2018
### 

@<TRIPOS>MOLECULE
4nb3_ligand
  263   270     1     0     0
SMALL
GAST_HUCK


@<TRIPOS>ATOM
      1 C11        29.6260  -17.8810   26.3830 C.2       1 2N2        -0.0561
      2 C12        30.7100  -18.6010   26.8740 C.2       1 2N2        -0.0434
      3 C13        30.8560  -18.7990   28.2420 C.2       1 2N2         0.0581
      4 C14        29.9130  -18.2810   29.1310 C.2       1 2N2        -0.0246
      5 C15        27.3460  -16.3510   25.2360 C.ar      1 2N2         0.0068
      6 C16        27.4830  -15.0410   24.7680 C.ar      1 2N2        -0.0498
      7 C17        27.3610  -14.7230   23.3940 C.ar      1 2N2        -0.0241
      8 C18        27.0850  -15.7790   22.5250 C.ar      1 2N2         0.0895
      9 C19        26.9770  -17.0940   22.9810 C.ar      1 2N2        -0.0126
     10 C20        27.0760  -17.4010   24.3310 C.ar      1 2N2         0.0186
     11 C21        26.9280  -18.8560   24.6990 C.2       1 2N2         0.0654
     12 C01        24.4670  -14.7850   28.2540 C.ar      1 2N2        -0.0283
     13 C02        25.3870  -15.2900   27.3150 C.ar      1 2N2        -0.0506
     14 C03        26.5160  -16.0230   27.7300 C.ar      1 2N2         0.0407
     15 C04        26.6860  -16.2380   29.0840 C.ar      1 2N2         0.1451
     16 C05        25.7680  -15.7410   30.0330 C.ar      1 2N2         0.0160
     17 C06        24.6600  -15.0200   29.6190 C.ar      1 2N2         0.0944
     18 C07        27.5000  -16.5800   26.7680 C.2       1 2N2         0.0151
     19 C08        28.6640  -17.3450   27.2620 C.2       1 2N2         0.0324
     20 C09        28.8180  -17.5490   28.6230 C.2       1 2N2         0.1223
     21 O10        27.8300  -17.0010   29.5520 O.3       1 2N2        -0.2407
     22 O22        26.3090  -19.1980   25.7360 O.co2     1 2N2        -0.5590
     23 O23        27.4160  -19.7270   23.9170 O.co2     1 2N2        -0.5590
     24 N24        27.0080  -15.6280   21.1160 N.am      1 2N2        -0.2232
     25 C25        25.8780  -16.0250   20.3300 C.2       1 2N2         0.1685
     26 N26        24.7700  -16.4690   21.0960 N.am      1 2N2        -0.2775
     27 C27        23.5620  -16.8580   20.3750 C.3       1 2N2         0.0371
     28 C28        23.1500  -18.2750   20.7410 C.3       1 2N2        -0.0308
     29 C29        21.9010  -18.6610   19.9670 C.3       1 2N2        -0.0490
     30 C30        22.0320  -20.0230   19.3390 C.3       1 2N2        -0.0360
     31 O31        31.8150  -19.4390   28.6660 O.2       1 2N2        -0.4520
     32 O32        23.7650  -14.5240   30.5430 O.3       1 2N2        -0.3272
     33 C33        20.6740  -20.6110   18.9180 C.3       1 2N2         0.0374
     34 S34        25.8950  -15.8930   18.6750 S.2       1 2N2        -0.2909
     35 C35        20.8890  -21.9490   18.3320 C.2       1 2N2         0.1783
     36 O36        21.2600  -22.9470   18.9130 O.2       1 2N2        -0.3969
     37 N          20.3810  -22.0770   17.0220 N.am      1 ASP        -0.2641
     38 CA         20.5990  -23.3370   16.3000 C.3       1 ASP         0.1422
     39 C          21.8650  -23.3320   15.4410 C.2       1 ASP         0.2057
     40 O          21.8640  -23.8270   14.2990 O.2       1 ASP        -0.3943
     41 CB         19.3690  -23.6370   15.4040 C.3       1 ASP         0.0406
     42 CG         19.1420  -22.6070   14.3090 C.2       1 ASP         0.0393
     43 OD1        19.7300  -21.4870   14.3630 O.co2     1 ASP        -0.5688
     44 OD2        18.3290  -22.8960   13.3970 O.co2     1 ASP        -0.5688
     45 N          22.9390  -22.7170   15.9520 N.am      1 PHE        -0.2618
     46 CA         24.1750  -22.5380   15.2100 C.3       1 PHE         0.1404
     47 C          25.2660  -22.3540   16.2500 C.2       1 PHE         0.2060
     48 O          24.9740  -22.0850   17.4350 O.2       1 PHE        -0.3942
     49 CB         24.1130  -21.3110   14.2540 C.3       1 PHE         0.0214
     50 CG         23.8200  -20.0090   14.9820 C.ar      1 PHE        -0.0386
     51 CD1        24.8480  -19.2600   15.5700 C.ar      1 PHE        -0.0601
     52 CD2        22.4930  -19.5800   15.1390 C.ar      1 PHE        -0.0601
     53 CE1        24.5750  -18.1440   16.2500 C.ar      1 PHE        -0.0686
     54 CE2        22.2020  -18.4300   15.8270 C.ar      1 PHE        -0.0686
     55 CZ         23.2540  -17.7010   16.3830 C.ar      1 PHE        -0.0687
     56 N          26.5230  -22.4940   15.8100 N.am      1 THR        -0.2612
     57 CA         27.7060  -22.2700   16.6650 C.3       1 THR         0.1565
     58 C          28.5040  -21.0390   16.2660 C.2       1 THR         0.2065
     59 O          28.2930  -20.4880   15.1840 O.2       1 THR        -0.3943
     60 CB         28.6790  -23.4260   16.5880 C.3       1 THR         0.0924
     61 OG1        29.2020  -23.4710   15.2600 O.3       1 THR        -0.3874
     62 CG2        27.9980  -24.7440   16.9460 C.3       1 THR        -0.0346
     63 N          29.4590  -20.6410   17.0940 N.am      1 ALA        -0.2639
     64 CA         30.3370  -19.5310   16.7420 C.3       1 ALA         0.1282
     65 C          31.1500  -19.8720   15.4980 C.2       1 ALA         0.2037
     66 O          31.3670  -19.0190   14.6520 O.2       1 ALA        -0.3944
     67 CB         31.2320  -19.1550   17.9340 C.3       1 ALA        -0.0244
     68 N          31.5620  -21.1290   15.3650 N.am      1 ASP        -0.2622
     69 CA         32.3380  -21.5330   14.1920 C.3       1 ASP         0.1423
     70 C          31.4680  -21.4980   12.9250 C.2       1 ASP         0.2057
     71 O          31.9740  -21.1810   11.8410 O.2       1 ASP        -0.3943
     72 CB         32.9590  -22.8990   14.3930 C.3       1 ASP         0.0406
     73 CG         34.1480  -22.8710   15.3380 C.2       1 ASP         0.0393
     74 OD1        34.7340  -21.7800   15.5790 O.co2     1 ASP        -0.5688
     75 OD2        34.5840  -23.9620   15.7390 O.co2     1 ASP        -0.5688
     76 N          30.1430  -21.7560   13.0450 N.am      1 ASP        -0.2621
     77 CA         29.2240  -21.5760   11.9240 C.3       1 ASP         0.1423
     78 C          29.2910  -20.0960   11.4620 C.2       1 ASP         0.2056
     79 O          29.3290  -19.8240   10.2550 O.2       1 ASP        -0.3943
     80 CB         27.7770  -21.9250   12.3110 C.3       1 ASP         0.0406
     81 CG         27.5500  -23.4060   12.4960 C.2       1 ASP         0.0393
     82 OD1        28.2160  -24.2260   11.8170 O.co2     1 ASP        -0.5688
     83 OD2        26.6160  -23.7460   13.2700 O.co2     1 ASP        -0.5688
     84 N          29.1990  -19.1570   12.4030 N.am      1 LEU        -0.2636
     85 CA         29.2370  -17.7310   12.0440 C.3       1 LEU         0.1312
     86 C          30.5330  -17.4080   11.3310 C.2       1 LEU         0.2039
     87 O          30.5240  -16.6550   10.3460 O.2       1 LEU        -0.3944
     88 CB         29.0880  -16.8440   13.3040 C.3       1 LEU        -0.0101
     89 CG         27.7410  -16.9970   14.0390 C.3       1 LEU        -0.0425
     90 CD1        27.7430  -15.9550   15.1830 C.3       1 LEU        -0.0625
     91 CD2        26.5370  -16.7780   13.1280 C.3       1 LEU        -0.0625
     92 N          31.6380  -17.9220   11.8330 N.am      1 GLU        -0.2636
     93 CA         32.9180  -17.6870   11.1410 C.3       1 GLU         0.1325
     94 C          32.8840  -18.2180    9.7030 C.2       1 GLU         0.2040
     95 O          33.4140  -17.5460    8.7700 O.2       1 GLU        -0.3944
     96 CB         34.0770  -18.3450   11.9020 C.3       1 GLU        -0.0008
     97 CG         34.3820  -17.7030   13.2590 C.3       1 GLU         0.0044
     98 CD         35.1600  -16.3840   13.2120 C.2       1 GLU         0.0350
     99 OE1        35.5510  -15.8910   12.1000 O.co2     1 GLU        -0.5690
    100 OE2        35.4120  -15.8720   14.3200 O.co2     1 GLU        -0.5690
    101 N          32.3030  -19.4060    9.4920 N.am      1 GLU        -0.2636
    102 CA         32.1950  -19.9590    8.1490 C.3       1 GLU         0.1325
    103 C          31.3090  -19.0990    7.2290 C.2       1 GLU         0.2041
    104 O          31.6770  -18.7330    6.1060 O.2       1 GLU        -0.3944
    105 CB         31.6320  -21.3760    8.2450 C.3       1 GLU        -0.0008
    106 CG         31.5050  -22.0330    6.8850 C.3       1 GLU         0.0044
    107 CD         30.8110  -23.3870    6.9330 C.2       1 GLU         0.0350
    108 OE1        30.9590  -24.1100    7.9350 O.co2     1 GLU        -0.5690
    109 OE2        30.1060  -23.7220    5.9430 O.co2     1 GLU        -0.5690
    110 N          30.1300  -18.7140    7.7460 N.am      1 TRP        -0.2627
    111 CA         29.1860  -17.9840    6.9240 C.3       1 TRP         0.1352
    112 C          29.6900  -16.5760    6.5900 C.2       1 TRP         0.2053
    113 O          29.2710  -16.0590    5.5500 O.2       1 TRP        -0.3942
    114 CB         27.7880  -17.9410    7.6220 C.3       1 TRP         0.0042
    115 CG         27.2200  -19.3340    7.8330 C.2       1 TRP        -0.0418
    116 CD1        27.5120  -20.4470    7.0800 C.2       1 TRP         0.0167
    117 CD2        26.3620  -19.7570    8.8750 C.ar      1 TRP        -0.0214
    118 NE1        26.8540  -21.5380    7.5890 N.pl3     1 TRP        -0.2890
    119 CE2        26.1180  -21.1420    8.6730 C.ar      1 TRP         0.0603
    120 CE3        25.7230  -19.1010    9.9420 C.ar      1 TRP        -0.0747
    121 CZ2        25.2910  -21.9050    9.5460 C.ar      1 TRP        -0.0443
    122 CZ3        24.9030  -19.8110   10.7590 C.ar      1 TRP        -0.0792
    123 CH2        24.6820  -21.2040   10.5660 C.ar      1 TRP        -0.0768
    124 N          30.5290  -15.9830    7.4600 N.am      1 ZCL        -0.2618
    125 O          33.1920  -13.7470    6.8340 O.2       1 ZCL        -0.3942
    126 CLZ        25.2220  -11.9560    8.9350 Cl        1 ZCL        -0.0764
    127 CE2        27.9190  -11.6250    8.3480 C.ar      1 ZCL        -0.0541
    128 CE1        27.1670  -13.7830    9.2720 C.ar      1 ZCL         0.0477
    129 CLE1       25.9780  -14.8610    9.8720 Cl        1 ZCL        -0.0718
    130 CD2        29.1900  -12.0600    8.2760 C.ar      1 ZCL        -0.0594
    131 CD1        28.5410  -14.2390    9.1940 C.ar      1 ZCL        -0.0457
    132 CB         30.9090  -13.8880    8.5500 C.3       1 ZCL         0.0216
    133 C          32.4650  -14.7500    6.7960 C.2       1 ZCL         0.2060
    134 CZ         26.8570  -12.4980    8.8650 C.ar      1 ZCL         0.0469
    135 CG         29.5100  -13.4070    8.7130 C.ar      1 ZCL        -0.0378
    136 CA         31.0970  -14.7520    7.2940 C.3       1 ZCL         0.1405
    137 N          32.9870  -15.8820    6.3220 N.am      1 ALA        -0.2639
    138 CA         34.4200  -15.9660    5.9050 C.3       1 ALA         0.1282
    139 C          34.8260  -14.9500    4.8490 C.2       1 ALA         0.2036
    140 O          34.1090  -14.7430    3.8620 O.2       1 ALA        -0.3944
    141 CB         34.6890  -17.3170    5.3830 C.3       1 ALA        -0.0244
    142 N          35.9880  -14.3410    5.0380 N.am      1 LEU        -0.2637
    143 CA         36.5490  -13.3940    4.0470 C.3       1 LEU         0.1309
    144 C          37.2490  -14.1090    2.9170 C.2       1 LEU         0.1992
    145 O          37.7720  -15.2020    3.1080 O.2       1 LEU        -0.3947
    146 CB         37.5410  -12.4200    4.6930 C.3       1 LEU        -0.0101
    147 CG         36.9840  -11.4450    5.7150 C.3       1 LEU        -0.0425
    148 CD1        38.1010  -10.4720    6.0190 C.3       1 LEU        -0.0625
    149 CD2        35.7660  -10.7150    5.1920 C.3       1 LEU        -0.0625
    150 N          37.3160  -13.4560    1.7690 N.am      1 ALA        -0.2990
    151 H          29.5198  -17.7302   25.3097 H         1 2N2         0.0644
    152 H          31.4466  -19.0109   26.1845 H         1 2N2         0.0472
    153 H          30.0205  -18.4395   30.2030 H         1 2N2         0.0166
    154 H          27.6883  -14.2468   25.4767 H         1 2N2         0.0670
    155 H          27.4766  -13.7071   23.0341 H         1 2N2         0.0569
    156 H          26.8124  -17.8919   22.2659 H         1 2N2         0.0586
    157 H          23.6089  -14.2139   27.9186 H         1 2N2         0.0524
    158 H          25.2241  -15.1122   26.2582 H         1 2N2         0.0651
    159 H          25.9301  -15.9238   31.0891 H         1 2N2         0.0505
    160 H          27.7893  -15.2201   20.6435 H         1 2N2         0.2425
    161 H          24.8148  -16.5139   22.0940 H         1 2N2         0.1981
    162 H          23.7547  -16.8061   19.2933 H         1 2N2         0.0543
    163 H          22.7474  -16.1664   20.6359 H         1 2N2         0.0543
    164 H          22.9426  -18.3284   21.8199 H         1 2N2         0.0286
    165 H          23.9652  -18.9694   20.4895 H         1 2N2         0.0286
    166 H          21.7295  -17.9182   19.1740 H         1 2N2         0.0267
    167 H          21.0430  -18.6672   20.6554 H         1 2N2         0.0267
    168 H          22.5007  -20.7029   20.0657 H         1 2N2         0.0290
    169 H          22.6720  -19.9406   18.4482 H         1 2N2         0.0290
    170 H          23.0705  -14.0589   30.0915 H         1 2N2         0.2528
    171 H          20.2029  -19.9536   18.1725 H         1 2N2         0.0502
    172 H          20.0199  -20.6950   19.7984 H         1 2N2         0.0502
    173 H          19.8819  -21.3239   16.5933 H         1 ASP         0.1884
    174 H          20.6979  -24.1410   17.0442 H         1 ASP         0.0819
    175 H          18.4738  -23.6674   16.0425 H         1 ASP         0.0478
    176 H          19.5156  -24.6193   14.9311 H         1 ASP         0.0478
    177 H          22.8880  -22.3650   16.8866 H         1 PHE         0.1885
    178 H          24.3782  -23.4386   14.6120 H         1 PHE         0.0823
    179 H          23.3202  -21.4841   13.5114 H         1 PHE         0.0474
    180 H          25.0815  -21.2162   13.7411 H         1 PHE         0.0474
    181 H          25.8758  -19.5902   15.4717 H         1 PHE         0.0557
    182 H          21.6874  -20.1654   14.7108 H         1 PHE         0.0557
    183 H          25.3813  -17.5776   16.7018 H         1 PHE         0.0599
    184 H          21.1770  -18.0945   15.9366 H         1 PHE         0.0599
    185 H          23.0464  -16.7839   16.9224 H         1 PHE         0.0559
    186 H          26.6674  -22.7629   14.8577 H         1 THR         0.1884
    187 H          27.3576  -22.1537   17.7019 H         1 THR         0.0826
    188 H          29.5025  -23.2528   17.2964 H         1 THR         0.0639
    189 H          29.8172  -24.1912   15.1874 H         1 THR         0.2101
    190 H          28.7287  -25.5637   16.8812 H         1 THR         0.0257
    191 H          27.1723  -24.9326   16.2441 H         1 THR         0.0257
    192 H          27.6022  -24.6858   17.9707 H         1 THR         0.0257
    193 H          29.5790  -21.1072   17.9705 H         1 ALA         0.1883
    194 H          29.7092  -18.6594   16.5051 H         1 ALA         0.0797
    195 H          31.8866  -18.3175   17.6511 H         1 ALA         0.0277
    196 H          31.8473  -20.0214   18.2183 H         1 ALA         0.0277
    197 H          30.6026  -18.8570   18.7855 H         1 ALA         0.0277
    198 H          31.3404  -21.8022   16.0705 H         1 ASP         0.1884
    199 H          33.1549  -20.8081   14.0609 H         1 ASP         0.0819
    200 H          33.2945  -23.2798   13.4171 H         1 ASP         0.0478
    201 H          32.1962  -23.5744   14.8076 H         1 ASP         0.0478
    202 H          29.7859  -22.0773   13.9221 H         1 ASP         0.1884
    203 H          29.5369  -22.2311   11.0976 H         1 ASP         0.0819
    204 H          27.1065  -21.5654   11.5166 H         1 ASP         0.0478
    205 H          27.5348  -21.4140   13.2545 H         1 ASP         0.0478
    206 H          29.1033  -19.4242   13.3619 H         1 LEU         0.1883
    207 H          28.3983  -17.5183   11.3648 H         1 LEU         0.0800
    208 H          29.1950  -15.7927   12.9986 H         1 LEU         0.0315
    209 H          29.8937  -17.1059   14.0056 H         1 LEU         0.0315
    210 H          27.6754  -18.0103   14.4620 H         1 LEU         0.0298
    211 H          26.7982  -16.0226   15.7422 H         1 LEU         0.0232
    212 H          27.8467  -14.9453   14.7591 H         1 LEU         0.0232
    213 H          28.5855  -16.1564   15.8610 H         1 LEU         0.0232
    214 H          26.5479  -17.5245   12.3202 H         1 LEU         0.0232
    215 H          26.5840  -15.7681   12.6946 H         1 LEU         0.0232
    216 H          25.6110  -16.8836   13.7123 H         1 LEU         0.0232
    217 H          31.6083  -18.4644   12.6726 H         1 GLU         0.1883
    218 H          33.0942  -16.6018   11.1062 H         1 GLU         0.0801
    219 H          34.9807  -18.2791   11.2784 H         1 GLU         0.0330
    220 H          33.8235  -19.4021   12.0698 H         1 GLU         0.0330
    221 H          34.9711  -18.4216   13.8477 H         1 GLU         0.0433
    222 H          33.4242  -17.5121   13.7651 H         1 GLU         0.0433
    223 H          31.9381  -19.9208   10.2677 H         1 GLU         0.1883
    224 H          33.2025  -20.0050    7.7098 H         1 GLU         0.0801
    225 H          30.6368  -21.3313    8.7115 H         1 GLU         0.0330
    226 H          32.3033  -21.9827    8.8705 H         1 GLU         0.0330
    227 H          32.5137  -22.1723    6.4689 H         1 GLU         0.0433
    228 H          30.9261  -21.3671    6.2282 H         1 GLU         0.0433
    229 H          29.9046  -18.9308    8.6958 H         1 TRP         0.1884
    230 H          29.0734  -18.5295    5.9755 H         1 TRP         0.0815
    231 H          27.0935  -17.3648    6.9930 H         1 TRP         0.0397
    232 H          27.8930  -17.4475    8.5994 H         1 TRP         0.0397
    233 H          28.1672  -20.4604    6.2102 H         1 TRP         0.0795
    234 H          26.9054  -22.4970    7.2168 H         1 TRP         0.2216
    235 H          25.8829  -18.0421   10.1102 H         1 TRP         0.0540
    236 H          25.1488  -22.9718    9.4168 H         1 TRP         0.0541
    237 H          24.4047  -19.3049   11.5779 H         1 TRP         0.0510
    238 H          24.0155  -21.7293   11.2405 H         1 TRP         0.0530
    239 H          30.7546  -16.4843    8.2953 H         1 ZCL         0.1885
    240 H          27.6763  -10.6203    8.0212 H         1 ZCL         0.0606
    241 H          29.9691  -11.4099    7.8947 H         1 ZCL         0.0559
    242 H          28.7987  -15.2409    9.5178 H         1 ZCL         0.0562
    243 H          31.1804  -14.4862    9.4323 H         1 ZCL         0.0474
    244 H          31.5751  -13.0154    8.4796 H         1 ZCL         0.0474
    245 H          30.5079  -14.2641    6.5035 H         1 ZCL         0.0823
    246 H          32.4068  -16.6927    6.2438 H         1 ALA         0.1883
    247 H          35.0415  -15.7955    6.7964 H         1 ALA         0.0797
    248 H          35.7422  -17.3875    5.0736 H         1 ALA         0.0277
    249 H          34.0388  -17.5119    4.5174 H         1 ALA         0.0277
    250 H          34.4870  -18.0604    6.1682 H         1 ALA         0.0277
    251 H          36.5018  -14.5267    5.8756 H         1 LEU         0.1883
    252 H          35.7143  -12.8137    3.6269 H         1 LEU         0.0800
    253 H          37.9990  -11.8291    3.8861 H         1 LEU         0.0315
    254 H          38.3157  -13.0191    5.1939 H         1 LEU         0.0315
    255 H          36.7036  -11.9888    6.6291 H         1 LEU         0.0298
    256 H          37.7545   -9.7357    6.7591 H         1 LEU         0.0232
    257 H          38.3963   -9.9525    5.0955 H         1 LEU         0.0232
    258 H          38.9647  -11.0200    6.4236 H         1 LEU         0.0232
    259 H          34.9675  -11.4407    4.9779 H         1 LEU         0.0232
    260 H          36.0292  -10.1767    4.2696 H         1 LEU         0.0232
    261 H          35.4159   -9.9971    5.9484 H         1 LEU         0.0232
    262 H          37.7670  -13.8751    0.9810 H         1 ALA         0.1815
    263 H          36.9157  -12.5431    1.6889 H         1 ALA         0.1815
@<TRIPOS>BOND
     1    1    2 2  
     2   19    1 1  
     3    2    3 1  
     4    4    3 1  
     5    3   31 2  
     6   20    4 2  
     7    6    5 ar 
     8   10    5 ar 
     9    5   18 1  
    10    7    6 ar 
    11    8    7 ar 
    12    8    9 ar 
    13   24    8 1  
    14    9   10 ar 
    15   10   11 1  
    16   11   22 ar 
    17   11   23 ar 
    18   13   12 ar 
    19   12   17 ar 
    20   14   13 ar 
    21   14   15 ar 
    22   18   14 1  
    23   15   16 ar 
    24   15   21 1  
    25   16   17 ar 
    26   17   32 1  
    27   18   19 2  
    28   19   20 1  
    29   20   21 1  
    30   25   24 am 
    31   26   25 am 
    32   25   34 2  
    33   27   26 1  
    34   28   27 1  
    35   29   28 1  
    36   30   29 1  
    37   33   30 1  
    38   35   33 1  
    39   35   36 2  
    40   37   35 am 
    41   38   37 1  
    42   39   38 1  
    43   38   41 1  
    44   39   40 2  
    45   45   39 am 
    46   41   42 1  
    47   42   43 ar 
    48   42   44 ar 
    49   46   45 1  
    50   47   46 1  
    51   46   49 1  
    52   47   48 2  
    53   56   47 am 
    54   49   50 1  
    55   50   51 ar 
    56   50   52 ar 
    57   51   53 ar 
    58   52   54 ar 
    59   53   55 ar 
    60   54   55 ar 
    61   57   56 1  
    62   58   57 1  
    63   57   60 1  
    64   58   59 2  
    65   63   58 am 
    66   60   61 1  
    67   60   62 1  
    68   64   63 1  
    69   65   64 1  
    70   64   67 1  
    71   65   66 2  
    72   68   65 am 
    73   69   68 1  
    74   70   69 1  
    75   69   72 1  
    76   70   71 2  
    77   76   70 am 
    78   72   73 1  
    79   73   74 ar 
    80   73   75 ar 
    81   77   76 1  
    82   78   77 1  
    83   77   80 1  
    84   78   79 2  
    85   84   78 am 
    86   80   81 1  
    87   81   82 ar 
    88   81   83 ar 
    89   85   84 1  
    90   86   85 1  
    91   85   88 1  
    92   86   87 2  
    93   92   86 am 
    94   88   89 1  
    95   89   90 1  
    96   89   91 1  
    97   93   92 1  
    98   94   93 1  
    99   93   96 1  
   100   94   95 2  
   101  101   94 am 
   102   96   97 1  
   103   97   98 1  
   104   98   99 ar 
   105   98  100 ar 
   106  102  101 1  
   107  103  102 1  
   108  102  105 1  
   109  103  104 2  
   110  110  103 am 
   111  105  106 1  
   112  106  107 1  
   113  107  108 ar 
   114  107  109 ar 
   115  111  110 1  
   116  112  111 1  
   117  111  114 1  
   118  112  113 2  
   119  124  112 am 
   120  114  115 1  
   121  115  116 2  
   122  115  117 1  
   123  116  118 1  
   124  117  119 ar 
   125  117  120 ar 
   126  119  118 1  
   127  119  121 ar 
   128  120  122 ar 
   129  121  123 ar 
   130  122  123 ar 
   131  136  124 1  
   132  133  125 2  
   133  134  126 1  
   134  130  127 ar 
   135  127  134 ar 
   136  128  129 1  
   137  131  128 ar 
   138  128  134 ar 
   139  135  130 ar 
   140  135  131 ar 
   141  132  135 1  
   142  136  132 1  
   143  133  136 1  
   144  133  137 am 
   145  137  138 1  
   146  138  139 1  
   147  138  141 1  
   148  139  140 2  
   149  139  142 am 
   150  142  143 1  
   151  143  144 1  
   152  143  146 1  
   153  144  145 2  
   154  144  150 am 
   155  146  147 1  
   156  147  148 1  
   157  147  149 1  
   158    1  151 1  
   159    2  152 1  
   160    4  153 1  
   161    6  154 1  
   162    7  155 1  
   163    9  156 1  
   164   12  157 1  
   165   13  158 1  
   166   16  159 1  
   167   24  160 1  
   168   26  161 1  
   169   27  162 1  
   170   27  163 1  
   171   28  164 1  
   172   28  165 1  
   173   29  166 1  
   174   29  167 1  
   175   30  168 1  
   176   30  169 1  
   177   32  170 1  
   178   33  171 1  
   179   33  172 1  
   180   37  173 1  
   181   38  174 1  
   182   41  175 1  
   183   41  176 1  
   184   45  177 1  
   185   46  178 1  
   186   49  179 1  
   187   49  180 1  
   188   51  181 1  
   189   52  182 1  
   190   53  183 1  
   191   54  184 1  
   192   55  185 1  
   193   56  186 1  
   194   57  187 1  
   195   60  188 1  
   196   61  189 1  
   197   62  190 1  
   198   62  191 1  
   199   62  192 1  
   200   63  193 1  
   201   64  194 1  
   202   67  195 1  
   203   67  196 1  
   204   67  197 1  
   205   68  198 1  
   206   69  199 1  
   207   72  200 1  
   208   72  201 1  
   209   76  202 1  
   210   77  203 1  
   211   80  204 1  
   212   80  205 1  
   213   84  206 1  
   214   85  207 1  
   215   88  208 1  
   216   88  209 1  
   217   89  210 1  
   218   90  211 1  
   219   90  212 1  
   220   90  213 1  
   221   91  214 1  
   222   91  215 1  
   223   91  216 1  
   224   92  217 1  
   225   93  218 1  
   226   96  219 1  
   227   96  220 1  
   228   97  221 1  
   229   97  222 1  
   230  101  223 1  
   231  102  224 1  
   232  105  225 1  
   233  105  226 1  
   234  106  227 1  
   235  106  228 1  
   236  110  229 1  
   237  111  230 1  
   238  114  231 1  
   239  114  232 1  
   240  116  233 1  
   241  118  234 1  
   242  120  235 1  
   243  121  236 1  
   244  122  237 1  
   245  123  238 1  
   246  124  239 1  
   247  127  240 1  
   248  130  241 1  
   249  131  242 1  
   250  132  243 1  
   251  132  244 1  
   252  136  245 1  
   253  137  246 1  
   254  138  247 1  
   255  141  248 1  
   256  141  249 1  
   257  141  250 1  
   258  142  251 1  
   259  143  252 1  
   260  146  253 1  
   261  146  254 1  
   262  147  255 1  
   263  148  256 1  
   264  148  257 1  
   265  148  258 1  
   266  149  259 1  
   267  149  260 1  
   268  149  261 1  
   269  150  262 1  
   270  150  263 1  
@<TRIPOS>SUBSTRUCTURE
     1 2N2         1

