4nb3_ligand
  -I-interpret- 

268275  0  0  0  0  0  0  0  0999 V2000
   29.6260  -17.8810   26.3830 C   0  0  0  0  0
   30.7100  -18.6010   26.8740 C   0  0  0  0  0
   30.8560  -18.7990   28.2420 C   0  0  0  0  0
   29.9130  -18.2810   29.1310 C   0  0  0  0  0
   27.3460  -16.3510   25.2360 C   0  0  0  0  0
   27.4830  -15.0410   24.7680 C   0  0  0  0  0
   27.3610  -14.7230   23.3940 C   0  0  0  0  0
   27.0850  -15.7790   22.5250 C   0  0  0  0  0
   26.9770  -17.0940   22.9810 C   0  0  0  0  0
   27.0760  -17.4010   24.3310 C   0  0  0  0  0
   26.9280  -18.8560   24.6990 C   0  0  0  0  0
   24.4670  -14.7850   28.2540 C   0  0  0  0  0
   25.3870  -15.2900   27.3150 C   0  0  0  0  0
   26.5160  -16.0230   27.7300 C   0  0  0  0  0
   26.6860  -16.2380   29.0840 C   0  0  0  0  0
   25.7680  -15.7410   30.0330 C   0  0  0  0  0
   24.6600  -15.0200   29.6190 C   0  0  0  0  0
   27.5000  -16.5800   26.7680 C   0  0  0  0  0
   28.6640  -17.3450   27.2620 C   0  0  0  0  0
   28.8180  -17.5490   28.6230 C   0  0  0  0  0
   27.8300  -17.0010   29.5520 O   0  0  0  0  0
   26.3090  -19.1980   25.7360 O   0  0  0  0  0
   27.4160  -19.7270   23.9170 O   0  0  0  0  0
   27.0080  -15.6280   21.1160 N   0  0  0  0  0
   25.8780  -16.0250   20.3300 C   0  0  0  0  0
   24.7700  -16.4690   21.0960 N   0  0  0  0  0
   23.5620  -16.8580   20.3750 C   0  0  0  0  0
   23.1500  -18.2750   20.7410 C   0  0  0  0  0
   21.9010  -18.6610   19.9670 C   0  0  0  0  0
   22.0320  -20.0230   19.3390 C   0  0  0  0  0
   31.8150  -19.4390   28.6660 O   0  0  0  0  0
   23.7650  -14.5240   30.5430 O   0  0  0  0  0
   20.6740  -20.6110   18.9180 C   0  0  0  0  0
   25.8950  -15.8930   18.6750 S   0  0  0  0  0
   20.8890  -21.9490   18.3320 C   0  0  0  0  0
   21.2600  -22.9470   18.9130 O   0  0  0  0  0
   20.3810  -22.0770   17.0220 N   0  0  0  0  0
   20.5990  -23.3370   16.3000 C   0  0  0  0  0
   21.8650  -23.3320   15.4410 C   0  0  0  0  0
   21.8640  -23.8270   14.2990 O   0  0  0  0  0
   19.3690  -23.6370   15.4040 C   0  0  0  0  0
   19.1420  -22.6070   14.3090 C   0  0  0  0  0
   19.7300  -21.4870   14.3630 O   0  0  0  0  0
   18.3290  -22.8960   13.3970 O   0  0  0  0  0
   22.9390  -22.7170   15.9520 N   0  0  0  0  0
   24.1750  -22.5380   15.2100 C   0  0  0  0  0
   25.2660  -22.3540   16.2500 C   0  0  0  0  0
   24.9740  -22.0850   17.4350 O   0  0  0  0  0
   24.1130  -21.3110   14.2540 C   0  0  0  0  0
   23.8200  -20.0090   14.9820 C   0  0  0  0  0
   24.8480  -19.2600   15.5700 C   0  0  0  0  0
   22.4930  -19.5800   15.1390 C   0  0  0  0  0
   24.5750  -18.1440   16.2500 C   0  0  0  0  0
   22.2020  -18.4300   15.8270 C   0  0  0  0  0
   23.2540  -17.7010   16.3830 C   0  0  0  0  0
   26.5230  -22.4940   15.8100 N   0  0  0  0  0
   27.7060  -22.2700   16.6650 C   0  0  0  0  0
   28.5040  -21.0390   16.2660 C   0  0  0  0  0
   28.2930  -20.4880   15.1840 O   0  0  0  0  0
   28.6790  -23.4260   16.5880 C   0  0  0  0  0
   29.2020  -23.4710   15.2600 O   0  0  0  0  0
   27.9980  -24.7440   16.9460 C   0  0  0  0  0
   29.4590  -20.6410   17.0940 N   0  0  0  0  0
   30.3370  -19.5310   16.7420 C   0  0  0  0  0
   31.1500  -19.8720   15.4980 C   0  0  0  0  0
   31.3670  -19.0190   14.6520 O   0  0  0  0  0
   31.2320  -19.1550   17.9340 C   0  0  0  0  0
   31.5620  -21.1290   15.3650 N   0  0  0  0  0
   32.3380  -21.5330   14.1920 C   0  0  0  0  0
   31.4680  -21.4980   12.9250 C   0  0  0  0  0
   31.9740  -21.1810   11.8410 O   0  0  0  0  0
   32.9590  -22.8990   14.3930 C   0  0  0  0  0
   34.1480  -22.8710   15.3380 C   0  0  0  0  0
   34.7340  -21.7800   15.5790 O   0  0  0  0  0
   34.5840  -23.9620   15.7390 O   0  0  0  0  0
   30.1430  -21.7560   13.0450 N   0  0  0  0  0
   29.2240  -21.5760   11.9240 C   0  0  0  0  0
   29.2910  -20.0960   11.4620 C   0  0  0  0  0
   29.3290  -19.8240   10.2550 O   0  0  0  0  0
   27.7770  -21.9250   12.3110 C   0  0  0  0  0
   27.5500  -23.4060   12.4960 C   0  0  0  0  0
   28.2160  -24.2260   11.8170 O   0  0  0  0  0
   26.6160  -23.7460   13.2700 O   0  0  0  0  0
   29.1990  -19.1570   12.4030 N   0  0  0  0  0
   29.2370  -17.7310   12.0440 C   0  0  0  0  0
   30.5330  -17.4080   11.3310 C   0  0  0  0  0
   30.5240  -16.6550   10.3460 O   0  0  0  0  0
   29.0880  -16.8440   13.3040 C   0  0  0  0  0
   27.7410  -16.9970   14.0390 C   0  0  0  0  0
   27.7430  -15.9550   15.1830 C   0  0  0  0  0
   26.5370  -16.7780   13.1280 C   0  0  0  0  0
   31.6380  -17.9220   11.8330 N   0  0  0  0  0
   32.9180  -17.6870   11.1410 C   0  0  0  0  0
   32.8840  -18.2180    9.7030 C   0  0  0  0  0
   33.4140  -17.5460    8.7700 O   0  0  0  0  0
   34.0770  -18.3450   11.9020 C   0  0  0  0  0
   34.3820  -17.7030   13.2590 C   0  0  0  0  0
   35.1600  -16.3840   13.2120 C   0  0  0  0  0
   35.5510  -15.8910   12.1000 O   0  0  0  0  0
   35.4120  -15.8720   14.3200 O   0  0  0  0  0
   32.3030  -19.4060    9.4920 N   0  0  0  0  0
   32.1950  -19.9590    8.1490 C   0  0  0  0  0
   31.3090  -19.0990    7.2290 C   0  0  0  0  0
   31.6770  -18.7330    6.1060 O   0  0  0  0  0
   31.6320  -21.3760    8.2450 C   0  0  0  0  0
   31.5050  -22.0330    6.8850 C   0  0  0  0  0
   30.8110  -23.3870    6.9330 C   0  0  0  0  0
   30.9590  -24.1100    7.9350 O   0  0  0  0  0
   30.1060  -23.7220    5.9430 O   0  0  0  0  0
   30.1300  -18.7140    7.7460 N   0  0  0  0  0
   29.1860  -17.9840    6.9240 C   0  0  0  0  0
   29.6900  -16.5760    6.5900 C   0  0  0  0  0
   29.2710  -16.0590    5.5500 O   0  0  0  0  0
   27.7880  -17.9410    7.6220 C   0  0  0  0  0
   27.2200  -19.3340    7.8330 C   0  0  0  0  0
   27.5120  -20.4470    7.0800 C   0  0  0  0  0
   26.3620  -19.7570    8.8750 C   0  0  0  0  0
   26.8540  -21.5380    7.5890 N   0  0  0  0  0
   26.1180  -21.1420    8.6730 C   0  0  0  0  0
   25.7230  -19.1010    9.9420 C   0  0  0  0  0
   25.2910  -21.9050    9.5460 C   0  0  0  0  0
   24.9030  -19.8110   10.7590 C   0  0  0  0  0
   24.6820  -21.2040   10.5660 C   0  0  0  0  0
   30.5290  -15.9830    7.4600 N   0  0  0  0  0
   33.1920  -13.7470    6.8340 O   0  0  0  0  0
   25.2220  -11.9560    8.9350 Cl  0  0  0  0  0
   27.9190  -11.6250    8.3480 C   0  0  0  0  0
   27.1670  -13.7830    9.2720 C   0  0  0  0  0
   25.9780  -14.8610    9.8720 Cl  0  0  0  0  0
   29.1900  -12.0600    8.2760 C   0  0  0  0  0
   28.5410  -14.2390    9.1940 C   0  0  0  0  0
   30.9090  -13.8880    8.5500 C   0  0  0  0  0
   32.4650  -14.7500    6.7960 C   0  0  0  0  0
   26.8570  -12.4980    8.8650 C   0  0  0  0  0
   29.5100  -13.4070    8.7130 C   0  0  0  0  0
   31.0970  -14.7520    7.2940 C   0  0  0  0  0
   32.9870  -15.8820    6.3220 N   0  0  0  0  0
   34.4200  -15.9660    5.9050 C   0  0  0  0  0
   34.8260  -14.9500    4.8490 C   0  0  0  0  0
   34.1090  -14.7430    3.8620 O   0  0  0  0  0
   34.6890  -17.3170    5.3830 C   0  0  0  0  0
   35.9880  -14.3410    5.0380 N   0  0  0  0  0
   36.5490  -13.3940    4.0470 C   0  0  0  0  0
   37.2490  -14.1090    2.9170 C   0  0  0  0  0
   37.7720  -15.2020    3.1080 O   0  0  0  0  0
   37.5410  -12.4200    4.6930 C   0  0  0  0  0
   36.9840  -11.4450    5.7150 C   0  0  0  0  0
   38.1010  -10.4720    6.0190 C   0  0  0  0  0
   35.7660  -10.7150    5.1920 C   0  0  0  0  0
   37.3160  -13.4560    1.7690 N   0  0  0  0  0
   29.5197  -17.7301   25.3087 H   0  0  0  0  0
   31.4473  -19.0112   26.1839 H   0  0  0  0  0
   30.0206  -18.4396   30.2040 H   0  0  0  0  0
   27.6894  -14.2424   25.4806 H   0  0  0  0  0
   27.4772  -13.7014   23.0321 H   0  0  0  0  0
   26.8115  -17.8963   22.2620 H   0  0  0  0  0
   23.6041  -14.2107   27.9167 H   0  0  0  0  0
   25.2232  -15.1112   26.2523 H   0  0  0  0  0
   25.9310  -15.9249   31.0949 H   0  0  0  0  0
   27.8509  -19.2880   23.1823 H   0  0  0  0  0
   27.8049  -15.2119   20.6341 H   0  0  0  0  0
   24.8157  -16.5148   22.1139 H   0  0  0  0  0
   23.7615  -16.8147   19.3043 H   0  0  0  0  0
   22.7557  -16.1760   20.6449 H   0  0  0  0  0
   22.9430  -18.3265   21.8099 H   0  0  0  0  0
   23.9577  -18.9625   20.4898 H   0  0  0  0  0
   21.7504  -17.9301   19.1725 H   0  0  0  0  0
   21.0606  -18.6827   20.6609 H   0  0  0  0  0
   22.4740  -20.6924   20.0770 H   0  0  0  0  0
   22.6469  -19.9231   18.4446 H   0  0  0  0  0
   24.0458  -14.7756   31.4259 H   0  0  0  0  0
   20.2040  -19.9590   18.1817 H   0  0  0  0  0
   20.0232  -20.6918   19.7886 H   0  0  0  0  0
   19.8719  -21.3089   16.5847 H   0  0  0  0  0
   20.7316  -24.1138   17.0531 H   0  0  0  0  0
   18.4886  -23.6278   16.0466 H   0  0  0  0  0
   19.5477  -24.5955   14.9168 H   0  0  0  0  0
   20.3058  -21.4658   15.1309 H   0  0  0  0  0
   22.8870  -22.3580   16.9053 H   0  0  0  0  0
   24.3640  -23.4010   14.5716 H   0  0  0  0  0
   23.3058  -21.4837   13.5422 H   0  0  0  0  0
   25.0869  -21.2127   13.7744 H   0  0  0  0  0
   25.8815  -19.5920   15.4712 H   0  0  0  0  0
   21.6830  -20.1687   14.7084 H   0  0  0  0  0
   25.3857  -17.5744   16.7043 H   0  0  0  0  0
   21.1714  -18.0927   15.9372 H   0  0  0  0  0
   23.0452  -16.7789   16.9254 H   0  0  0  0  0
   26.6702  -22.7682   14.8387 H   0  0  0  0  0
   27.2940  -22.1509   17.6671 H   0  0  0  0  0
   29.4853  -23.2798   17.3067 H   0  0  0  0  0
   29.8237  -24.1988   15.1866 H   0  0  0  0  0
   27.6062  -24.6850   17.9615 H   0  0  0  0  0
   27.1801  -24.9297   16.2499 H   0  0  0  0  0
   28.7230  -25.5554   16.8815 H   0  0  0  0  0
   29.5814  -21.1166   17.9880 H   0  0  0  0  0
   29.7307  -18.6568   16.5048 H   0  0  0  0  0
   30.6072  -18.8600   18.7770 H   0  0  0  0  0
   31.8410  -20.0143   18.2147 H   0  0  0  0  0
   31.8801  -18.3251   17.6525 H   0  0  0  0  0
   31.3359  -21.8156   16.0846 H   0  0  0  0  0
   33.1505  -20.8183   14.0615 H   0  0  0  0  0
   33.3110  -23.2519   13.4236 H   0  0  0  0  0
   32.2010  -23.5497   14.8290 H   0  0  0  0  0
   34.2392  -21.0583   15.1841 H   0  0  0  0  0
   29.7787  -22.0837   13.9396 H   0  0  0  0  0
   29.5232  -22.2486   11.1201 H   0  0  0  0  0
   27.1292  -21.5908   11.5006 H   0  0  0  0  0
   27.5632  -21.4373   13.2621 H   0  0  0  0  0
   26.2461  -22.9640   13.6862 H   0  0  0  0  0
   29.1013  -19.4295   13.3811 H   0  0  0  0  0
   28.4015  -17.5225   11.3757 H   0  0  0  0  0
   29.1550  -15.8074   12.9738 H   0  0  0  0  0
   29.8682  -17.1479   14.0018 H   0  0  0  0  0
   27.6457  -18.0170   14.4114 H   0  0  0  0  0
   28.5782  -16.1556   15.8540 H   0  0  0  0  0
   27.8458  -14.9550   14.7617 H   0  0  0  0  0
   26.8063  -16.0230   15.7363 H   0  0  0  0  0
   26.5758  -15.7711   12.7125 H   0  0  0  0  0
   26.5581  -17.5076   12.3185 H   0  0  0  0  0
   25.6199  -16.8994   13.7045 H   0  0  0  0  0
   31.6077  -18.4753   12.6894 H   0  0  0  0  0
   33.0742  -16.6087   11.1093 H   0  0  0  0  0
   34.9697  -18.2349   11.2862 H   0  0  0  0  0
   33.7905  -19.3792   12.0927 H   0  0  0  0  0
   35.0088  -18.4112   13.8010 H   0  0  0  0  0
   33.4188  -17.4764   13.7161 H   0  0  0  0  0
   35.2447  -16.4467   11.3796 H   0  0  0  0  0
   31.9308  -19.9311   10.2833 H   0  0  0  0  0
   33.1906  -19.9713    7.7054 H   0  0  0  0  0
   30.6379  -21.3174    8.6882 H   0  0  0  0  0
   32.3158  -21.9731    8.8483 H   0  0  0  0  0
   32.5125  -22.1926    6.5008 H   0  0  0  0  0
   30.9031  -21.3764    6.2568 H   0  0  0  0  0
   30.1279  -23.0234    5.2849 H   0  0  0  0  0
   29.9001  -18.9351    8.7148 H   0  0  0  0  0
   29.0835  -18.5114    5.9756 H   0  0  0  0  0
   27.1027  -17.3847    6.9825 H   0  0  0  0  0
   27.9061  -17.4678    8.5968 H   0  0  0  0  0
   28.1678  -20.4604    6.2094 H   0  0  0  0  0
   25.8838  -18.0363   10.1112 H   0  0  0  0  0
   25.1480  -22.9777    9.4160 H   0  0  0  0  0
   24.4019  -19.3021   11.5824 H   0  0  0  0  0
   24.0118  -21.7322   11.2442 H   0  0  0  0  0
   30.7591  -16.4944    8.3120 H   0  0  0  0  0
   27.6749  -10.6148    8.0194 H   0  0  0  0  0
   29.9734  -11.4063    7.8926 H   0  0  0  0  0
   28.8001  -15.2465    9.5196 H   0  0  0  0  0
   31.1552  -14.5007    9.4173 H   0  0  0  0  0
   31.5540  -13.0145    8.4546 H   0  0  0  0  0
   30.5464  -14.2892    6.4750 H   0  0  0  0  0
   32.3952  -16.7089    6.2422 H   0  0  0  0  0
   35.0085  -15.7432    6.7950 H   0  0  0  0  0
   34.4884  -18.0527    6.1619 H   0  0  0  0  0
   34.0441  -17.5089    4.5255 H   0  0  0  0  0
   35.7328  -17.3856    5.0768 H   0  0  0  0  0
   36.5121  -14.5304    5.8923 H   0  0  0  0  0
   35.6989  -12.8392    3.6500 H   0  0  0  0  0
   37.9297  -11.8080    3.8791 H   0  0  0  0  0
   38.2575  -13.0394    5.2325 H   0  0  0  0  0
   36.6552  -11.9741    6.6095 H   0  0  0  0  0
   38.9561  -11.0162    6.4198 H   0  0  0  0  0
   38.3927   -9.9580    5.1031 H   0  0  0  0  0
   37.7565   -9.7429    6.7524 H   0  0  0  0  0
   36.0362  -10.1551    4.2967 H   0  0  0  0  0
   34.9873  -11.4379    4.9488 H   0  0  0  0  0
   35.4003  -10.0280    5.9551 H   0  0  0  0  0
   37.8238  -13.8594    0.9817 H   0  0  0  0  0
   36.8599  -12.5490    1.6708 H   0  0  0  0  0
  1  2  2  0  0  0
 19  1  1  0  0  0
  2  3  1  0  0  0
  4  3  1  0  0  0
  3 31  2  0  0  0
 20  4  2  0  0  0
  6  5  4  0  0  0
 10  5  4  0  0  0
  5 18  1  0  0  0
  7  6  4  0  0  0
  8  7  4  0  0  0
  8  9  4  0  0  0
 24  8  1  0  0  0
  9 10  4  0  0  0
 10 11  1  0  0  0
 11 22  2  0  0  0
 11 23  1  0  0  0
 13 12  4  0  0  0
 12 17  4  0  0  0
 14 13  4  0  0  0
 14 15  4  0  0  0
 18 14  1  0  0  0
 15 16  4  0  0  0
 15 21  1  0  0  0
 16 17  4  0  0  0
 17 32  1  0  0  0
 18 19  2  0  0  0
 19 20  1  0  0  0
 20 21  1  0  0  0
 25 24  1  0  0  0
 26 25  1  0  0  0
 25 34  2  0  0  0
 27 26  1  0  0  0
 28 27  1  0  0  0
 29 28  1  0  0  0
 30 29  1  0  0  0
 33 30  1  0  0  0
 35 33  1  0  0  0
 35 36  2  0  0  0
 37 35  1  0  0  0
 38 37  1  0  0  0
 39 38  1  0  0  0
 38 41  1  0  0  0
 39 40  2  0  0  0
 45 39  1  0  0  0
 41 42  1  0  0  0
 42 43  1  0  0  0
 42 44  2  0  0  0
 46 45  1  0  0  0
 47 46  1  0  0  0
 46 49  1  0  0  0
 47 48  2  0  0  0
 56 47  1  0  0  0
 49 50  1  0  0  0
 50 51  4  0  0  0
 50 52  4  0  0  0
 51 53  4  0  0  0
 52 54  4  0  0  0
 53 55  4  0  0  0
 54 55  4  0  0  0
 57 56  1  0  0  0
 58 57  1  0  0  0
 57 60  1  0  0  0
 58 59  2  0  0  0
 63 58  1  0  0  0
 60 61  1  0  0  0
 60 62  1  0  0  0
 64 63  1  0  0  0
 65 64  1  0  0  0
 64 67  1  0  0  0
 65 66  2  0  0  0
 68 65  1  0  0  0
 69 68  1  0  0  0
 70 69  1  0  0  0
 69 72  1  0  0  0
 70 71  2  0  0  0
 76 70  1  0  0  0
 72 73  1  0  0  0
 73 74  1  0  0  0
 73 75  2  0  0  0
 77 76  1  0  0  0
 78 77  1  0  0  0
 77 80  1  0  0  0
 78 79  2  0  0  0
 84 78  1  0  0  0
 80 81  1  0  0  0
 81 82  2  0  0  0
 81 83  1  0  0  0
 85 84  1  0  0  0
 86 85  1  0  0  0
 85 88  1  0  0  0
 86 87  2  0  0  0
 92 86  1  0  0  0
 88 89  1  0  0  0
 89 90  1  0  0  0
 89 91  1  0  0  0
 93 92  1  0  0  0
 94 93  1  0  0  0
 93 96  1  0  0  0
 94 95  2  0  0  0
101 94  1  0  0  0
 96 97  1  0  0  0
 97 98  1  0  0  0
 98 99  1  0  0  0
 98100  2  0  0  0
102101  1  0  0  0
103102  1  0  0  0
102105  1  0  0  0
103104  2  0  0  0
110103  1  0  0  0
105106  1  0  0  0
106107  1  0  0  0
107108  2  0  0  0
107109  1  0  0  0
111110  1  0  0  0
112111  1  0  0  0
111114  1  0  0  0
112113  2  0  0  0
124112  1  0  0  0
114115  1  0  0  0
115116  4  0  0  0
115117  4  0  0  0
116118  4  0  0  0
117119  4  0  0  0
117120  4  0  0  0
119118  4  0  0  0
119121  4  0  0  0
120122  4  0  0  0
121123  4  0  0  0
122123  4  0  0  0
136124  1  0  0  0
133125  2  0  0  0
134126  1  0  0  0
130127  4  0  0  0
127134  4  0  0  0
128129  1  0  0  0
131128  4  0  0  0
128134  4  0  0  0
135130  4  0  0  0
135131  4  0  0  0
132135  1  0  0  0
136132  1  0  0  0
133136  1  0  0  0
133137  1  0  0  0
137138  1  0  0  0
138139  1  0  0  0
138141  1  0  0  0
139140  2  0  0  0
139142  1  0  0  0
142143  1  0  0  0
143144  1  0  0  0
143146  1  0  0  0
144145  2  0  0  0
144150  1  0  0  0
146147  1  0  0  0
147148  1  0  0  0
147149  1  0  0  0
  1151  1  0  0  0
  2152  1  0  0  0
  4153  1  0  0  0
  6154  1  0  0  0
  7155  1  0  0  0
  9156  1  0  0  0
 12157  1  0  0  0
 13158  1  0  0  0
 16159  1  0  0  0
 23160  1  0  0  0
 24161  1  0  0  0
 26162  1  0  0  0
 27163  1  0  0  0
 27164  1  0  0  0
 28165  1  0  0  0
 28166  1  0  0  0
 29167  1  0  0  0
 29168  1  0  0  0
 30169  1  0  0  0
 30170  1  0  0  0
 32171  1  0  0  0
 33172  1  0  0  0
 33173  1  0  0  0
 37174  1  0  0  0
 38175  1  0  0  0
 41176  1  0  0  0
 41177  1  0  0  0
 43178  1  0  0  0
 45179  1  0  0  0
 46180  1  0  0  0
 49181  1  0  0  0
 49182  1  0  0  0
 51183  1  0  0  0
 52184  1  0  0  0
 53185  1  0  0  0
 54186  1  0  0  0
 55187  1  0  0  0
 56188  1  0  0  0
 57189  1  0  0  0
 60190  1  0  0  0
 61191  1  0  0  0
 62192  1  0  0  0
 62193  1  0  0  0
 62194  1  0  0  0
 63195  1  0  0  0
 64196  1  0  0  0
 67197  1  0  0  0
 67198  1  0  0  0
 67199  1  0  0  0
 68200  1  0  0  0
 69201  1  0  0  0
 72202  1  0  0  0
 72203  1  0  0  0
 74204  1  0  0  0
 76205  1  0  0  0
 77206  1  0  0  0
 80207  1  0  0  0
 80208  1  0  0  0
 83209  1  0  0  0
 84210  1  0  0  0
 85211  1  0  0  0
 88212  1  0  0  0
 88213  1  0  0  0
 89214  1  0  0  0
 90215  1  0  0  0
 90216  1  0  0  0
 90217  1  0  0  0
 91218  1  0  0  0
 91219  1  0  0  0
 91220  1  0  0  0
 92221  1  0  0  0
 93222  1  0  0  0
 96223  1  0  0  0
 96224  1  0  0  0
 97225  1  0  0  0
 97226  1  0  0  0
 99227  1  0  0  0
101228  1  0  0  0
102229  1  0  0  0
105230  1  0  0  0
105231  1  0  0  0
106232  1  0  0  0
106233  1  0  0  0
109234  1  0  0  0
110235  1  0  0  0
111236  1  0  0  0
114237  1  0  0  0
114238  1  0  0  0
116239  1  0  0  0
120240  1  0  0  0
121241  1  0  0  0
122242  1  0  0  0
123243  1  0  0  0
124244  1  0  0  0
127245  1  0  0  0
130246  1  0  0  0
131247  1  0  0  0
132248  1  0  0  0
132249  1  0  0  0
136250  1  0  0  0
137251  1  0  0  0
138252  1  0  0  0
141253  1  0  0  0
141254  1  0  0  0
141255  1  0  0  0
142256  1  0  0  0
143257  1  0  0  0
146258  1  0  0  0
146259  1  0  0  0
147260  1  0  0  0
148261  1  0  0  0
148262  1  0  0  0
148263  1  0  0  0
149264  1  0  0  0
149265  1  0  0  0
149266  1  0  0  0
150267  1  0  0  0
150268  1  0  0  0
M  END
$$$$
