5fow_ligand
  -I-interpret- 

 71 73  0  0  0  0  0  0  0  0999 V2000
   18.7400   -5.0920    3.0790 C   0  0  0  0  0
   17.9400   -5.3920    3.9640 O   0  0  0  0  0
   19.9150   -4.1690    3.3290 C   0  0  0  0  0
   18.6260   -5.5590    1.8360 N   0  0  0  0  0
   17.5540   -6.4580    1.4030 C   0  0  0  0  0
   17.7560   -7.9060    1.8360 C   0  0  0  0  0
   18.8440   -8.4660    1.6640 O   0  0  0  0  0
   17.4180   -6.4030   -0.1150 C   0  0  0  0  0
   16.7730   -5.1450   -0.6210 C   0  0  0  0  0
   17.3810   -4.1060   -1.2700 C   0  0  0  0  0
   15.3920   -4.7970   -0.5090 C   0  0  0  0  0
   16.4520   -3.1290   -1.5780 N   0  0  0  0  0
   15.2250   -3.5300   -1.1180 C   0  0  0  0  0
   14.2750   -5.4370    0.0380 C   0  0  0  0  0
   13.9850   -2.8920   -1.1850 C   0  0  0  0  0
   13.0420   -4.8020   -0.0320 C   0  0  0  0  0
   12.9090   -3.5480   -0.6430 C   0  0  0  0  0
   16.6970   -8.5200    2.3690 N   0  0  0  0  0
   16.7200   -9.9290    2.7490 C   0  0  0  0  0
   15.3340  -10.5370    2.5570 C   0  0  0  0  0
   14.3310   -9.8270    2.4370 O   0  0  0  0  0
   17.1520  -10.1290    4.2080 C   0  0  0  0  0
   18.4980   -9.5600    4.5330 C   0  0  0  0  0
   18.6650   -8.2800    5.0160 N   0  0  0  0  0
   19.7360  -10.1050    4.4660 C   0  0  0  0  0
   19.9510   -8.0580    5.2250 C   0  0  0  0  0
   20.6210   -9.1490    4.9010 N   0  0  0  0  0
   15.2880  -11.8690    2.5590 N   0  0  0  0  0
   14.0130  -12.5750    2.5020 C   0  0  0  0  0
   13.2590  -12.4290    3.8180 C   0  0  0  0  0
   13.8500  -12.5000    4.8990 O   0  0  0  0  0
   14.2380  -14.0560    2.1990 C   0  0  0  0  0
   15.1380  -14.1800    1.0950 O   0  0  0  0  0
   12.9130  -14.7370    1.8560 C   0  0  0  0  0
   11.9480  -12.2150    3.7240 N   0  0  0  0  0
   11.1110  -12.0660    4.9130 C   0  0  0  0  0
   11.1060  -13.3240    5.7860 C   0  0  0  0  0
   10.9540  -13.2380    7.0060 O   0  0  0  0  0
    9.6920  -11.6990    4.5140 C   0  0  0  0  0
   11.2540  -14.4380    5.2790 O   0  0  0  0  0
   19.5482   -3.1980    3.6618 H   0  0  0  0  0
   20.5564   -4.5996    4.0980 H   0  0  0  0  0
   20.4828   -4.0477    2.4065 H   0  0  0  0  0
   19.3237   -5.2747    1.1484 H   0  0  0  0  0
   16.6447   -6.1065    1.8906 H   0  0  0  0  0
   16.7831   -7.2368   -0.4147 H   0  0  0  0  0
   18.4239   -6.4431   -0.5329 H   0  0  0  0  0
   18.4431   -4.0554   -1.5096 H   0  0  0  0  0
   14.3705   -6.4149    0.5099 H   0  0  0  0  0
   13.8762   -1.9119   -1.6494 H   0  0  0  0  0
   12.1640   -5.2866    0.3950 H   0  0  0  0  0
   11.9249   -3.0816   -0.6888 H   0  0  0  0  0
   15.8410   -7.9851    2.5159 H   0  0  0  0  0
   17.4495  -10.4245    2.1083 H   0  0  0  0  0
   17.2063  -11.2035    4.3829 H   0  0  0  0  0
   16.4244   -9.6108    4.8327 H   0  0  0  0  0
   19.9833  -11.1121    4.1303 H   0  0  0  0  0
   20.3850   -7.1315    5.6010 H   0  0  0  0  0
   16.1566  -12.4021    2.6010 H   0  0  0  0  0
   13.4163  -12.1340    1.7036 H   0  0  0  0  0
   14.6622  -14.5380    3.0798 H   0  0  0  0  0
   15.2808  -15.1097    0.9029 H   0  0  0  0  0
   12.2301  -14.6466    2.7008 H   0  0  0  0  0
   12.4754  -14.2574    0.9805 H   0  0  0  0  0
   13.0921  -15.7909    1.6431 H   0  0  0  0  0
   11.5180  -12.1537    2.8011 H   0  0  0  0  0
   11.5412  -11.2617    5.5098 H   0  0  0  0  0
    9.7024  -10.7578    3.9644 H   0  0  0  0  0
    9.2786  -12.4854    3.8825 H   0  0  0  0  0
    9.0804  -11.5914    5.4098 H   0  0  0  0  0
   11.3597  -14.3447    4.3294 H   0  0  0  0  0
  1  2  2  0  0  0
  1  3  1  0  0  0
  1  4  1  0  0  0
  4  5  1  0  0  0
  5  6  1  0  0  0
  5  8  1  0  0  0
  6  7  2  0  0  0
  6 18  1  0  0  0
  8  9  1  0  0  0
  9 10  4  0  0  0
  9 11  4  0  0  0
 10 12  4  0  0  0
 11 13  4  0  0  0
 11 14  4  0  0  0
 12 13  4  0  0  0
 13 15  4  0  0  0
 14 16  4  0  0  0
 15 17  4  0  0  0
 16 17  4  0  0  0
 18 19  1  0  0  0
 19 20  1  0  0  0
 19 22  1  0  0  0
 20 21  2  0  0  0
 20 28  1  0  0  0
 22 23  1  0  0  0
 23 24  4  0  0  0
 23 25  4  0  0  0
 24 26  4  0  0  0
 25 27  4  0  0  0
 26 27  4  0  0  0
 28 29  1  0  0  0
 29 30  1  0  0  0
 29 32  1  0  0  0
 30 31  2  0  0  0
 30 35  1  0  0  0
 32 33  1  0  0  0
 32 34  1  0  0  0
 35 36  1  0  0  0
 36 37  1  0  0  0
 36 39  1  0  0  0
 37 38  2  0  0  0
 37 40  1  0  0  0
  3 41  1  0  0  0
  3 42  1  0  0  0
  3 43  1  0  0  0
  4 44  1  0  0  0
  5 45  1  0  0  0
  8 46  1  0  0  0
  8 47  1  0  0  0
 10 48  1  0  0  0
 14 49  1  0  0  0
 15 50  1  0  0  0
 16 51  1  0  0  0
 17 52  1  0  0  0
 18 53  1  0  0  0
 19 54  1  0  0  0
 22 55  1  0  0  0
 22 56  1  0  0  0
 25 57  1  0  0  0
 26 58  1  0  0  0
 28 59  1  0  0  0
 29 60  1  0  0  0
 32 61  1  0  0  0
 33 62  1  0  0  0
 34 63  1  0  0  0
 34 64  1  0  0  0
 34 65  1  0  0  0
 35 66  1  0  0  0
 36 67  1  0  0  0
 39 68  1  0  0  0
 39 69  1  0  0  0
 39 70  1  0  0  0
 40 71  1  0  0  0
M  END
$$$$
