4w4y_ligand
  -I-interpret- 

 54 57  0  0  0  0  0  0  0  0999 V2000
    9.6350  -23.1550  -36.6450 C   0  0  0  0  0
    8.4760  -23.3580  -35.6780 C   0  0  0  0  0
    7.4520  -24.1970  -36.0440 C   0  0  0  0  0
    6.3930  -24.3660  -35.1530 C   0  0  0  0  0
    6.4090  -23.7540  -33.9310 C   0  0  0  0  0
    5.3200  -23.9550  -33.0470 N   0  0  0  0  0
    4.9860  -25.2660  -32.5790 C   0  0  0  0  0
    4.0180  -25.3870  -31.8180 O   0  0  0  0  0
    5.7590  -26.3960  -32.9910 N   0  0  0  0  0
    5.4240  -27.6970  -32.6440 C   0  0  0  0  0
    6.1250  -28.8290  -32.9190 C   0  0  0  0  0
    5.4020  -29.8440  -32.4580 N   0  0  0  0  0
    4.2830  -29.3950  -31.8720 N   0  0  0  0  0
    4.2600  -28.0920  -32.0220 C   0  0  0  0  0
    3.2890  -30.1100  -31.3300 C   0  0  0  0  0
    2.6370  -29.6910  -30.1610 C   0  0  0  0  0
    1.5590  -30.4100  -29.6620 C   0  0  0  0  0
    1.1380  -31.5780  -30.2890 C   0  0  0  0  0
    1.7630  -32.0050  -31.4460 C   0  0  0  0  0
    2.8370  -31.2560  -31.9650 C   0  0  0  0  0
    1.3450  -33.2450  -32.1540 C   0  0  0  0  0
    0.2080  -33.6570  -32.1020 O   0  0  0  0  0
    2.3410  -33.9210  -32.9100 N   0  0  0  0  0
    2.1950  -35.1220  -33.6900 C   0  0  0  0  0
    1.1480  -35.2830  -34.6260 C   0  0  0  0  0
    1.1070  -36.4310  -35.4160 C   0  0  0  0  0
    2.0870  -37.3660  -35.3080 N   0  0  0  0  0
    3.1310  -37.2140  -34.4510 C   0  0  0  0  0
    4.2090  -38.2860  -34.3650 C   0  0  0  0  0
    3.1990  -36.0790  -33.6320 C   0  0  0  0  0
    7.4400  -22.8550  -33.5620 C   0  0  0  0  0
    8.4730  -22.6880  -34.4470 C   0  0  0  0  0
   10.1171  -24.1132  -36.8385 H   0  0  0  0  0
    9.2580  -22.7411  -37.5802 H   0  0  0  0  0
   10.3564  -22.4659  -36.2059 H   0  0  0  0  0
    7.4668  -24.7154  -37.0027 H   0  0  0  0  0
    5.5454  -24.9913  -35.4333 H   0  0  0  0  0
    4.7667  -23.1550  -32.7400 H   0  0  0  0  0
    6.5893  -26.2396  -33.5624 H   0  0  0  0  0
    7.0912  -28.8916  -33.4197 H   0  0  0  0  0
    3.4529  -27.4308  -31.7065 H   0  0  0  0  0
    2.9785  -28.7958  -29.6413 H   0  0  0  0  0
    1.0386  -30.0563  -28.7719 H   0  0  0  0  0
    0.3156  -32.1565  -29.8683 H   0  0  0  0  0
    3.3223  -31.5841  -32.8842 H   0  0  0  0  0
    3.2721  -33.5046  -32.8984 H   0  0  0  0  0
    0.3798  -34.5166  -34.7291 H   0  0  0  0  0
    0.2885  -36.5786  -36.1205 H   0  0  0  0  0
    3.7566  -39.2311  -34.0646 H   0  0  0  0  0
    4.6827  -38.4021  -35.3398 H   0  0  0  0  0
    4.9566  -37.9895  -33.6293 H   0  0  0  0  0
    4.0392  -35.9477  -32.9502 H   0  0  0  0  0
    7.4127  -22.3185  -32.6136 H   0  0  0  0  0
    9.3010  -22.0271  -34.1908 H   0  0  0  0  0
  1  2  1  0  0  0
  2  3  4  0  0  0
  2 32  4  0  0  0
  3  4  4  0  0  0
  4  5  4  0  0  0
  5  6  1  0  0  0
  5 31  4  0  0  0
  6  7  1  0  0  0
  7  8  2  0  0  0
  7  9  1  0  0  0
  9 10  1  0  0  0
 10 11  4  0  0  0
 10 14  4  0  0  0
 11 12  4  0  0  0
 12 13  4  0  0  0
 13 14  4  0  0  0
 13 15  1  0  0  0
 15 16  4  0  0  0
 15 20  4  0  0  0
 16 17  4  0  0  0
 17 18  4  0  0  0
 18 19  4  0  0  0
 19 20  4  0  0  0
 19 21  1  0  0  0
 21 22  2  0  0  0
 21 23  1  0  0  0
 23 24  1  0  0  0
 24 25  4  0  0  0
 24 30  4  0  0  0
 25 26  4  0  0  0
 26 27  4  0  0  0
 27 28  4  0  0  0
 28 29  1  0  0  0
 28 30  4  0  0  0
 31 32  4  0  0  0
  1 33  1  0  0  0
  1 34  1  0  0  0
  1 35  1  0  0  0
  3 36  1  0  0  0
  4 37  1  0  0  0
  6 38  1  0  0  0
  9 39  1  0  0  0
 11 40  1  0  0  0
 14 41  1  0  0  0
 16 42  1  0  0  0
 17 43  1  0  0  0
 18 44  1  0  0  0
 20 45  1  0  0  0
 23 46  1  0  0  0
 25 47  1  0  0  0
 26 48  1  0  0  0
 29 49  1  0  0  0
 29 50  1  0  0  0
 29 51  1  0  0  0
 30 52  1  0  0  0
 31 53  1  0  0  0
 32 54  1  0  0  0
M  END
$$$$
