5n58_ligand
  -I-interpret- 

 44 47  0  0  0  0  0  0  0  0999 V2000
    4.6300   -7.0930  -25.0150 C   0  0  0  0  0
    2.1260   -6.7910  -25.6110 C   0  0  0  0  0
    3.3620   -7.6090  -25.2110 C   0  0  0  0  0
    3.4800   -8.9950  -24.9820 C   0  0  0  0  0
    2.0820   -5.3770  -23.5720 C   0  0  0  0  0
   -3.1200   -8.0800  -22.2090 O   0  0  0  0  0
   -0.4810   -7.6470  -23.1440 C   0  0  0  0  0
   -2.2480   -9.1700  -22.2090 C   0  0  0  0  0
   -3.4310  -12.9780  -20.9190 C   0  0  0  0  0
   -4.3590  -11.9420  -20.8800 C   0  0  0  0  0
   -3.9910  -10.6680  -21.3020 C   0  0  0  0  0
   -2.6840  -10.4310  -21.7730 C   0  0  0  0  0
   -1.7690  -11.4550  -21.7990 C   0  0  0  0  0
   -2.1390  -12.7440  -21.3760 C   0  0  0  0  0
   -0.4710  -11.2020  -22.2610 C   0  0  0  0  0
   -0.1060  -10.0080  -22.6790 N   0  0  0  0  0
   -0.9460   -8.9990  -22.6320 C   0  0  0  0  0
   -1.1690   -6.7120  -22.9840 O   0  0  0  0  0
    0.7920   -7.5610  -23.8440 N   0  0  0  0  0
    1.2790   -6.3230  -24.4430 C   0  0  0  0  0
    2.3280   -5.6290  -22.3550 O   0  0  0  0  0
    2.4960   -4.3020  -24.1130 O   0  0  0  0  0
    4.7990   -9.2290  -24.6620 C   0  0  0  0  0
    5.4590   -8.0740  -24.6960 N   0  0  0  0  0
    5.2520  -10.5250  -24.3590 C   0  0  0  0  0
    4.3650  -11.5920  -24.3890 C   0  0  0  0  0
    3.0320  -11.3670  -24.7110 C   0  0  0  0  0
    2.5890  -10.0790  -25.0040 C   0  0  0  0  0
    0.7470  -12.4870  -22.3340 Cl  0  0  0  0  0
    4.9039   -6.0421  -25.1087 H   0  0  0  0  0
    1.4978   -7.4390  -26.2221 H   0  0  0  0  0
    2.4853   -5.8985  -26.1232 H   0  0  0  0  0
   -2.6597   -7.3034  -22.5354 H   0  0  0  0  0
   -3.7180  -13.9767  -20.5900 H   0  0  0  0  0
   -5.3710  -12.1277  -20.5201 H   0  0  0  0  0
   -4.7140   -9.8530  -21.2682 H   0  0  0  0  0
   -1.4145  -13.5578  -21.4063 H   0  0  0  0  0
    1.3670   -8.4002  -23.9189 H   0  0  0  0  0
    0.4121   -5.7103  -24.6902 H   0  0  0  0  0
    2.2188   -4.2801  -25.0318 H   0  0  0  0  0
    6.2979  -10.6915  -24.1010 H   0  0  0  0  0
    4.7117  -12.6000  -24.1615 H   0  0  0  0  0
    2.3306  -12.2011  -24.7344 H   0  0  0  0  0
    1.5410   -9.9118  -25.2525 H   0  0  0  0  0
  3  1  4  0  0  0
  1 24  4  0  0  0
  2  3  1  0  0  0
 20  2  1  0  0  0
  3  4  4  0  0  0
  4 23  4  0  0  0
  4 28  4  0  0  0
 20  5  1  0  0  0
  5 21  2  0  0  0
  5 22  1  0  0  0
  8  6  1  0  0  0
  7 17  1  0  0  0
  7 18  2  0  0  0
 19  7  1  0  0  0
  8 12  4  0  0  0
 17  8  4  0  0  0
 10  9  4  0  0  0
 14  9  4  0  0  0
 11 10  4  0  0  0
 12 11  4  0  0  0
 12 13  4  0  0  0
 13 14  4  0  0  0
 15 13  4  0  0  0
 16 15  4  0  0  0
 15 29  1  0  0  0
 17 16  4  0  0  0
 19 20  1  0  0  0
 23 24  4  0  0  0
 23 25  4  0  0  0
 25 26  4  0  0  0
 26 27  4  0  0  0
 27 28  4  0  0  0
  1 30  1  0  0  0
  2 31  1  0  0  0
  2 32  1  0  0  0
  6 33  1  0  0  0
  9 34  1  0  0  0
 10 35  1  0  0  0
 11 36  1  0  0  0
 14 37  1  0  0  0
 19 38  1  0  0  0
 20 39  1  0  0  0
 22 40  1  0  0  0
 25 41  1  0  0  0
 26 42  1  0  0  0
 27 43  1  0  0  0
 28 44  1  0  0  0
M  END
$$$$
