5dxt_ligand
  -I-interpret- 

 50 53  0  0  0  0  0  0  0  0999 V2000
  -21.0250   16.0860   31.7730 C   0  0  0  0  0
  -19.9520   15.9740   32.8340 C   0  0  0  0  0
  -20.2950   16.8850   34.0170 C   0  0  0  0  0
  -17.9960   15.5810   31.3580 C   0  0  0  0  0
  -14.3530   15.9060   28.3420 C   0  0  0  0  0
  -14.4050   12.4630   26.9250 C   0  0  0  0  0
  -15.4750   11.6310   27.0290 C   0  0  0  0  0
  -15.8180   13.2900   28.4110 C   0  0  0  0  0
  -16.5140   14.1300   29.4360 C   0  0  0  0  0
  -18.5140   14.4200   30.7710 C   0  0  0  0  0
  -15.2660    8.8040   24.8360 C   0  0  0  0  0
  -17.7900    9.3700   27.3350 C   0  0  0  0  0
  -20.8830   16.9490   30.7480 N   0  0  0  0  0
  -22.0030   15.3680   31.8240 O   0  0  0  0  0
  -18.6620   16.3320   32.2980 O   0  0  0  0  0
  -16.7250   16.0100   30.9710 C   0  0  0  0  0
  -15.9770   15.3150   30.0290 C   0  0  0  0  0
  -14.7570   15.7890   29.7010 O   0  0  0  0  0
  -13.6640   14.6120   27.9530 C   0  0  0  0  0
  -14.6000   13.5060   27.7720 N   0  0  0  0  0
  -16.2950   12.1750   27.9360 N   0  0  0  0  0
  -17.7880   13.7170   29.8350 C   0  0  0  0  0
  -15.6690   10.3700   26.2800 C   0  0  0  0  0
  -14.8600    9.9660   25.3250 N   0  0  0  0  0
  -16.3440    8.4330   25.4680 N   0  0  0  0  0
  -16.6370    9.4220   26.4210 N   0  0  0  0  0
  -17.7190    8.1050   28.1920 C   0  0  0  0  0
  -19.0700    9.3280   26.5000 C   0  0  0  0  0
  -19.9086   14.9391   33.1734 H   0  0  0  0  0
  -19.5380   16.7712   34.7930 H   0  0  0  0  0
  -20.3194   17.9215   33.6806 H   0  0  0  0  0
  -21.2708   16.6081   34.4162 H   0  0  0  0  0
  -13.6734   16.7494   28.2195 H   0  0  0  0  0
  -15.2182   16.0822   27.7028 H   0  0  0  0  0
  -13.5418   12.3181   26.2754 H   0  0  0  0  0
  -19.5047   14.0679   31.0585 H   0  0  0  0  0
  -14.7780    8.2483   24.0353 H   0  0  0  0  0
  -17.7818   10.2459   27.9837 H   0  0  0  0  0
  -21.5952   16.9971   30.0194 H   0  0  0  0  0
  -20.0633   17.5542   30.7007 H   0  0  0  0  0
  -16.3093   16.9125   31.4190 H   0  0  0  0  0
  -12.9800   14.3426   28.7577 H   0  0  0  0  0
  -13.1542   14.7771   27.0038 H   0  0  0  0  0
  -18.2175   12.8170   29.3950 H   0  0  0  0  0
  -17.7328    7.2280   27.5449 H   0  0  0  0  0
  -16.7979    8.1137   28.7747 H   0  0  0  0  0
  -18.5759    8.0751   28.8650 H   0  0  0  0  0
  -19.1268   10.2222   25.8792 H   0  0  0  0  0
  -19.0586    8.4428   25.8641 H   0  0  0  0  0
  -19.9340    9.2892   27.1634 H   0  0  0  0  0
  2  1  1  0  0  0
  1 13  1  0  0  0
  1 14  2  0  0  0
  2  3  1  0  0  0
 15  2  1  0  0  0
 10  4  4  0  0  0
  4 15  1  0  0  0
 16  4  4  0  0  0
  5 18  1  0  0  0
 19  5  1  0  0  0
  7  6  4  0  0  0
  6 20  4  0  0  0
  7 21  4  0  0  0
 23  7  1  0  0  0
  8  9  1  0  0  0
  8 20  4  0  0  0
 21  8  4  0  0  0
  9 17  4  0  0  0
  9 22  4  0  0  0
 22 10  4  0  0  0
 24 11  4  0  0  0
 11 25  4  0  0  0
 26 12  1  0  0  0
 12 27  1  0  0  0
 12 28  1  0  0  0
 17 16  4  0  0  0
 17 18  1  0  0  0
 20 19  1  0  0  0
 23 24  4  0  0  0
 23 26  4  0  0  0
 25 26  4  0  0  0
  2 29  1  0  0  0
  3 30  1  0  0  0
  3 31  1  0  0  0
  3 32  1  0  0  0
  5 33  1  0  0  0
  5 34  1  0  0  0
  6 35  1  0  0  0
 10 36  1  0  0  0
 11 37  1  0  0  0
 12 38  1  0  0  0
 13 39  1  0  0  0
 13 40  1  0  0  0
 16 41  1  0  0  0
 19 42  1  0  0  0
 19 43  1  0  0  0
 22 44  1  0  0  0
 27 45  1  0  0  0
 27 46  1  0  0  0
 27 47  1  0  0  0
 28 48  1  0  0  0
 28 49  1  0  0  0
 28 50  1  0  0  0
M  END
$$$$
