3l9h_ligand
  -I-interpret- 

 66 69  0  0  0  0  0  0  0  0999 V2000
   26.4770   10.1400   18.7660 N   0  0  0  0  0
   26.0020   10.2040   11.1550 C   0  0  0  0  0
   26.5190    8.9540   10.7500 C   0  0  0  0  0
   27.4600    8.2800   11.5360 C   0  0  0  0  0
   26.4360   10.7750   12.3620 C   0  0  0  0  0
   27.3780   10.1070   13.1540 C   0  0  0  0  0
   27.8960    8.8530   12.7430 C   0  0  0  0  0
   28.8550    8.1720   13.5300 N   0  0  0  0  0
   29.3050    8.7270   14.8420 C   0  0  0  0  0
   27.8330   10.7500   14.4410 C   0  0  0  0  0
   29.2510   10.2770   14.8070 C   0  0  0  0  0
   29.6860   10.9190   16.1540 C   0  0  0  0  0
   28.5960   10.8360   17.2440 C   0  0  0  0  0
   27.2110   11.2350   16.6460 C   0  0  0  0  0
   26.9240   10.4080   15.4930 O   0  0  0  0  0
   30.7180    8.2660   15.1380 C   0  0  0  0  0
   30.9250    7.4160   16.2280 C   0  0  0  0  0
   32.2190    6.9630   16.5510 C   0  0  0  0  0
   33.3220    7.3630   15.7800 C   0  0  0  0  0
   33.1250    8.2200   14.6790 C   0  0  0  0  0
   31.8260    8.6780   14.3490 C   0  0  0  0  0
   24.9940   10.9230   10.2720 C   0  0  0  0  0
   24.2240    9.9750    9.5820 F   0  0  0  0  0
   24.1650   11.7510   11.0340 F   0  0  0  0  0
   25.6870   11.7130    9.3470 F   0  0  0  0  0
   26.0700   11.0700   17.6970 C   0  0  0  0  0
   26.8630   10.5730   20.0010 C   0  0  0  0  0
   27.2750    9.6370   20.9030 N   0  0  0  0  0
   26.8660   11.7900   20.2760 O   0  0  0  0  0
   27.7540   10.0170   22.2320 C   0  0  0  0  0
   26.9170    9.3460   23.3370 C   0  0  0  0  0
   27.7260    9.1440   24.5700 N   0  3  0  0  0
   28.1200   10.4540   25.0690 C   0  0  0  0  0
   26.8260    8.5800   25.6010 C   0  0  0  0  0
   26.4698    9.1379   18.5758 H   0  0  0  0  0
   26.1811    8.5090    9.8141 H   0  0  0  0  0
   27.8529    7.3156   11.2139 H   0  0  0  0  0
   26.0396   11.7384   12.6826 H   0  0  0  0  0
   29.2443    7.2901   13.1968 H   0  0  0  0  0
   28.6409    8.3668   15.6277 H   0  0  0  0  0
   27.8497   11.8317   14.3079 H   0  0  0  0  0
   29.9600   10.6027   14.0458 H   0  0  0  0  0
   29.8890   11.9737   15.9681 H   0  0  0  0  0
   30.5577   10.3732   16.5149 H   0  0  0  0  0
   28.8469   11.5201   18.0546 H   0  0  0  0  0
   28.5429    9.8146   17.6207 H   0  0  0  0  0
   27.2583   12.2838   16.3531 H   0  0  0  0  0
   30.0761    7.1003   16.8345 H   0  0  0  0  0
   32.3646    6.2991   17.4031 H   0  0  0  0  0
   34.3233    7.0132   16.0312 H   0  0  0  0  0
   33.9782    8.5327   14.0771 H   0  0  0  0  0
   31.6773    9.3411   13.4968 H   0  0  0  0  0
   25.8548   12.0428   18.1392 H   0  0  0  0  0
   25.1871   10.6696   17.1988 H   0  0  0  0  0
   27.2486    8.6504   20.6455 H   0  0  0  0  0
   27.6674   11.0984   22.3375 H   0  0  0  0  0
   28.7899    9.6936   22.3346 H   0  0  0  0  0
   26.5781    8.3743   22.9778 H   0  0  0  0  0
   26.0711    9.9907   23.5753 H   0  0  0  0  0
   28.5301    8.5467   24.3775 H   0  0  0  0  0
   28.7105   10.9678   24.3105 H   0  0  0  0  0
   27.2282   11.0387   25.2947 H   0  0  0  0  0
   28.7151   10.3327   25.9741 H   0  0  0  0  0
   26.0093    9.2769   25.7891 H   0  0  0  0  0
   26.4217    7.6310   25.2488 H   0  0  0  0  0
   27.3866    8.4183   26.5217 H   0  0  0  0  0
 26  1  1  0  0  0
  1 27  1  0  0  0
  2  3  4  0  0  0
  5  2  4  0  0  0
  2 22  1  0  0  0
  4  3  4  0  0  0
  7  4  4  0  0  0
  6  5  4  0  0  0
  6  7  4  0  0  0
 10  6  1  0  0  0
  7  8  1  0  0  0
  9  8  1  0  0  0
 11  9  1  0  0  0
  9 16  1  0  0  0
 10 11  1  0  0  0
 15 10  1  0  0  0
 12 11  1  0  0  0
 13 12  1  0  0  0
 14 13  1  0  0  0
 14 15  1  0  0  0
 14 26  1  0  0  0
 16 17  4  0  0  0
 16 21  4  0  0  0
 17 18  4  0  0  0
 18 19  4  0  0  0
 19 20  4  0  0  0
 20 21  4  0  0  0
 22 23  1  0  0  0
 22 24  1  0  0  0
 22 25  1  0  0  0
 27 28  1  0  0  0
 27 29  2  0  0  0
 28 30  1  0  0  0
 30 31  1  0  0  0
 31 32  1  0  0  0
 32 33  1  0  0  0
 32 34  1  0  0  0
  1 35  1  0  0  0
  3 36  1  0  0  0
  4 37  1  0  0  0
  5 38  1  0  0  0
  8 39  1  0  0  0
  9 40  1  0  0  0
 10 41  1  0  0  0
 11 42  1  0  0  0
 12 43  1  0  0  0
 12 44  1  0  0  0
 13 45  1  0  0  0
 13 46  1  0  0  0
 14 47  1  0  0  0
 17 48  1  0  0  0
 18 49  1  0  0  0
 19 50  1  0  0  0
 20 51  1  0  0  0
 21 52  1  0  0  0
 26 53  1  0  0  0
 26 54  1  0  0  0
 28 55  1  0  0  0
 30 56  1  0  0  0
 30 57  1  0  0  0
 31 58  1  0  0  0
 31 59  1  0  0  0
 32 60  1  0  0  0
 33 61  1  0  0  0
 33 62  1  0  0  0
 33 63  1  0  0  0
 34 64  1  0  0  0
 34 65  1  0  0  0
 34 66  1  0  0  0
M  END
$$$$
