4erf_ligand
  -I-interpret- 

 61 63  0  0  0  0  0  0  0  0999 V2000
  -16.2000    2.5780  -15.1270 C   0  0  0  0  0
  -17.1310    3.5980  -15.0790 C   0  0  0  0  0
  -16.6580    5.0130  -14.2760 Cl  0  0  0  0  0
  -18.3540    3.4980  -15.7150 C   0  0  0  0  0
  -18.6690    2.3290  -16.4450 C   0  0  0  0  0
  -17.7270    1.2860  -16.5120 C   0  0  0  0  0
  -16.4780    1.4050  -15.8540 C   0  0  0  0  0
  -15.3970    0.3340  -15.9730 C   0  0  0  0  0
  -15.8800   -1.0360  -15.5960 C   0  0  0  0  0
  -14.7530   -2.0620  -15.4650 C   0  0  0  0  0
  -13.9350   -1.9460  -14.1610 C   0  0  0  0  0
  -14.7890   -2.1830  -12.9140 C   0  0  0  0  0
  -15.5260   -1.3630  -12.4310 O   0  0  0  0  0
  -14.6350   -3.4510  -12.3850 O   0  0  0  0  0
  -15.3940   -3.4360  -15.5690 C   0  0  0  0  0
  -13.7380   -1.9480  -16.6200 C   0  0  0  0  0
  -12.8710   -2.8140  -16.6780 O   0  0  0  0  0
  -13.8240   -0.9130  -17.5360 N   0  0  0  0  0
  -13.0890   -1.0350  -18.7890 C   0  0  0  0  0
  -11.5780   -1.2090  -18.4880 C   0  0  0  0  0
  -10.6990   -0.0520  -19.0120 C   0  0  0  0  0
  -13.6990   -2.1230  -19.6950 C   0  0  0  0  0
  -15.1090   -2.2280  -19.5420 O   0  0  0  0  0
  -13.5130   -1.7570  -21.1560 C   0  0  0  0  0
  -14.6260    0.3290  -17.3080 C   0  0  0  0  0
  -13.9150    1.6460  -17.5450 C   0  0  0  0  0
  -12.7980    2.0510  -16.7610 C   0  0  0  0  0
  -12.2120    3.2990  -17.0070 C   0  0  0  0  0
  -12.7230    4.1440  -18.0130 C   0  0  0  0  0
  -12.0140    5.6910  -18.2350 Cl  0  0  0  0  0
  -13.8140    3.7720  -18.8000 C   0  0  0  0  0
  -14.4120    2.5100  -18.5640 C   0  0  0  0  0
  -15.2504    2.6817  -14.6020 H   0  0  0  0  0
  -19.0718    4.3160  -15.6541 H   0  0  0  0  0
  -19.6305    2.2368  -16.9501 H   0  0  0  0  0
  -17.9596    0.3811  -17.0735 H   0  0  0  0  0
  -14.6604    0.6321  -15.2269 H   0  0  0  0  0
  -16.5465   -1.3790  -16.3873 H   0  0  0  0  0
  -16.3673   -0.9570  -14.6242 H   0  0  0  0  0
  -13.5302   -0.9355  -14.1055 H   0  0  0  0  0
  -13.1538   -2.7058  -14.1842 H   0  0  0  0  0
  -14.0056   -3.9440  -12.9165 H   0  0  0  0  0
  -16.1228   -3.5571  -14.7676 H   0  0  0  0  0
  -15.8933   -3.5305  -16.5333 H   0  0  0  0  0
  -14.6240   -4.2024  -15.4805 H   0  0  0  0  0
  -13.1822   -0.1181  -19.3709 H   0  0  0  0  0
  -11.2498   -2.1190  -18.9903 H   0  0  0  0  0
  -11.4642   -1.2378  -17.4043 H   0  0  0  0  0
  -10.8068    0.0232  -20.0940 H   0  0  0  0  0
  -11.0159    0.8821  -18.5482 H   0  0  0  0  0
   -9.6562   -0.2478  -18.7622 H   0  0  0  0  0
  -13.1975   -3.0483  -19.4115 H   0  0  0  0  0
  -15.4425   -2.9152  -20.1235 H   0  0  0  0  0
  -14.0080   -0.8069  -21.3571 H   0  0  0  0  0
  -12.4488   -1.6670  -21.3741 H   0  0  0  0  0
  -13.9490   -2.5351  -21.7825 H   0  0  0  0  0
  -15.3571    0.2681  -18.1142 H   0  0  0  0  0
  -12.4046    1.3994  -15.9807 H   0  0  0  0  0
  -11.3541    3.6194  -16.4159 H   0  0  0  0  0
  -14.1958    4.4354  -19.5760 H   0  0  0  0  0
  -15.2625    2.1956  -19.1689 H   0  0  0  0  0
  1  2  4  0  0  0
  1  7  4  0  0  0
  2  3  1  0  0  0
  2  4  4  0  0  0
  4  5  4  0  0  0
  5  6  4  0  0  0
  6  7  4  0  0  0
  7  8  1  0  0  0
  8  9  1  0  0  0
  8 25  1  0  0  0
  9 10  1  0  0  0
 10 11  1  0  0  0
 10 15  1  0  0  0
 10 16  1  0  0  0
 11 12  1  0  0  0
 12 13  2  0  0  0
 12 14  1  0  0  0
 16 17  2  0  0  0
 16 18  1  0  0  0
 18 19  1  0  0  0
 18 25  1  0  0  0
 19 20  1  0  0  0
 19 22  1  0  0  0
 20 21  1  0  0  0
 22 23  1  0  0  0
 22 24  1  0  0  0
 25 26  1  0  0  0
 26 27  4  0  0  0
 26 32  4  0  0  0
 27 28  4  0  0  0
 28 29  4  0  0  0
 29 30  1  0  0  0
 29 31  4  0  0  0
 31 32  4  0  0  0
  1 33  1  0  0  0
  4 34  1  0  0  0
  5 35  1  0  0  0
  6 36  1  0  0  0
  8 37  1  0  0  0
  9 38  1  0  0  0
  9 39  1  0  0  0
 11 40  1  0  0  0
 11 41  1  0  0  0
 14 42  1  0  0  0
 15 43  1  0  0  0
 15 44  1  0  0  0
 15 45  1  0  0  0
 19 46  1  0  0  0
 20 47  1  0  0  0
 20 48  1  0  0  0
 21 49  1  0  0  0
 21 50  1  0  0  0
 21 51  1  0  0  0
 22 52  1  0  0  0
 23 53  1  0  0  0
 24 54  1  0  0  0
 24 55  1  0  0  0
 24 56  1  0  0  0
 25 57  1  0  0  0
 27 58  1  0  0  0
 28 59  1  0  0  0
 31 60  1  0  0  0
 32 61  1  0  0  0
M  END
$$$$
