1tyn_ligand
  -I-interpret- 

100103  0  0  0  0  0  0  0  0999 V2000
   93.1750  -10.4510   59.0030 C   0  0  0  0  0
   91.9840  -11.3020   58.9380 C   0  0  0  0  0
   91.7300  -12.1370   59.9490 C   0  0  0  0  0
   90.4580  -12.9230   60.0650 C   0  0  0  0  0
   90.0390  -13.3620   58.7390 N   0  0  0  0  0
   88.8800  -12.9780   58.2240 C   0  0  0  0  0
   88.6130  -13.3610   56.7710 C   0  0  0  0  0
   88.3710  -12.1300   56.0280 N   0  0  0  0  0
   88.8880  -11.9110   54.8270 C   0  0  0  0  0
   88.3430  -10.6100   54.1940 C   0  0  0  0  0
   89.3300   -9.4490   54.4200 C   0  0  0  0  0
   90.6510   -9.7720   53.9050 N   0  0  0  0  0
   91.6580  -10.0950   54.7080 C   0  0  0  0  0
   93.0000  -10.3320   54.0280 C   0  0  0  0  0
   93.2370  -11.8090   53.7780 C   0  0  0  0  0
   94.2310  -12.2970   54.7820 C   0  0  0  0  0
   95.0890  -11.1010   55.1330 C   0  0  0  0  0
   94.1210   -9.9700   54.9060 N   0  0  0  0  0
   94.2290   -8.7450   55.4410 C   0  0  0  0  0
   95.1840   -8.5840   56.6170 C   0  0  0  0  0
   94.3920   -8.5970   57.9290 C   0  0  0  0  0
   93.4330   -9.6970   57.9450 N   0  0  0  0  0
   93.8850  -10.4570   60.0040 O   0  0  0  0  0
   90.6480  -14.1270   60.9980 C   0  0  0  0  0
   91.6490  -15.1240   60.4610 C   0  0  0  0  0
   91.2110  -16.1370   59.6300 C   0  0  0  0  0
   92.1090  -17.0400   59.0990 C   0  0  0  0  0
   93.4460  -16.9130   59.4130 C   0  0  0  0  0
   93.8960  -15.9050   60.2470 C   0  0  0  0  0
   92.9890  -15.0050   60.7750 C   0  0  0  0  0
   94.2980  -17.7620   58.9100 O   0  0  0  0  0
   88.0640  -12.3030   58.8510 O   0  0  0  0  0
   87.3780  -14.2590   56.6850 C   0  0  0  0  0
   87.6160  -15.6440   57.2530 C   0  0  0  0  0
   88.4520  -16.5300   56.5900 C   0  0  0  0  0
   88.6490  -17.8050   57.1010 C   0  0  0  0  0
   88.0090  -18.1910   58.2680 C   0  0  0  0  0
   87.1750  -17.3020   58.9270 C   0  0  0  0  0
   86.9760  -16.0280   58.4220 C   0  0  0  0  0
   89.7140  -12.6520   54.2990 O   0  0  0  0  0
   87.0170  -10.3300   54.5180 O   0  0  0  0  0
   88.8830   -8.1050   53.8360 C   0  0  0  0  0
   89.6420   -6.9410   54.4410 C   0  0  0  0  0
   89.3550   -5.6200   53.7610 C   0  0  0  0  0
   90.0250   -4.5320   54.4700 N   0  0  0  0  0
   90.0500   -3.2700   54.0660 C   0  0  0  0  0
   89.4220   -2.9190   52.9490 N   0  0  0  0  0
   90.6920   -2.3580   54.7890 N   0  0  0  0  0
   91.5410  -10.2060   55.9360 O   0  0  0  0  0
   93.5660   -7.7830   55.0240 O   0  0  0  0  0
   95.9120   -7.3310   56.4670 N   0  0  0  0  0
   96.9570   -7.0180   57.2290 C   0  0  0  0  0
   97.3750   -7.7310   58.1500 O   0  0  0  0  0
   91.3158  -11.2544   58.0781 H   0  0  0  0  0
   92.4839  -12.2528   60.7277 H   0  0  0  0  0
   89.6831  -12.2876   60.4938 H   0  0  0  0  0
   90.6488  -13.9754   58.1984 H   0  0  0  0  0
   89.4645  -13.9027   56.3591 H   0  0  0  0  0
   87.7821  -11.4107   56.4478 H   0  0  0  0  0
   88.2862  -10.7645   53.1165 H   0  0  0  0  0
   89.3595   -9.3281   55.5029 H   0  0  0  0  0
   90.8087   -9.7498   52.8975 H   0  0  0  0  0
   92.9604   -9.7381   53.1149 H   0  0  0  0  0
   93.6172  -11.9626   52.7681 H   0  0  0  0  0
   92.3023  -12.3611   53.8761 H   0  0  0  0  0
   94.8335  -13.1108   54.3784 H   0  0  0  0  0
   93.7354  -12.7006   55.6649 H   0  0  0  0  0
   96.0002  -11.0249   54.5397 H   0  0  0  0  0
   95.4965  -11.1342   56.1434 H   0  0  0  0  0
   95.8962   -9.4089   56.6378 H   0  0  0  0  0
   93.8492   -7.6563   58.0210 H   0  0  0  0  0
   95.0878   -8.7254   58.7581 H   0  0  0  0  0
   92.9270   -9.8989   57.0827 H   0  0  0  0  0
   89.6874  -14.6333   61.0931 H   0  0  0  0  0
   91.0216  -13.7567   61.9527 H   0  0  0  0  0
   90.1507  -16.2233   59.3926 H   0  0  0  0  0
   91.7675  -17.8403   58.4424 H   0  0  0  0  0
   94.9562  -15.8212   60.4857 H   0  0  0  0  0
   93.3290  -14.2067   61.4347 H   0  0  0  0  0
   95.1818  -17.5466   59.2169 H   0  0  0  0  0
   87.1199  -14.3706   55.6319 H   0  0  0  0  0
   86.5848  -13.7914   57.2683 H   0  0  0  0  0
   88.9526  -16.2259   55.6707 H   0  0  0  0  0
   89.3074  -18.5032   56.5843 H   0  0  0  0  0
   88.1616  -19.1936   58.6674 H   0  0  0  0  0
   86.6740  -17.6065   59.8459 H   0  0  0  0  0
   86.3192  -15.3300   58.9410 H   0  0  0  0  0
   86.7503   -9.5124   54.0913 H   0  0  0  0  0
   87.8240   -7.9729   54.0577 H   0  0  0  0  0
   89.0781   -8.1181   52.7637 H   0  0  0  0  0
   90.7062   -7.1463   54.3254 H   0  0  0  0  0
   89.3304   -6.8501   55.4815 H   0  0  0  0  0
   88.2797   -5.4414   53.7673 H   0  0  0  0  0
   89.7238   -5.6586   52.7360 H   0  0  0  0  0
   90.5084   -4.7603   55.3387 H   0  0  0  0  0
   88.9214   -3.6205   52.4034 H   0  0  0  0  0
   90.7040   -1.3838   54.4870 H   0  0  0  0  0
   91.1727   -2.6323   55.6458 H   0  0  0  0  0
   95.6096   -6.6696   55.7518 H   0  0  0  0  0
   97.4746   -6.0795   57.0305 H   0  0  0  0  0
  1  2  1  0  0  0
  1 22  1  0  0  0
  1 23  2  0  0  0
  2  3  2  0  0  0
  3  4  1  0  0  0
  4  5  1  0  0  0
  4 24  1  0  0  0
  5  6  1  0  0  0
  6  7  1  0  0  0
  6 32  2  0  0  0
  7  8  1  0  0  0
  7 33  1  0  0  0
  8  9  1  0  0  0
  9 10  1  0  0  0
  9 40  2  0  0  0
 10 11  1  0  0  0
 10 41  1  0  0  0
 11 12  1  0  0  0
 11 42  1  0  0  0
 12 13  1  0  0  0
 13 14  1  0  0  0
 13 49  2  0  0  0
 14 15  1  0  0  0
 14 18  1  0  0  0
 15 16  1  0  0  0
 16 17  1  0  0  0
 17 18  1  0  0  0
 18 19  1  0  0  0
 19 20  1  0  0  0
 19 50  2  0  0  0
 20 21  1  0  0  0
 20 51  1  0  0  0
 21 22  1  0  0  0
 24 25  1  0  0  0
 25 26  4  0  0  0
 25 30  4  0  0  0
 26 27  4  0  0  0
 27 28  4  0  0  0
 28 29  4  0  0  0
 28 31  1  0  0  0
 29 30  4  0  0  0
 33 34  1  0  0  0
 34 35  4  0  0  0
 34 39  4  0  0  0
 35 36  4  0  0  0
 36 37  4  0  0  0
 37 38  4  0  0  0
 38 39  4  0  0  0
 42 43  1  0  0  0
 43 44  1  0  0  0
 44 45  1  0  0  0
 45 46  1  0  0  0
 46 47  2  0  0  0
 46 48  1  0  0  0
 51 52  1  0  0  0
 52 53  2  0  0  0
  2 54  1  0  0  0
  3 55  1  0  0  0
  4 56  1  0  0  0
  5 57  1  0  0  0
  7 58  1  0  0  0
  8 59  1  0  0  0
 10 60  1  0  0  0
 11 61  1  0  0  0
 12 62  1  0  0  0
 14 63  1  0  0  0
 15 64  1  0  0  0
 15 65  1  0  0  0
 16 66  1  0  0  0
 16 67  1  0  0  0
 17 68  1  0  0  0
 17 69  1  0  0  0
 20 70  1  0  0  0
 21 71  1  0  0  0
 21 72  1  0  0  0
 22 73  1  0  0  0
 24 74  1  0  0  0
 24 75  1  0  0  0
 26 76  1  0  0  0
 27 77  1  0  0  0
 29 78  1  0  0  0
 30 79  1  0  0  0
 31 80  1  0  0  0
 33 81  1  0  0  0
 33 82  1  0  0  0
 35 83  1  0  0  0
 36 84  1  0  0  0
 37 85  1  0  0  0
 38 86  1  0  0  0
 39 87  1  0  0  0
 41 88  1  0  0  0
 42 89  1  0  0  0
 42 90  1  0  0  0
 43 91  1  0  0  0
 43 92  1  0  0  0
 44 93  1  0  0  0
 44 94  1  0  0  0
 45 95  1  0  0  0
 47 96  1  0  0  0
 48 97  1  0  0  0
 48 98  1  0  0  0
 51 99  1  0  0  0
 52100  1  0  0  0
M  END
$$$$
