5w1e_ligand
  -I-interpret- 

 16 16  0  0  0  0  0  0  0  0999 V2000
    0.0280   71.0700   21.1380 C   0  0  0  0  0
    0.8300   70.6370   20.2690 O   0  0  0  0  0
   -1.0600   71.5930   20.7770 O   0  0  0  0  0
    0.3670   70.9580   22.6260 C   0  0  0  0  0
    1.5620   70.3820   23.0290 C   0  0  0  0  0
    1.8640   70.2820   24.3790 C   0  0  0  0  0
    0.9720   70.7560   25.3290 C   0  0  0  0  0
   -0.2230   71.3300   24.9260 C   0  0  0  0  0
   -0.5240   71.4310   23.5770 C   0  0  0  0  0
    1.2760   70.6540   26.6940 O   0  0  0  0  0
   -1.5536   71.8696   21.5525 H   0  0  0  0  0
    2.2645   70.0075   22.2845 H   0  0  0  0  0
    2.8045   69.8299   24.6939 H   0  0  0  0  0
   -0.9268   71.7023   25.6704 H   0  0  0  0  0
   -1.4644   71.8838   23.2627 H   0  0  0  0  0
    0.5572   71.0271   27.2095 H   0  0  0  0  0
  1  2  2  0  0  0
  1  3  1  0  0  0
  1  4  1  0  0  0
  4  5  4  0  0  0
  4  9  4  0  0  0
  5  6  4  0  0  0
  6  7  4  0  0  0
  7  8  4  0  0  0
  7 10  1  0  0  0
  8  9  4  0  0  0
  3 11  1  0  0  0
  5 12  1  0  0  0
  6 13  1  0  0  0
  8 14  1  0  0  0
  9 15  1  0  0  0
 10 16  1  0  0  0
M  END
$$$$
