4alv_ligand
  -I-interpret- 

 51 55  0  0  0  0  0  0  0  0999 V2000
  -22.6560   32.9190    7.8150 C   0  0  0  0  0
  -23.5230   34.1250    8.2010 C   0  0  0  0  0
  -24.6380   33.7640    9.1220 N   0  3  0  0  0
  -24.1900   32.9490   10.2940 C   0  0  0  0  0
  -23.3770   31.7100    9.8510 C   0  0  0  0  0
  -23.3690   31.6700    8.3250 C   0  0  0  0  0
  -22.8380   30.3360    7.7870 C   0  0  0  0  0
  -21.8250   30.4560    6.7380 N   0  0  0  0  0
  -21.9180   30.8070    5.4430 C   0  0  0  0  0
  -21.1080   31.8570    5.0520 C   0  0  0  0  0
  -21.0420   32.3250    3.7580 C   0  0  0  0  0
  -19.9860   33.6170    3.4440 Cl  0  0  0  0  0
  -22.6500   30.1740    4.4490 C   0  0  0  0  0
  -22.5710   30.6560    3.1330 C   0  0  0  0  0
  -21.7490   31.7320    2.7620 C   0  0  0  0  0
  -21.7410   32.1500    1.4360 C   0  0  0  0  0
  -22.0430   33.4070    1.1070 N   0  0  0  0  0
  -22.0840   33.7350   -0.1850 C   0  0  0  0  0
  -22.3710   34.8900   -0.8350 C   0  0  0  0  0
  -22.6980   36.0970   -0.3640 C   0  0  0  0  0
  -22.9380   37.1520   -1.2480 C   0  0  0  0  0
  -23.3850   38.8560   -0.4400 Br  0  0  0  0  0
  -22.8550   36.9890   -2.6270 C   0  0  0  0  0
  -22.5200   35.7360   -3.0800 C   0  0  0  0  0
  -22.2840   34.7120   -2.1900 C   0  0  0  0  0
  -21.9550   33.4360   -2.3980 O   0  0  0  0  0
  -21.8400   32.8340   -1.2020 C   0  0  0  0  0
  -21.5280   31.5540   -0.9200 C   0  0  0  0  0
  -21.3120   30.8070   -1.8700 O   0  0  0  0  0
  -21.4740   31.2010    0.4290 N   0  0  0  0  0
  -21.6633   33.0023    8.2574 H   0  0  0  0  0
  -22.5236   32.8713    6.7341 H   0  0  0  0  0
  -23.9615   34.5268    7.2875 H   0  0  0  0  0
  -22.8849   34.8438    8.7151 H   0  0  0  0  0
  -25.3080   33.2052    8.5937 H   0  0  0  0  0
  -25.0364   34.6314    9.4816 H   0  0  0  0  0
  -25.0737   32.6058   10.8319 H   0  0  0  0  0
  -23.5528   33.5716   10.9221 H   0  0  0  0  0
  -23.8295   30.8015   10.2486 H   0  0  0  0  0
  -22.3573   31.7739   10.2308 H   0  0  0  0  0
  -24.3844   31.7018    7.9299 H   0  0  0  0  0
  -23.6869   29.8117    7.3482 H   0  0  0  0  0
  -22.3662   29.8226    8.6248 H   0  0  0  0  0
  -20.8778   30.2334    7.0439 H   0  0  0  0  0
  -20.4887   32.3402    5.8077 H   0  0  0  0  0
  -23.2774   29.3149    4.6864 H   0  0  0  0  0
  -23.1749   30.1732    2.3647 H   0  0  0  0  0
  -22.7776   36.2587    0.7110 H   0  0  0  0  0
  -23.0461   37.8138   -3.3135 H   0  0  0  0  0
  -22.4405   35.5511   -4.1513 H   0  0  0  0  0
  -21.2382   30.2435    0.6896 H   0  0  0  0  0
  1  2  1  0  0  0
  1  6  1  0  0  0
  2  3  1  0  0  0
  3  4  1  0  0  0
  4  5  1  0  0  0
  5  6  1  0  0  0
  6  7  1  0  0  0
  7  8  1  0  0  0
  8  9  1  0  0  0
  9 10  4  0  0  0
  9 13  4  0  0  0
 10 11  4  0  0  0
 11 12  1  0  0  0
 11 15  4  0  0  0
 13 14  4  0  0  0
 14 15  4  0  0  0
 15 16  1  0  0  0
 16 17  2  0  0  0
 16 30  1  0  0  0
 17 18  1  0  0  0
 18 19  4  0  0  0
 18 27  4  0  0  0
 19 20  4  0  0  0
 19 25  4  0  0  0
 20 21  4  0  0  0
 21 22  1  0  0  0
 21 23  4  0  0  0
 23 24  4  0  0  0
 24 25  4  0  0  0
 25 26  4  0  0  0
 26 27  4  0  0  0
 27 28  1  0  0  0
 28 29  2  0  0  0
 28 30  1  0  0  0
  1 31  1  0  0  0
  1 32  1  0  0  0
  2 33  1  0  0  0
  2 34  1  0  0  0
  3 35  1  0  0  0
  3 36  1  0  0  0
  4 37  1  0  0  0
  4 38  1  0  0  0
  5 39  1  0  0  0
  5 40  1  0  0  0
  6 41  1  0  0  0
  7 42  1  0  0  0
  7 43  1  0  0  0
  8 44  1  0  0  0
 10 45  1  0  0  0
 13 46  1  0  0  0
 14 47  1  0  0  0
 20 48  1  0  0  0
 23 49  1  0  0  0
 24 50  1  0  0  0
 30 51  1  0  0  0
M  END
$$$$
