1eub_ligand
  -I-interpret- 

 50 51  0  0  0  0  0  0  0  0999 V2000
    2.2050   -0.9770   -2.1840 N   0  0  0  0  0
    1.3870   -1.5900   -3.2660 C   0  0  0  0  0
    0.8650   -2.9520   -2.7770 C   0  0  0  0  0
   -0.4170   -2.7460   -1.9720 C   0  0  0  0  0
    0.5730   -3.8730   -3.9670 C   0  0  0  0  0
    2.2310   -1.7740   -4.5330 C   0  0  0  0  0
    3.1010   -2.6190   -4.6100 O   0  0  0  0  0
    2.6680   -1.1190   -6.7310 O   0  0  0  0  0
    1.9550   -0.9960   -5.5400 N   0  0  0  0  0
    3.5350   -1.5830   -1.9510 C   0  0  0  0  0
    3.3850   -2.6270   -0.8800 C   0  0  0  0  0
    2.9290   -2.2710    0.3770 C   0  0  0  0  0
    3.6920   -3.9630   -1.1420 C   0  0  0  0  0
    2.7960   -3.2640    1.3310 C   0  0  0  0  0
    3.1290   -4.5820    0.9900 C   0  0  0  0  0
    3.5690   -4.9350   -0.2270 N   0  0  0  0  0
    2.2350    0.6570   -2.0590 S   0  0  0  0  0
    2.4220    0.9320   -0.6680 O   0  0  0  0  0
    1.0440    1.1080   -2.6750 O   0  0  0  0  0
    3.5920    1.3350   -2.9700 C   0  0  0  0  0
    3.3570    1.9710   -4.1930 C   0  0  0  0  0
    4.8860    1.2520   -2.4590 C   0  0  0  0  0
    4.4240    2.5280   -4.9060 C   0  0  0  0  0
    5.9570    1.8050   -3.1710 C   0  0  0  0  0
    5.7240    2.4450   -4.3950 C   0  0  0  0  0
    6.7750    2.9980   -5.0960 O   0  0  0  0  0
    6.5540    4.2980   -5.6230 C   0  0  0  0  0
    0.5489   -0.9360   -3.5068 H   0  0  0  0  0
    1.6274   -3.4151   -2.1505 H   0  0  0  0  0
   -1.1754   -2.2910   -2.6091 H   0  0  0  0  0
   -0.7756   -3.7094   -1.6094 H   0  0  0  0  0
   -0.2115   -2.0912   -1.1252 H   0  0  0  0  0
    0.2127   -4.8344   -3.6009 H   0  0  0  0  0
   -0.1871   -3.4160   -4.6006 H   0  0  0  0  0
    1.4866   -4.0213   -4.5428 H   0  0  0  0  0
    2.3422   -0.4764   -7.3655 H   0  0  0  0  0
    1.2171   -0.2967   -5.4571 H   0  0  0  0  0
    4.2480   -0.8203   -1.6379 H   0  0  0  0  0
    3.9103   -2.0349   -2.8692 H   0  0  0  0  0
    2.6811   -1.2353    0.6094 H   0  0  0  0  0
    4.0485   -4.2286   -2.1372 H   0  0  0  0  0
    2.4378   -3.0251    2.3323 H   0  0  0  0  0
    3.0255   -5.3568    1.7496 H   0  0  0  0  0
    2.3438    2.0327   -4.5902 H   0  0  0  0  0
    5.0642    0.7564   -1.5047 H   0  0  0  0  0
    4.2429    3.0261   -5.8585 H   0  0  0  0  0
    6.9698    1.7377   -2.7738 H   0  0  0  0  0
    5.7098    4.2707   -6.3120 H   0  0  0  0  0
    6.3365    4.9873   -4.8071 H   0  0  0  0  0
    7.4466    4.6304   -6.1530 H   0  0  0  0  0
  1  2  1  0  0  0
  1 10  1  0  0  0
  1 17  1  0  0  0
  2  3  1  0  0  0
  2  6  1  0  0  0
  3  4  1  0  0  0
  3  5  1  0  0  0
  6  7  2  0  0  0
  6  9  1  0  0  0
  9  8  1  0  0  0
 10 11  1  0  0  0
 11 12  4  0  0  0
 11 13  4  0  0  0
 12 14  4  0  0  0
 13 16  4  0  0  0
 14 15  4  0  0  0
 15 16  4  0  0  0
 17 18  2  0  0  0
 17 19  2  0  0  0
 17 20  1  0  0  0
 20 21  4  0  0  0
 20 22  4  0  0  0
 21 23  4  0  0  0
 22 24  4  0  0  0
 23 25  4  0  0  0
 24 25  4  0  0  0
 25 26  1  0  0  0
 26 27  1  0  0  0
  2 28  1  0  0  0
  3 29  1  0  0  0
  4 30  1  0  0  0
  4 31  1  0  0  0
  4 32  1  0  0  0
  5 33  1  0  0  0
  5 34  1  0  0  0
  5 35  1  0  0  0
  8 36  1  0  0  0
  9 37  1  0  0  0
 10 38  1  0  0  0
 10 39  1  0  0  0
 12 40  1  0  0  0
 13 41  1  0  0  0
 14 42  1  0  0  0
 15 43  1  0  0  0
 21 44  1  0  0  0
 22 45  1  0  0  0
 23 46  1  0  0  0
 24 47  1  0  0  0
 27 48  1  0  0  0
 27 49  1  0  0  0
 27 50  1  0  0  0
M  END
$$$$
