2yiq_ligand
  -I-interpret- 

 45 48  0  0  0  0  0  0  0  0999 V2000
  -38.2950   32.1040    5.1890 C   0  0  0  0  0
  -39.0910   31.6650    4.1130 C   0  0  0  0  0
  -39.2320   32.1070    2.8640 N   0  0  0  0  0
  -40.1290   31.3200    2.2450 C   0  0  0  0  0
  -40.5590   30.3760    3.0870 C   0  0  0  0  0
  -39.9320   30.5570    4.2590 C   0  0  0  0  0
  -39.9990   29.8770    5.4770 C   0  0  0  0  0
  -39.2140   30.3010    6.5580 C   0  0  0  0  0
  -38.3660   31.4200    6.4100 C   0  0  0  0  0
  -37.6420   31.7930    7.4840 N   0  0  0  0  0
  -37.0360   32.9740    7.6730 C   0  0  0  0  0
  -37.1350   33.9520    6.9390 O   0  0  0  0  0
  -36.3610   33.0670    9.0440 C   0  0  0  0  0
  -36.1300   31.9970    9.8170 N   0  0  0  0  0
  -36.0100   34.2080    9.6640 C   0  0  0  0  0
  -35.5040   33.8540   10.8590 C   0  0  0  0  0
  -34.9920   34.6130   11.9150 C   0  0  0  0  0
  -35.5850   32.4650   10.9610 C   0  0  0  0  0
  -35.1200   31.8240   12.1190 C   0  0  0  0  0
  -34.6000   32.5840   13.1680 C   0  0  0  0  0
  -34.5300   33.9900   13.0880 C   0  0  0  0  0
  -34.0040   34.7420   14.1750 C   0  0  0  0  0
  -33.3120   36.1060   13.9680 C   0  0  0  0  0
  -34.1700   34.2370   15.4180 N   0  0  0  0  0
  -33.7610   34.7660   16.4790 N   0  0  0  0  0
  -34.0000   34.1770   17.6550 C   0  0  0  0  0
  -33.6230   34.7490   18.7880 N   0  0  0  0  0
  -34.6910   33.0320   17.7090 N   0  0  0  0  0
  -37.6338   32.9628    5.0736 H   0  0  0  0  0
  -40.4563   31.4348    1.2116 H   0  0  0  0  0
  -41.2886   29.5981    2.8619 H   0  0  0  0  0
  -40.6607   29.0179    5.5868 H   0  0  0  0  0
  -39.2580   29.7693    7.5085 H   0  0  0  0  0
  -37.5450   31.1051    8.2308 H   0  0  0  0  0
  -36.1150   35.2206    9.2745 H   0  0  0  0  0
  -34.9504   35.6988   11.8285 H   0  0  0  0  0
  -35.1645   30.7379   12.1992 H   0  0  0  0  0
  -34.2413   32.0810   14.0660 H   0  0  0  0  0
  -33.8753   36.8805   14.4886 H   0  0  0  0  0
  -32.2985   36.0620   14.3667 H   0  0  0  0  0
  -33.2753   36.3354   12.9031 H   0  0  0  0  0
  -33.2459   35.6457   16.4446 H   0  0  0  0  0
  -33.1442   35.6495   18.7701 H   0  0  0  0  0
  -34.9181   32.6155   18.6120 H   0  0  0  0  0
  -34.9905   32.5759   16.8472 H   0  0  0  0  0
  1  2  4  0  0  0
  1  9  4  0  0  0
  2  3  4  0  0  0
  2  6  4  0  0  0
  3  4  4  0  0  0
  4  5  4  0  0  0
  5  6  4  0  0  0
  6  7  4  0  0  0
  7  8  4  0  0  0
  8  9  4  0  0  0
  9 10  1  0  0  0
 10 11  1  0  0  0
 11 12  2  0  0  0
 11 13  1  0  0  0
 13 14  4  0  0  0
 13 15  4  0  0  0
 14 18  4  0  0  0
 15 16  4  0  0  0
 16 17  4  0  0  0
 16 18  4  0  0  0
 17 21  4  0  0  0
 18 19  4  0  0  0
 19 20  4  0  0  0
 20 21  4  0  0  0
 21 22  1  0  0  0
 22 23  1  0  0  0
 22 24  2  0  0  0
 24 25  1  0  0  0
 25 26  1  0  0  0
 26 27  2  0  0  0
 26 28  1  0  0  0
  1 29  1  0  0  0
  4 30  1  0  0  0
  5 31  1  0  0  0
  7 32  1  0  0  0
  8 33  1  0  0  0
 10 34  1  0  0  0
 15 35  1  0  0  0
 17 36  1  0  0  0
 19 37  1  0  0  0
 20 38  1  0  0  0
 23 39  1  0  0  0
 23 40  1  0  0  0
 23 41  1  0  0  0
 25 42  1  0  0  0
 27 43  1  0  0  0
 28 44  1  0  0  0
 28 45  1  0  0  0
M  END
$$$$
