3a4p_ligand
  -I-interpret- 

 45 47  0  0  0  0  0  0  0  0999 V2000
  -26.4880  -19.7530   -2.5780 C   0  0  0  0  0
  -25.5060  -20.3830   -1.6950 N   0  0  0  0  0
  -24.3700  -19.7870   -1.2970 C   0  0  0  0  0
  -23.9990  -18.6600   -1.6490 O   0  0  0  0  0
  -23.5800  -20.5570   -0.4260 C   0  0  0  0  0
  -22.3230  -20.1790    0.0650 C   0  0  0  0  0
  -21.7330  -20.9370    1.1060 C   0  0  0  0  0
  -20.9730  -20.2930    2.0910 C   0  0  0  0  0
  -20.4290  -21.0120    3.1350 C   0  0  0  0  0
  -19.6360  -20.3770    4.0830 C   0  0  0  0  0
  -21.9490  -22.2980    1.3090 C   0  0  0  0  0
  -21.4330  -22.9740    2.3300 N   0  0  0  0  0
  -20.6780  -22.3830    3.2490 C   0  0  0  0  0
  -20.1370  -23.1410    4.2900 C   0  0  0  0  0
  -19.3700  -22.5020    5.2560 C   0  0  0  0  0
  -19.1010  -21.1400    5.1550 C   0  0  0  0  0
  -18.3020  -20.5960    6.1210 O   0  0  0  0  0
  -17.8120  -19.1660    6.1240 C   0  0  0  0  0
  -16.4480  -19.0800    6.8660 C   0  0  0  0  0
  -18.9650  -18.3240    6.7330 C   0  0  0  0  0
  -19.6940  -18.6780    7.8930 C   0  0  0  0  0
  -19.3510  -20.0890    8.8320 Cl  0  0  0  0  0
  -20.7350  -17.8510    8.3660 C   0  0  0  0  0
  -21.4380  -18.1690    9.4760 F   0  0  0  0  0
  -21.0700  -16.6850    7.6920 C   0  0  0  0  0
  -20.3740  -16.3540    6.5420 C   0  0  0  0  0
  -19.3480  -17.1660    6.0850 C   0  0  0  0  0
  -18.5320  -16.6870    4.6710 Cl  0  0  0  0  0
  -26.8619  -18.8414   -2.1118 H   0  0  0  0  0
  -26.0153  -19.5085   -3.5293 H   0  0  0  0  0
  -27.3158  -20.4413   -2.7485 H   0  0  0  0  0
  -25.6949  -21.3287   -1.3628 H   0  0  0  0  0
  -23.9752  -21.5218   -0.1082 H   0  0  0  0  0
  -21.8062  -19.3131   -0.3487 H   0  0  0  0  0
  -20.8105  -19.2168    2.0321 H   0  0  0  0  0
  -19.4277  -19.3099    4.0052 H   0  0  0  0  0
  -22.5725  -22.8354    0.5945 H   0  0  0  0  0
  -20.3136  -24.2153    4.3435 H   0  0  0  0  0
  -18.9763  -23.0707    6.0984 H   0  0  0  0  0
  -17.5950  -18.7681    5.1327 H   0  0  0  0  0
  -16.5726  -19.4218    7.8935 H   0  0  0  0  0
  -15.7189  -19.7111    6.3577 H   0  0  0  0  0
  -16.0998  -18.0471    6.8650 H   0  0  0  0  0
  -21.8676  -16.0407    8.0619 H   0  0  0  0  0
  -20.6345  -15.4493    5.9926 H   0  0  0  0  0
  1  2  1  0  0  0
  2  3  1  0  0  0
  3  4  2  0  0  0
  3  5  1  0  0  0
  5  6  2  0  0  0
  6  7  1  0  0  0
  7  8  4  0  0  0
  7 11  4  0  0  0
  8  9  4  0  0  0
  9 10  4  0  0  0
  9 13  4  0  0  0
 10 16  4  0  0  0
 11 12  4  0  0  0
 12 13  4  0  0  0
 13 14  4  0  0  0
 14 15  4  0  0  0
 15 16  4  0  0  0
 16 17  1  0  0  0
 17 18  1  0  0  0
 18 19  1  0  0  0
 18 20  1  0  0  0
 20 21  4  0  0  0
 20 27  4  0  0  0
 21 22  1  0  0  0
 21 23  4  0  0  0
 23 24  1  0  0  0
 23 25  4  0  0  0
 25 26  4  0  0  0
 26 27  4  0  0  0
 27 28  1  0  0  0
  1 29  1  0  0  0
  1 30  1  0  0  0
  1 31  1  0  0  0
  2 32  1  0  0  0
  5 33  1  0  0  0
  6 34  1  0  0  0
  8 35  1  0  0  0
 10 36  1  0  0  0
 11 37  1  0  0  0
 14 38  1  0  0  0
 15 39  1  0  0  0
 18 40  1  0  0  0
 19 41  1  0  0  0
 19 42  1  0  0  0
 19 43  1  0  0  0
 25 44  1  0  0  0
 26 45  1  0  0  0
M  END
$$$$
