5e8r_ligand
  -I-interpret- 

 47 48  0  0  0  0  0  0  0  0999 V2000
  -31.8310   16.0280   -8.3520 C   0  0  0  0  0
  -32.2750   17.1250   -7.6390 C   0  0  0  0  0
  -29.5620   16.6170   -7.8300 C   0  0  0  0  0
  -31.1830   18.0950   -2.7350 N   0  3  0  0  0
  -30.0140   17.7160   -7.1220 C   0  0  0  0  0
  -31.3770   17.9730   -6.9990 C   0  0  0  0  0
  -28.2150   16.9100   -0.7180 N   0  3  0  0  0
  -31.8680   19.0930   -6.1590 C   0  0  0  0  0
  -32.8170   20.0040   -6.5700 C   0  0  0  0  0
  -32.2790   20.5260   -4.4640 C   0  0  0  0  0
  -31.5020   19.4320   -4.7700 C   0  0  0  0  0
  -30.5110   18.7670   -3.8520 C   0  0  0  0  0
  -31.9930   16.9480   -3.1970 C   0  0  0  0  0
  -30.3800   17.8030   -1.5340 C   0  0  0  0  0
  -29.1290   17.0020   -1.8510 C   0  0  0  0  0
  -33.0550   20.8620   -5.5360 N   0  0  0  0  0
  -30.4740   15.7700   -8.4460 C   0  0  0  0  0
  -30.1750   14.6400   -9.1770 O   0  0  0  0  0
  -28.9680   14.5970  -10.0010 C   0  0  0  0  0
  -29.0640   15.6610  -11.0520 C   0  0  0  0  0
  -28.8590   13.2080  -10.5660 C   0  0  0  0  0
  -32.5476   15.3670   -8.8395 H   0  0  0  0  0
  -33.3440   17.3289   -7.5771 H   0  0  0  0  0
  -28.4932   16.4164   -7.9042 H   0  0  0  0  0
  -31.8144   18.8107   -2.3752 H   0  0  0  0  0
  -29.2948   18.3888   -6.6549 H   0  0  0  0  0
  -27.3965   16.3638   -0.9865 H   0  0  0  0  0
  -27.9237   17.8474   -0.4407 H   0  0  0  0  0
  -28.6879   16.4547    0.0627 H   0  0  0  0  0
  -33.2940   20.0339   -7.5496 H   0  0  0  0  0
  -32.2754   21.0474   -3.5068 H   0  0  0  0  0
  -29.9577   18.0209   -4.4223 H   0  0  0  0  0
  -29.8474   19.5312   -3.4473 H   0  0  0  0  0
  -32.7529   17.2992   -3.8951 H   0  0  0  0  0
  -31.3465   16.2254   -3.6950 H   0  0  0  0  0
  -32.4748   16.4766   -2.3404 H   0  0  0  0  0
  -30.9942   17.2123   -0.8544 H   0  0  0  0  0
  -30.0697   18.7526   -1.0980 H   0  0  0  0  0
  -29.4379   15.9903   -2.1139 H   0  0  0  0  0
  -28.6053   17.5077   -2.6623 H   0  0  0  0  0
  -28.0615   14.8016   -9.4313 H   0  0  0  0  0
  -29.9422   15.4796  -11.6717 H   0  0  0  0  0
  -29.1509   16.6363  -10.5730 H   0  0  0  0  0
  -28.1685   15.6383  -11.6730 H   0  0  0  0  0
  -28.7903   12.4893   -9.7494 H   0  0  0  0  0
  -29.7412   12.9920  -11.1686 H   0  0  0  0  0
  -27.9667   13.1392  -11.1882 H   0  0  0  0  0
  2  1  4  0  0  0
  1 17  4  0  0  0
  6  2  4  0  0  0
  5  3  4  0  0  0
  3 17  4  0  0  0
  4 12  1  0  0  0
  4 13  1  0  0  0
 14  4  1  0  0  0
  6  5  4  0  0  0
  8  6  1  0  0  0
 15  7  1  0  0  0
  8  9  4  0  0  0
 11  8  4  0  0  0
 16  9  4  0  0  0
 11 10  4  0  0  0
 10 16  4  0  0  0
 12 11  1  0  0  0
 14 15  1  0  0  0
 17 18  1  0  0  0
 18 19  1  0  0  0
 19 20  1  0  0  0
 19 21  1  0  0  0
  1 22  1  0  0  0
  2 23  1  0  0  0
  3 24  1  0  0  0
  4 25  1  0  0  0
  5 26  1  0  0  0
  7 27  1  0  0  0
  7 28  1  0  0  0
  7 29  1  0  0  0
  9 30  1  0  0  0
 10 31  1  0  0  0
 12 32  1  0  0  0
 12 33  1  0  0  0
 13 34  1  0  0  0
 13 35  1  0  0  0
 13 36  1  0  0  0
 14 37  1  0  0  0
 14 38  1  0  0  0
 15 39  1  0  0  0
 15 40  1  0  0  0
 19 41  1  0  0  0
 20 42  1  0  0  0
 20 43  1  0  0  0
 20 44  1  0  0  0
 21 45  1  0  0  0
 21 46  1  0  0  0
 21 47  1  0  0  0
M  END
$$$$
