4mmf_ligand
  -I-interpret- 

 34 37  0  0  0  0  0  0  0  0999 V2000
  -60.8440   14.6870   12.1180 Cl  0  0  0  0  0
  -61.8070   15.5890   10.9050 C   0  0  0  0  0
  -61.5620   15.4260    9.5400 C   0  0  0  0  0
  -62.3030   16.1460    8.6100 C   0  0  0  0  0
  -62.7840   16.4610   11.3550 C   0  0  0  0  0
  -63.5190   17.1770   10.4300 C   0  0  0  0  0
  -63.2910   17.0080    9.0680 C   0  0  0  0  0
  -64.1070   17.8410    8.1340 C   0  0  0  0  0
  -65.1890   18.4540    8.8400 O   0  0  0  0  0
  -63.1960   18.8800    7.5220 C   0  0  0  0  0
  -62.3740   19.7980    8.1700 C   0  0  0  0  0
  -61.6140   20.6860    7.4090 C   0  0  0  0  0
  -61.6660   20.6690    6.0130 C   0  0  0  0  0
  -62.4830   19.7570    5.3470 C   0  0  0  0  0
  -63.2240   18.8810    6.1310 C   0  0  0  0  0
  -64.1820   17.7840    5.8690 C   0  0  0  0  0
  -64.6340   17.2000    6.9210 N   0  3  0  0  0
  -65.5950   16.1430    6.7860 C   0  0  0  0  0
  -65.7740   16.2320    5.2500 C   0  0  0  0  0
  -64.7390   17.1820    4.7920 N   0  0  0  0  0
  -60.7897   14.7342    9.2037 H   0  0  0  0  0
  -62.1124   16.0362    7.5424 H   0  0  0  0  0
  -62.9702   16.5806   12.4223 H   0  0  0  0  0
  -64.2816   17.8781   10.7691 H   0  0  0  0  0
  -64.8532   18.8755    9.6345 H   0  0  0  0  0
  -62.3250   19.8224    9.2586 H   0  0  0  0  0
  -60.9683   21.4057    7.9122 H   0  0  0  0  0
  -61.0633   21.3740    5.4405 H   0  0  0  0  0
  -62.5383   19.7320    4.2587 H   0  0  0  0  0
  -66.5045   16.2495    7.3772 H   0  0  0  0  0
  -65.2895   15.1709    7.1731 H   0  0  0  0  0
  -66.7752   16.5688    4.9813 H   0  0  0  0  0
  -65.6622   15.2570    4.7756 H   0  0  0  0  0
  -64.4848   17.3563    3.8197 H   0  0  0  0  0
  1  2  1  0  0  0
  2  3  4  0  0  0
  2  5  4  0  0  0
  3  4  4  0  0  0
  4  7  4  0  0  0
  5  6  4  0  0  0
  6  7  4  0  0  0
  7  8  1  0  0  0
  8  9  1  0  0  0
  8 10  1  0  0  0
  8 17  1  0  0  0
 10 11  4  0  0  0
 10 15  4  0  0  0
 11 12  4  0  0  0
 12 13  4  0  0  0
 13 14  4  0  0  0
 14 15  4  0  0  0
 15 16  1  0  0  0
 16 17  2  0  0  0
 16 20  1  0  0  0
 17 18  1  0  0  0
 18 19  1  0  0  0
 19 20  1  0  0  0
  3 21  1  0  0  0
  4 22  1  0  0  0
  5 23  1  0  0  0
  6 24  1  0  0  0
  9 25  1  0  0  0
 11 26  1  0  0  0
 12 27  1  0  0  0
 13 28  1  0  0  0
 14 29  1  0  0  0
 18 30  1  0  0  0
 18 31  1  0  0  0
 19 32  1  0  0  0
 19 33  1  0  0  0
 20 34  1  0  0  0
M  END
$$$$
