### 
### Created by X-TOOL on Mon Sep 10 21:13:21 2018
### 

@<TRIPOS>MOLECULE
4yvz_ligand
   42    44     1     0     0
SMALL
GAST_HUCK


@<TRIPOS>ATOM
      1 PG          8.6030  -39.1930   37.1790 P.3       1 3AT         0.1879
      2 O1G         7.8440  -38.8220   35.9320 O.co2     1 3AT        -0.6091
      3 O2G         9.4250  -40.4420   37.0040 O.co2     1 3AT        -0.6091
      4 O3G         7.6720  -39.4540   38.3120 O.co2     1 3AT        -0.6091
      5 PB          9.2800  -36.5280   37.9750 P.3       1 3AT         0.3553
      6 O1B         9.8680  -35.4930   37.0280 O.co2     1 3AT        -0.5652
      7 O2B         7.8130  -36.3090   38.1880 O.co2     1 3AT        -0.5652
      8 O3B         9.5780  -37.9890   37.4470 O.3       1 3AT        -0.1546
      9 PA          9.7310  -36.9320   40.7470 P.3       1 3AT         0.3266
     10 O1A         8.4460  -37.7050   40.7480 O.co2     1 3AT        -0.5692
     11 O2A         9.5120  -35.6890   41.5750 O.co2     1 3AT        -0.5692
     12 O3A        10.1170  -36.4250   39.3110 O.3       1 3AT        -0.1171
     13 O5'        10.9490  -37.7770   41.2990 O.3       1 3AT        -0.2442
     14 C5'        11.0810  -39.1610   41.1150 C.3       1 3AT         0.1107
     15 C4'        12.5010  -39.6020   41.2760 C.3       1 3AT         0.0931
     16 O4'        13.2860  -38.9080   40.4780 O.3       1 3AT        -0.3391
     17 C3'        13.1130  -39.3740   42.7660 C.3       1 3AT         0.0074
     18 C2'        14.3800  -39.4640   42.5690 C.3       1 3AT         0.1128
     19 O2'        14.8460  -40.8660   42.6150 O.3       1 3AT        -0.3862
     20 C1'        14.6610  -38.9200   41.1120 C.3       1 3AT         0.1984
     21 N9         15.1090  -37.7090   41.2190 N.pl3     1 3AT        -0.1920
     22 C8         14.4040  -36.5620   41.2800 C.2       1 3AT         0.1123
     23 N7         15.2660  -35.5410   41.4220 N.2       1 3AT        -0.2958
     24 C5         16.5090  -36.0630   41.4730 C.ar      1 3AT         0.1045
     25 C6         17.7380  -35.4370   41.6100 C.ar      1 3AT         0.1298
     26 N6         18.1620  -34.1030   41.7580 N.pl3     1 3AT        -0.3152
     27 N1         18.8630  -36.1730   41.6290 N.ar      1 3AT        -0.2698
     28 C2         18.7770  -37.5370   41.5030 C.ar      1 3AT         0.0533
     29 N3         17.5630  -38.1530   41.3690 N.ar      1 3AT        -0.2714
     30 C4         16.4250  -37.4030   41.3550 C.ar      1 3AT         0.1613
     31 H1         10.7384  -39.4214   40.1027 H         1 3AT         0.0647
     32 H2         10.4587  -39.6814   41.8579 H         1 3AT         0.0647
     33 H3         12.5576  -40.6710   41.0230 H         1 3AT         0.0625
     34 H4         12.7637  -40.1515   43.4613 H         1 3AT         0.0318
     35 H5         12.8423  -38.3827   43.1584 H         1 3AT         0.0318
     36 H6         14.9189  -38.8671   43.3195 H         1 3AT         0.0650
     37 H7         15.7838  -40.8919   42.4657 H         1 3AT         0.2100
     38 H8         15.3662  -39.5547   40.5554 H         1 3AT         0.0995
     39 H9         13.3198  -36.4770   41.2238 H         1 3AT         0.1349
     40 H10        19.1657  -33.8881   41.8432 H         1 3AT         0.1820
     41 H11        17.4685  -33.3418   41.7811 H         1 3AT         0.1820
     42 H12        19.6822  -38.1334   41.5098 H         1 3AT         0.0996
@<TRIPOS>BOND
     1    1    2 ar 
     2    1    3 ar 
     3    1    4 ar 
     4    8    1 1  
     5    5    6 ar 
     6    5    7 ar 
     7    5    8 1  
     8   12    5 1  
     9    9   10 ar 
    10    9   11 ar 
    11    9   12 1  
    12    9   13 1  
    13   13   14 1  
    14   14   15 1  
    15   15   16 1  
    16   15   17 1  
    17   16   20 1  
    18   17   18 1  
    19   18   19 1  
    20   18   20 1  
    21   20   21 1  
    22   21   22 1  
    23   21   30 1  
    24   22   23 2  
    25   23   24 1  
    26   24   25 ar 
    27   24   30 ar 
    28   25   26 1  
    29   25   27 ar 
    30   27   28 ar 
    31   28   29 ar 
    32   29   30 ar 
    33   14   31 1  
    34   14   32 1  
    35   15   33 1  
    36   17   34 1  
    37   17   35 1  
    38   18   36 1  
    39   19   37 1  
    40   20   38 1  
    41   22   39 1  
    42   26   40 1  
    43   26   41 1  
    44   28   42 1  
@<TRIPOS>SUBSTRUCTURE
     1 3AT         1

