4yvz_ligand
  -I-interpret- 

 46 48  0  0  0  0  0  0  0  0999 V2000
    8.6030  -39.1930   37.1790 P   0  0  0  0  0
    7.8440  -38.8220   35.9320 O   0  0  0  0  0
    9.4250  -40.4420   37.0040 O   0  0  0  0  0
    7.6720  -39.4540   38.3120 O   0  0  0  0  0
    9.2800  -36.5280   37.9750 P   0  0  0  0  0
    9.8680  -35.4930   37.0280 O   0  0  0  0  0
    7.8130  -36.3090   38.1880 O   0  0  0  0  0
    9.5780  -37.9890   37.4470 O   0  0  0  0  0
    9.7310  -36.9320   40.7470 P   0  0  0  0  0
    8.4460  -37.7050   40.7480 O   0  0  0  0  0
    9.5120  -35.6890   41.5750 O   0  0  0  0  0
   10.1170  -36.4250   39.3110 O   0  0  0  0  0
   10.9490  -37.7770   41.2990 O   0  0  0  0  0
   11.0810  -39.1610   41.1150 C   0  0  0  0  0
   12.5010  -39.6020   41.2760 C   0  0  0  0  0
   13.2860  -38.9080   40.4780 O   0  0  0  0  0
   13.1130  -39.3740   42.7660 C   0  0  0  0  0
   14.3800  -39.4640   42.5690 C   0  0  0  0  0
   14.8460  -40.8660   42.6150 O   0  0  0  0  0
   14.6610  -38.9200   41.1120 C   0  0  0  0  0
   15.1090  -37.7090   41.2190 N   0  0  0  0  0
   14.4040  -36.5620   41.2800 C   0  0  0  0  0
   15.2660  -35.5410   41.4220 N   0  0  0  0  0
   16.5090  -36.0630   41.4730 C   0  0  0  0  0
   17.7380  -35.4370   41.6100 C   0  0  0  0  0
   18.1620  -34.1030   41.7580 N   0  0  0  0  0
   18.8630  -36.1730   41.6290 N   0  0  0  0  0
   18.7770  -37.5370   41.5030 C   0  0  0  0  0
   17.5630  -38.1530   41.3690 N   0  0  0  0  0
   16.4250  -37.4030   41.3550 C   0  0  0  0  0
    8.4644  -38.6590   35.2177 H   0  0  0  0  0
   10.0428  -40.3183   36.2797 H   0  0  0  0  0
   10.8061  -35.6618   36.9138 H   0  0  0  0  0
   10.3203  -35.1715   41.5932 H   0  0  0  0  0
   10.7552  -39.4077   40.1045 H   0  0  0  0  0
   10.4745  -39.6686   41.8651 H   0  0  0  0  0
   12.4758  -40.6684   41.0517 H   0  0  0  0  0
   12.7436  -40.0980   43.4923 H   0  0  0  0  0
   12.8180  -38.4209   43.2051 H   0  0  0  0  0
   14.8986  -38.9016   43.3454 H   0  0  0  0  0
   15.7937  -40.8921   42.4641 H   0  0  0  0  0
   15.3828  -39.5036   40.5407 H   0  0  0  0  0
   13.3188  -36.4770   41.2237 H   0  0  0  0  0
   17.4753  -33.3491   41.7809 H   0  0  0  0  0
   19.1560  -33.8902   41.8424 H   0  0  0  0  0
   19.6872  -38.1367   41.5098 H   0  0  0  0  0
  1  2  1  0  0  0
  1  3  1  0  0  0
  1  4  2  0  0  0
  8  1  1  0  0  0
  5  6  1  0  0  0
  5  7  2  0  0  0
  5  8  1  0  0  0
 12  5  1  0  0  0
  9 10  2  0  0  0
  9 11  1  0  0  0
  9 12  1  0  0  0
  9 13  1  0  0  0
 13 14  1  0  0  0
 14 15  1  0  0  0
 15 16  1  0  0  0
 15 17  1  0  0  0
 16 20  1  0  0  0
 17 18  1  0  0  0
 18 19  1  0  0  0
 18 20  1  0  0  0
 20 21  1  0  0  0
 21 22  4  0  0  0
 21 30  4  0  0  0
 22 23  4  0  0  0
 23 24  4  0  0  0
 24 25  4  0  0  0
 24 30  4  0  0  0
 25 26  1  0  0  0
 25 27  4  0  0  0
 27 28  4  0  0  0
 28 29  4  0  0  0
 29 30  4  0  0  0
  2 31  1  0  0  0
  3 32  1  0  0  0
  6 33  1  0  0  0
 11 34  1  0  0  0
 14 35  1  0  0  0
 14 36  1  0  0  0
 15 37  1  0  0  0
 17 38  1  0  0  0
 17 39  1  0  0  0
 18 40  1  0  0  0
 19 41  1  0  0  0
 20 42  1  0  0  0
 22 43  1  0  0  0
 26 44  1  0  0  0
 26 45  1  0  0  0
 28 46  1  0  0  0
M  END
$$$$
