5dtj_ligand
  -I-interpret- 

 35 36  0  0  0  0  0  0  0  0999 V2000
    5.2850  -18.3870    7.5310 C   0  0  0  0  0
    5.4160  -16.9930    7.5220 C   0  0  0  0  0
    6.4920  -16.4290    6.8510 C   0  0  0  0  0
    7.4060  -17.2460    6.1870 C   0  0  0  0  0
    7.2550  -18.6340    6.2000 C   0  0  0  0  0
    6.1830  -19.2180    6.8710 C   0  0  0  0  0
    4.0650  -20.3030    8.2270 C   0  0  0  0  0
    2.8780  -20.5180    9.1540 C   0  0  0  0  0
    4.2270  -15.9330    8.3860 Cl  0  0  0  0  0
    8.7560  -16.5280    5.3420 Cl  0  0  0  0  0
    4.2100  -18.8790    8.2010 O   0  0  0  0  0
    2.5380  -21.9710    9.3980 C   0  0  0  0  0
    1.2980  -22.0180   10.2890 C   0  0  0  0  0
    0.9790  -23.4740   10.5290 C   0  0  0  0  0
   -0.2200  -23.6540   11.3400 N   0  0  0  0  0
   -0.7550  -22.8240   12.2200 C   0  0  0  0  0
   -1.8480  -23.4250   12.6870 C   0  0  0  0  0
   -1.9950  -24.6090   12.1050 N   0  0  0  0  0
   -0.9780  -24.7460   11.2620 C   0  0  0  0  0
    6.6226  -15.3469    6.8431 H   0  0  0  0  0
    7.9792  -19.2634    5.6828 H   0  0  0  0  0
    6.0515  -20.3000    6.8784 H   0  0  0  0  0
    3.9047  -20.7263    7.2354 H   0  0  0  0  0
    4.9654  -20.8099    8.5742 H   0  0  0  0  0
    2.0109  -20.0602    8.6780 H   0  0  0  0  0
    3.1398  -20.0825   10.1183 H   0  0  0  0  0
    3.3719  -22.4781    9.8834 H   0  0  0  0  0
    2.3438  -22.4778    8.4527 H   0  0  0  0  0
    0.4593  -21.5145    9.8082 H   0  0  0  0  0
    1.4822  -21.5038   11.2323 H   0  0  0  0  0
    1.8179  -23.9194   11.0637 H   0  0  0  0  0
    0.8057  -23.9453    9.5615 H   0  0  0  0  0
   -0.3764  -21.8427   12.5062 H   0  0  0  0  0
   -2.5213  -23.0070   13.4354 H   0  0  0  0  0
   -0.7951  -25.6052   10.6167 H   0  0  0  0  0
  1  2  4  0  0  0
  1  6  4  0  0  0
 11  1  1  0  0  0
  2  3  4  0  0  0
  2  9  1  0  0  0
  3  4  4  0  0  0
  5  4  4  0  0  0
  4 10  1  0  0  0
  6  5  4  0  0  0
  7  8  1  0  0  0
  7 11  1  0  0  0
  8 12  1  0  0  0
 12 13  1  0  0  0
 13 14  1  0  0  0
 14 15  1  0  0  0
 15 16  4  0  0  0
 15 19  4  0  0  0
 16 17  4  0  0  0
 17 18  4  0  0  0
 18 19  4  0  0  0
  3 20  1  0  0  0
  5 21  1  0  0  0
  6 22  1  0  0  0
  7 23  1  0  0  0
  7 24  1  0  0  0
  8 25  1  0  0  0
  8 26  1  0  0  0
 12 27  1  0  0  0
 12 28  1  0  0  0
 13 29  1  0  0  0
 13 30  1  0  0  0
 14 31  1  0  0  0
 14 32  1  0  0  0
 16 33  1  0  0  0
 17 34  1  0  0  0
 19 35  1  0  0  0
M  END
$$$$
