4x68_ligand
  -I-interpret- 

 41 41  0  0  0  0  0  0  0  0999 V2000
  -13.1090    0.8800   16.5140 C   0  0  0  0  0
  -12.7000    0.0950   15.6280 O   0  0  0  0  0
  -14.4200    1.2490   16.5990 N   0  0  0  0  0
  -15.2400    1.1570   15.3500 C   0  0  0  0  0
  -15.0470    2.4530   14.5810 C   0  0  0  0  0
  -14.4260    2.3170   13.3900 N   0  0  0  0  0
  -15.4240    3.5380   15.0330 O   0  0  0  0  0
  -15.0790    1.5600   17.8870 C   0  0  0  0  0
  -16.4690    0.9030   18.1070 C   0  0  0  0  0
  -17.3670    1.2110   16.8830 C   0  0  0  0  0
  -16.7190    0.7740   15.5470 C   0  0  0  0  0
  -16.4060   -0.5410   18.3540 N   0  3  0  0  0
  -14.5010   -2.0290   19.2300 S   0  0  0  0  0
  -15.5020   -0.8530   19.3770 O   0  0  0  0  0
  -13.7040   -1.9050   20.4180 O   0  0  0  0  0
  -13.7860   -1.7700   18.0280 O   0  0  0  0  0
  -15.3610   -3.1720   19.2000 O   0  0  0  0  0
  -16.0780    5.5530   12.7190 N   0  3  0  0  0
  -16.3880    4.3230   12.0000 C   0  0  0  0  0
  -15.1190    3.6030   11.4780 C   0  0  0  0  0
  -14.1780    3.4350   12.5840 O   0  0  0  0  0
  -12.3981    1.2795   17.2372 H   0  0  0  0  0
  -14.8767    0.3091   14.7693 H   0  0  0  0  0
  -14.1349    1.3918   13.0744 H   0  0  0  0  0
  -15.2412    2.6378   17.8988 H   0  0  0  0  0
  -14.4266    1.1724   18.6695 H   0  0  0  0  0
  -16.8943    1.3339   19.0134 H   0  0  0  0  0
  -17.5237    2.2890   16.8438 H   0  0  0  0  0
  -18.2985    0.6575   17.0017 H   0  0  0  0  0
  -16.7554   -0.3153   15.5334 H   0  0  0  0  0
  -17.2728    1.2846   14.7591 H   0  0  0  0  0
  -16.0936   -0.9999   17.4983 H   0  0  0  0  0
  -17.3330   -0.8593   18.6364 H   0  0  0  0  0
  -14.2470   -2.0923   21.1872 H   0  0  0  0  0
  -16.9443    5.9854   13.0398 H   0  0  0  0  0
  -15.4871    5.3365   13.5217 H   0  0  0  0  0
  -15.5865    6.1945   12.0967 H   0  0  0  0  0
  -17.0042    4.5834   11.1394 H   0  0  0  0  0
  -16.8961    3.6496   12.6902 H   0  0  0  0  0
  -14.6572    4.1975   10.6897 H   0  0  0  0  0
  -15.3898    2.6273   11.0745 H   0  0  0  0  0
  1  2  2  0  0  0
  3  1  1  0  0  0
  4  3  1  0  0  0
  3  8  1  0  0  0
  5  4  1  0  0  0
  4 11  1  0  0  0
  6  5  1  0  0  0
  5  7  2  0  0  0
 21  6  1  0  0  0
  8  9  1  0  0  0
 10  9  1  0  0  0
  9 12  1  0  0  0
 11 10  1  0  0  0
 12 14  1  0  0  0
 14 13  1  0  0  0
 13 15  1  0  0  0
 13 16  2  0  0  0
 13 17  2  0  0  0
 19 18  1  0  0  0
 20 19  1  0  0  0
 20 21  1  0  0  0
  1 22  1  0  0  0
  4 23  1  0  0  0
  6 24  1  0  0  0
  8 25  1  0  0  0
  8 26  1  0  0  0
  9 27  1  0  0  0
 10 28  1  0  0  0
 10 29  1  0  0  0
 11 30  1  0  0  0
 11 31  1  0  0  0
 12 32  1  0  0  0
 12 33  1  0  0  0
 15 34  1  0  0  0
 18 35  1  0  0  0
 18 36  1  0  0  0
 18 37  1  0  0  0
 19 38  1  0  0  0
 19 39  1  0  0  0
 20 40  1  0  0  0
 20 41  1  0  0  0
M  END
$$$$
