4rn1_ligand
  -I-interpret- 

 64 66  0  0  0  0  0  0  0  0999 V2000
   -2.9670   10.9080  -18.5120 C   0  0  0  0  0
   -2.0440   10.0680  -19.3860 C   0  0  0  0  0
   -2.2060    8.5990  -19.0780 C   0  0  0  0  0
   -1.3490    7.7310  -19.6100 C   0  0  0  0  0
   -1.4760    6.2520  -19.3310 C   0  0  0  0  0
   -0.5600    5.1120  -21.2520 C   0  0  0  0  0
    0.5700    4.3470  -21.8860 C   0  0  0  0  0
   -0.0080    3.2550  -22.7830 C   0  0  0  0  0
   -0.8920    2.3020  -21.9900 C   0  0  0  0  0
    1.0860    2.4840  -23.5160 C   0  0  0  0  0
    2.7140    3.8440  -20.8730 C   0  0  0  0  0
    3.4920    3.0670  -19.8430 C   0  0  0  0  0
    4.6820    3.9010  -19.3880 C   0  0  0  0  0
    3.9610    1.7620  -20.4910 C   0  0  0  0  0
    2.1710    1.5630  -18.6870 C   0  0  0  0  0
    1.1030    1.1270  -17.7300 C   0  0  0  0  0
    0.9780   -0.2120  -17.3730 C   0  0  0  0  0
   -0.0230   -0.5940  -16.4860 C   0  0  0  0  0
   -0.8800    0.3740  -15.9790 C   0  0  0  0  0
   -0.7240    1.7020  -16.3660 C   0  0  0  0  0
   -1.6510    2.7610  -15.8160 C   0  0  0  0  0
   -1.8130    4.6150  -17.4770 C   0  0  0  0  0
   -1.3210    5.9990  -17.8330 C   0  0  0  0  0
   -0.4110    5.5040  -19.9880 N   0  0  0  0  0
    1.3980    3.6440  -20.9150 N   0  0  0  0  0
    2.6340    2.7350  -18.7050 N   0  0  0  0  0
    0.2550    2.0490  -17.2280 N   0  0  0  0  0
   -1.3240    4.0690  -16.3660 N   0  0  0  0  0
   -1.5630    5.3680  -21.8990 O   0  0  0  0  0
    3.2900    4.6020  -21.6350 O   0  0  0  0  0
   -2.6340    4.0510  -18.1790 O   0  0  0  0  0
   -2.7800   12.6600  -18.9340 S   0  0  0  0  0
    2.8610    0.5670  -19.8180 S   0  0  0  0  0
   -2.7068   10.7590  -17.4641 H   0  0  0  0  0
   -4.0000   10.6039  -18.6808 H   0  0  0  0  0
   -1.0120   10.3574  -19.1876 H   0  0  0  0  0
   -2.2987   10.2383  -20.4320 H   0  0  0  0  0
   -3.0121    8.2548  -18.4301 H   0  0  0  0  0
   -0.5468    8.0912  -20.2540 H   0  0  0  0  0
   -2.4510    5.9323  -19.6988 H   0  0  0  0  0
    1.1697    5.0836  -22.4206 H   0  0  0  0  0
   -0.6232    3.7519  -23.5332 H   0  0  0  0  0
   -0.3023    1.8310  -21.2035 H   0  0  0  0  0
   -1.7160    2.8590  -21.5440 H   0  0  0  0  0
   -1.2882    1.5362  -22.6568 H   0  0  0  0  0
    1.6582    3.1715  -24.1389 H   0  0  0  0  0
    1.7478    2.0146  -22.7882 H   0  0  0  0  0
    0.6307    1.7171  -24.1427 H   0  0  0  0  0
    5.3201    4.1188  -20.2444 H   0  0  0  0  0
    4.3248    4.8343  -18.9528 H   0  0  0  0  0
    5.2499    3.3448  -18.6422 H   0  0  0  0  0
    5.0069    1.5385  -20.2807 H   0  0  0  0  0
    3.9311    1.7971  -21.5800 H   0  0  0  0  0
    1.6595   -0.9561  -17.7854 H   0  0  0  0  0
   -0.1332   -1.6381  -16.1931 H   0  0  0  0  0
   -1.6704    0.0955  -15.2820 H   0  0  0  0  0
   -1.5402    2.7972  -14.7322 H   0  0  0  0  0
   -2.6752    2.5095  -16.0913 H   0  0  0  0  0
   -1.9095    6.7358  -17.2864 H   0  0  0  0  0
   -0.2670    6.0797  -17.5671 H   0  0  0  0  0
    0.4457    5.2816  -19.4811 H   0  0  0  0  0
    0.9654    2.9920  -20.2607 H   0  0  0  0  0
   -0.6479    4.6265  -15.8440 H   0  0  0  0  0
   -3.5879   13.3876  -18.1680 H   0  0  0  0  0
  2  1  1  0  0  0
  1 32  1  0  0  0
  3  2  1  0  0  0
  4  3  2  0  0  0
  5  4  1  0  0  0
  5 23  1  0  0  0
 24  5  1  0  0  0
  7  6  1  0  0  0
  6 24  1  0  0  0
  6 29  2  0  0  0
  7  8  1  0  0  0
 25  7  1  0  0  0
  8  9  1  0  0  0
  8 10  1  0  0  0
 12 11  1  0  0  0
 11 25  1  0  0  0
 11 30  2  0  0  0
 12 13  1  0  0  0
 12 14  1  0  0  0
 26 12  1  0  0  0
 14 33  1  0  0  0
 15 16  1  0  0  0
 15 26  2  0  0  0
 15 33  1  0  0  0
 16 17  4  0  0  0
 16 27  4  0  0  0
 17 18  4  0  0  0
 18 19  4  0  0  0
 19 20  4  0  0  0
 20 21  1  0  0  0
 20 27  4  0  0  0
 21 28  1  0  0  0
 23 22  1  0  0  0
 22 28  1  0  0  0
 22 31  2  0  0  0
  1 34  1  0  0  0
  1 35  1  0  0  0
  2 36  1  0  0  0
  2 37  1  0  0  0
  3 38  1  0  0  0
  4 39  1  0  0  0
  5 40  1  0  0  0
  7 41  1  0  0  0
  8 42  1  0  0  0
  9 43  1  0  0  0
  9 44  1  0  0  0
  9 45  1  0  0  0
 10 46  1  0  0  0
 10 47  1  0  0  0
 10 48  1  0  0  0
 13 49  1  0  0  0
 13 50  1  0  0  0
 13 51  1  0  0  0
 14 52  1  0  0  0
 14 53  1  0  0  0
 17 54  1  0  0  0
 18 55  1  0  0  0
 19 56  1  0  0  0
 21 57  1  0  0  0
 21 58  1  0  0  0
 23 59  1  0  0  0
 23 60  1  0  0  0
 24 61  1  0  0  0
 25 62  1  0  0  0
 28 63  1  0  0  0
 32 64  1  0  0  0
M  END
$$$$
