6gnw_ligand
  -I-interpret- 

 19 19  0  0  0  0  0  0  0  0999 V2000
  -18.0600   -3.0850  -38.4050 O   0  0  0  0  0
  -16.9020   -3.6660  -38.3030 C   0  0  0  0  0
  -16.3070   -4.1500  -39.2720 O   0  0  0  0  0
  -16.3000   -3.7280  -36.9270 C   0  0  0  0  0
  -15.2090   -2.8250  -36.8070 O   0  0  0  0  0
  -14.1870   -2.9500  -37.7240 C   0  0  0  0  0
  -14.2350   -2.4180  -38.9990 C   0  0  0  0  0
  -13.1740   -2.5790  -39.8700 C   0  0  0  0  0
  -13.2870   -1.8900  -41.4590 Cl  0  0  0  0  0
  -12.0360   -3.2820  -39.4770 C   0  0  0  0  0
  -10.6970   -3.4950  -40.5560 Cl  0  0  0  0  0
  -11.9660   -3.8310  -38.1880 C   0  0  0  0  0
  -13.0550   -3.6530  -37.3230 C   0  0  0  0  0
  -12.9820   -4.3260  -35.7260 Cl  0  0  0  0  0
  -18.3420   -2.7817  -37.5389 H   0  0  0  0  0
  -15.9371   -4.7404  -36.7494 H   0  0  0  0  0
  -17.0631   -3.4531  -36.1988 H   0  0  0  0  0
  -15.1183   -1.8661  -39.3206 H   0  0  0  0  0
  -11.0838   -4.3842  -37.8658 H   0  0  0  0  0
  1  2  1  0  0  0
  2  3  2  0  0  0
  2  4  1  0  0  0
  4  5  1  0  0  0
  5  6  1  0  0  0
  6  7  4  0  0  0
  6 13  4  0  0  0
  7  8  4  0  0  0
  8  9  1  0  0  0
  8 10  4  0  0  0
 10 11  1  0  0  0
 10 12  4  0  0  0
 12 13  4  0  0  0
 13 14  1  0  0  0
  1 15  1  0  0  0
  4 16  1  0  0  0
  4 17  1  0  0  0
  7 18  1  0  0  0
 12 19  1  0  0  0
M  END
$$$$
