5w86_ligand
  -I-interpret- 

 65 68  0  0  0  0  0  0  0  0999 V2000
   17.5620   14.4100   11.9620 C   0  0  0  0  0
   19.3120   15.2560   15.2420 C   0  0  0  0  0
   17.8230   15.0530   13.2890 C   0  0  0  0  0
   17.7950   12.6040   10.3730 C   0  0  0  0  0
   20.1820   16.5150   15.1520 C   0  0  0  0  0
   21.6490   16.1550   14.9210 C   0  0  0  0  0
   21.3980   13.9920   15.9010 C   0  0  0  0  0
   19.9110   14.2130   16.1920 C   0  0  0  0  0
   16.6330   14.6090    9.7420 C   0  0  0  0  0
   16.8570   15.1340   11.0020 C   0  0  0  0  0
   19.7810    9.5430   11.0080 C   0  0  0  0  0
   18.9280    8.8400   11.8490 C   0  0  0  0  0
   19.0780   10.3280    5.6060 C   0  0  0  0  0
   17.9990   11.1250    5.2080 C   0  0  0  0  0
   17.3560   11.9920    6.0040 N   0  0  0  0  0
   17.7830   12.1130    7.2610 C   0  0  0  0  0
   18.8720   11.3910    7.7570 C   0  0  0  0  0
   19.5300   10.4720    6.9400 C   0  0  0  0  0
   20.5970    9.7210    7.4350 N   0  0  0  0  0
   19.5700    9.2830    4.6490 C   0  0  0  0  0
   17.0050   12.9380    8.0560 N   0  0  0  0  0
   17.1240   13.3490    9.4080 C   0  0  0  0  0
   18.0130   13.1290   11.6370 C   0  0  0  0  0
   18.9630   14.7110   13.9270 N   0  0  0  0  0
   17.0340   15.8770   13.7500 O   0  0  0  0  0
   22.1420   15.2520   15.9610 N   0  3  0  0  0
   23.5860   15.0090   15.7910 C   0  0  0  0  0
   19.2590    9.4210    3.3620 N   0  0  0  0  0
   20.1640    8.2940    5.0660 O   0  0  0  0  0
   21.0210    9.8180    8.8230 C   0  0  0  0  0
   20.1080    9.0480    9.7470 C   0  0  0  0  0
   19.5470    7.8350    9.3450 C   0  0  0  0  0
   18.6920    7.1330   10.1850 C   0  0  0  0  0
   18.3880    7.6310   11.4420 C   0  0  0  0  0
   18.3635   15.5603   15.6846 H   0  0  0  0  0
   18.1511   11.6020   10.1335 H   0  0  0  0  0
   20.1010   17.0626   16.0910 H   0  0  0  0  0
   19.8351   17.1193   14.3138 H   0  0  0  0  0
   22.2401   17.0705   14.9462 H   0  0  0  0  0
   21.7370   15.6556   13.9562 H   0  0  0  0  0
   21.4984   13.5759   14.8985 H   0  0  0  0  0
   21.8024   13.3130   16.6516 H   0  0  0  0  0
   19.3840   13.2694   16.0511 H   0  0  0  0  0
   19.8055   14.5722   17.2157 H   0  0  0  0  0
   16.0696   15.1840    9.0071 H   0  0  0  0  0
   16.4776   16.1260   11.2471 H   0  0  0  0  0
   20.1998   10.4936   11.3384 H   0  0  0  0  0
   18.6827    9.2409   12.8325 H   0  0  0  0  0
   17.6565   11.0348    4.1772 H   0  0  0  0  0
   19.2071   11.5462    8.7825 H   0  0  0  0  0
   21.0923    9.0877    6.8073 H   0  0  0  0  0
   16.1908   13.3237    7.5777 H   0  0  0  0  0
   18.5412   12.5367   12.3841 H   0  0  0  0  0
   19.6011   14.0528   13.4798 H   0  0  0  0  0
   22.0002   15.6820   16.8750 H   0  0  0  0  0
   23.9385   14.3513   16.5856 H   0  0  0  0  0
   23.7626   14.5391   14.8235 H   0  0  0  0  0
   24.1209   15.9576   15.8387 H   0  0  0  0  0
   19.5151    8.6934    2.6946 H   0  0  0  0  0
   18.7646   10.2543    3.0433 H   0  0  0  0  0
   20.9958   10.8678    9.1151 H   0  0  0  0  0
   22.0230    9.3967    8.9041 H   0  0  0  0  0
   19.7827    7.4334    8.3595 H   0  0  0  0  0
   18.2593    6.1886    9.8548 H   0  0  0  0  0
   17.7275    7.0744   12.1069 H   0  0  0  0  0
  1  3  1  0  0  0
 10  1  4  0  0  0
 23  1  4  0  0  0
  2  5  1  0  0  0
  2  8  1  0  0  0
 24  2  1  0  0  0
  3 24  1  0  0  0
  3 25  2  0  0  0
 22  4  4  0  0  0
  4 23  4  0  0  0
  5  6  1  0  0  0
  6 26  1  0  0  0
  8  7  1  0  0  0
  7 26  1  0  0  0
  9 10  4  0  0  0
 22  9  4  0  0  0
 11 12  4  0  0  0
 31 11  4  0  0  0
 12 34  4  0  0  0
 13 14  4  0  0  0
 18 13  4  0  0  0
 13 20  1  0  0  0
 14 15  4  0  0  0
 16 15  4  0  0  0
 17 16  4  0  0  0
 16 21  1  0  0  0
 18 17  4  0  0  0
 19 18  1  0  0  0
 30 19  1  0  0  0
 20 28  1  0  0  0
 20 29  2  0  0  0
 21 22  1  0  0  0
 26 27  1  0  0  0
 30 31  1  0  0  0
 31 32  4  0  0  0
 32 33  4  0  0  0
 33 34  4  0  0  0
  2 35  1  0  0  0
  4 36  1  0  0  0
  5 37  1  0  0  0
  5 38  1  0  0  0
  6 39  1  0  0  0
  6 40  1  0  0  0
  7 41  1  0  0  0
  7 42  1  0  0  0
  8 43  1  0  0  0
  8 44  1  0  0  0
  9 45  1  0  0  0
 10 46  1  0  0  0
 11 47  1  0  0  0
 12 48  1  0  0  0
 14 49  1  0  0  0
 17 50  1  0  0  0
 19 51  1  0  0  0
 21 52  1  0  0  0
 23 53  1  0  0  0
 24 54  1  0  0  0
 26 55  1  0  0  0
 27 56  1  0  0  0
 27 57  1  0  0  0
 27 58  1  0  0  0
 28 59  1  0  0  0
 28 60  1  0  0  0
 30 61  1  0  0  0
 30 62  1  0  0  0
 32 63  1  0  0  0
 33 64  1  0  0  0
 34 65  1  0  0  0
M  END
$$$$
