### 
### Created by X-TOOL on Mon Sep 10 21:12:57 2018
### 

@<TRIPOS>MOLECULE
3d32_ligand
  198   204     1     0     0
SMALL
GAST_HUCK


@<TRIPOS>ATOM
      1 N          51.4650   11.6760   44.9890 N.4       1 ASP         0.2391
      2 CA         50.8660   11.6160   43.6310 C.3       1 ASP         0.0764
      3 C          51.7420   12.3200   42.6010 C.2       1 ASP         0.2284
      4 O          52.4250   13.2960   42.9100 O.2       1 ASP        -0.3906
      5 CB         49.4410   12.1910   43.5890 C.3       1 ASP         0.0607
      6 CG         49.2850   13.5180   44.3350 C.2       1 ASP         0.0425
      7 OD1        50.1560   13.8850   45.1550 O.co2     1 ASP        -0.5686
      8 OD2        48.2360   14.1620   44.1280 O.co2     1 ASP        -0.5686
      9 N          51.7240   11.7840   41.3850 N.am      1 ALA        -0.2612
     10 CA         52.3270   12.4040   40.2120 C.3       1 ALA         0.1283
     11 C          51.7170   13.7770   39.9590 C.2       1 ALA         0.2037
     12 O          50.6670   14.1140   40.5190 O.2       1 ALA        -0.3944
     13 CB         52.1080   11.5150   39.0000 C.3       1 ALA        -0.0244
     14 N          52.3980   14.5520   39.1210 N.am      1 THR        -0.2613
     15 CA         51.9100   15.8480   38.6730 C.3       1 THR         0.1565
     16 C          50.7740   15.6310   37.6770 C.2       1 THR         0.2066
     17 O          50.9260   14.9370   36.6680 O.2       1 THR        -0.3943
     18 CB         53.0420   16.6240   37.9800 C.3       1 THR         0.0924
     19 OG1        54.1150   16.8260   38.9120 O.3       1 THR        -0.3874
     20 CG2        52.5520   17.9670   37.4260 C.3       1 THR        -0.0346
     21 N          49.6360   16.2450   37.9680 N.am      1 TYR        -0.2621
     22 CA         48.5250   16.2870   37.0340 C.3       1 TYR         0.1390
     23 C          48.1310   17.7250   36.7730 C.2       1 TYR         0.2058
     24 O          48.4120   18.6230   37.5570 O.2       1 TYR        -0.3942
     25 CB         47.3360   15.5300   37.6170 C.3       1 TYR         0.0163
     26 CG         47.6160   14.0690   37.8160 C.ar      1 TYR        -0.0493
     27 CD1        47.8410   13.2400   36.7290 C.ar      1 TYR        -0.0685
     28 CD2        47.6720   13.5210   39.0980 C.ar      1 TYR        -0.0685
     29 CE1        48.0930   11.8980   36.8960 C.ar      1 TYR        -0.0398
     30 CE2        47.9210   12.1730   39.2780 C.ar      1 TYR        -0.0398
     31 CZ         48.1380   11.3690   38.1700 C.ar      1 TYR         0.0805
     32 OH         48.3960   10.0240   38.2890 O.3       1 TYR        -0.3376
     33 N          47.4870   17.9470   35.6370 N.am      1 THR        -0.2612
     34 CA         46.9210   19.2460   35.3210 C.3       1 THR         0.1565
     35 C          45.4200   19.0960   35.1010 C.2       1 THR         0.2066
     36 O          44.8920   17.9860   35.0640 O.2       1 THR        -0.3943
     37 CB         47.5690   19.8570   34.0580 C.3       1 THR         0.0924
     38 OG1        47.2710   19.0340   32.9200 O.3       1 THR        -0.3874
     39 CG2        49.0870   19.9950   34.2240 C.3       1 THR        -0.0346
     40 N          44.7440   20.2300   34.9210 N.am      1 TRP        -0.2626
     41 CA         43.3080   20.2370   34.6980 C.3       1 TRP         0.1352
     42 C          42.9210   19.3320   33.5330 C.2       1 TRP         0.2052
     43 O          41.8840   18.6660   33.5580 O.2       1 TRP        -0.3942
     44 CB         42.8130   21.6540   34.4080 C.3       1 TRP         0.0042
     45 CG         41.3350   21.7360   34.4940 C.2       1 TRP        -0.0418
     46 CD1        40.4300   21.7270   33.4690 C.2       1 TRP         0.0167
     47 CD2        40.5820   21.7380   35.7070 C.ar      1 TRP        -0.0214
     48 NE1        39.1580   21.7490   33.9820 N.pl3     1 TRP        -0.2890
     49 CE2        39.2180   21.7450   35.3520 C.ar      1 TRP         0.0603
     50 CE3        40.9390   21.7410   37.0610 C.ar      1 TRP        -0.0747
     51 CZ2        38.2000   21.7680   36.3100 C.ar      1 TRP        -0.0443
     52 CZ3        39.9330   21.7530   38.0150 C.ar      1 TRP        -0.0792
     53 CH2        38.5770   21.7660   37.6310 C.ar      1 TRP        -0.0768
     54 N          43.7690   19.3100   32.5070 N.am      1 GLU        -0.2635
     55 CA         43.5230   18.5150   31.3030 C.3       1 GLU         0.1325
     56 C          43.4830   16.9900   31.5210 C.2       1 GLU         0.2041
     57 O          42.9340   16.2580   30.6890 O.2       1 GLU        -0.3944
     58 CB         44.5440   18.9240   30.2370 C.3       1 GLU        -0.0008
     59 CG         44.2480   20.2680   29.5700 C.3       1 GLU         0.0044
     60 CD         44.1300   21.4430   30.5360 C.2       1 GLU         0.0350
     61 OE1        45.0690   21.6760   31.3210 O.co2     1 GLU        -0.5690
     62 OE2        43.0920   22.1490   30.5090 O.co2     1 GLU        -0.5690
     63 N          44.0180   16.5070   32.6420 N.am      1 HIS        -0.2619
     64 CA         43.9500   15.0850   32.9720 C.3       1 HIS         0.1421
     65 C          42.5690   14.7240   33.5070 C.2       1 HIS         0.2060
     66 O          42.2890   13.5400   33.6720 O.2       1 HIS        -0.3942
     67 CB         44.9530   14.7150   34.0670 C.3       1 HIS         0.0427
     68 CG         46.3690   14.6090   33.6080 C.2       1 HIS         0.0561
     69 ND1        47.2970   15.6000   33.8400 N.pl3     1 HIS        -0.2623
     70 CD2        47.0360   13.6040   32.9930 C.2       1 HIS        -0.0276
     71 CE1        48.4660   15.2280   33.3480 C.2       1 HIS         0.0875
     72 NE2        48.3350   14.0160   32.8390 N.2       1 HIS        -0.3437
     73 N          41.7160   15.7080   33.7840 N.am      1 LEU        -0.2636
     74 CA         40.4370   15.4630   34.4510 C.3       1 LEU         0.1312
     75 C          39.2540   15.3170   33.4900 C.2       1 LEU         0.2039
     76 O          38.1200   15.1210   33.9360 O.2       1 LEU        -0.3944
     77 CB         40.1500   16.5910   35.4490 C.3       1 LEU        -0.0101
     78 CG         41.2910   17.0030   36.3860 C.3       1 LEU        -0.0425
     79 CD1        40.7940   18.0800   37.3500 C.3       1 LEU        -0.0625
     80 CD2        41.8670   15.8030   37.1500 C.3       1 LEU        -0.0625
     81 N          39.5120   15.4180   32.1890 N.am      1 ALA        -0.2640
     82 CA         38.4500   15.5450   31.2020 C.3       1 ALA         0.1282
     83 C          37.5260   14.3370   31.1380 C.2       1 ALA         0.2037
     84 O          37.9860   13.2120   30.9690 O.2       1 ALA        -0.3944
     85 CB         39.0790   15.7800   29.8400 C.3       1 ALA        -0.0244
     86 N          36.2230   14.5820   31.2110 N.am      1 TRP        -0.2627
     87 CA         35.2560   13.5300   30.9000 C.3       1 TRP         0.1354
     88 C          35.4800   13.0860   29.4470 C.2       1 TRP         0.2078
     89 O          35.6410   13.9250   28.5620 O.2       1 TRP        -0.3940
     90 CB         33.8190   14.0390   31.0970 C.3       1 TRP         0.0042
     91 CG         32.8520   12.9140   31.0780 C.2       1 TRP        -0.0418
     92 CD1        32.0120   12.5580   30.0600 C.2       1 TRP         0.0167
     93 CD2        32.6790   11.9330   32.1060 C.ar      1 TRP        -0.0214
     94 NE1        31.3190   11.4210   30.4040 N.pl3     1 TRP        -0.2890
     95 CE2        31.7070   11.0170   31.6560 C.ar      1 TRP         0.0603
     96 CE3        33.2550   11.7470   33.3700 C.ar      1 TRP        -0.0747
     97 CZ2        31.2850    9.9270   32.4330 C.ar      1 TRP        -0.0443
     98 CZ3        32.8340   10.6730   34.1400 C.ar      1 TRP        -0.0792
     99 CH2        31.8670    9.7680   33.6630 C.ar      1 TRP        -0.0768
    100 N          35.5090   11.7740   29.1750 N.am      1 PRO        -0.2484
    101 CA         35.8020   11.3080   27.8150 C.3       1 PRO         0.1448
    102 C          34.6280   11.5260   26.8670 C.2       1 PRO         0.2573
    103 O          33.4950   11.7310   27.3050 O.2       1 PRO        -0.3680
    104 CB         36.0910    9.8180   28.0150 C.3       1 PRO        -0.0090
    105 CG         35.2990    9.4370   29.2280 C.3       1 PRO        -0.0280
    106 CD         35.3570   10.6550   30.1260 C.3       1 PRO         0.0371
    107 O1         34.8293   11.4945   25.5527 O.3       1 PRO        -0.2910
    108 H1         50.8620   11.2025   45.6434 H         1 ASP         0.2016
    109 H2         51.5720   12.6390   45.2668 H         1 ASP         0.2016
    110 H3         52.3675   11.2271   44.9783 H         1 ASP         0.2016
    111 H4         50.8038   10.5547   43.3488 H         1 ASP         0.1117
    112 H5         48.7580   11.4571   44.0416 H         1 ASP         0.0512
    113 H6         49.1629   12.3506   42.5368 H         1 ASP         0.0512
    114 H7         51.2689   10.9013   41.2677 H         1 ALA         0.1884
    115 H8         53.4073   12.5197   40.3841 H         1 ALA         0.0797
    116 H9         52.5632   11.9832   38.1148 H         1 ALA         0.0277
    117 H10        51.0289   11.3841   38.8314 H         1 ALA         0.0277
    118 H11        52.5733   10.5339   39.1760 H         1 ALA         0.0277
    119 H12        53.2831   14.2311   38.7840 H         1 THR         0.1884
    120 H13        51.5437   16.4229   39.5363 H         1 THR         0.0826
    121 H14        53.4142   16.0205   37.1390 H         1 THR         0.0639
    122 H15        54.4062   15.9853   39.2450 H         1 THR         0.2101
    123 H16        53.3885   18.4901   36.9395 H         1 THR         0.0257
    124 H17        52.1634   18.5837   38.2498 H         1 THR         0.0257
    125 H18        51.7527   17.7909   36.6911 H         1 THR         0.0257
    126 H19        49.5397   16.6926   38.8571 H         1 TYR         0.1885
    127 H20        48.8280   15.8155   36.0875 H         1 TYR         0.0821
    128 H21        46.4828   15.6337   36.9305 H         1 TYR         0.0453
    129 H22        47.0798   15.9742   38.5902 H         1 TYR         0.0453
    130 H23        47.8180   13.6565   35.7285 H         1 TYR         0.0530
    131 H24        47.5188   14.1584   39.9613 H         1 TYR         0.0530
    132 H25        48.2549   11.2611   36.0339 H         1 TYR         0.0525
    133 H26        47.9463   11.7492   40.2754 H         1 TYR         0.0525
    134 H27        47.6645    9.5995   38.7216 H         1 TYR         0.2458
    135 H28        47.3881   17.2000   34.9796 H         1 THR         0.1884
    136 H29        47.0958   19.9238   36.1695 H         1 THR         0.0826
    137 H30        47.1432   20.8579   33.8940 H         1 THR         0.0639
    138 H31        46.3290   18.9548   32.8259 H         1 THR         0.2101
    139 H32        49.5175   20.4316   33.3107 H         1 THR         0.0257
    140 H33        49.5284   19.0028   34.3993 H         1 THR         0.0257
    141 H34        49.3042   20.6496   35.0809 H         1 THR         0.0257
    142 H35        45.2379   21.0993   34.9399 H         1 TRP         0.1884
    143 H36        42.8148   19.8683   35.6095 H         1 TRP         0.0815
    144 H37        43.1297   21.9441   33.3953 H         1 TRP         0.0397
    145 H38        43.2535   22.3448   35.1420 H         1 TRP         0.0397
    146 H39        40.6803   21.7057   32.4094 H         1 TRP         0.0795
    147 H40        38.2920   21.7659   33.4246 H         1 TRP         0.2216
    148 H41        41.9816   21.7341   37.3575 H         1 TRP         0.0540
    149 H42        37.1551   21.7867   36.0220 H         1 TRP         0.0541
    150 H43        40.1922   21.7524   39.0676 H         1 TRP         0.0510
    151 H44        37.8113   21.7746   38.3983 H         1 TRP         0.0530
    152 H45        44.6046   19.8566   32.5609 H         1 GLU         0.1883
    153 H46        42.5267   18.7970   30.9316 H         1 GLU         0.0801
    154 H47        44.5591   18.1479   29.4577 H         1 GLU         0.0330
    155 H48        45.5339   18.9854   30.7127 H         1 GLU         0.0330
    156 H49        43.2986   20.1776   29.0219 H         1 GLU         0.0433
    157 H50        45.0609   20.4862   28.8618 H         1 GLU         0.0433
    158 H51        44.4771   17.1328   33.2726 H         1 HIS         0.1885
    159 H52        44.1620   14.5001   32.0648 H         1 HIS         0.0824
    160 H53        44.6563   13.7434   34.4889 H         1 HIS         0.0491
    161 H54        44.9040   15.4854   34.8506 H         1 HIS         0.0491
    162 H55        47.1094   16.4911   34.3213 H         1 HIS         0.2386
    163 H56        46.6192   12.6480   32.6795 H         1 HIS         0.0324
    164 H57        49.3804   15.8193   33.3601 H         1 HIS         0.1149
    165 H58        41.9571   16.6442   33.5281 H         1 LEU         0.1883
    166 H59        40.5296   14.5199   35.0096 H         1 LEU         0.0800
    167 H60        39.3053   16.2708   36.0767 H         1 LEU         0.0315
    168 H61        39.8600   17.4799   34.8696 H         1 LEU         0.0315
    169 H62        42.0985   17.4321   35.7746 H         1 LEU         0.0298
    170 H63        41.6125   18.3760   38.0226 H         1 LEU         0.0232
    171 H64        39.9572   17.6831   37.9434 H         1 LEU         0.0232
    172 H65        40.4547   18.9560   36.7778 H         1 LEU         0.0232
    173 H66        42.2162   15.0453   36.4331 H         1 LEU         0.0232
    174 H67        41.0868   15.3682   37.7920 H         1 LEU         0.0232
    175 H68        42.7109   16.1353   37.7724 H         1 LEU         0.0232
    176 H69        40.4631   15.4063   31.8802 H         1 ALA         0.1883
    177 H70        37.8408   16.4214   31.4681 H         1 ALA         0.0797
    178 H71        38.2874   15.8781   29.0826 H         1 ALA         0.0277
    179 H72        39.7279   14.9295   29.5841 H         1 ALA         0.0277
    180 H73        39.6773   16.7027   29.8667 H         1 ALA         0.0277
    181 H74        35.9015   15.4900   31.4798 H         1 TRP         0.1884
    182 H75        35.4231   12.6741   31.5704 H         1 TRP         0.0815
    183 H76        33.5711   14.7407   30.2870 H         1 TRP         0.0397
    184 H77        33.7498   14.5571   32.0649 H         1 TRP         0.0397
    185 H78        31.9073   13.0943   29.1180 H         1 TRP         0.0795
    186 H79        30.6193   10.9477   29.8147 H         1 TRP         0.2216
    187 H80        34.0136   12.4282   33.7381 H         1 TRP         0.0540
    188 H81        30.5287    9.2384   32.0742 H         1 TRP         0.0541
    189 H82        33.2574   10.5278   35.1273 H         1 TRP         0.0510
    190 H83        31.5766    8.9271   34.2823 H         1 TRP         0.0530
    191 H84        36.6857   11.8245   27.4122 H         1 PRO         0.0818
    192 H85        37.1649    9.6504   28.1844 H         1 PRO         0.0314
    193 H86        35.7630    9.2382   27.1397 H         1 PRO         0.0314
    194 H87        34.2588    9.2061   28.9548 H         1 PRO         0.0287
    195 H88        35.7491    8.5660   29.7268 H         1 PRO         0.0287
    196 H89        34.4306   10.7578   30.7101 H         1 PRO         0.0524
    197 H90        36.2172   10.5996   30.8094 H         1 PRO         0.0524
    198 H91        34.3022   10.8034   25.1692 H         1 PRO         0.2540
@<TRIPOS>BOND
     1    2    1 1  
     2    2    5 1  
     3    3    2 1  
     4    3    4 2  
     5    5    6 1  
     6    6    7 ar 
     7    6    8 ar 
     8   10    9 1  
     9   10   13 1  
    10   11   10 1  
    11   11   12 2  
    12    9    3 am 
    13   15   14 1  
    14   15   18 1  
    15   16   15 1  
    16   16   17 2  
    17   18   20 1  
    18   18   19 1  
    19   14   11 am 
    20   22   21 1  
    21   22   25 1  
    22   23   22 1  
    23   23   24 2  
    24   25   26 1  
    25   26   27 ar 
    26   26   28 ar 
    27   28   30 ar 
    28   30   31 ar 
    29   31   32 1  
    30   29   31 ar 
    31   27   29 ar 
    32   21   16 am 
    33   34   33 1  
    34   34   37 1  
    35   35   34 1  
    36   35   36 2  
    37   37   39 1  
    38   37   38 1  
    39   33   23 am 
    40   41   40 1  
    41   41   44 1  
    42   42   41 1  
    43   42   43 2  
    44   44   45 1  
    45   45   46 2  
    46   45   47 1  
    47   47   50 ar 
    48   47   49 ar 
    49   49   51 ar 
    50   49   48 1  
    51   46   48 1  
    52   51   53 ar 
    53   52   53 ar 
    54   50   52 ar 
    55   40   35 am 
    56   55   54 1  
    57   55   58 1  
    58   56   55 1  
    59   56   57 2  
    60   58   59 1  
    61   59   60 1  
    62   60   62 ar 
    63   60   61 ar 
    64   54   42 am 
    65   64   63 1  
    66   64   67 1  
    67   65   64 1  
    68   65   66 2  
    69   67   68 1  
    70   68   69 1  
    71   68   70 2  
    72   70   72 1  
    73   72   71 2  
    74   69   71 1  
    75   63   56 am 
    76   74   73 1  
    77   74   77 1  
    78   75   74 1  
    79   75   76 2  
    80   77   78 1  
    81   78   79 1  
    82   78   80 1  
    83   73   65 am 
    84   82   81 1  
    85   82   85 1  
    86   83   82 1  
    87   83   84 2  
    88   81   75 am 
    89   87   86 1  
    90   87   90 1  
    91   88   87 1  
    92   88   89 2  
    93   90   91 1  
    94   91   92 2  
    95   91   93 1  
    96   93   96 ar 
    97   93   95 ar 
    98   95   97 ar 
    99   95   94 1  
   100   92   94 1  
   101   97   99 ar 
   102   98   99 ar 
   103   96   98 ar 
   104   86   83 am 
   105  101  102 1  
   106  101  104 1  
   107  100  101 1  
   108  100  106 1  
   109  106  105 1  
   110  105  104 1  
   111  102  103 2  
   112   88  100 am 
   113  102  107 1  
   114    1  108 1  
   115    1  109 1  
   116    1  110 1  
   117    2  111 1  
   118    5  112 1  
   119    5  113 1  
   120    9  114 1  
   121   10  115 1  
   122   13  116 1  
   123   13  117 1  
   124   13  118 1  
   125   14  119 1  
   126   15  120 1  
   127   18  121 1  
   128   19  122 1  
   129   20  123 1  
   130   20  124 1  
   131   20  125 1  
   132   21  126 1  
   133   22  127 1  
   134   25  128 1  
   135   25  129 1  
   136   27  130 1  
   137   28  131 1  
   138   29  132 1  
   139   30  133 1  
   140   32  134 1  
   141   33  135 1  
   142   34  136 1  
   143   37  137 1  
   144   38  138 1  
   145   39  139 1  
   146   39  140 1  
   147   39  141 1  
   148   40  142 1  
   149   41  143 1  
   150   44  144 1  
   151   44  145 1  
   152   46  146 1  
   153   48  147 1  
   154   50  148 1  
   155   51  149 1  
   156   52  150 1  
   157   53  151 1  
   158   54  152 1  
   159   55  153 1  
   160   58  154 1  
   161   58  155 1  
   162   59  156 1  
   163   59  157 1  
   164   63  158 1  
   165   64  159 1  
   166   67  160 1  
   167   67  161 1  
   168   69  162 1  
   169   70  163 1  
   170   71  164 1  
   171   73  165 1  
   172   74  166 1  
   173   77  167 1  
   174   77  168 1  
   175   78  169 1  
   176   79  170 1  
   177   79  171 1  
   178   79  172 1  
   179   80  173 1  
   180   80  174 1  
   181   80  175 1  
   182   81  176 1  
   183   82  177 1  
   184   85  178 1  
   185   85  179 1  
   186   85  180 1  
   187   86  181 1  
   188   87  182 1  
   189   90  183 1  
   190   90  184 1  
   191   92  185 1  
   192   94  186 1  
   193   96  187 1  
   194   97  188 1  
   195   98  189 1  
   196   99  190 1  
   197  101  191 1  
   198  104  192 1  
   199  104  193 1  
   200  105  194 1  
   201  105  195 1  
   202  106  196 1  
   203  106  197 1  
   204  107  198 1  
@<TRIPOS>SUBSTRUCTURE
     1 ASP         1

