1jq3_ligand
  -I-interpret- 

 62 64  0  0  0  0  0  0  0  0999 V2000
   21.5780   41.0790   14.0790 N   0  3  0  0  0
   22.7460   40.4890   14.5240 C   0  0  0  0  0
   22.7760   39.0760   14.1700 C   0  0  0  0  0
   22.4580   38.8830   12.7540 C   0  0  0  0  0
   21.0460   37.7910   12.6310 S   0  0  0  0  0
   21.0340   37.2430   10.9120 C   0  0  0  0  0
   19.6960   36.7540   10.4430 C   0  0  0  0  0
   19.6780   36.7320    9.1150 O   0  0  0  0  0
   19.3830   35.3960   10.8900 C   0  0  0  0  0
   18.2600   35.5530   11.6940 O   0  0  0  0  0
   19.0260   34.5680    9.5690 C   0  0  0  0  0
   17.9960   33.5940    9.6040 O   0  0  0  0  0
   18.8480   35.7300    8.6020 C   0  0  0  0  0
   19.3350   35.5300    7.2670 N   0  0  0  0  0
   20.1150   34.5520    6.7210 C   0  0  0  0  0
   19.8700   34.2260    5.4320 N   0  0  0  0  0
   18.8730   34.9980    5.1040 C   0  0  0  0  0
   18.1520   35.1230    3.8090 C   0  0  0  0  0
   18.4770   34.3680    2.6830 N   0  0  0  0  0
   17.0850   36.0300    3.6670 N   0  0  0  0  0
   16.7850   36.7660    4.8110 C   0  0  0  0  0
   17.4070   36.7240    6.0650 N   0  0  0  0  0
   18.4790   35.8210    6.1990 C   0  0  0  0  0
   23.6410   38.2720   12.0430 C   0  0  0  0  0
   25.0800   38.7400   12.0320 C   0  0  0  0  0
   25.9720   37.9360   12.9580 C   0  0  0  0  0
   27.3170   37.4020   12.5000 C   0  0  0  0  0
   28.2250   36.6020   13.4140 C   0  0  0  0  0
   29.4990   36.0030   13.2320 N   0  3  0  0  0
   21.5774   42.0659   14.3367 H   0  0  0  0  0
   21.5193   40.9912   13.0645 H   0  0  0  0  0
   20.7784   40.6137   14.5086 H   0  0  0  0  0
   22.7967   40.5818   15.6089 H   0  0  0  0  0
   23.5940   40.9880   14.0549 H   0  0  0  0  0
   22.0339   38.5494   14.7700 H   0  0  0  0  0
   23.7773   38.6892   14.3594 H   0  0  0  0  0
   22.2280   39.8421   12.2899 H   0  0  0  0  0
   21.7317   36.4094   10.8313 H   0  0  0  0  0
   21.3015   38.1009   10.2951 H   0  0  0  0  0
   18.9603   37.4384   10.8654 H   0  0  0  0  0
   20.1806   34.8854   11.4297 H   0  0  0  0  0
   17.9872   34.6967   12.0315 H   0  0  0  0  0
   19.7894   33.8365    9.3039 H   0  0  0  0  0
   18.2194   32.9166   10.2465 H   0  0  0  0  0
   17.7772   35.9201    8.5288 H   0  0  0  0  0
   20.8977   34.0577    7.2965 H   0  0  0  0  0
   19.2402   33.6926    2.7247 H   0  0  0  0  0
   17.9516   34.4910    1.8174 H   0  0  0  0  0
   15.9561   37.4677    4.7178 H   0  0  0  0  0
   23.3632   38.4384   11.0022 H   0  0  0  0  0
   23.7366   37.3273   12.5783 H   0  0  0  0  0
   25.0950   39.7752   12.3728 H   0  0  0  0  0
   25.4604   38.6198   11.0176 H   0  0  0  0  0
   25.3912   37.0364   13.1617 H   0  0  0  0  0
   26.2281   38.6411   13.7488 H   0  0  0  0  0
   27.8929   38.3050   12.2971 H   0  0  0  0  0
   27.0544   36.6906   11.7171 H   0  0  0  0  0
   27.6217   35.6993   13.5102 H   0  0  0  0  0
   28.5027   37.3896   14.1144 H   0  0  0  0  0
   29.7847   35.5448   14.0973 H   0  0  0  0  0
   29.4452   35.3134   12.4824 H   0  0  0  0  0
   30.1794   36.7220   12.9859 H   0  0  0  0  0
  1  2  1  0  0  0
  2  3  1  0  0  0
  3  4  1  0  0  0
  4 24  1  0  0  0
  4  5  1  0  0  0
  5  6  1  0  0  0
  6  7  1  0  0  0
  7  9  1  0  0  0
  7  8  1  0  0  0
  8 13  1  0  0  0
 13 14  1  0  0  0
 13 11  1  0  0  0
 11 12  1  0  0  0
 11  9  1  0  0  0
  9 10  1  0  0  0
 14 23  4  0  0  0
 14 15  4  0  0  0
 15 16  4  0  0  0
 16 17  4  0  0  0
 17 23  4  0  0  0
 17 18  4  0  0  0
 18 20  4  0  0  0
 18 19  1  0  0  0
 20 21  4  0  0  0
 21 22  4  0  0  0
 22 23  4  0  0  0
 24 25  1  0  0  0
 25 26  1  0  0  0
 26 27  1  0  0  0
 27 28  1  0  0  0
 28 29  1  0  0  0
  1 30  1  0  0  0
  1 31  1  0  0  0
  1 32  1  0  0  0
  2 33  1  0  0  0
  2 34  1  0  0  0
  3 35  1  0  0  0
  3 36  1  0  0  0
  4 37  1  0  0  0
  6 38  1  0  0  0
  6 39  1  0  0  0
  7 40  1  0  0  0
  9 41  1  0  0  0
 10 42  1  0  0  0
 11 43  1  0  0  0
 12 44  1  0  0  0
 13 45  1  0  0  0
 15 46  1  0  0  0
 19 47  1  0  0  0
 19 48  1  0  0  0
 21 49  1  0  0  0
 24 50  1  0  0  0
 24 51  1  0  0  0
 25 52  1  0  0  0
 25 53  1  0  0  0
 26 54  1  0  0  0
 26 55  1  0  0  0
 27 56  1  0  0  0
 27 57  1  0  0  0
 28 58  1  0  0  0
 28 59  1  0  0  0
 29 60  1  0  0  0
 29 61  1  0  0  0
 29 62  1  0  0  0
M  END
$$$$
