1jn4_ligand
  -I-interpret- 

 67 71  0  0  0  0  0  0  0  0999 V2000
   38.2920   -4.5690   21.3040 P   0  0  0  0  0
   39.5180   -5.4320   21.6050 O   0  0  0  0  0
   38.6310   -3.1840   20.8300 O   0  0  0  0  0
   37.3170   -5.2440   20.2290 O   0  0  0  0  0
   36.6710   -3.1780   23.3400 P   0  0  0  0  0
   35.7040   -2.6350   22.3290 O   0  0  0  0  0
   36.1520   -3.7130   24.6280 O   0  0  0  0  0
   37.4460   -4.3870   22.6440 O   0  0  0  0  0
   36.2080   -6.0370   15.8320 N   0  0  0  0  0
   36.7040   -4.7590   15.6500 C   0  0  0  0  0
   37.6880   -4.1340   16.3470 N   0  0  0  0  0
   37.8970   -2.8860   15.8740 C   0  0  0  0  0
   37.2730   -2.2500   14.8570 N   0  0  0  0  0
   36.3030   -2.9170   14.1700 C   0  0  0  0  0
   35.7030   -2.3140   13.1430 N   0  0  0  0  0
   35.9840   -4.2330   14.5780 C   0  0  0  0  0
   35.0540   -5.1480   14.1080 N   0  0  0  0  0
   35.2170   -6.1880   14.8880 C   0  0  0  0  0
   36.9230   -6.6140   20.3560 C   0  0  0  0  0
   37.0740   -7.3420   19.0340 C   0  0  0  0  0
   36.1360   -6.8020   18.0740 O   0  0  0  0  0
   36.6090   -7.0940   16.7740 C   0  0  0  0  0
   38.0860   -7.5090   16.8650 C   0  0  0  0  0
   38.2470   -8.8820   16.5280 O   0  0  0  0  0
   38.4210   -7.2040   18.3290 C   0  0  0  0  0
   39.4730   -8.0630   18.8260 O   0  0  0  0  0
   39.5470    1.6130   21.9190 O   0  0  0  0  0
   40.1740    0.5400   22.6430 C   0  0  0  0  0
   39.1940   -0.0860   23.6090 C   0  0  0  0  0
   38.5010    0.9770   24.3210 O   0  0  0  0  0
   37.0970    0.8160   24.1780 C   0  0  0  0  0
   36.9050   -0.0220   22.9250 C   0  0  0  0  0
   38.1070   -0.9510   22.9570 C   0  0  0  0  0
   37.8550   -2.1310   23.7490 O   0  0  0  0  0
   36.4630    2.1460   24.0960 N   0  0  0  0  0
   36.9770    3.1570   23.2860 C   0  0  0  0  0
   35.2930    2.3490   24.8400 C   0  0  0  0  0
   34.8100    1.5030   25.5720 O   0  0  0  0  0
   34.7060    3.5830   24.6720 N   0  0  0  0  0
   35.1330    4.6110   23.8430 C   0  0  0  0  0
   34.3720    5.5600   23.6340 O   0  0  0  0  0
   36.3680    4.3450   23.1350 C   0  0  0  0  0
   39.2325   -6.2993   21.9015 H   0  0  0  0  0
   36.1870   -2.3300   21.5575 H   0  0  0  0  0
   38.6742   -2.3141   16.3810 H   0  0  0  0  0
   35.9717   -1.3657   12.8806 H   0  0  0  0  0
   34.9754   -2.8011   12.6198 H   0  0  0  0  0
   34.6193   -7.0950   14.7974 H   0  0  0  0  0
   35.8773   -6.6524   20.6612 H   0  0  0  0  0
   37.5601   -7.0959   21.0976 H   0  0  0  0  0
   36.9254   -8.3848   19.3144 H   0  0  0  0  0
   36.1372   -7.9668   16.3227 H   0  0  0  0  0
   38.7471   -6.9880   16.1724 H   0  0  0  0  0
   39.1751   -9.1192   16.5913 H   0  0  0  0  0
   38.8404   -6.2121   18.4972 H   0  0  0  0  0
   40.2764   -7.9060   18.3246 H   0  0  0  0  0
   40.1806    2.0001   21.3105 H   0  0  0  0  0
   41.0209    0.9364   23.2030 H   0  0  0  0  0
   40.5088   -0.2183   21.9352 H   0  0  0  0  0
   39.7922   -0.7339   24.2497 H   0  0  0  0  0
   36.6278    0.3134   25.0238 H   0  0  0  0  0
   36.8551    0.5775   22.0161 H   0  0  0  0  0
   35.9550   -0.5562   22.9122 H   0  0  0  0  0
   38.3742   -1.3223   21.9677 H   0  0  0  0  0
   37.9108    2.9766   22.7535 H   0  0  0  0  0
   33.8631    3.7617   25.2178 H   0  0  0  0  0
   36.8009    5.1041   22.4835 H   0  0  0  0  0
  1  2  1  0  0  0
  1  3  2  0  0  0
  1  4  1  0  0  0
  8  1  1  0  0  0
  4 19  1  0  0  0
  5  6  1  0  0  0
  5  7  2  0  0  0
  5  8  1  0  0  0
 34  5  1  0  0  0
  9 10  4  0  0  0
  9 18  4  0  0  0
 10 11  4  0  0  0
 10 16  4  0  0  0
 11 12  4  0  0  0
 12 13  4  0  0  0
 14 13  4  0  0  0
 14 15  1  0  0  0
 16 14  4  0  0  0
 17 16  4  0  0  0
 18 17  4  0  0  0
 19 20  1  0  0  0
 20 21  1  0  0  0
 20 25  1  0  0  0
 21 22  1  0  0  0
 22  9  1  0  0  0
 23 22  1  0  0  0
 23 24  1  0  0  0
 25 23  1  0  0  0
 25 26  1  0  0  0
 28 27  1  0  0  0
 29 28  1  0  0  0
 29 30  1  0  0  0
 33 29  1  0  0  0
 31 30  1  0  0  0
 32 31  1  0  0  0
 33 32  1  0  0  0
 34 33  1  0  0  0
 31 35  1  0  0  0
 35 36  1  0  0  0
 35 37  1  0  0  0
 36 42  2  0  0  0
 37 38  2  0  0  0
 37 39  1  0  0  0
 39 40  1  0  0  0
 40 41  2  0  0  0
 40 42  1  0  0  0
  2 43  1  0  0  0
  6 44  1  0  0  0
 12 45  1  0  0  0
 15 46  1  0  0  0
 15 47  1  0  0  0
 18 48  1  0  0  0
 19 49  1  0  0  0
 19 50  1  0  0  0
 20 51  1  0  0  0
 22 52  1  0  0  0
 23 53  1  0  0  0
 24 54  1  0  0  0
 25 55  1  0  0  0
 26 56  1  0  0  0
 27 57  1  0  0  0
 28 58  1  0  0  0
 28 59  1  0  0  0
 29 60  1  0  0  0
 31 61  1  0  0  0
 32 62  1  0  0  0
 32 63  1  0  0  0
 33 64  1  0  0  0
 36 65  1  0  0  0
 39 66  1  0  0  0
 42 67  1  0  0  0
M  END
$$$$
