2xei_ligand
  -I-interpret- 

 80 81  0  0  0  0  0  0  0  0999 V2000
   13.8580   48.6980   40.2150 O   0  0  0  0  0
   13.8130   47.4440   40.0450 C   0  0  0  0  0
   12.9960   46.8660   39.2970 O   0  0  0  0  0
   14.8560   46.5360   40.8130 C   0  0  0  0  0
   14.5740   45.0180   41.0420 C   0  0  0  0  0
   15.8840   44.2070   41.3900 C   0  0  0  0  0
   16.8710   44.4170   40.1890 C   0  0  0  0  0
   16.7740   43.6240   39.1930 O   0  0  0  0  0
   17.7270   45.3520   40.2580 O   0  0  0  0  0
   16.5830   44.7700   42.5550 N   0  0  0  0  0
   17.8350   44.4130   42.8540 C   0  0  0  0  0
   18.3320   43.3920   42.3470 O   0  0  0  0  0
   18.4540   45.1910   43.7420 N   0  0  0  0  0
   19.7960   44.9610   44.2420 C   0  0  0  0  0
   19.8960   45.5560   45.6450 C   0  0  0  0  0
   19.4160   46.7110   45.8000 O   0  0  0  0  0
   20.5170   44.8510   46.5040 O   0  0  0  0  0
   20.6690   45.8260   43.2640 C   0  0  0  0  0
   22.1130   45.3160   43.2340 C   0  0  0  0  0
   23.0570   46.4900   43.0370 C   0  0  0  0  0
   24.0150   46.2750   41.8720 C   0  0  0  0  0
   24.7260   47.5610   41.6450 N   0  0  0  0  0
   25.1310   48.3660   42.6430 C   0  0  0  0  0
   25.0110   48.0450   40.5320 N   0  0  0  0  0
   25.5910   49.1330   40.6720 N   0  0  0  0  0
   25.6940   49.3760   41.9910 C   0  0  0  0  0
   26.2810   50.4960   42.6020 C   0  0  0  0  0
   25.4330   51.6030   42.9880 O   0  0  0  0  0
   25.3380   51.6780   44.4300 C   0  0  0  0  0
   25.2900   53.1410   44.9550 C   0  0  0  0  0
   26.6030   53.5570   45.4100 O   0  0  0  0  0
   26.7750   53.2150   46.8050 C   0  0  0  0  0
   28.0000   52.3310   47.0920 C   0  0  0  0  0
   29.0940   53.1810   47.5930 N   0  0  0  0  0
   30.1790   52.7280   48.2440 C   0  0  0  0  0
   30.0740   52.0780   49.4750 C   0  0  0  0  0
   31.2230   51.6420   50.1160 C   0  0  0  0  0
   32.4800   51.8650   49.5500 C   0  0  0  0  0
   33.6230   51.4540   50.1130 N   0  0  0  0  0
   34.8510   51.6570   49.4320 O   0  0  0  0  0
   33.6620   50.6920   51.3290 O   0  0  0  0  0
   32.5800   52.5240   48.3420 C   0  0  0  0  0
   31.4430   52.9590   47.6900 C   0  0  0  0  0
   31.6050   53.5650   46.5170 N   0  0  0  0  0
   32.9100   53.7050   45.9770 O   0  0  0  0  0
   30.4760   53.9710   45.7520 O   0  0  0  0  0
   14.5632   48.9112   40.8305 H   0  0  0  0  0
   14.8865   46.9564   41.8182 H   0  0  0  0  0
   15.7412   46.5500   40.1771 H   0  0  0  0  0
   14.1597   44.6095   40.1203 H   0  0  0  0  0
   13.8873   44.9261   41.8835 H   0  0  0  0  0
   15.6073   43.1709   41.5849 H   0  0  0  0  0
   16.0636   42.9981   39.3517 H   0  0  0  0  0
   16.1018   45.4471   43.1470 H   0  0  0  0  0
   17.9490   46.0042   44.0942 H   0  0  0  0  0
   20.0863   43.9114   44.2886 H   0  0  0  0  0
   20.7676   44.0132   46.1078 H   0  0  0  0  0
   20.6671   46.8596   43.6101 H   0  0  0  0  0
   20.2492   45.7556   42.2606 H   0  0  0  0  0
   22.2332   44.6097   42.4126 H   0  0  0  0  0
   22.3431   44.8171   44.1754 H   0  0  0  0  0
   23.6496   46.6025   43.9449 H   0  0  0  0  0
   22.4563   47.3736   42.8213 H   0  0  0  0  0
   23.4701   45.9743   40.9772 H   0  0  0  0  0
   24.7241   45.4791   42.0998 H   0  0  0  0  0
   25.0238   48.2246   43.7185 H   0  0  0  0  0
   26.9567   50.9059   41.8513 H   0  0  0  0  0
   26.6997   50.1215   43.5361 H   0  0  0  0  0
   26.2249   51.2020   44.8483 H   0  0  0  0  0
   24.4132   51.1851   44.7299 H   0  0  0  0  0
   24.5906   53.1965   45.7892 H   0  0  0  0  0
   24.9691   53.7983   44.1469 H   0  0  0  0  0
   25.8933   52.6504   47.1084 H   0  0  0  0  0
   26.9179   54.1485   47.3493 H   0  0  0  0  0
   28.3136   51.8272   46.1777 H   0  0  0  0  0
   27.7454   51.5792   47.8391 H   0  0  0  0  0
   29.0228   54.1861   47.4343 H   0  0  0  0  0
   29.0963   51.9147   49.9284 H   0  0  0  0  0
   31.1448   51.1206   51.0700 H   0  0  0  0  0
   33.5605   52.7020   47.9004 H   0  0  0  0  0
  1  2  1  0  0  0
  2  3  2  0  0  0
  2  4  1  0  0  0
  4  5  1  0  0  0
  5  6  1  0  0  0
  6  7  1  0  0  0
  6 10  1  0  0  0
  7  8  1  0  0  0
  7  9  2  0  0  0
 10 11  1  0  0  0
 11 12  2  0  0  0
 11 13  1  0  0  0
 13 14  1  0  0  0
 14 15  1  0  0  0
 14 18  1  0  0  0
 15 16  2  0  0  0
 15 17  1  0  0  0
 18 19  1  0  0  0
 19 20  1  0  0  0
 20 21  1  0  0  0
 21 22  1  0  0  0
 22 23  4  0  0  0
 22 24  4  0  0  0
 23 26  4  0  0  0
 24 25  4  0  0  0
 25 26  4  0  0  0
 26 27  1  0  0  0
 27 28  1  0  0  0
 28 29  1  0  0  0
 29 30  1  0  0  0
 30 31  1  0  0  0
 31 32  1  0  0  0
 32 33  1  0  0  0
 33 34  1  0  0  0
 34 35  1  0  0  0
 35 36  4  0  0  0
 35 43  4  0  0  0
 36 37  4  0  0  0
 37 38  4  0  0  0
 38 39  1  0  0  0
 38 42  4  0  0  0
 39 40  2  0  0  0
 39 41  2  0  0  0
 42 43  4  0  0  0
 43 44  1  0  0  0
 44 45  2  0  0  0
 44 46  2  0  0  0
  1 47  1  0  0  0
  4 48  1  0  0  0
  4 49  1  0  0  0
  5 50  1  0  0  0
  5 51  1  0  0  0
  6 52  1  0  0  0
  8 53  1  0  0  0
 10 54  1  0  0  0
 13 55  1  0  0  0
 14 56  1  0  0  0
 17 57  1  0  0  0
 18 58  1  0  0  0
 18 59  1  0  0  0
 19 60  1  0  0  0
 19 61  1  0  0  0
 20 62  1  0  0  0
 20 63  1  0  0  0
 21 64  1  0  0  0
 21 65  1  0  0  0
 23 66  1  0  0  0
 27 67  1  0  0  0
 27 68  1  0  0  0
 29 69  1  0  0  0
 29 70  1  0  0  0
 30 71  1  0  0  0
 30 72  1  0  0  0
 32 73  1  0  0  0
 32 74  1  0  0  0
 33 75  1  0  0  0
 33 76  1  0  0  0
 34 77  1  0  0  0
 36 78  1  0  0  0
 37 79  1  0  0  0
 42 80  1  0  0  0
M  END
$$$$
