1yyr_ligand
  -I-interpret- 

 41 41  0  0  0  0  0  0  0  0999 V2000
  -21.6460  109.0500   16.6960 C   0  0  0  0  0
  -20.3520  109.9060   17.0620 C   0  0  0  0  0
  -22.6440  109.1430   17.9180 C   0  0  0  0  0
  -20.7080  111.4200   17.2640 C   0  0  0  0  0
  -22.9680  110.6290   18.1750 C   0  0  0  0  0
  -21.3530  107.5870   16.3380 N   0  3  0  0  0
  -18.7430  108.5760   13.7180 C   0  0  0  0  0
  -20.1210  108.2270   14.1960 C   0  0  0  0  0
  -20.1520  107.4010   15.5080 C   0  0  0  0  0
  -18.1500  109.7730   13.6090 C   0  0  0  0  0
  -18.7460  111.1240   13.9610 C   0  0  0  0  0
  -16.7430  109.8420   13.0760 C   0  0  0  0  0
  -21.1840  106.6820   17.4740 C   0  0  0  0  0
  -22.1110  111.6630   17.8700 C   0  0  0  0  0
  -22.4870  113.0900   18.1010 C   0  0  0  0  0
  -22.0829  109.4709   15.7904 H   0  0  0  0  0
  -19.6386  109.8239   16.2420 H   0  0  0  0  0
  -19.9332  109.5212   17.9919 H   0  0  0  0  0
  -22.1876  108.7034   18.8049 H   0  0  0  0  0
  -23.5598  108.5966   17.6923 H   0  0  0  0  0
  -20.6960  111.8885   16.2799 H   0  0  0  0  0
  -19.9792  111.8326   17.9617 H   0  0  0  0  0
  -23.9304  110.8748   18.6237 H   0  0  0  0  0
  -22.2024  107.3483   15.8262 H   0  0  0  0  0
  -18.1308  107.7273   13.4129 H   0  0  0  0  0
  -20.5836  107.6155   13.4213 H   0  0  0  0  0
  -20.6381  109.1655   14.3959 H   0  0  0  0  0
  -20.1326  106.3508   15.2169 H   0  0  0  0  0
  -19.3037  107.7329   16.1066 H   0  0  0  0  0
  -19.6370  111.2951   13.3570 H   0  0  0  0  0
  -19.0136  111.1375   15.0175 H   0  0  0  0  0
  -18.0138  111.9061   13.7603 H   0  0  0  0  0
  -16.0820  109.2653   13.7230 H   0  0  0  0  0
  -16.7172  109.4292   12.0675 H   0  0  0  0  0
  -16.4151  110.8813   13.0531 H   0  0  0  0  0
  -21.1037  105.6571   17.1116 H   0  0  0  0  0
  -20.2776  106.9486   18.0176 H   0  0  0  0  0
  -22.0452  106.7680   18.1367 H   0  0  0  0  0
  -23.3777  113.3284   17.5196 H   0  0  0  0  0
  -22.6913  113.2436   19.1606 H   0  0  0  0  0
  -21.6654  113.7357   17.7908 H   0  0  0  0  0
  1  2  1  0  0  0
  1  3  1  0  0  0
  6  1  1  0  0  0
  2  4  1  0  0  0
  3  5  1  0  0  0
  4 14  1  0  0  0
  5 14  2  0  0  0
  9  6  1  0  0  0
  6 13  1  0  0  0
  8  7  1  0  0  0
  7 10  2  0  0  0
  8  9  1  0  0  0
 10 11  1  0  0  0
 10 12  1  0  0  0
 14 15  1  0  0  0
  1 16  1  0  0  0
  2 17  1  0  0  0
  2 18  1  0  0  0
  3 19  1  0  0  0
  3 20  1  0  0  0
  4 21  1  0  0  0
  4 22  1  0  0  0
  5 23  1  0  0  0
  6 24  1  0  0  0
  7 25  1  0  0  0
  8 26  1  0  0  0
  8 27  1  0  0  0
  9 28  1  0  0  0
  9 29  1  0  0  0
 11 30  1  0  0  0
 11 31  1  0  0  0
 11 32  1  0  0  0
 12 33  1  0  0  0
 12 34  1  0  0  0
 12 35  1  0  0  0
 13 36  1  0  0  0
 13 37  1  0  0  0
 13 38  1  0  0  0
 15 39  1  0  0  0
 15 40  1  0  0  0
 15 41  1  0  0  0
M  END
$$$$
