5x02_ligand
  -I-interpret- 

 80 81  0  0  0  0  0  0  0  0999 V2000
  -28.8260   -1.4920   -9.6850 N   0  0  0  0  0
  -28.7290   -0.5600   -9.0030 C   0  0  0  0  0
  -28.6730    0.4580   -8.2210 C   0  0  0  0  0
  -28.7930    1.7540   -8.7520 C   0  0  0  0  0
  -28.6710    2.8410   -7.9070 C   0  0  0  0  0
  -28.4030    0.2970   -6.8890 C   0  0  0  0  0
  -28.2810    1.3970   -6.0430 C   0  0  0  0  0
  -28.4170    2.6880   -6.5480 C   0  0  0  0  0
  -28.2870    3.7340   -5.6810 N   0  0  0  0  0
  -28.4510    5.0620   -5.9230 C   0  0  0  0  0
  -28.7680    5.5470   -7.1520 N   0  0  0  0  0
  -28.9250    6.8700   -7.3640 C   0  0  0  0  0
  -29.2440    7.3390   -8.5930 N   0  0  0  0  0
  -29.4440    6.4020   -9.6760 C   0  0  0  0  0
  -28.5900    6.7620  -10.8820 C   0  0  0  0  0
  -27.1640    7.0420  -10.4620 C   0  0  0  0  0
  -28.2870    5.9070   -4.8790 N   0  0  0  0  0
  -28.4240    7.2260   -5.0030 C   0  0  0  0  0
  -28.7330    7.7910   -6.2050 C   0  0  0  0  0
  -28.8990    9.0510   -6.3870 C   0  0  0  0  0
  -28.9720   10.2160   -6.5480 C   0  0  0  0  0
  -29.2350   11.6460   -6.7640 C   0  0  0  0  0
  -29.5470   12.2800   -5.4240 C   0  0  0  0  0
  -28.3840   13.1390   -4.9440 C   0  0  0  0  0
  -28.4920   13.4250   -3.5210 N   0  0  0  0  0
  -29.2420   14.4330   -3.0560 C   0  0  0  0  0
  -30.1300   14.9510   -3.7430 O   0  0  0  0  0
  -28.9600   14.9360   -1.6620 C   0  0  0  0  0
  -29.3270   16.4170   -1.6140 C   0  0  0  0  0
  -27.5930   14.7690   -1.2430 N   0  0  0  0  0
  -26.5710   15.4970   -1.9360 C   0  0  0  0  0
  -27.3480   13.9800   -0.2020 C   0  0  0  0  0
  -28.2420   13.4090    0.4270 O   0  0  0  0  0
  -25.8880   13.8190    0.2090 C   0  0  0  0  0
  -25.6830   12.6300    1.1760 C   0  0  0  0  0
  -24.6270   12.9860    2.2390 C   0  0  0  0  0
  -25.3750   13.3360    3.4420 N   0  3  0  0  0
  -26.1330   12.3010    4.1250 C   0  0  0  0  0
  -25.3050   14.6770    3.9930 C   0  0  0  0  0
  -28.9798    1.8998   -9.8159 H   0  0  0  0  0
  -28.7767    3.8455   -8.3168 H   0  0  0  0  0
  -28.2815   -0.7076   -6.4838 H   0  0  0  0  0
  -28.0785    1.2470   -4.9825 H   0  0  0  0  0
  -28.0331    3.4868   -4.7245 H   0  0  0  0  0
  -29.3421    8.3415   -8.7533 H   0  0  0  0  0
  -30.4927    6.4318   -9.9718 H   0  0  0  0  0
  -29.1581    5.4079   -9.3323 H   0  0  0  0  0
  -29.0014    7.6557  -11.3512 H   0  0  0  0  0
  -28.5942    5.9245  -11.5797 H   0  0  0  0  0
  -27.1506    7.8745   -9.7586 H   0  0  0  0  0
  -26.7462    6.1552   -9.9854 H   0  0  0  0  0
  -26.5713    7.2973  -11.3404 H   0  0  0  0  0
  -28.2870    7.8639   -4.1299 H   0  0  0  0  0
  -30.0783   11.7727   -7.4429 H   0  0  0  0  0
  -28.3623   12.1235   -7.2094 H   0  0  0  0  0
  -29.7225   11.4891   -4.6948 H   0  0  0  0  0
  -30.4281   12.9125   -5.5325 H   0  0  0  0  0
  -28.3998   14.0821   -5.4903 H   0  0  0  0  0
  -27.4552   12.5963   -5.1200 H   0  0  0  0  0
  -27.9818   12.8409   -2.8585 H   0  0  0  0  0
  -29.5582   14.3396   -0.9731 H   0  0  0  0  0
  -28.7259   16.9627   -2.3413 H   0  0  0  0  0
  -30.3840   16.5360   -1.8519 H   0  0  0  0  0
  -29.1322   16.8061   -0.6146 H   0  0  0  0  0
  -26.5763   15.2151   -2.9889 H   0  0  0  0  0
  -26.7623   16.5661   -1.8438 H   0  0  0  0  0
  -25.6000   15.2614   -1.5004 H   0  0  0  0  0
  -25.5764   14.7301    0.7199 H   0  0  0  0  0
  -25.3007   13.6311   -0.6898 H   0  0  0  0  0
  -25.3414   11.7637    0.6094 H   0  0  0  0  0
  -26.6275   12.4061    1.6719 H   0  0  0  0  0
  -23.9965   13.8121    1.9101 H   0  0  0  0  0
  -23.9513   12.1504    2.4216 H   0  0  0  0  0
  -26.1110   13.8626    2.9714 H   0  0  0  0  0
  -26.8810   11.8922    3.4457 H   0  0  0  0  0
  -25.4569   11.5074    4.4432 H   0  0  0  0  0
  -26.6275   12.7299    4.9965 H   0  0  0  0  0
  -24.2724   14.9071    4.2556 H   0  0  0  0  0
  -25.6606   15.3922    3.2513 H   0  0  0  0  0
  -25.9296   14.7352    4.8844 H   0  0  0  0  0
  1  2  3  0  0  0
  2  3  1  0  0  0
  3  4  4  0  0  0
  3  6  4  0  0  0
  4  5  4  0  0  0
  5  8  4  0  0  0
  6  7  4  0  0  0
  7  8  4  0  0  0
  8  9  1  0  0  0
  9 10  1  0  0  0
 10 11  4  0  0  0
 10 17  4  0  0  0
 11 12  4  0  0  0
 12 13  1  0  0  0
 12 19  4  0  0  0
 13 14  1  0  0  0
 14 15  1  0  0  0
 15 16  1  0  0  0
 17 18  4  0  0  0
 18 19  4  0  0  0
 19 20  1  0  0  0
 20 21  3  0  0  0
 21 22  1  0  0  0
 22 23  1  0  0  0
 23 24  1  0  0  0
 24 25  1  0  0  0
 25 26  1  0  0  0
 26 27  2  0  0  0
 26 28  1  0  0  0
 28 29  1  0  0  0
 28 30  1  0  0  0
 30 31  1  0  0  0
 30 32  1  0  0  0
 32 33  2  0  0  0
 32 34  1  0  0  0
 34 35  1  0  0  0
 35 36  1  0  0  0
 36 37  1  0  0  0
 37 38  1  0  0  0
 37 39  1  0  0  0
  4 40  1  0  0  0
  5 41  1  0  0  0
  6 42  1  0  0  0
  7 43  1  0  0  0
  9 44  1  0  0  0
 13 45  1  0  0  0
 14 46  1  0  0  0
 14 47  1  0  0  0
 15 48  1  0  0  0
 15 49  1  0  0  0
 16 50  1  0  0  0
 16 51  1  0  0  0
 16 52  1  0  0  0
 18 53  1  0  0  0
 22 54  1  0  0  0
 22 55  1  0  0  0
 23 56  1  0  0  0
 23 57  1  0  0  0
 24 58  1  0  0  0
 24 59  1  0  0  0
 25 60  1  0  0  0
 28 61  1  0  0  0
 29 62  1  0  0  0
 29 63  1  0  0  0
 29 64  1  0  0  0
 31 65  1  0  0  0
 31 66  1  0  0  0
 31 67  1  0  0  0
 34 68  1  0  0  0
 34 69  1  0  0  0
 35 70  1  0  0  0
 35 71  1  0  0  0
 36 72  1  0  0  0
 36 73  1  0  0  0
 37 74  1  0  0  0
 38 75  1  0  0  0
 38 76  1  0  0  0
 38 77  1  0  0  0
 39 78  1  0  0  0
 39 79  1  0  0  0
 39 80  1  0  0  0
M  END
$$$$
