3v0l_ligand
  -I-interpret- 

 70 73  0  0  0  0  0  0  0  0999 V2000
   15.3570  -20.4350  -11.3140 C   0  0  0  0  0
   14.7380  -19.7840  -12.3850 C   0  0  0  0  0
   14.3570  -20.5550  -13.4870 C   0  0  0  0  0
   14.6050  -21.9270  -13.5150 C   0  0  0  0  0
   15.2410  -22.5590  -12.4330 C   0  0  0  0  0
   15.6270  -21.7760  -11.3580 C   0  0  0  0  0
   16.3550  -22.4810  -10.1640 C   0  0  0  0  0
   15.8640  -22.3680   -8.8580 C   0  0  0  0  0
   17.5230  -23.2650  -10.3790 C   0  0  0  0  0
   18.1230  -23.4500  -11.6340 O   0  0  0  0  0
   18.1810  -23.8830   -9.3720 N   0  0  0  0  0
   17.6580  -23.7590   -8.1150 C   0  0  0  0  0
   18.1900  -24.4000   -7.2090 O   0  0  0  0  0
   16.5500  -23.0680   -7.8580 N   0  0  0  0  0
   16.0750  -23.0200   -6.4440 C   0  0  0  0  0
   14.7190  -22.4630   -6.5000 O   0  0  0  0  0
   16.8750  -22.1250   -5.5790 C   0  0  0  0  0
   16.8510  -22.6610   -4.2680 O   0  0  0  0  0
   16.1410  -20.8510   -5.6880 C   0  0  0  0  0
   16.5470  -20.0170   -4.6410 O   0  0  0  0  0
   14.6900  -21.2460   -5.7130 C   0  0  0  0  0
   13.7380  -20.2550   -6.3510 C   0  0  0  0  0
   14.2570  -19.6070   -7.5100 O   0  0  0  0  0
   14.6780  -18.1330   -7.4900 P   0  0  0  0  0
   15.3400  -17.8240   -6.2090 O   0  0  0  0  0
   15.5810  -17.8160   -8.6690 O   0  0  0  0  0
   13.3270  -17.2750   -7.7030 O   0  0  0  0  0
   12.5520  -16.2650   -6.7540 P   0  0  0  0  0
   13.2860  -15.5960   -5.6700 O   0  0  0  0  0
   11.7860  -15.3230   -7.6380 O   0  0  0  0  0
   11.4710  -17.3220   -6.1980 O   0  0  0  0  0
   10.3290  -17.0520   -5.5490 C   0  0  0  0  0
    9.2490  -17.4660   -6.4520 O   0  0  0  0  0
    9.2640  -18.8190   -6.7390 C   0  0  0  0  0
    8.0260  -18.9310   -7.6400 C   0  0  0  0  0
    7.7580  -20.1910   -8.0890 O   0  0  0  0  0
    9.2930  -19.6850   -5.4680 C   0  0  0  0  0
    8.0530  -19.6820   -4.7510 O   0  0  0  0  0
   10.4130  -19.2490   -4.5430 C   0  0  0  0  0
   10.4190  -20.0060   -3.2790 O   0  0  0  0  0
   10.2190  -17.8650   -4.2880 C   0  0  0  0  0
   11.1590  -17.2920   -3.3570 O   0  0  0  0  0
   15.6299  -19.8636  -10.4268 H   0  0  0  0  0
   14.5581  -18.7092  -12.3616 H   0  0  0  0  0
   13.8611  -20.0790  -14.3329 H   0  0  0  0  0
   14.3032  -22.5136  -14.3827 H   0  0  0  0  0
   15.4250  -23.6333  -12.4397 H   0  0  0  0  0
   14.9870  -21.7623   -8.6297 H   0  0  0  0  0
   19.0317  -24.4191   -9.5432 H   0  0  0  0  0
   16.1438  -24.0226   -6.0219 H   0  0  0  0  0
   17.9255  -22.0064   -5.8447 H   0  0  0  0  0
   17.3642  -22.0980   -3.6839 H   0  0  0  0  0
   16.3373  -20.2614   -6.5835 H   0  0  0  0  0
   16.0772  -19.1818   -4.6981 H   0  0  0  0  0
   14.3073  -21.3289   -4.6958 H   0  0  0  0  0
   13.5389  -19.4793   -5.6115 H   0  0  0  0  0
   12.8554  -20.8131   -6.6634 H   0  0  0  0  0
   15.1240  -18.0269   -9.4865 H   0  0  0  0  0
   11.3328  -15.8235   -8.3204 H   0  0  0  0  0
   10.2852  -15.9967   -5.2798 H   0  0  0  0  0
   10.1549  -19.2009   -7.2376 H   0  0  0  0  0
    8.2174  -18.3156   -8.5191 H   0  0  0  0  0
    7.1698  -18.6192   -7.0419 H   0  0  0  0  0
    6.9733  -20.1724   -8.6417 H   0  0  0  0  0
    9.4679  -20.7057   -5.8083 H   0  0  0  0  0
    8.1337  -20.2373   -3.9721 H   0  0  0  0  0
   11.3763  -19.4403   -5.0158 H   0  0  0  0  0
   11.1412  -19.6983   -2.7265 H   0  0  0  0  0
    9.2190  -17.8228   -3.8563 H   0  0  0  0  0
   11.1266  -17.7793   -2.5305 H   0  0  0  0  0
  1  2  4  0  0  0
  1  6  4  0  0  0
  2  3  4  0  0  0
  3  4  4  0  0  0
  4  5  4  0  0  0
  5  6  4  0  0  0
  6  7  1  0  0  0
  7  8  2  0  0  0
  7  9  1  0  0  0
  8 14  1  0  0  0
  9 10  2  0  0  0
  9 11  1  0  0  0
 11 12  1  0  0  0
 12 13  2  0  0  0
 12 14  1  0  0  0
 14 15  1  0  0  0
 15 16  1  0  0  0
 15 17  1  0  0  0
 16 21  1  0  0  0
 17 18  1  0  0  0
 17 19  1  0  0  0
 19 20  1  0  0  0
 19 21  1  0  0  0
 21 22  1  0  0  0
 22 23  1  0  0  0
 23 24  1  0  0  0
 24 25  2  0  0  0
 24 26  1  0  0  0
 24 27  1  0  0  0
 27 28  1  0  0  0
 28 29  2  0  0  0
 28 30  1  0  0  0
 28 31  1  0  0  0
 31 32  1  0  0  0
 32 33  1  0  0  0
 32 41  1  0  0  0
 33 34  1  0  0  0
 34 35  1  0  0  0
 34 37  1  0  0  0
 35 36  1  0  0  0
 37 38  1  0  0  0
 37 39  1  0  0  0
 39 40  1  0  0  0
 39 41  1  0  0  0
 41 42  1  0  0  0
  1 43  1  0  0  0
  2 44  1  0  0  0
  3 45  1  0  0  0
  4 46  1  0  0  0
  5 47  1  0  0  0
  8 48  1  0  0  0
 11 49  1  0  0  0
 15 50  1  0  0  0
 17 51  1  0  0  0
 18 52  1  0  0  0
 19 53  1  0  0  0
 20 54  1  0  0  0
 21 55  1  0  0  0
 22 56  1  0  0  0
 22 57  1  0  0  0
 26 58  1  0  0  0
 30 59  1  0  0  0
 32 60  1  0  0  0
 34 61  1  0  0  0
 35 62  1  0  0  0
 35 63  1  0  0  0
 36 64  1  0  0  0
 37 65  1  0  0  0
 38 66  1  0  0  0
 39 67  1  0  0  0
 40 68  1  0  0  0
 41 69  1  0  0  0
 42 70  1  0  0  0
M  END
$$$$
