### 
### Created by X-TOOL on Mon Sep 10 21:13:12 2018
### 

@<TRIPOS>MOLECULE
3v0l_ligand
   68    71     1     0     0
SMALL
GAST_HUCK


@<TRIPOS>ATOM
      1 CAP        15.3570  -20.4350  -11.3140 C.ar      1 2GW        -0.0686
      2 CAN        14.7380  -19.7840  -12.3850 C.ar      1 2GW        -0.0722
      3 CAM        14.3570  -20.5550  -13.4870 C.ar      1 2GW        -0.0716
      4 CAO        14.6050  -21.9270  -13.5150 C.ar      1 2GW        -0.0722
      5 CAQ        15.2410  -22.5590  -12.4330 C.ar      1 2GW        -0.0686
      6 CBA        15.6270  -21.7760  -11.3580 C.ar      1 2GW        -0.0386
      7 CBB        16.3550  -22.4810  -10.1640 C.2       1 2GW         0.0621
      8 CAR        15.8640  -22.3680   -8.8580 C.2       1 2GW         0.0803
      9 CBC        17.5230  -23.2650  -10.3790 C.2       1 2GW         0.2004
     10 OAA        18.1230  -23.4500  -11.6340 O.2       1 2GW        -0.4047
     11 NAU        18.1810  -23.8830   -9.3720 N.am      1 2GW        -0.1828
     12 CBD        17.6580  -23.7590   -8.1150 C.2       1 2GW         0.3389
     13 OAB        18.1900  -24.4000   -7.2090 O.2       1 2GW        -0.3783
     14 NBN        16.5500  -23.0680   -7.8580 N.am      1 2GW        -0.1508
     15 C1'        16.0750  -23.0200   -6.4440 C.3       1 2GW         0.2095
     16 O4'        14.7190  -22.4630   -6.5000 O.3       1 2GW        -0.3355
     17 C2'        16.8750  -22.1250   -5.5790 C.3       1 2GW         0.1397
     18 O2'        16.8510  -22.6610   -4.2680 O.3       1 2GW        -0.3835
     19 C3'        16.1410  -20.8510   -5.6880 C.3       1 2GW         0.1150
     20 O3'        16.5470  -20.0170   -4.6410 O.3       1 2GW        -0.3864
     21 C4'        14.6900  -21.2460   -5.7130 C.3       1 2GW         0.1190
     22 C5'        13.7380  -20.2550   -6.3510 C.3       1 2GW         0.1128
     23 O5'        14.2570  -19.6070   -7.5100 O.3       1 2GW        -0.2476
     24 PBO        14.6780  -18.1330   -7.4900 P.3       1 2GW         0.2972
     25 OAK        15.3400  -17.8240   -6.2090 O.co2     1 2GW        -0.6127
     26 OAC        15.5810  -17.8160   -8.6690 O.co2     1 2GW        -0.6127
     27 OAZ        13.3270  -17.2750   -7.7030 O.3       1 2GW        -0.1318
     28 PBP        12.5520  -16.2650   -6.7540 P.3       1 2GW         0.2997
     29 OAL        13.2860  -15.5960   -5.6700 O.co2     1 2GW        -0.6127
     30 OAD        11.7860  -15.3230   -7.6380 O.co2     1 2GW        -0.6127
     31 O1         11.4710  -17.3220   -6.1980 O.3       1 2GW        -0.2154
     32 C1         10.3290  -17.0520   -5.5490 C.3       1 2GW         0.2226
     33 O5          9.2490  -17.4660   -6.4520 O.3       1 2GW        -0.3364
     34 C5          9.2640  -18.8190   -6.7390 C.3       1 2GW         0.1133
     35 C6          8.0260  -18.9310   -7.6400 C.3       1 2GW         0.0730
     36 O6          7.7580  -20.1910   -8.0890 O.3       1 2GW        -0.3924
     37 C4          9.2930  -19.6850   -5.4680 C.3       1 2GW         0.1119
     38 O4          8.0530  -19.6820   -4.7510 O.3       1 2GW        -0.3865
     39 C3         10.4130  -19.2490   -4.5430 C.3       1 2GW         0.1144
     40 O3         10.4190  -20.0060   -3.2790 O.3       1 2GW        -0.3864
     41 C2         10.2190  -17.8650   -4.2880 C.3       1 2GW         0.1392
     42 O2         11.1590  -17.2920   -3.3570 O.3       1 2GW        -0.3837
     43 H1         15.6284  -19.8668  -10.4317 H         1 2GW         0.0531
     44 H2         14.5591  -18.7151  -12.3617 H         1 2GW         0.0591
     45 H3         13.8638  -20.0816  -14.3283 H         1 2GW         0.0535
     46 H4         14.3049  -22.5104  -14.3779 H         1 2GW         0.0591
     47 H5         15.4240  -23.6274  -12.4396 H         1 2GW         0.0531
     48 H6         14.9878  -21.7628   -8.6300 H         1 2GW         0.1259
     49 H7         19.0150  -24.4086   -9.5398 H         1 2GW         0.2264
     50 H8         16.0700  -24.0343   -6.0184 H         1 2GW         0.1010
     51 H9         17.9126  -22.0204   -5.9290 H         1 2GW         0.0677
     52 H10        17.2251  -23.5343   -4.2772 H         1 2GW         0.2101
     53 H11        16.3849  -20.3487   -6.6357 H         1 2GW         0.0648
     54 H12        16.0821  -19.1905   -4.6975 H         1 2GW         0.2100
     55 H13        14.3434  -21.4459   -4.6883 H         1 2GW         0.0651
     56 H14        13.4927  -19.4839   -5.6058 H         1 2GW         0.0648
     57 H15        12.8221  -20.7925   -6.6377 H         1 2GW         0.0648
     58 H16        10.2620  -15.9793   -5.3147 H         1 2GW         0.0999
     59 H17        10.1605  -19.0748   -7.3228 H         1 2GW         0.0647
     60 H18         8.1791  -18.2814   -8.5144 H         1 2GW         0.0584
     61 H19         7.1542  -18.5784   -7.0693 H         1 2GW         0.0584
     62 H20         7.6105  -20.7657   -7.3470 H         1 2GW         0.2095
     63 H21         9.4929  -20.7202   -5.7817 H         1 2GW         0.0647
     64 H22         7.3637  -20.0187   -5.3113 H         1 2GW         0.2100
     65 H23        11.3792  -19.4005   -5.0466 H         1 2GW         0.0648
     66 H24        11.1337  -19.7015   -2.7322 H         1 2GW         0.2100
     67 H25         9.2067  -17.7471   -3.8742 H         1 2GW         0.0675
     68 H26        12.0404  -17.3902   -3.6978 H         1 2GW         0.2101
@<TRIPOS>BOND
     1    1    2 ar 
     2    1    6 ar 
     3    2    3 ar 
     4    3    4 ar 
     5    4    5 ar 
     6    5    6 ar 
     7    6    7 1  
     8    7    8 2  
     9    7    9 1  
    10    8   14 1  
    11    9   10 2  
    12    9   11 am 
    13   11   12 am 
    14   12   13 2  
    15   12   14 am 
    16   14   15 1  
    17   15   16 1  
    18   15   17 1  
    19   16   21 1  
    20   17   18 1  
    21   17   19 1  
    22   19   20 1  
    23   19   21 1  
    24   21   22 1  
    25   22   23 1  
    26   23   24 1  
    27   24   25 ar 
    28   24   26 ar 
    29   24   27 1  
    30   27   28 1  
    31   28   29 ar 
    32   28   30 ar 
    33   28   31 1  
    34   31   32 1  
    35   32   33 1  
    36   32   41 1  
    37   33   34 1  
    38   34   35 1  
    39   34   37 1  
    40   35   36 1  
    41   37   38 1  
    42   37   39 1  
    43   39   40 1  
    44   39   41 1  
    45   41   42 1  
    46    1   43 1  
    47    2   44 1  
    48    3   45 1  
    49    4   46 1  
    50    5   47 1  
    51    8   48 1  
    52   11   49 1  
    53   15   50 1  
    54   17   51 1  
    55   18   52 1  
    56   19   53 1  
    57   20   54 1  
    58   21   55 1  
    59   22   56 1  
    60   22   57 1  
    61   32   58 1  
    62   34   59 1  
    63   35   60 1  
    64   35   61 1  
    65   36   62 1  
    66   37   63 1  
    67   38   64 1  
    68   39   65 1  
    69   40   66 1  
    70   41   67 1  
    71   42   68 1  
@<TRIPOS>SUBSTRUCTURE
     1 2GW         1

