4idz_ligand
  -I-interpret- 

 15 14  0  0  0  0  0  0  0  0999 V2000
   30.2850   -7.7200  -24.0200 C   0  0  0  0  0
   31.2630   -6.9030  -23.2710 C   0  0  0  0  0
   32.9340   -6.7150  -21.4960 C   0  0  0  0  0
   33.9060   -7.5900  -20.7800 C   0  0  0  0  0
   30.4350   -8.9750  -24.1000 O   0  0  0  0  0
   29.3010   -7.0940  -24.5250 O   0  0  0  0  0
   31.3590   -5.7150  -23.5350 O   0  0  0  0  0
   34.5180   -7.1380  -19.7770 O   0  0  0  0  0
   32.0210   -7.5100  -22.2380 N   0  0  0  0  0
   34.1050   -8.7840  -21.1660 O   0  0  0  0  0
   33.4758   -6.0597  -22.1780 H   0  0  0  0  0
   32.3825   -6.1203  -20.7678 H   0  0  0  0  0
   29.3926   -6.1559  -24.3431 H   0  0  0  0  0
   31.9121   -8.5028  -22.0310 H   0  0  0  0  0
   33.5629   -8.9642  -21.9375 H   0  0  0  0  0
  2  1  1  0  0  0
  1  5  2  0  0  0
  1  6  1  0  0  0
  2  7  2  0  0  0
  9  2  1  0  0  0
  3  4  1  0  0  0
  3  9  1  0  0  0
  4  8  2  0  0  0
  4 10  1  0  0  0
  3 11  1  0  0  0
  3 12  1  0  0  0
  6 13  1  0  0  0
  9 14  1  0  0  0
 10 15  1  0  0  0
M  END
$$$$
