1uz4_ligand
  -I-interpret- 

 22 22  0  0  0  0  0  0  0  0999 V2000
   73.7830   13.6110   34.8480 O   0  0  0  0  0
   74.1710   12.7470   33.8070 C   0  0  0  0  0
   73.0980   12.9000   32.6800 C   0  0  0  0  0
   72.1200   11.8380   32.7920 O   0  0  0  0  0
   73.6370   12.7820   31.2260 C   0  0  0  0  0
   74.8610   12.2400   31.0840 N   0  0  0  0  0
   75.8340   12.0650   32.1660 C   0  0  0  0  0
   75.5890   13.0490   33.3080 C   0  0  0  0  0
   76.7530   12.9580   34.3400 C   0  0  0  0  0
   76.7790   11.6340   34.9250 O   0  0  0  0  0
   72.8590   12.9750   30.2750 O   0  0  0  0  0
   72.8928   13.3897   35.1310 H   0  0  0  0  0
   74.2131   11.7150   34.1551 H   0  0  0  0  0
   72.7023   13.9043   32.8315 H   0  0  0  0  0
   71.7389   11.8471   33.6730 H   0  0  0  0  0
   75.1321   11.9271   30.1518 H   0  0  0  0  0
   76.8312   12.2452   31.7645 H   0  0  0  0  0
   75.7353   11.0524   32.5571 H   0  0  0  0  0
   75.6094   14.1020   33.0271 H   0  0  0  0  0
   76.6004   13.6985   35.1251 H   0  0  0  0  0
   77.7002   13.1507   33.8363 H   0  0  0  0  0
   77.4967   11.5801   35.5603 H   0  0  0  0  0
  1  2  1  0  0  0
  2  3  1  0  0  0
  2  8  1  0  0  0
  3  4  1  0  0  0
  3  5  1  0  0  0
  5  6  1  0  0  0
  5 11  2  0  0  0
  6  7  1  0  0  0
  7  8  1  0  0  0
  8  9  1  0  0  0
  9 10  1  0  0  0
  1 12  1  0  0  0
  2 13  1  0  0  0
  3 14  1  0  0  0
  4 15  1  0  0  0
  6 16  1  0  0  0
  7 17  1  0  0  0
  7 18  1  0  0  0
  8 19  1  0  0  0
  9 20  1  0  0  0
  9 21  1  0  0  0
 10 22  1  0  0  0
M  END
$$$$
