2zz2_ligand
  -I-interpret- 

 37 38  0  0  0  0  0  0  0  0999 V2000
   25.8050  -15.4430    9.0620 O   0  0  0  0  0
   24.4900  -16.1550    8.8290 P   0  0  0  0  0
   23.3070  -15.2400    8.7140 O   0  0  0  0  0
   24.5930  -17.1590    7.6890 O   0  0  0  0  0
   24.1170  -17.0330   10.1690 O   0  0  0  0  0
   25.1600  -17.6320   10.9430 C   0  0  0  0  0
   24.4090  -18.2730   12.1140 C   0  0  0  0  0
   23.8780  -17.2370   13.0910 C   0  0  0  0  0
   22.7500  -17.8640   13.7770 O   0  0  0  0  0
   25.0390  -17.0990   14.0880 C   0  0  0  0  0
   24.5610  -16.6630   15.3590 O   0  0  0  0  0
   25.3610  -19.0800   12.8470 O   0  0  0  0  0
   25.5680  -18.5160   14.1690 C   0  0  0  0  0
   27.0110  -18.5990   14.5000 N   0  0  0  0  0
   27.3750  -19.3010   15.6280 C   0  0  0  0  0
   28.7370  -19.4050   15.9670 C   0  0  0  0  0
   29.6780  -18.8040   15.1420 C   0  0  0  0  0
   30.9340  -18.8710   15.3240 O   0  0  0  0  0
   29.2650  -18.1350   14.0230 N   0  0  0  0  0
   27.9490  -18.0470   13.7040 C   0  0  0  0  0
   27.6390  -17.3830   12.6930 O   0  0  0  0  0
   26.7500  -20.6300   15.6300 C   0  0  0  0  0
   26.3720  -21.7260   15.5170 N   0  0  0  0  0
   26.5113  -16.0902    9.1245 H   0  0  0  0  0
   25.3665  -17.7122    7.8202 H   0  0  0  0  0
   25.9070  -16.9088   11.2701 H   0  0  0  0  0
   25.7423  -18.3556   10.3724 H   0  0  0  0  0
   23.5714  -18.8420   11.7105 H   0  0  0  0  0
   23.5687  -16.2895   12.6498 H   0  0  0  0  0
   22.3775  -17.2452   14.4094 H   0  0  0  0  0
   25.7910  -16.3692   13.7880 H   0  0  0  0  0
   25.2995  -16.5829   15.9671 H   0  0  0  0  0
   25.0489  -19.0457   14.9678 H   0  0  0  0  0
   26.9933  -18.6566   16.4199 H   0  0  0  0  0
   28.9596  -20.4710   15.9204 H   0  0  0  0  0
   28.8304  -18.8914   16.9239 H   0  0  0  0  0
   29.9580  -17.6947   13.4178 H   0  0  0  0  0
  1  2  1  0  0  0
  2  3  2  0  0  0
  2  4  1  0  0  0
  2  5  1  0  0  0
  5  6  1  0  0  0
  6  7  1  0  0  0
  7  8  1  0  0  0
  7 12  1  0  0  0
  8  9  1  0  0  0
  8 10  1  0  0  0
 10 11  1  0  0  0
 10 13  1  0  0  0
 12 13  1  0  0  0
 13 14  1  0  0  0
 14 15  1  0  0  0
 14 20  1  0  0  0
 15 16  1  0  0  0
 15 22  1  0  0  0
 16 17  1  0  0  0
 17 18  2  0  0  0
 17 19  1  0  0  0
 19 20  1  0  0  0
 20 21  2  0  0  0
 22 23  3  0  0  0
  1 24  1  0  0  0
  4 25  1  0  0  0
  6 26  1  0  0  0
  6 27  1  0  0  0
  7 28  1  0  0  0
  8 29  1  0  0  0
  9 30  1  0  0  0
 10 31  1  0  0  0
 11 32  1  0  0  0
 13 33  1  0  0  0
 15 34  1  0  0  0
 16 35  1  0  0  0
 16 36  1  0  0  0
 19 37  1  0  0  0
M  END
$$$$
