1nw5_ligand
  -I-interpret- 

 51 53  0  0  0  0  0  0  0  0999 V2000
   26.5530   16.9510    0.1820 N   0  3  0  0  0
   26.6910   16.9820   -1.2790 C   0  0  0  0  0
   26.7070   15.5780   -1.9060 C   0  0  0  0  0
   26.8530   15.4790   -3.1280 O   0  0  0  0  0
   26.5610   14.6140   -1.1460 O   0  0  0  0  0
   27.9940   17.6990   -1.7220 C   0  0  0  0  0
   27.9200   19.2490   -1.5940 C   0  0  0  0  0
   29.4590   20.1320   -2.0780 S   0  0  0  0  0
   30.5550   19.9410   -0.6360 C   0  0  0  0  0
   29.0000   21.8750   -2.1740 C   0  0  0  0  0
   28.1210   22.2410   -3.3800 C   0  0  0  0  0
   27.7670   23.6090   -3.3560 O   0  0  0  0  0
   28.7410   21.9740   -4.7670 C   0  0  0  0  0
   28.0630   20.9470   -5.4800 O   0  0  0  0  0
   28.8200   23.3610   -5.4010 C   0  0  0  0  0
   28.4440   23.3480   -6.7790 O   0  0  0  0  0
   27.7070   24.1130   -4.6670 C   0  0  0  0  0
   27.8700   25.5720   -4.5350 N   0  0  0  0  0
   28.9550   26.3660   -4.3770 C   0  0  0  0  0
   28.6560   27.6680   -4.2810 N   0  0  0  0  0
   27.2640   27.7470   -4.3810 C   0  0  0  0  0
   26.2800   28.7290   -4.3590 C   0  0  0  0  0
   26.5870   30.0440   -4.2040 N   0  0  0  0  0
   24.9470   28.4030   -4.4920 N   0  0  0  0  0
   24.5890   27.1090   -4.6490 C   0  0  0  0  0
   25.4790   26.0980   -4.6800 N   0  0  0  0  0
   26.7890   26.4310   -4.5440 C   0  0  0  0  0
   25.6869   16.4729    0.4304 H   0  0  0  0  0
   27.3458   16.4529    0.5867 H   0  0  0  0  0
   26.5307   17.9056    0.5405 H   0  0  0  0  0
   25.8154   17.5288   -1.6289 H   0  0  0  0  0
   26.4664   14.9301   -0.2445 H   0  0  0  0  0
   28.1579   17.4633   -2.7735 H   0  0  0  0  0
   28.7972   17.3532   -1.0712 H   0  0  0  0  0
   27.7422   19.4731   -0.5422 H   0  0  0  0  0
   27.1339   19.5867   -2.2693 H   0  0  0  0  0
   30.0836   20.3887    0.2389 H   0  0  0  0  0
   30.7311   18.8810   -0.4529 H   0  0  0  0  0
   31.5040   20.4394   -0.8340 H   0  0  0  0  0
   29.9256   22.4423   -2.2718 H   0  0  0  0  0
   28.4208   22.1007   -1.2787 H   0  0  0  0  0
   27.2620   21.5800   -3.2645 H   0  0  0  0  0
   29.7405   21.5397   -4.7461 H   0  0  0  0  0
   28.4848   20.8190   -6.3328 H   0  0  0  0  0
   29.8270   23.7727   -5.3334 H   0  0  0  0  0
   28.5082   24.2371   -7.1354 H   0  0  0  0  0
   26.7875   23.9667   -5.2337 H   0  0  0  0  0
   29.9743   25.9824   -4.3322 H   0  0  0  0  0
   27.5600   30.3317   -4.1001 H   0  0  0  0  0
   25.8443   30.7431   -4.1916 H   0  0  0  0  0
   23.5303   26.8723   -4.7555 H   0  0  0  0  0
  1  2  1  0  0  0
  2  3  1  0  0  0
  2  6  1  0  0  0
  3  4  2  0  0  0
  3  5  1  0  0  0
  6  7  1  0  0  0
  7  8  1  0  0  0
  8  9  1  0  0  0
  8 10  1  0  0  0
 10 11  1  0  0  0
 11 12  1  0  0  0
 11 13  1  0  0  0
 12 17  1  0  0  0
 13 14  1  0  0  0
 13 15  1  0  0  0
 15 16  1  0  0  0
 15 17  1  0  0  0
 17 18  1  0  0  0
 18 19  4  0  0  0
 18 27  4  0  0  0
 19 20  4  0  0  0
 20 21  4  0  0  0
 21 22  4  0  0  0
 21 27  4  0  0  0
 22 23  1  0  0  0
 22 24  4  0  0  0
 24 25  4  0  0  0
 25 26  4  0  0  0
 26 27  4  0  0  0
  1 28  1  0  0  0
  1 29  1  0  0  0
  1 30  1  0  0  0
  2 31  1  0  0  0
  5 32  1  0  0  0
  6 33  1  0  0  0
  6 34  1  0  0  0
  7 35  1  0  0  0
  7 36  1  0  0  0
  9 37  1  0  0  0
  9 38  1  0  0  0
  9 39  1  0  0  0
 10 40  1  0  0  0
 10 41  1  0  0  0
 11 42  1  0  0  0
 13 43  1  0  0  0
 14 44  1  0  0  0
 15 45  1  0  0  0
 16 46  1  0  0  0
 17 47  1  0  0  0
 19 48  1  0  0  0
 23 49  1  0  0  0
 23 50  1  0  0  0
 25 51  1  0  0  0
M  END
$$$$
