1lf9_ligand
  -I-interpret- 

 88 91  0  0  0  0  0  0  0  0999 V2000
   38.9720   45.5220   32.6710 C   0  0  0  0  0
   40.3550   45.1300   33.2820 C   0  0  0  0  0
   40.9460   43.8720   32.5900 C   0  0  0  0  0
   39.9780   42.5970   32.6900 C   0  0  0  0  0
   38.4560   42.9740   32.7050 C   0  0  0  0  0
   37.4250   41.8500   32.7540 C   0  0  0  0  0
   38.0160   44.3090   32.6830 C   0  0  0  0  0
   41.1950   46.2590   33.1940 O   0  0  0  0  0
   42.1850   43.5350   33.1630 O   0  0  0  0  0
   40.3270   41.7550   31.6080 O   0  0  0  0  0
   37.1730   41.4940   34.1240 O   0  0  0  0  0
   37.3070   49.5950   29.4660 C   0  0  0  0  0
   38.4440   49.7870   30.4940 C   0  0  0  0  0
   39.2840   48.4810   30.6370 C   0  0  0  0  0
   38.3420   47.3430   31.0980 C   0  0  0  0  0
   37.2100   47.1560   29.9780 C   0  0  0  0  0
   36.1930   46.0830   30.3070 C   0  0  0  0  0
   39.1100   46.0700   31.2790 N   0  3  0  0  0
   39.2470   50.8950   30.0820 O   0  0  0  0  0
   40.3230   48.7140   31.5970 O   0  0  0  0  0
   36.4630   48.4450   29.8120 O   0  0  0  0  0
   36.3480   50.1490   24.2130 C   0  0  0  0  0
   35.3100   50.3710   25.3650 C   0  0  0  0  0
   36.1230   50.5710   26.6870 C   0  0  0  0  0
   36.9530   49.2520   26.9650 C   0  0  0  0  0
   37.9080   49.0570   25.8050 C   0  0  0  0  0
   38.7020   47.7490   25.9940 C   0  0  0  0  0
   34.5300   51.5160   25.0660 O   0  0  0  0  0
   35.2010   50.7860   27.7190 O   0  0  0  0  0
   37.8040   49.3280   28.1650 O   0  0  0  0  0
   37.1460   48.9750   24.5340 O   0  0  0  0  0
   39.8840   47.7890   25.2420 O   0  0  0  0  0
   38.8550   54.0150   21.1980 C   0  0  0  0  0
   37.3070   54.0130   21.3880 C   0  0  0  0  0
   36.9640   53.3950   22.7730 C   0  0  0  0  0
   37.4970   51.9410   22.8280 C   0  0  0  0  0
   39.0410   51.9720   22.6440 C   0  0  0  0  0
   39.6420   50.5430   22.6700 C   0  0  0  0  0
   39.4710   54.8610   22.1470 O   0  0  0  0  0
   36.8280   55.3550   21.2820 O   0  0  0  0  0
   35.5510   53.3920   22.9370 O   0  0  0  0  0
   37.1970   51.3120   24.1300 O   0  0  0  0  0
   39.3810   52.6240   21.3370 O   0  0  0  0  0
   38.9510   49.6520   21.7980 O   0  0  0  0  0
   38.5503   46.3124   33.2919 H   0  0  0  0  0
   40.2490   44.8487   34.3297 H   0  0  0  0  0
   41.0644   44.1299   31.5376 H   0  0  0  0  0
   40.1182   42.0846   33.6418 H   0  0  0  0  0
   37.8064   40.9820   32.2162 H   0  0  0  0  0
   36.4983   42.1850   32.2882 H   0  0  0  0  0
   36.9426   44.4982   32.6739 H   0  0  0  0  0
   40.7786   47.0016   33.6375 H   0  0  0  0  0
   42.7763   44.2895   33.1106 H   0  0  0  0  0
   41.2655   41.5570   31.6479 H   0  0  0  0  0
   36.5245   40.7869   34.1556 H   0  0  0  0  0
   36.7438   50.5281   29.4839 H   0  0  0  0  0
   38.0276   50.0000   31.4786 H   0  0  0  0  0
   39.7411   48.1947   29.6898 H   0  0  0  0  0
   37.8875   47.5960   32.0559 H   0  0  0  0  0
   37.7328   46.8538   29.0706 H   0  0  0  0  0
   36.7005   45.1247   30.4170 H   0  0  0  0  0
   35.6874   46.3369   31.2386 H   0  0  0  0  0
   35.4618   46.0180   29.5013 H   0  0  0  0  0
   38.7401   45.3790   30.6262 H   0  0  0  0  0
   40.0966   46.2661   31.1099 H   0  0  0  0  0
   39.9584   51.0254   30.7132 H   0  0  0  0  0
   40.8498   47.9176   31.6963 H   0  0  0  0  0
   35.8440   49.9987   23.2583 H   0  0  0  0  0
   34.6346   49.5224   25.4735 H   0  0  0  0  0
   36.8073   51.4165   26.6161 H   0  0  0  0  0
   36.2275   48.4497   27.0993 H   0  0  0  0  0
   38.5944   49.9030   25.7702 H   0  0  0  0  0
   38.0931   46.9096   25.6582 H   0  0  0  0  0
   38.9530   47.6325   27.0483 H   0  0  0  0  0
   33.8910   51.6587   25.7680 H   0  0  0  0  0
   35.6718   50.9125   28.5460 H   0  0  0  0  0
   40.3695   46.9704   25.3673 H   0  0  0  0  0
   39.0848   54.3903   20.2008 H   0  0  0  0  0
   36.8232   53.4115   20.6185 H   0  0  0  0  0
   37.4254   53.9792   23.5692 H   0  0  0  0  0
   37.0140   51.3642   22.0393 H   0  0  0  0  0
   39.4659   52.5411   23.4709 H   0  0  0  0  0
   39.5562   50.1576   23.6860 H   0  0  0  0  0
   40.6787   50.6052   22.3391 H   0  0  0  0  0
   40.4218   54.8495   22.0148 H   0  0  0  0  0
   35.8750   55.3635   21.3978 H   0  0  0  0  0
   35.3298   53.0118   23.7903 H   0  0  0  0  0
   39.3547   48.7823   21.8455 H   0  0  0  0  0
  1  2  1  0  0  0
  1  7  1  0  0  0
 18  1  1  0  0  0
  2  3  1  0  0  0
  2  8  1  0  0  0
  3  4  1  0  0  0
  3  9  1  0  0  0
  5  4  1  0  0  0
  4 10  1  0  0  0
  5  6  1  0  0  0
  7  5  2  0  0  0
  6 11  1  0  0  0
 12 13  1  0  0  0
 13 14  1  0  0  0
 14 15  1  0  0  0
 16 15  1  0  0  0
 15 18  1  0  0  0
 16 17  1  0  0  0
 21 16  1  0  0  0
 13 19  1  0  0  0
 14 20  1  0  0  0
 12 21  1  0  0  0
 22 23  1  0  0  0
 22 31  1  0  0  0
 42 22  1  0  0  0
 23 24  1  0  0  0
 23 28  1  0  0  0
 24 25  1  0  0  0
 24 29  1  0  0  0
 26 25  1  0  0  0
 25 30  1  0  0  0
 26 27  1  0  0  0
 31 26  1  0  0  0
 27 32  1  0  0  0
 30 12  1  0  0  0
 34 33  1  0  0  0
 33 39  1  0  0  0
 35 34  1  0  0  0
 34 40  1  0  0  0
 36 35  1  0  0  0
 35 41  1  0  0  0
 36 37  1  0  0  0
 42 36  1  0  0  0
 37 38  1  0  0  0
 37 43  1  0  0  0
 38 44  1  0  0  0
 43 33  1  0  0  0
  1 45  1  0  0  0
  2 46  1  0  0  0
  3 47  1  0  0  0
  4 48  1  0  0  0
  6 49  1  0  0  0
  6 50  1  0  0  0
  7 51  1  0  0  0
  8 52  1  0  0  0
  9 53  1  0  0  0
 10 54  1  0  0  0
 11 55  1  0  0  0
 12 56  1  0  0  0
 13 57  1  0  0  0
 14 58  1  0  0  0
 15 59  1  0  0  0
 16 60  1  0  0  0
 17 61  1  0  0  0
 17 62  1  0  0  0
 17 63  1  0  0  0
 18 64  1  0  0  0
 18 65  1  0  0  0
 19 66  1  0  0  0
 20 67  1  0  0  0
 22 68  1  0  0  0
 23 69  1  0  0  0
 24 70  1  0  0  0
 25 71  1  0  0  0
 26 72  1  0  0  0
 27 73  1  0  0  0
 27 74  1  0  0  0
 28 75  1  0  0  0
 29 76  1  0  0  0
 32 77  1  0  0  0
 33 78  1  0  0  0
 34 79  1  0  0  0
 35 80  1  0  0  0
 36 81  1  0  0  0
 37 82  1  0  0  0
 38 83  1  0  0  0
 38 84  1  0  0  0
 39 85  1  0  0  0
 40 86  1  0  0  0
 41 87  1  0  0  0
 44 88  1  0  0  0
M  END
$$$$
