### 
### Created by X-TOOL on Mon Sep 10 21:13:15 2018
### 

@<TRIPOS>MOLECULE
4hs8_ligand
  192   194     1     0     0
SMALL
GAST_HUCK


@<TRIPOS>ATOM
      1 N         -13.1460  -23.9210  -33.5540 N.4       1 GLN         0.2380
      2 CA        -13.3000  -24.6980  -34.7990 C.3       1 GLN         0.0671
      3 C         -12.0050  -24.7070  -35.6590 C.2       1 GLN         0.2269
      4 O         -11.9890  -25.2080  -36.7840 O.2       1 GLN        -0.3907
      5 CB        -14.5680  -24.2830  -35.5780 C.3       1 GLN         0.0247
      6 CG        -15.8740  -24.5590  -34.8030 C.3       1 GLN         0.0443
      7 CD        -17.1340  -24.0220  -35.4590 C.2       1 GLN         0.1738
      8 OE1       -17.4240  -24.2830  -36.6330 O.2       1 GLN        -0.3973
      9 NE2       -17.9580  -23.3240  -34.6880 N.am      1 GLN        -0.3009
     10 N         -10.9100  -24.1810  -35.0690 N.am      1 LEU        -0.2610
     11 CA         -9.5430  -24.1810  -35.5860 C.3       1 LEU         0.1313
     12 C          -8.7700  -25.2660  -34.8420 C.2       1 LEU         0.2039
     13 O          -9.0130  -25.4990  -33.6480 O.2       1 LEU        -0.3944
     14 CB         -8.8630  -22.8280  -35.3620 C.3       1 LEU        -0.0101
     15 CG         -9.2780  -21.6990  -36.2790 C.3       1 LEU        -0.0425
     16 CD1        -8.9790  -20.3580  -35.6440 C.3       1 LEU        -0.0625
     17 CD2        -8.6080  -21.8220  -37.6190 C.3       1 LEU        -0.0625
     18 N          -7.8410  -25.9180  -35.5430 N.am      1 ILE        -0.2635
     19 CA         -7.0460  -27.0300  -35.0220 C.3       1 ILE         0.1335
     20 C          -5.5500  -26.9170  -35.3520 C.2       1 ILE         0.2043
     21 O          -5.1720  -26.4400  -36.4250 O.2       1 ILE        -0.3944
     22 CB         -7.6790  -28.3950  -35.4790 C.3       1 ILE        -0.0037
     23 CG1        -6.9780  -29.6410  -34.8770 C.3       1 ILE        -0.0491
     24 CG2        -7.8070  -28.4860  -36.9890 C.3       1 ILE        -0.0582
     25 CD1        -7.8300  -30.8750  -34.7600 C.3       1 ILE        -0.0648
     26 N          -4.7090  -27.3770  -34.4180 N.am      1 ASN        -0.2616
     27 CA         -3.2620  -27.4040  -34.5590 C.3       1 ASN         0.1476
     28 C          -2.8300  -28.8460  -34.3280 C.2       1 ASN         0.2063
     29 O          -2.9230  -29.3410  -33.2110 O.2       1 ASN        -0.3942
     30 CB         -2.6150  -26.4380  -33.5480 C.3       1 ASN         0.0773
     31 CG         -1.1440  -26.1940  -33.7420 C.2       1 ASN         0.1780
     32 OD1        -0.3690  -27.1160  -33.9840 O.2       1 ASN        -0.3970
     33 ND2        -0.7040  -24.9470  -33.5520 N.am      1 ASN        -0.3007
     34 N          -2.4220  -29.5390  -35.3900 N.am      1 THR        -0.2612
     35 CA         -1.9730  -30.9340  -35.3030 C.3       1 THR         0.1565
     36 C          -0.6060  -31.0890  -35.9450 C.2       1 THR         0.2066
     37 O          -0.0370  -32.1840  -35.9350 O.2       1 THR        -0.3943
     38 CB         -3.0080  -31.9060  -35.9220 C.3       1 THR         0.0924
     39 OG1        -3.4410  -31.4540  -37.2170 O.3       1 THR        -0.3874
     40 CG2        -4.1970  -32.1630  -35.0040 C.3       1 THR        -0.0346
     41 N          -0.0690  -29.9800  -36.4780 N.am      1 ASN        -0.2615
     42 CA          1.2010  -29.9500  -37.2050 C.3       1 ASN         0.1476
     43 C           2.1100  -28.7730  -36.7970 C.2       1 ASN         0.2061
     44 O           3.1090  -28.5100  -37.4800 O.2       1 ASN        -0.3942
     45 CB          0.9030  -29.8820  -38.7120 C.3       1 ASN         0.0773
     46 CG          0.0840  -28.6700  -39.1140 C.2       1 ASN         0.1780
     47 OD1        -0.6220  -28.0430  -38.3000 O.2       1 ASN        -0.3970
     48 ND2         0.1520  -28.3150  -40.3860 N.am      1 ASN        -0.3007
     49 N           1.7690  -28.0850  -35.7070 N.am      1 GLY        -0.2663
     50 CA          2.5430  -26.9360  -35.2510 C.3       1 GLY         0.1201
     51 C           2.1360  -25.6370  -35.9250 C.2       1 GLY         0.2008
     52 O           2.9460  -24.7130  -36.0280 O.2       1 GLY        -0.3947
     53 N           0.8600  -25.5490  -36.3610 N.am      1 SER        -0.2618
     54 CA          0.2410  -24.3900  -37.0200 C.3       1 SER         0.1539
     55 C          -1.2870  -24.5200  -37.0070 C.2       1 SER         0.2063
     56 O          -1.8110  -25.6190  -36.8590 O.2       1 SER        -0.3943
     57 CB          0.7430  -24.2480  -38.4560 C.3       1 SER         0.0843
     58 OG          0.5950  -25.4640  -39.1730 O.3       1 SER        -0.3903
     59 N          -1.9980  -23.4020  -37.1640 N.am      1 TRP        -0.2626
     60 CA         -3.4600  -23.3800  -37.1560 C.3       1 TRP         0.1352
     61 C          -4.0960  -23.5420  -38.5370 C.2       1 TRP         0.2053
     62 O          -3.7270  -22.8530  -39.5010 O.2       1 TRP        -0.3942
     63 CB         -3.9800  -22.1190  -36.4460 C.3       1 TRP         0.0042
     64 CG         -3.5380  -22.0800  -35.0200 C.2       1 TRP        -0.0418
     65 CD1        -2.4180  -21.4830  -34.5310 C.2       1 TRP         0.0167
     66 CD2        -4.0990  -22.8310  -33.9380 C.ar      1 TRP        -0.0214
     67 NE1        -2.2570  -21.7910  -33.2070 N.pl3     1 TRP        -0.2890
     68 CE2        -3.2860  -22.6020  -32.8080 C.ar      1 TRP         0.0603
     69 CE3        -5.2260  -23.6670  -33.8070 C.ar      1 TRP        -0.0747
     70 CZ2        -3.5600  -23.1750  -31.5650 C.ar      1 TRP        -0.0443
     71 CZ3        -5.4940  -24.2350  -32.5760 C.ar      1 TRP        -0.0792
     72 CH2        -4.6630  -23.9940  -31.4750 C.ar      1 TRP        -0.0768
     73 N          -5.0620  -24.4630  -38.6150 N.am      1 HIS        -0.2618
     74 CA         -5.8340  -24.7250  -39.8200 C.3       1 HIS         0.1421
     75 C          -7.3230  -24.8960  -39.5070 C.2       1 HIS         0.2060
     76 O          -7.6980  -25.3000  -38.3950 O.2       1 HIS        -0.3942
     77 CB         -5.2500  -25.8690  -40.6640 C.3       1 HIS         0.0427
     78 CG         -5.5510  -27.2470  -40.1670 C.2       1 HIS         0.0561
     79 ND1        -4.6910  -27.9070  -39.3020 N.pl3     1 HIS        -0.2623
     80 CD2        -6.5810  -28.0700  -40.4740 C.2       1 HIS        -0.0276
     81 CE1        -5.2220  -29.1040  -39.1130 C.2       1 HIS         0.0875
     82 NE2        -6.3590  -29.2500  -39.8020 N.2       1 HIS        -0.3437
     83 N          -8.1610  -24.5470  -40.4940 N.am      1 ILE        -0.2633
     84 CA         -9.6180  -24.5900  -40.3960 C.3       1 ILE         0.1335
     85 C         -10.1550  -26.0220  -40.4860 C.2       1 ILE         0.2037
     86 O         -10.0650  -26.6470  -41.5390 O.2       1 ILE        -0.3944
     87 CB        -10.2710  -23.5570  -41.3790 C.3       1 ILE        -0.0037
     88 CG1       -11.6800  -23.1150  -40.9560 C.3       1 ILE        -0.0491
     89 CG2       -10.1380  -23.8970  -42.8750 C.3       1 ILE        -0.0582
     90 CD1       -11.6700  -21.7940  -40.1250 C.3       1 ILE        -0.0648
     91 N         -10.6180  -26.5650  -39.3420 N.am      1 ASN        -0.2674
     92 CA        -11.2070  -27.9090  -39.2050 C.3       1 ASN         0.1110
     93 C         -11.6140  -28.1510  -37.7590 C.2       1 ASN         0.0624
     94 O         -12.4571  -29.0434  -37.4756 O.co2     1 ASN        -0.5665
     95 CB        -10.2610  -29.0310  -39.7010 C.3       1 ASN         0.0718
     96 CG        -10.9100  -30.0770  -40.5950 C.2       1 ASN         0.1774
     97 OD1       -12.1400  -30.1730  -40.7210 O.2       1 ASN        -0.3971
     98 ND2       -10.0840  -30.8960  -41.2400 N.am      1 ASN        -0.3007
     99 O         -11.1051  -27.4552  -36.8400 O.co2     1 ASN        -0.5665
    100 H1        -14.0090  -23.9455  -33.0337 H         1 GLN         0.2015
    101 H2        -12.9171  -22.9658  -33.7802 H         1 GLN         0.2015
    102 H3        -12.4068  -24.3210  -32.9976 H         1 GLN         0.2015
    103 H4        -13.4623  -25.7417  -34.4919 H         1 GLN         0.1100
    104 H5        -14.5971  -24.8444  -36.5235 H         1 GLN         0.0370
    105 H6        -14.5097  -23.2058  -35.7928 H         1 GLN         0.0370
    106 H7        -15.7844  -24.0987  -33.8080 H         1 GLN         0.0506
    107 H8        -15.9831  -25.6482  -34.6947 H         1 GLN         0.0506
    108 H9        -18.8020  -22.9477  -35.0702 H         1 GLN         0.1814
    109 H10       -17.7350  -23.1742  -33.7248 H         1 GLN         0.1814
    110 H11       -11.0499  -23.7434  -34.1808 H         1 LEU         0.1884
    111 H12        -9.5576  -24.4034  -36.6632 H         1 LEU         0.0800
    112 H13        -7.7797  -22.9752  -35.4838 H         1 LEU         0.0315
    113 H14        -9.0767  -22.5144  -34.3295 H         1 LEU         0.0315
    114 H15       -10.3647  -21.7678  -36.4347 H         1 LEU         0.0298
    115 H16        -9.2879  -19.5523  -36.3262 H         1 LEU         0.0232
    116 H17        -7.8997  -20.2780  -35.4471 H         1 LEU         0.0232
    117 H18        -9.5321  -20.2691  -34.6973 H         1 LEU         0.0232
    118 H19        -8.8415  -22.8037  -38.0569 H         1 LEU         0.0232
    119 H20        -7.5193  -21.7255  -37.4949 H         1 LEU         0.0232
    120 H21        -8.9729  -21.0269  -38.2858 H         1 LEU         0.0232
    121 H22        -7.6774  -25.6278  -36.4859 H         1 ILE         0.1883
    122 H23        -7.1229  -26.9921  -33.9254 H         1 ILE         0.0803
    123 H24        -8.7044  -28.4022  -35.0808 H         1 ILE         0.0345
    124 H25        -6.6256  -29.3767  -33.8691 H         1 ILE         0.0267
    125 H26        -6.1156  -29.8849  -35.5148 H         1 ILE         0.0267
    126 H27        -8.3082  -27.5838  -37.3695 H         1 ILE         0.0235
    127 H28        -8.3997  -29.3740  -37.2539 H         1 ILE         0.0235
    128 H29        -6.8059  -28.5661  -37.4377 H         1 ILE         0.0235
    129 H30        -7.2353  -31.6911  -34.3237 H         1 ILE         0.0230
    130 H31        -8.1838  -31.1723  -35.7582 H         1 ILE         0.0230
    131 H32        -8.6939  -30.6641  -34.1125 H         1 ILE         0.0230
    132 H33        -5.1017  -27.7252  -33.5668 H         1 ASN         0.1885
    133 H34        -2.9792  -27.0946  -35.5760 H         1 ASN         0.0826
    134 H35        -2.7603  -26.8538  -32.5400 H         1 ASN         0.0551
    135 H36        -3.1326  -25.4704  -33.6236 H         1 ASN         0.0551
    136 H37         0.2664  -24.7359  -33.6694 H         1 ASN         0.1814
    137 H38        -1.3450  -24.2247  -33.2924 H         1 ASN         0.1814
    138 H39        -2.4215  -29.0903  -36.2837 H         1 THR         0.1884
    139 H40        -1.8746  -31.1895  -34.2376 H         1 THR         0.0826
    140 H41        -2.4978  -32.8699  -36.0656 H         1 THR         0.0639
    141 H42        -4.0734  -32.0684  -37.5705 H         1 THR         0.2101
    142 H43        -4.8954  -32.8572  -35.4943 H         1 THR         0.0257
    143 H44        -4.7107  -31.2131  -34.7946 H         1 THR         0.0257
    144 H45        -3.8432  -32.6043  -34.0606 H         1 THR         0.0257
    145 H46        -0.5682  -29.1201  -36.3716 H         1 ASN         0.1885
    146 H47         1.7406  -30.8844  -36.9912 H         1 ASN         0.0826
    147 H48         0.3479  -30.7875  -38.9981 H         1 ASN         0.0551
    148 H49         1.8593  -29.8513  -39.2548 H         1 ASN         0.0551
    149 H50        -0.3653  -27.5240  -40.7127 H         1 ASN         0.1814
    150 H51         0.7208  -28.8375  -41.0212 H         1 ASN         0.1814
    151 H52         0.9610  -28.3643  -35.1883 H         1 GLY         0.1881
    152 H53         3.6058  -27.1229  -35.4645 H         1 GLY         0.0763
    153 H54         2.4007  -26.8266  -34.1658 H         1 GLY         0.0763
    154 H55         0.2797  -26.3514  -36.2216 H         1 SER         0.1884
    155 H56         0.5199  -23.4838  -36.4624 H         1 SER         0.0823
    156 H57         1.8068  -23.9688  -38.4385 H         1 SER         0.0606
    157 H58         0.1655  -23.4604  -38.9620 H         1 SER         0.0606
    158 H59        -0.3229  -25.7079  -39.1946 H         1 SER         0.2097
    159 H60        -1.5086  -22.5395  -37.2931 H         1 TRP         0.1884
    160 H61        -3.7842  -24.2455  -36.5596 H         1 TRP         0.0815
    161 H62        -5.0794  -22.1154  -36.4809 H         1 TRP         0.0397
    162 H63        -3.5937  -21.2298  -36.9656 H         1 TRP         0.0397
    163 H64        -1.7460  -20.8509  -35.1096 H         1 TRP         0.0795
    164 H65        -1.4858  -21.4651  -32.6071 H         1 TRP         0.2216
    165 H66        -5.8709  -23.8610  -34.6564 H         1 TRP         0.0540
    166 H67        -2.9293  -22.9827  -30.7046 H         1 TRP         0.0541
    167 H68        -6.3602  -24.8765  -32.4610 H         1 TRP         0.0510
    168 H69        -4.8944  -24.4649  -30.5264 H         1 TRP         0.0530
    169 H70        -5.2656  -25.0028  -37.7982 H         1 HIS         0.1885
    170 H71        -5.7536  -23.8206  -40.4410 H         1 HIS         0.0824
    171 H72        -4.1570  -25.7484  -40.6903 H         1 HIS         0.0491
    172 H73        -5.6535  -25.7796  -41.6834 H         1 HIS         0.0491
    173 H74        -3.8198  -27.5413  -38.8919 H         1 HIS         0.2386
    174 H75        -7.4225  -27.8422  -41.1266 H         1 HIS         0.0324
    175 H76        -4.7879  -29.8736  -38.4765 H         1 HIS         0.1149
    176 H77        -7.7612  -24.2360  -41.3562 H         1 ILE         0.1883
    177 H78        -9.8736  -24.2425  -39.3842 H         1 ILE         0.0803
    178 H79        -9.6573  -22.6520  -41.2594 H         1 ILE         0.0345
    179 H80       -12.1309  -23.9116  -40.3460 H         1 ILE         0.0267
    180 H81       -12.2863  -22.9578  -41.8602 H         1 ILE         0.0267
    181 H82        -9.1035  -24.2022  -43.0911 H         1 ILE         0.0235
    182 H83       -10.3923  -23.0117  -43.4763 H         1 ILE         0.0235
    183 H84       -10.8231  -24.7201  -43.1263 H         1 ILE         0.0235
    184 H85       -12.7008  -21.5258  -39.8503 H         1 ILE         0.0230
    185 H86       -11.2288  -20.9857  -40.7266 H         1 ILE         0.0230
    186 H87       -11.0734  -21.9394  -39.2124 H         1 ILE         0.0230
    187 H88       -10.5564  -26.0072  -38.5143 H         1 ASN         0.1877
    188 H89       -12.1144  -27.9415  -39.8259 H         1 ASN         0.0752
    189 H90        -9.8503  -29.5445  -38.8192 H         1 ASN         0.0544
    190 H91        -9.4425  -28.5611  -40.2659 H         1 ASN         0.0544
    191 H92       -10.4517  -31.6044  -41.8425 H         1 ASN         0.1814
    192 H93        -9.0953  -30.8034  -41.1225 H         1 ASN         0.1814
@<TRIPOS>BOND
     1    1    2 1  
     2    2    3 1  
     3    2    5 1  
     4    3    4 2  
     5    3   10 am 
     6    5    6 1  
     7    6    7 1  
     8    7    8 2  
     9    7    9 am 
    10   10   11 1  
    11   11   12 1  
    12   11   14 1  
    13   12   13 2  
    14   12   18 am 
    15   14   15 1  
    16   15   16 1  
    17   15   17 1  
    18   18   19 1  
    19   19   20 1  
    20   19   22 1  
    21   20   21 2  
    22   20   26 am 
    23   22   23 1  
    24   22   24 1  
    25   23   25 1  
    26   26   27 1  
    27   27   28 1  
    28   27   30 1  
    29   28   29 2  
    30   28   34 am 
    31   30   31 1  
    32   31   32 2  
    33   31   33 am 
    34   34   35 1  
    35   35   36 1  
    36   35   38 1  
    37   36   37 2  
    38   36   41 am 
    39   38   39 1  
    40   38   40 1  
    41   41   42 1  
    42   42   43 1  
    43   42   45 1  
    44   43   44 2  
    45   43   49 am 
    46   45   46 1  
    47   46   47 2  
    48   46   48 am 
    49   49   50 1  
    50   50   51 1  
    51   51   52 2  
    52   51   53 am 
    53   53   54 1  
    54   54   55 1  
    55   54   57 1  
    56   55   56 2  
    57   55   59 am 
    58   57   58 1  
    59   59   60 1  
    60   60   61 1  
    61   60   63 1  
    62   61   62 2  
    63   61   73 am 
    64   63   64 1  
    65   64   65 2  
    66   64   66 1  
    67   65   67 1  
    68   66   68 ar 
    69   66   69 ar 
    70   67   68 1  
    71   68   70 ar 
    72   69   71 ar 
    73   70   72 ar 
    74   71   72 ar 
    75   73   74 1  
    76   74   75 1  
    77   74   77 1  
    78   75   76 2  
    79   75   83 am 
    80   77   78 1  
    81   78   79 1  
    82   78   80 2  
    83   79   81 1  
    84   80   82 1  
    85   81   82 2  
    86   83   84 1  
    87   84   85 1  
    88   84   87 1  
    89   85   86 2  
    90   85   91 am 
    91   87   88 1  
    92   87   89 1  
    93   88   90 1  
    94   91   92 1  
    95   92   93 1  
    96   92   95 1  
    97   93   94 ar 
    98   95   96 1  
    99   96   97 2  
   100   96   98 am 
   101   93   99 ar 
   102    1  100 1  
   103    1  101 1  
   104    1  102 1  
   105    2  103 1  
   106    5  104 1  
   107    5  105 1  
   108    6  106 1  
   109    6  107 1  
   110    9  108 1  
   111    9  109 1  
   112   10  110 1  
   113   11  111 1  
   114   14  112 1  
   115   14  113 1  
   116   15  114 1  
   117   16  115 1  
   118   16  116 1  
   119   16  117 1  
   120   17  118 1  
   121   17  119 1  
   122   17  120 1  
   123   18  121 1  
   124   19  122 1  
   125   22  123 1  
   126   23  124 1  
   127   23  125 1  
   128   24  126 1  
   129   24  127 1  
   130   24  128 1  
   131   25  129 1  
   132   25  130 1  
   133   25  131 1  
   134   26  132 1  
   135   27  133 1  
   136   30  134 1  
   137   30  135 1  
   138   33  136 1  
   139   33  137 1  
   140   34  138 1  
   141   35  139 1  
   142   38  140 1  
   143   39  141 1  
   144   40  142 1  
   145   40  143 1  
   146   40  144 1  
   147   41  145 1  
   148   42  146 1  
   149   45  147 1  
   150   45  148 1  
   151   48  149 1  
   152   48  150 1  
   153   49  151 1  
   154   50  152 1  
   155   50  153 1  
   156   53  154 1  
   157   54  155 1  
   158   57  156 1  
   159   57  157 1  
   160   58  158 1  
   161   59  159 1  
   162   60  160 1  
   163   63  161 1  
   164   63  162 1  
   165   65  163 1  
   166   67  164 1  
   167   69  165 1  
   168   70  166 1  
   169   71  167 1  
   170   72  168 1  
   171   73  169 1  
   172   74  170 1  
   173   77  171 1  
   174   77  172 1  
   175   79  173 1  
   176   80  174 1  
   177   81  175 1  
   178   83  176 1  
   179   84  177 1  
   180   87  178 1  
   181   88  179 1  
   182   88  180 1  
   183   89  181 1  
   184   89  182 1  
   185   89  183 1  
   186   90  184 1  
   187   90  185 1  
   188   90  186 1  
   189   91  187 1  
   190   92  188 1  
   191   95  189 1  
   192   95  190 1  
   193   98  191 1  
   194   98  192 1  
@<TRIPOS>SUBSTRUCTURE
     1 GLN         1

