4hs8_ligand
  -I-interpret- 

191193  0  0  0  0  0  0  0  0999 V2000
  -13.1460  -23.9210  -33.5540 N   0  3  0  0  0
  -13.3000  -24.6980  -34.7990 C   0  0  0  0  0
  -12.0050  -24.7070  -35.6590 C   0  0  0  0  0
  -11.9890  -25.2080  -36.7840 O   0  0  0  0  0
  -14.5680  -24.2830  -35.5780 C   0  0  0  0  0
  -15.8740  -24.5590  -34.8030 C   0  0  0  0  0
  -17.1340  -24.0220  -35.4590 C   0  0  0  0  0
  -17.4240  -24.2830  -36.6330 O   0  0  0  0  0
  -17.9580  -23.3240  -34.6880 N   0  0  0  0  0
  -10.9100  -24.1810  -35.0690 N   0  0  0  0  0
   -9.5430  -24.1810  -35.5860 C   0  0  0  0  0
   -8.7700  -25.2660  -34.8420 C   0  0  0  0  0
   -9.0130  -25.4990  -33.6480 O   0  0  0  0  0
   -8.8630  -22.8280  -35.3620 C   0  0  0  0  0
   -9.2780  -21.6990  -36.2790 C   0  0  0  0  0
   -8.9790  -20.3580  -35.6440 C   0  0  0  0  0
   -8.6080  -21.8220  -37.6190 C   0  0  0  0  0
   -7.8410  -25.9180  -35.5430 N   0  0  0  0  0
   -7.0460  -27.0300  -35.0220 C   0  0  0  0  0
   -5.5500  -26.9170  -35.3520 C   0  0  0  0  0
   -5.1720  -26.4400  -36.4250 O   0  0  0  0  0
   -7.6790  -28.3950  -35.4790 C   0  0  0  0  0
   -6.9780  -29.6410  -34.8770 C   0  0  0  0  0
   -7.8070  -28.4860  -36.9890 C   0  0  0  0  0
   -7.8300  -30.8750  -34.7600 C   0  0  0  0  0
   -4.7090  -27.3770  -34.4180 N   0  0  0  0  0
   -3.2620  -27.4040  -34.5590 C   0  0  0  0  0
   -2.8300  -28.8460  -34.3280 C   0  0  0  0  0
   -2.9230  -29.3410  -33.2110 O   0  0  0  0  0
   -2.6150  -26.4380  -33.5480 C   0  0  0  0  0
   -1.1440  -26.1940  -33.7420 C   0  0  0  0  0
   -0.3690  -27.1160  -33.9840 O   0  0  0  0  0
   -0.7040  -24.9470  -33.5520 N   0  0  0  0  0
   -2.4220  -29.5390  -35.3900 N   0  0  0  0  0
   -1.9730  -30.9340  -35.3030 C   0  0  0  0  0
   -0.6060  -31.0890  -35.9450 C   0  0  0  0  0
   -0.0370  -32.1840  -35.9350 O   0  0  0  0  0
   -3.0080  -31.9060  -35.9220 C   0  0  0  0  0
   -3.4410  -31.4540  -37.2170 O   0  0  0  0  0
   -4.1970  -32.1630  -35.0040 C   0  0  0  0  0
   -0.0690  -29.9800  -36.4780 N   0  0  0  0  0
    1.2010  -29.9500  -37.2050 C   0  0  0  0  0
    2.1100  -28.7730  -36.7970 C   0  0  0  0  0
    3.1090  -28.5100  -37.4800 O   0  0  0  0  0
    0.9030  -29.8820  -38.7120 C   0  0  0  0  0
    0.0840  -28.6700  -39.1140 C   0  0  0  0  0
   -0.6220  -28.0430  -38.3000 O   0  0  0  0  0
    0.1520  -28.3150  -40.3860 N   0  0  0  0  0
    1.7690  -28.0850  -35.7070 N   0  0  0  0  0
    2.5430  -26.9360  -35.2510 C   0  0  0  0  0
    2.1360  -25.6370  -35.9250 C   0  0  0  0  0
    2.9460  -24.7130  -36.0280 O   0  0  0  0  0
    0.8600  -25.5490  -36.3610 N   0  0  0  0  0
    0.2410  -24.3900  -37.0200 C   0  0  0  0  0
   -1.2870  -24.5200  -37.0070 C   0  0  0  0  0
   -1.8110  -25.6190  -36.8590 O   0  0  0  0  0
    0.7430  -24.2480  -38.4560 C   0  0  0  0  0
    0.5950  -25.4640  -39.1730 O   0  0  0  0  0
   -1.9980  -23.4020  -37.1640 N   0  0  0  0  0
   -3.4600  -23.3800  -37.1560 C   0  0  0  0  0
   -4.0960  -23.5420  -38.5370 C   0  0  0  0  0
   -3.7270  -22.8530  -39.5010 O   0  0  0  0  0
   -3.9800  -22.1190  -36.4460 C   0  0  0  0  0
   -3.5380  -22.0800  -35.0200 C   0  0  0  0  0
   -2.4180  -21.4830  -34.5310 C   0  0  0  0  0
   -4.0990  -22.8310  -33.9380 C   0  0  0  0  0
   -2.2570  -21.7910  -33.2070 N   0  0  0  0  0
   -3.2860  -22.6020  -32.8080 C   0  0  0  0  0
   -5.2260  -23.6670  -33.8070 C   0  0  0  0  0
   -3.5600  -23.1750  -31.5650 C   0  0  0  0  0
   -5.4940  -24.2350  -32.5760 C   0  0  0  0  0
   -4.6630  -23.9940  -31.4750 C   0  0  0  0  0
   -5.0620  -24.4630  -38.6150 N   0  0  0  0  0
   -5.8340  -24.7250  -39.8200 C   0  0  0  0  0
   -7.3230  -24.8960  -39.5070 C   0  0  0  0  0
   -7.6980  -25.3000  -38.3950 O   0  0  0  0  0
   -5.2500  -25.8690  -40.6640 C   0  0  0  0  0
   -5.5510  -27.2470  -40.1670 C   0  0  0  0  0
   -4.6910  -27.9070  -39.3020 N   0  0  0  0  0
   -6.5810  -28.0700  -40.4740 C   0  0  0  0  0
   -5.2220  -29.1040  -39.1130 C   0  0  0  0  0
   -6.3590  -29.2500  -39.8020 N   0  0  0  0  0
   -8.1610  -24.5470  -40.4940 N   0  0  0  0  0
   -9.6180  -24.5900  -40.3960 C   0  0  0  0  0
  -10.1550  -26.0220  -40.4860 C   0  0  0  0  0
  -10.0650  -26.6470  -41.5390 O   0  0  0  0  0
  -10.2710  -23.5570  -41.3790 C   0  0  0  0  0
  -11.6800  -23.1150  -40.9560 C   0  0  0  0  0
  -10.1380  -23.8970  -42.8750 C   0  0  0  0  0
  -11.6700  -21.7940  -40.1250 C   0  0  0  0  0
  -10.6180  -26.5650  -39.3420 N   0  0  0  0  0
  -11.2070  -27.9090  -39.2050 C   0  0  0  0  0
  -11.6140  -28.1510  -37.7590 C   0  0  0  0  0
  -12.4571  -29.0434  -37.4756 O   0  0  0  0  0
  -10.2610  -29.0310  -39.7010 C   0  0  0  0  0
  -10.9100  -30.0770  -40.5950 C   0  0  0  0  0
  -12.1400  -30.1730  -40.7210 O   0  0  0  0  0
  -10.0840  -30.8960  -41.2400 N   0  0  0  0  0
  -11.1051  -27.4552  -36.8400 O   0  0  0  0  0
  -12.3008  -24.2223  -33.0690 H   0  0  0  0  0
  -13.0743  -22.9290  -33.7804 H   0  0  0  0  0
  -13.9569  -24.0765  -32.9551 H   0  0  0  0  0
  -13.4539  -25.7396  -34.5170 H   0  0  0  0  0
  -14.5984  -24.8690  -36.4965 H   0  0  0  0  0
  -14.5099  -23.2093  -35.7563 H   0  0  0  0  0
  -15.7813  -24.0564  -33.8403 H   0  0  0  0  0
  -15.9846  -25.6420  -34.7476 H   0  0  0  0  0
  -18.8477  -22.9929  -35.0610 H   0  0  0  0  0
  -17.7017  -23.1186  -33.7223 H   0  0  0  0  0
  -11.0527  -23.7347  -34.1630 H   0  0  0  0  0
   -9.5598  -24.3688  -36.6596 H   0  0  0  0  0
   -7.8014  -22.9911  -35.5480 H   0  0  0  0  0
   -9.1413  -22.5151  -34.3556 H   0  0  0  0  0
  -10.3544  -21.7667  -36.4366 H   0  0  0  0  0
   -9.5276  -20.2712  -34.7061 H   0  0  0  0  0
   -7.9094  -20.2800  -35.4493 H   0  0  0  0  0
   -9.2855  -19.5605  -36.3209 H   0  0  0  0  0
   -7.5265  -21.7878  -37.4875 H   0  0  0  0  0
   -8.8896  -22.7692  -38.0790 H   0  0  0  0  0
   -8.9238  -20.9979  -38.2587 H   0  0  0  0  0
   -7.6742  -25.6220  -36.5047 H   0  0  0  0  0
   -7.0812  -26.9866  -33.9334 H   0  0  0  0  0
   -8.6874  -28.4014  -35.0653 H   0  0  0  0  0
   -6.6850  -29.3706  -33.8625 H   0  0  0  0  0
   -6.1610  -29.8927  -35.5532 H   0  0  0  0  0
   -8.4444  -27.6778  -37.3477 H   0  0  0  0  0
   -6.8193  -28.3998  -37.4419 H   0  0  0  0  0
   -8.2489  -29.4455  -37.2577 H   0  0  0  0  0
   -8.6856  -30.6647  -34.1182 H   0  0  0  0  0
   -8.1800  -31.1685  -35.7497 H   0  0  0  0  0
   -7.2397  -31.6829  -34.3276 H   0  0  0  0  0
   -5.1096  -27.7322  -33.5498 H   0  0  0  0  0
   -2.9434  -27.0747  -35.5480 H   0  0  0  0  0
   -2.7284  -26.8941  -32.5645 H   0  0  0  0  0
   -3.1102  -25.4754  -33.6756 H   0  0  0  0  0
    0.2942  -24.7445  -33.6067 H   0  0  0  0  0
   -1.3663  -24.1974  -33.3523 H   0  0  0  0  0
   -2.4215  -29.0813  -36.3016 H   0  0  0  0  0
   -1.8850  -31.1977  -34.2490 H   0  0  0  0  0
   -2.4978  -32.8610  -36.0476 H   0  0  0  0  0
   -4.0801  -32.0749  -37.5742 H   0  0  0  0  0
   -3.8451  -32.6002  -34.0696 H   0  0  0  0  0
   -4.7051  -31.2211  -34.7973 H   0  0  0  0  0
   -4.8883  -32.8509  -35.4909 H   0  0  0  0  0
   -0.5782  -29.1029  -36.3695 H   0  0  0  0  0
    1.7464  -30.8593  -36.9522 H   0  0  0  0  0
    0.3244  -30.7686  -38.9714 H   0  0  0  0  0
    1.8588  -29.8181  -39.2320 H   0  0  0  0  0
   -0.3805  -27.5119  -40.7205 H   0  0  0  0  0
    0.7370  -28.8442  -41.0326 H   0  0  0  0  0
    0.9448  -28.3698  -35.1779 H   0  0  0  0  0
    3.5885  -27.1228  -35.4964 H   0  0  0  0  0
    2.3680  -26.8227  -34.1811 H   0  0  0  0  0
    0.2681  -26.3674  -36.2188 H   0  0  0  0  0
    0.5239  -23.4950  -36.4659 H   0  0  0  0  0
    1.8005  -23.9849  -38.4309 H   0  0  0  0  0
    0.1573  -23.4759  -38.9550 H   0  0  0  0  0
    0.9173  -25.3467  -40.0696 H   0  0  0  0  0
   -1.4988  -22.5223  -37.2956 H   0  0  0  0  0
   -3.7696  -24.2605  -36.5930 H   0  0  0  0  0
   -5.0696  -22.1298  -36.4720 H   0  0  0  0  0
   -3.5816  -21.2428  -36.9575 H   0  0  0  0  0
   -1.7454  -20.8503  -35.1101 H   0  0  0  0  0
   -5.8745  -23.8620  -34.6611 H   0  0  0  0  0
   -2.9258  -22.9817  -30.6998 H   0  0  0  0  0
   -6.3650  -24.8801  -32.4604 H   0  0  0  0  0
   -4.8956  -24.4675  -30.5212 H   0  0  0  0  0
   -5.2697  -25.0136  -37.7819 H   0  0  0  0  0
   -5.7531  -23.8409  -40.4524 H   0  0  0  0  0
   -4.1662  -25.7564  -40.6354 H   0  0  0  0  0
   -5.7002  -25.7885  -41.6534 H   0  0  0  0  0
   -7.4233  -27.8420  -41.1272 H   0  0  0  0  0
   -4.7875  -29.8743  -38.4759 H   0  0  0  0  0
   -7.7532  -24.2298  -41.3735 H   0  0  0  0  0
   -9.9225  -24.2641  -39.4014 H   0  0  0  0  0
   -9.6484  -22.6684  -41.2748 H   0  0  0  0  0
  -12.1049  -23.9010  -40.3317 H   0  0  0  0  0
  -12.2619  -22.9380  -41.8606 H   0  0  0  0  0
   -9.0825  -23.9534  -43.1410 H   0  0  0  0  0
  -10.6155  -24.8568  -43.0720 H   0  0  0  0  0
  -10.6222  -23.1205  -43.4672 H   0  0  0  0  0
  -11.0785  -21.9394  -39.2210 H   0  0  0  0  0
  -11.2326  -20.9939  -40.7222 H   0  0  0  0  0
  -12.6919  -21.5294  -39.8534 H   0  0  0  0  0
  -10.5551  -25.9960  -38.4978 H   0  0  0  0  0
  -12.0898  -27.9430  -39.8434 H   0  0  0  0  0
   -9.9047  -29.5549  -38.8140 H   0  0  0  0  0
   -9.4867  -28.5472  -40.2964 H   0  0  0  0  0
  -10.4592  -31.6203  -41.8524 H   0  0  0  0  0
   -9.0754  -30.7998  -41.1222 H   0  0  0  0  0
  -10.4876  -26.8265  -37.2208 H   0  0  0  0  0
  1  2  1  0  0  0
  2  3  1  0  0  0
  2  5  1  0  0  0
  3  4  2  0  0  0
  3 10  1  0  0  0
  5  6  1  0  0  0
  6  7  1  0  0  0
  7  8  2  0  0  0
  7  9  1  0  0  0
 10 11  1  0  0  0
 11 12  1  0  0  0
 11 14  1  0  0  0
 12 13  2  0  0  0
 12 18  1  0  0  0
 14 15  1  0  0  0
 15 16  1  0  0  0
 15 17  1  0  0  0
 18 19  1  0  0  0
 19 20  1  0  0  0
 19 22  1  0  0  0
 20 21  2  0  0  0
 20 26  1  0  0  0
 22 23  1  0  0  0
 22 24  1  0  0  0
 23 25  1  0  0  0
 26 27  1  0  0  0
 27 28  1  0  0  0
 27 30  1  0  0  0
 28 29  2  0  0  0
 28 34  1  0  0  0
 30 31  1  0  0  0
 31 32  2  0  0  0
 31 33  1  0  0  0
 34 35  1  0  0  0
 35 36  1  0  0  0
 35 38  1  0  0  0
 36 37  2  0  0  0
 36 41  1  0  0  0
 38 39  1  0  0  0
 38 40  1  0  0  0
 41 42  1  0  0  0
 42 43  1  0  0  0
 42 45  1  0  0  0
 43 44  2  0  0  0
 43 49  1  0  0  0
 45 46  1  0  0  0
 46 47  2  0  0  0
 46 48  1  0  0  0
 49 50  1  0  0  0
 50 51  1  0  0  0
 51 52  2  0  0  0
 51 53  1  0  0  0
 53 54  1  0  0  0
 54 55  1  0  0  0
 54 57  1  0  0  0
 55 56  2  0  0  0
 55 59  1  0  0  0
 57 58  1  0  0  0
 59 60  1  0  0  0
 60 61  1  0  0  0
 60 63  1  0  0  0
 61 62  2  0  0  0
 61 73  1  0  0  0
 63 64  1  0  0  0
 64 65  4  0  0  0
 64 66  4  0  0  0
 65 67  4  0  0  0
 66 68  4  0  0  0
 66 69  4  0  0  0
 67 68  4  0  0  0
 68 70  4  0  0  0
 69 71  4  0  0  0
 70 72  4  0  0  0
 71 72  4  0  0  0
 73 74  1  0  0  0
 74 75  1  0  0  0
 74 77  1  0  0  0
 75 76  2  0  0  0
 75 83  1  0  0  0
 77 78  1  0  0  0
 78 79  4  0  0  0
 78 80  4  0  0  0
 79 81  4  0  0  0
 80 82  4  0  0  0
 81 82  4  0  0  0
 83 84  1  0  0  0
 84 85  1  0  0  0
 84 87  1  0  0  0
 85 86  2  0  0  0
 85 91  1  0  0  0
 87 88  1  0  0  0
 87 89  1  0  0  0
 88 90  1  0  0  0
 91 92  1  0  0  0
 92 93  1  0  0  0
 92 95  1  0  0  0
 93 94  2  0  0  0
 95 96  1  0  0  0
 96 97  2  0  0  0
 96 98  1  0  0  0
 93 99  1  0  0  0
  1100  1  0  0  0
  1101  1  0  0  0
  1102  1  0  0  0
  2103  1  0  0  0
  5104  1  0  0  0
  5105  1  0  0  0
  6106  1  0  0  0
  6107  1  0  0  0
  9108  1  0  0  0
  9109  1  0  0  0
 10110  1  0  0  0
 11111  1  0  0  0
 14112  1  0  0  0
 14113  1  0  0  0
 15114  1  0  0  0
 16115  1  0  0  0
 16116  1  0  0  0
 16117  1  0  0  0
 17118  1  0  0  0
 17119  1  0  0  0
 17120  1  0  0  0
 18121  1  0  0  0
 19122  1  0  0  0
 22123  1  0  0  0
 23124  1  0  0  0
 23125  1  0  0  0
 24126  1  0  0  0
 24127  1  0  0  0
 24128  1  0  0  0
 25129  1  0  0  0
 25130  1  0  0  0
 25131  1  0  0  0
 26132  1  0  0  0
 27133  1  0  0  0
 30134  1  0  0  0
 30135  1  0  0  0
 33136  1  0  0  0
 33137  1  0  0  0
 34138  1  0  0  0
 35139  1  0  0  0
 38140  1  0  0  0
 39141  1  0  0  0
 40142  1  0  0  0
 40143  1  0  0  0
 40144  1  0  0  0
 41145  1  0  0  0
 42146  1  0  0  0
 45147  1  0  0  0
 45148  1  0  0  0
 48149  1  0  0  0
 48150  1  0  0  0
 49151  1  0  0  0
 50152  1  0  0  0
 50153  1  0  0  0
 53154  1  0  0  0
 54155  1  0  0  0
 57156  1  0  0  0
 57157  1  0  0  0
 58158  1  0  0  0
 59159  1  0  0  0
 60160  1  0  0  0
 63161  1  0  0  0
 63162  1  0  0  0
 65163  1  0  0  0
 69164  1  0  0  0
 70165  1  0  0  0
 71166  1  0  0  0
 72167  1  0  0  0
 73168  1  0  0  0
 74169  1  0  0  0
 77170  1  0  0  0
 77171  1  0  0  0
 80172  1  0  0  0
 81173  1  0  0  0
 83174  1  0  0  0
 84175  1  0  0  0
 87176  1  0  0  0
 88177  1  0  0  0
 88178  1  0  0  0
 89179  1  0  0  0
 89180  1  0  0  0
 89181  1  0  0  0
 90182  1  0  0  0
 90183  1  0  0  0
 90184  1  0  0  0
 91185  1  0  0  0
 92186  1  0  0  0
 95187  1  0  0  0
 95188  1  0  0  0
 98189  1  0  0  0
 98190  1  0  0  0
 99191  1  0  0  0
M  END
$$$$
