### 
### Created by X-TOOL on Mon Sep 10 21:12:52 2018
### 

@<TRIPOS>MOLECULE
1yly_ligand
   36    36     1     0     0
SMALL
GAST_HUCK


@<TRIPOS>ATOM
      1 B          16.8210   55.1110   32.4270 B         1 CB4         0.7128
      2 OB1        16.5430   56.2380   33.3500 O.3       1 CB4        -0.4968
      3 OB2        15.9550   53.9500   32.7970 O.3       1 CB4        -0.4968
      4 C7         18.3950   54.7180   32.4200 C.3       1 CB4         0.0411
      5 N10        18.9010   54.4750   33.7960 N.am      1 CB4        -0.2959
      6 C11        20.1880   54.4390   34.1330 C.2       1 CB4         0.2154
      7 O12        21.0180   54.5350   33.2730 O.2       1 CB4        -0.3864
      8 C13        20.4050   54.1700   35.6050 C.2       1 CB4         0.1483
      9 N16        20.1290   53.0250   36.1580 N.2       1 CB4        -0.1296
     10 O17        19.5800   52.0430   35.3490 O.3       1 CB4        -0.2177
     11 C18        19.5380   50.7300   36.0220 C.3       1 CB4         0.1563
     12 C14        21.1790   55.1760   36.3730 C.2       1 CB4         0.0260
     13 C15        21.8820   56.1810   35.7580 C.2       1 CB4         0.0081
     14 S16        22.6110   57.1710   36.9540 S.3       1 CB4         0.0150
     15 C17        21.9330   56.1610   38.1610 C.2       1 CB4         0.1779
     16 N18        22.1460   56.3590   39.4820 N.pl3     1 CB4        -0.2979
     17 N19        21.1910   55.1760   37.7290 N.2       1 CB4        -0.3138
     18 C19        20.9970   50.2750   36.1200 C.3       1 CB4        -0.0232
     19 C20        18.8490   49.7900   35.0530 C.3       1 CB4        -0.0232
     20 C21        18.7700   50.8660   37.3150 C.2       1 CB4         0.0845
     21 O2A        19.3350   50.3030   38.2900 O.co2     1 CB4        -0.5445
     22 O2B        17.8370   51.7300   37.4140 O.co2     1 CB4        -0.5445
     23 H1         16.7315   55.9696   34.2416 H         1 CB4         0.1667
     24 H2         16.1299   53.2254   32.2079 H         1 CB4         0.1667
     25 H3         18.9673   55.5420   31.9689 H         1 CB4         0.0395
     26 H4         18.5330   53.8052   31.8219 H         1 CB4         0.0395
     27 H5         18.2268   54.3282   34.5198 H         1 CB4         0.1828
     28 H6         21.9641   56.3269   34.6819 H         1 CB4         0.0635
     29 H7         21.7181   55.7265   40.1731 H         1 CB4         0.1863
     30 H8         22.7361   57.1423   39.7968 H         1 CB4         0.1863
     31 H9         21.0426   49.2941   36.6157 H         1 CB4         0.0256
     32 H10        21.5713   51.0085   36.7049 H         1 CB4         0.0256
     33 H11        21.4250   50.1955   35.1098 H         1 CB4         0.0256
     34 H12        18.7855   48.7862   35.4984 H         1 CB4         0.0256
     35 H13        19.4257   49.7402   34.1176 H         1 CB4         0.0256
     36 H14        17.8357   50.1612   34.8398 H         1 CB4         0.0256
@<TRIPOS>BOND
     1    1    2 1  
     2    1    3 1  
     3    1    4 1  
     4    4    5 1  
     5    5    6 am 
     6    6    7 2  
     7    6    8 1  
     8    8    9 2  
     9    8   12 1  
    10    9   10 1  
    11   10   11 1  
    12   11   18 1  
    13   11   19 1  
    14   11   20 1  
    15   12   13 2  
    16   12   17 1  
    17   13   14 1  
    18   14   15 1  
    19   15   16 1  
    20   15   17 2  
    21   20   21 ar 
    22   20   22 ar 
    23    2   23 1  
    24    3   24 1  
    25    4   25 1  
    26    4   26 1  
    27    5   27 1  
    28   13   28 1  
    29   16   29 1  
    30   16   30 1  
    31   18   31 1  
    32   18   32 1  
    33   18   33 1  
    34   19   34 1  
    35   19   35 1  
    36   19   36 1  
@<TRIPOS>SUBSTRUCTURE
     1 CB4         1

