1yly_ligand
  -I-interpret- 

 37 37  0  0  0  0  0  0  0  0999 V2000
   16.8210   55.1110   32.4270 B   0  0  0  0  0
   16.5430   56.2380   33.3500 O   0  0  0  0  0
   15.9550   53.9500   32.7970 O   0  0  0  0  0
   18.3950   54.7180   32.4200 C   0  0  0  0  0
   18.9010   54.4750   33.7960 N   0  0  0  0  0
   20.1880   54.4390   34.1330 C   0  0  0  0  0
   21.0180   54.5350   33.2730 O   0  0  0  0  0
   20.4050   54.1700   35.6050 C   0  0  0  0  0
   20.1290   53.0250   36.1580 N   0  0  0  0  0
   19.5800   52.0430   35.3490 O   0  0  0  0  0
   19.5380   50.7300   36.0220 C   0  0  0  0  0
   21.1790   55.1760   36.3730 C   0  0  0  0  0
   21.8820   56.1810   35.7580 C   0  0  0  0  0
   22.6110   57.1710   36.9540 S   0  0  0  0  0
   21.9330   56.1610   38.1610 C   0  0  0  0  0
   22.1460   56.3590   39.4820 N   0  0  0  0  0
   21.1910   55.1760   37.7290 N   0  0  0  0  0
   20.9970   50.2750   36.1200 C   0  0  0  0  0
   18.8490   49.7900   35.0530 C   0  0  0  0  0
   18.7700   50.8660   37.3150 C   0  0  0  0  0
   19.3350   50.3030   38.2900 O   0  0  0  0  0
   17.8370   51.7300   37.4140 O   0  0  0  0  0
   15.6055   56.4434   33.3292 H   0  0  0  0  0
   15.0348   54.2234   32.7895 H   0  0  0  0  0
   18.9560   55.5461   31.9867 H   0  0  0  0  0
   18.5204   53.8041   31.8393 H   0  0  0  0  0
   18.2134   54.3252   34.5343 H   0  0  0  0  0
   21.9641   56.3270   34.6810 H   0  0  0  0  0
   22.7304   57.1347   39.7937 H   0  0  0  0  0
   21.7222   55.7326   40.1664 H   0  0  0  0  0
   21.4199   50.1967   35.1184 H   0  0  0  0  0
   21.5650   51.0026   36.6997 H   0  0  0  0  0
   21.0409   49.3030   36.6113 H   0  0  0  0  0
   17.8452   50.1590   34.8425 H   0  0  0  0  0
   19.4214   49.7416   34.1266 H   0  0  0  0  0
   18.7867   48.7958   35.4954 H   0  0  0  0  0
   17.5696   52.0125   36.5363 H   0  0  0  0  0
  1  2  1  0  0  0
  1  3  1  0  0  0
  1  4  1  0  0  0
  4  5  1  0  0  0
  5  6  1  0  0  0
  6  7  2  0  0  0
  6  8  1  0  0  0
  8  9  2  0  0  0
  8 12  1  0  0  0
  9 10  1  0  0  0
 10 11  1  0  0  0
 11 18  1  0  0  0
 11 19  1  0  0  0
 11 20  1  0  0  0
 12 13  4  0  0  0
 12 17  4  0  0  0
 13 14  4  0  0  0
 14 15  4  0  0  0
 15 16  1  0  0  0
 15 17  4  0  0  0
 20 21  2  0  0  0
 20 22  1  0  0  0
  2 23  1  0  0  0
  3 24  1  0  0  0
  4 25  1  0  0  0
  4 26  1  0  0  0
  5 27  1  0  0  0
 13 28  1  0  0  0
 16 29  1  0  0  0
 16 30  1  0  0  0
 18 31  1  0  0  0
 18 32  1  0  0  0
 18 33  1  0  0  0
 19 34  1  0  0  0
 19 35  1  0  0  0
 19 36  1  0  0  0
 22 37  1  0  0  0
M  END
$$$$
