### 
### Created by X-TOOL on Mon Sep 10 21:12:53 2018
### 

@<TRIPOS>MOLECULE
2ioa_ligand
   70    69     1     0     0
SMALL
GAST_HUCK


@<TRIPOS>ATOM
      1 C1        -13.2340   18.5070    2.2750 C.2       1 GGA         0.0846
      2 O2        -14.4560   18.5630    2.8960 O.co2     1 GGA        -0.5643
      3 O4        -11.9960   18.6010    3.0020 O.co2     1 GGA        -0.5643
      4 C6        -13.0030   18.3860    0.7740 C.3       1 GGA         0.0304
      5 N8        -14.2650   18.1000    0.0770 N.4       1 GGA         0.2328
      6 C10       -12.0030   17.2740    0.5610 C.3       1 GGA         0.0193
      7 C12       -11.7760   17.0510   -0.9150 C.3       1 GGA         0.0441
      8 C14       -10.8140   15.9370   -1.0900 C.2       1 GGA         0.1785
      9 O16       -10.3120   15.3720   -0.1090 O.2       1 GGA        -0.3969
     10 N18       -10.5370   15.5460   -2.3900 N.am      1 GGA        -0.2659
     11 C20        -9.6820   14.4650   -2.7930 C.3       1 GGA         0.1280
     12 C22        -9.8320   13.1070   -2.0650 C.3       1 GGA        -0.0244
     13 C24        -8.2140   14.8940   -2.8610 C.2       1 GGA         0.2029
     14 O26        -8.0590   16.1100   -3.0360 O.2       1 GGA        -0.3945
     15 N30        -7.2000   13.9690   -2.7930 N.am      1 GGA        -0.2632
     16 C29        -5.8320   14.2990   -2.9270 C.3       1 GGA         0.1371
     17 P34        -5.2710   13.1500   -3.9640 P.3       1 GGA         0.2027
     18 C33        -6.3090   12.9240   -5.2150 C.3       1 GGA         0.0569
     19 C35        -6.4300   14.1840   -6.0680 C.3       1 GGA        -0.0265
     20 C37        -7.4490   13.9860   -7.1870 C.3       1 GGA        -0.0108
     21 C39        -6.8800   14.1730   -8.5900 C.3       1 GGA        -0.0336
     22 N44        -8.0260   14.0040   -9.4960 N.4       1 GGA         0.2270
     23 C43        -7.6250   14.2030  -10.8820 C.3       1 GGA        -0.0335
     24 C45        -8.8670   14.0990  -11.7840 C.3       1 GGA        -0.0078
     25 C47        -8.4560   14.3770  -13.2370 C.3       1 GGA        -0.0078
     26 C49        -9.6990   14.3180  -14.1330 C.3       1 GGA        -0.0352
     27 N54        -9.3250   14.5990  -15.5230 N.4       1 GGA         0.2185
     28 O56        -5.3130   11.9430   -3.4010 O.2       1 GGA        -0.5102
     29 O58        -3.8650   13.4120   -4.6070 O.3       1 GGA        -0.1590
     30 P60        -3.0030   14.6890   -4.3490 P.3       1 GGA         0.2554
     31 O62        -3.7070   15.9420   -4.7850 O.co2     1 GGA        -0.5471
     32 O64        -2.7690   14.8790   -3.0360 O.co2     1 GGA        -0.5471
     33 O66        -1.7180   14.5330   -5.1210 O.co2     1 GGA        -0.5471
     34 H1        -12.5901   19.3296    0.3878 H         1 GGA         0.1026
     35 H2        -14.0921   18.0236   -0.9131 H         1 GGA         0.2010
     36 H3        -14.9197   18.8474    0.2471 H         1 GGA         0.2010
     37 H4        -14.6487   17.2329    0.4189 H         1 GGA         0.2010
     38 H5        -12.3878   16.3480    1.0132 H         1 GGA         0.0363
     39 H6        -11.0499   17.5464    1.0379 H         1 GGA         0.0363
     40 H7        -11.3674   17.9662   -1.3682 H         1 GGA         0.0505
     41 H8        -12.7293   16.7953   -1.4007 H         1 GGA         0.0505
     42 H9        -10.9763   16.0688   -3.1206 H         1 GGA         0.1882
     43 H10        -9.9793   14.2550   -3.8310 H         1 GGA         0.0797
     44 H11        -9.1140   12.3858   -2.4827 H         1 GGA         0.0277
     45 H12       -10.8552   12.7277   -2.2035 H         1 GGA         0.0277
     46 H13        -9.6333   13.2424   -0.9916 H         1 GGA         0.0277
     47 H14        -7.4429   13.0110   -2.6405 H         1 GGA         0.1872
     48 H15        -5.3152   14.2422   -1.9576 H         1 GGA         0.0799
     49 H16        -5.7084   15.3069   -3.3500 H         1 GGA         0.0799
     50 H17        -7.3007   12.6647   -4.8158 H         1 GGA         0.0533
     51 H18        -5.9396   12.1000   -5.8431 H         1 GGA         0.0533
     52 H19        -5.4497   14.4157   -6.5100 H         1 GGA         0.0286
     53 H20        -6.7521   15.0210   -5.4311 H         1 GGA         0.0286
     54 H21        -8.2629   14.7122   -7.0451 H         1 GGA         0.0317
     55 H22        -7.8511   12.9650   -7.1110 H         1 GGA         0.0317
     56 H23        -6.1091   13.4163   -8.7978 H         1 GGA         0.0814
     57 H24        -6.4464   15.1779   -8.6997 H         1 GGA         0.0814
     58 H25        -8.7372   14.6775   -9.2581 H         1 GGA         0.2013
     59 H26        -8.3963   13.0725   -9.3899 H         1 GGA         0.2013
     60 H27        -6.8954   13.4314  -11.1690 H         1 GGA         0.0814
     61 H28        -7.1699   15.1981  -10.9948 H         1 GGA         0.0814
     62 H29        -9.6169   14.8380  -11.4653 H         1 GGA         0.0319
     63 H30        -9.2936   13.0879  -11.7087 H         1 GGA         0.0319
     64 H31        -7.7296   13.6190  -13.5653 H         1 GGA         0.0319
     65 H32        -8.0001   15.3757  -13.3057 H         1 GGA         0.0319
     66 H33       -10.4296   15.0668  -13.7932 H         1 GGA         0.0813
     67 H34       -10.1462   13.3149  -14.0711 H         1 GGA         0.0813
     68 H35       -10.1459   14.5587  -16.1065 H         1 GGA         0.1994
     69 H36        -8.6562   13.9130  -15.8363 H         1 GGA         0.1994
     70 H37        -8.9159   15.5184  -15.5816 H         1 GGA         0.1994
@<TRIPOS>BOND
     1    1    2 ar 
     2    1    3 ar 
     3    1    4 1  
     4    4    5 1  
     5    4    6 1  
     6    6    7 1  
     7    7    8 1  
     8    8    9 2  
     9    8   10 am 
    10   10   11 1  
    11   11   12 1  
    12   11   13 1  
    13   13   14 2  
    14   13   15 am 
    15   15   16 1  
    16   16   17 1  
    17   17   18 1  
    18   17   28 2  
    19   17   29 1  
    20   18   19 1  
    21   19   20 1  
    22   20   21 1  
    23   21   22 1  
    24   22   23 1  
    25   23   24 1  
    26   24   25 1  
    27   25   26 1  
    28   26   27 1  
    29   29   30 1  
    30   30   31 ar 
    31   30   32 ar 
    32   30   33 ar 
    33    4   34 1  
    34    5   35 1  
    35    5   36 1  
    36    5   37 1  
    37    6   38 1  
    38    6   39 1  
    39    7   40 1  
    40    7   41 1  
    41   10   42 1  
    42   11   43 1  
    43   12   44 1  
    44   12   45 1  
    45   12   46 1  
    46   15   47 1  
    47   16   48 1  
    48   16   49 1  
    49   18   50 1  
    50   18   51 1  
    51   19   52 1  
    52   19   53 1  
    53   20   54 1  
    54   20   55 1  
    55   21   56 1  
    56   21   57 1  
    57   22   58 1  
    58   22   59 1  
    59   23   60 1  
    60   23   61 1  
    61   24   62 1  
    62   24   63 1  
    63   25   64 1  
    64   25   65 1  
    65   26   66 1  
    66   26   67 1  
    67   27   68 1  
    68   27   69 1  
    69   27   70 1  
@<TRIPOS>SUBSTRUCTURE
     1 GGA         1

