2ioa_ligand
  -I-interpret- 

 73 72  0  0  0  0  0  0  0  0999 V2000
  -13.2340   18.5070    2.2750 C   0  0  0  0  0
  -14.4560   18.5630    2.8960 O   0  0  0  0  0
  -11.9960   18.6010    3.0020 O   0  0  0  0  0
  -13.0030   18.3860    0.7740 C   0  0  0  0  0
  -14.2650   18.1000    0.0770 N   0  3  0  0  0
  -12.0030   17.2740    0.5610 C   0  0  0  0  0
  -11.7760   17.0510   -0.9150 C   0  0  0  0  0
  -10.8140   15.9370   -1.0900 C   0  0  0  0  0
  -10.3120   15.3720   -0.1090 O   0  0  0  0  0
  -10.5370   15.5460   -2.3900 N   0  0  0  0  0
   -9.6820   14.4650   -2.7930 C   0  0  0  0  0
   -9.8320   13.1070   -2.0650 C   0  0  0  0  0
   -8.2140   14.8940   -2.8610 C   0  0  0  0  0
   -8.0590   16.1100   -3.0360 O   0  0  0  0  0
   -7.2000   13.9690   -2.7930 N   0  0  0  0  0
   -5.8320   14.2990   -2.9270 C   0  0  0  0  0
   -5.2710   13.1500   -3.9640 P   0  0  0  0  0
   -6.3090   12.9240   -5.2150 C   0  0  0  0  0
   -6.4300   14.1840   -6.0680 C   0  0  0  0  0
   -7.4490   13.9860   -7.1870 C   0  0  0  0  0
   -6.8800   14.1730   -8.5900 C   0  0  0  0  0
   -8.0260   14.0040   -9.4960 N   0  3  0  0  0
   -7.6250   14.2030  -10.8820 C   0  0  0  0  0
   -8.8670   14.0990  -11.7840 C   0  0  0  0  0
   -8.4560   14.3770  -13.2370 C   0  0  0  0  0
   -9.6990   14.3180  -14.1330 C   0  0  0  0  0
   -9.3250   14.5990  -15.5230 N   0  3  0  0  0
   -5.3130   11.9430   -3.4010 O   0  0  0  0  0
   -3.8650   13.4120   -4.6070 O   0  0  0  0  0
   -3.0030   14.6890   -4.3490 P   0  0  0  0  0
   -3.7070   15.9420   -4.7850 O   0  0  0  0  0
   -2.7690   14.8790   -3.0360 O   0  0  0  0  0
   -1.7180   14.5330   -5.1210 O   0  0  0  0  0
  -11.2604   18.5406    2.3882 H   0  0  0  0  0
  -12.6201   19.3219    0.3672 H   0  0  0  0  0
  -14.9211   18.8645    0.2367 H   0  0  0  0  0
  -14.0863   18.0071   -0.9229 H   0  0  0  0  0
  -14.6604   17.2306    0.4352 H   0  0  0  0  0
  -12.3902   16.3567    1.0046 H   0  0  0  0  0
  -11.0581   17.5499    1.0292 H   0  0  0  0  0
  -11.3754   17.9582   -1.3674 H   0  0  0  0  0
  -12.7201   16.8020   -1.3995 H   0  0  0  0  0
  -10.9851   16.0792   -3.1352 H   0  0  0  0  0
  -10.0589   14.2447   -3.7918 H   0  0  0  0  0
   -9.6349   13.2426   -1.0016 H   0  0  0  0  0
  -10.8462   12.7323   -2.2030 H   0  0  0  0  0
   -9.1201   12.3933   -2.4797 H   0  0  0  0  0
   -7.4478   12.9918   -2.6375 H   0  0  0  0  0
   -5.3034   14.3007   -1.9737 H   0  0  0  0  0
   -5.6772   15.3125   -3.2970 H   0  0  0  0  0
   -7.2921   12.6819   -4.8114 H   0  0  0  0  0
   -5.9288   12.1162   -5.8404 H   0  0  0  0  0
   -5.4587   14.4022   -6.5120 H   0  0  0  0  0
   -6.7600   15.0070   -5.4340 H   0  0  0  0  0
   -8.2259   14.7385   -7.0518 H   0  0  0  0  0
   -7.8064   12.9585   -7.1189 H   0  0  0  0  0
   -6.0895   13.4534   -8.8027 H   0  0  0  0  0
   -6.4146   15.1515   -8.7082 H   0  0  0  0  0
   -8.7378   14.6946   -9.2576 H   0  0  0  0  0
   -8.3899   13.0568   -9.3921 H   0  0  0  0  0
   -6.8994   13.4413  -11.1672 H   0  0  0  0  0
   -7.1706   15.1873  -10.9950 H   0  0  0  0  0
   -9.6126   14.8284  -11.4675 H   0  0  0  0  0
   -9.2931   13.0986  -11.7080 H   0  0  0  0  0
   -7.7345   13.6277  -13.5627 H   0  0  0  0  0
   -8.0021   15.3656  -13.3059 H   0  0  0  0  0
  -10.4205   15.0627  -13.7969 H   0  0  0  0  0
  -10.1390   13.3226  -14.0729 H   0  0  0  0  0
  -10.1564   14.5580  -16.1125 H   0  0  0  0  0
   -8.9112   15.5295  -15.5810 H   0  0  0  0  0
   -8.6482   13.9043  -15.8388 H   0  0  0  0  0
   -3.9107   15.8839   -5.7213 H   0  0  0  0  0
   -1.9185   14.3996   -6.0503 H   0  0  0  0  0
  1  2  2  0  0  0
  1  3  1  0  0  0
  1  4  1  0  0  0
  4  5  1  0  0  0
  4  6  1  0  0  0
  6  7  1  0  0  0
  7  8  1  0  0  0
  8  9  2  0  0  0
  8 10  1  0  0  0
 10 11  1  0  0  0
 11 12  1  0  0  0
 11 13  1  0  0  0
 13 14  2  0  0  0
 13 15  1  0  0  0
 15 16  1  0  0  0
 16 17  1  0  0  0
 17 18  1  0  0  0
 17 28  2  0  0  0
 17 29  1  0  0  0
 18 19  1  0  0  0
 19 20  1  0  0  0
 20 21  1  0  0  0
 21 22  1  0  0  0
 22 23  1  0  0  0
 23 24  1  0  0  0
 24 25  1  0  0  0
 25 26  1  0  0  0
 26 27  1  0  0  0
 29 30  1  0  0  0
 30 31  1  0  0  0
 30 32  2  0  0  0
 30 33  1  0  0  0
  3 34  1  0  0  0
  4 35  1  0  0  0
  5 36  1  0  0  0
  5 37  1  0  0  0
  5 38  1  0  0  0
  6 39  1  0  0  0
  6 40  1  0  0  0
  7 41  1  0  0  0
  7 42  1  0  0  0
 10 43  1  0  0  0
 11 44  1  0  0  0
 12 45  1  0  0  0
 12 46  1  0  0  0
 12 47  1  0  0  0
 15 48  1  0  0  0
 16 49  1  0  0  0
 16 50  1  0  0  0
 18 51  1  0  0  0
 18 52  1  0  0  0
 19 53  1  0  0  0
 19 54  1  0  0  0
 20 55  1  0  0  0
 20 56  1  0  0  0
 21 57  1  0  0  0
 21 58  1  0  0  0
 22 59  1  0  0  0
 22 60  1  0  0  0
 23 61  1  0  0  0
 23 62  1  0  0  0
 24 63  1  0  0  0
 24 64  1  0  0  0
 25 65  1  0  0  0
 25 66  1  0  0  0
 26 67  1  0  0  0
 26 68  1  0  0  0
 27 69  1  0  0  0
 27 70  1  0  0  0
 27 71  1  0  0  0
 31 72  1  0  0  0
 33 73  1  0  0  0
M  END
$$$$
