### 
### Created by X-TOOL on Mon Sep 10 21:13:18 2018
### 

@<TRIPOS>MOLECULE
4k78_ligand
  172   173     1     0     0
SMALL
GAST_HUCK


@<TRIPOS>ATOM
      1 N          32.1410   32.3620   35.3680 N.4       1 ALA         0.2377
      2 CA         31.2060   31.7420   34.4340 C.3       1 ALA         0.0621
      3 C          31.7400   30.4050   33.9330 C.2       1 ALA         0.2265
      4 O          32.8520   30.3270   33.4250 O.2       1 ALA        -0.3907
      5 CB         30.9210   32.6740   33.2660 C.3       1 ALA        -0.0040
      6 N          30.9400   29.3540   34.0730 N.am      1 ASN        -0.2589
      7 CA         31.3890   28.0120   33.7110 C.3       1 ASN         0.1477
      8 C          30.9600   27.5960   32.3100 C.2       1 ASN         0.2063
      9 O          29.8520   27.8960   31.8760 O.2       1 ASN        -0.3942
     10 CB         30.8900   26.9990   34.7430 C.3       1 ASN         0.0773
     11 CG         31.4670   27.2430   36.1160 C.2       1 ASN         0.1780
     12 OD1        32.6290   27.6170   36.2530 O.2       1 ASN        -0.3970
     13 ND2        30.6530   27.0460   37.1420 N.am      1 ASN        -0.3007
     14 N          31.8450   26.9080   31.6020 N.am      1 SER        -0.2614
     15 CA         31.5430   26.4770   30.2450 C.3       1 SER         0.1539
     16 C          30.6460   25.2400   30.2600 C.2       1 SER         0.2062
     17 O          29.9280   24.9730   29.2900 O.2       1 SER        -0.3943
     18 CB         32.8200   26.1660   29.4640 C.3       1 SER         0.0843
     19 OG         33.3550   24.9220   29.8640 O.3       1 SER        -0.3903
     20 N          30.6810   24.4650   31.3370 N.am      1 ARG        -0.2637
     21 CA         30.0040   23.1900   31.4010 C.3       1 ARG         0.1311
     22 C          28.9120   23.1410   32.4870 C.2       1 ARG         0.2040
     23 O          29.2250   23.2680   33.6420 O.2       1 ARG        -0.3944
     24 CB         30.9980   22.1090   31.7780 C.3       1 ARG        -0.0092
     25 CG         31.3280   21.0980   30.7420 C.3       1 ARG        -0.0156
     26 CD         31.5530   19.7520   31.4450 C.3       1 ARG         0.0627
     27 NE         32.0700   18.7740   30.5240 N.pl3     1 ARG        -0.2723
     28 CZ         33.1500   18.9920   29.7940 C.cat     1 ARG         0.2882
     29 NH1        33.8010   20.1310   29.9410 N.pl3     1 ARG        -0.2849
     30 NH2        33.5860   18.0830   28.9470 N.pl3     1 ARG        -0.2849
     31 N          27.6710   22.8610   32.1110 N.am      1 TRP        -0.2627
     32 CA         26.5570   22.8000   33.0530 C.3       1 TRP         0.1352
     33 C          25.9090   21.4250   33.0510 C.2       1 TRP         0.2052
     34 O          25.6910   20.8350   31.9910 O.2       1 TRP        -0.3942
     35 CB         25.4680   23.7950   32.6450 C.3       1 TRP         0.0042
     36 CG         25.8860   25.2220   32.5170 C.2       1 TRP        -0.0418
     37 CD1        27.1210   25.7530   32.7640 C.2       1 TRP         0.0167
     38 CD2        25.0520   26.3130   32.1150 C.ar      1 TRP        -0.0214
     39 NE1        27.1030   27.1110   32.5390 N.pl3     1 TRP        -0.2890
     40 CE2        25.8420   27.4780   32.1340 C.ar      1 TRP         0.0603
     41 CE3        23.7060   26.4160   31.7360 C.ar      1 TRP        -0.0747
     42 CZ2        25.3400   28.7280   31.7930 C.ar      1 TRP        -0.0443
     43 CZ3        23.2060   27.6600   31.3960 C.ar      1 TRP        -0.0792
     44 CH2        24.0210   28.8010   31.4280 C.ar      1 TRP        -0.0768
     45 N          25.5680   20.9460   34.2420 N.am      1 GLN        -0.2635
     46 CA         24.8000   19.7230   34.3950 C.3       1 GLN         0.1330
     47 C          23.4760   19.8670   33.6420 C.2       1 GLN         0.2041
     48 O          22.9560   20.9740   33.5170 O.2       1 GLN        -0.3944
     49 CB         24.5250   19.4780   35.8820 C.3       1 GLN         0.0045
     50 CG         25.7710   19.4710   36.7720 C.3       1 GLN         0.0412
     51 CD         25.8430   20.6600   37.7160 C.2       1 GLN         0.1737
     52 OE1        25.7820   21.8150   37.2940 O.2       1 GLN        -0.3973
     53 NE2        25.9700   20.3790   39.0060 N.am      1 GLN        -0.3009
     54 N          22.9380   18.7620   33.1360 N.am      1 ASP        -0.2622
     55 CA         21.6070   18.7830   32.5570 C.3       1 ASP         0.1423
     56 C          20.8820   17.5410   33.0480 C.2       1 ASP         0.2057
     57 O          21.3400   16.4220   32.8180 O.2       1 ASP        -0.3943
     58 CB         21.7040   18.8000   31.0380 C.3       1 ASP         0.0406
     59 CG         20.3550   18.8820   30.3770 C.2       1 ASP         0.0393
     60 OD1        19.7860   19.9910   30.3500 O.co2     1 ASP        -0.5688
     61 OD2        19.8700   17.8400   29.8910 O.co2     1 ASP        -0.5688
     62 N          19.7680   17.7290   33.7500 N.am      1 THR        -0.2612
     63 CA         19.1190   16.6140   34.4330 C.3       1 THR         0.1565
     64 C          17.6710   16.4900   34.0180 C.2       1 THR         0.2065
     65 O          16.9330   17.4680   34.0450 O.2       1 THR        -0.3943
     66 CB         19.2010   16.7810   35.9610 C.3       1 THR         0.0924
     67 OG1        20.5740   16.8680   36.3550 O.3       1 THR        -0.3874
     68 CG2        18.5390   15.6090   36.6800 C.3       1 THR        -0.0346
     69 N          17.2790   15.2890   33.6070 N.am      1 ARG        -0.2637
     70 CA         15.8910   15.0070   33.2860 C.3       1 ARG         0.1310
     71 C          15.0860   14.6890   34.5430 C.2       1 ARG         0.2033
     72 O          15.5290   13.9130   35.4030 O.2       1 ARG        -0.3944
     73 CB         15.8050   13.8450   32.2950 C.3       1 ARG        -0.0092
     74 CG         14.4130   13.5250   31.8410 C.3       1 ARG        -0.0156
     75 CD         14.4740   12.5850   30.6600 C.3       1 ARG         0.0627
     76 NE         13.1550   12.1600   30.2070 N.pl3     1 ARG        -0.2723
     77 CZ         12.9140   11.6290   29.0120 C.cat     1 ARG         0.2882
     78 NH1        13.9010   11.4690   28.1480 N.pl3     1 ARG        -0.2849
     79 NH2        11.6870   11.2630   28.6790 N.pl3     1 ARG        -0.2849
     80 N          13.9040   15.2900   34.6490 N.am      1 LEU        -0.2695
     81 CA         13.0470   15.1250   35.8220 C.3       1 LEU         0.0946
     82 C          11.6610   14.6380   35.4390 C.2       1 LEU         0.0601
     83 O          11.2820   14.6410   34.2580 O.co2     1 LEU        -0.5666
     84 CB         12.9070   16.4530   36.5770 C.3       1 LEU        -0.0156
     85 CG         14.2000   17.1860   36.9240 C.3       1 LEU        -0.0431
     86 CD1        13.9260   18.6400   37.3140 C.3       1 LEU        -0.0625
     87 CD2        14.9160   16.4490   38.0300 C.3       1 LEU        -0.0625
     88 OXT        10.8940   14.2520   36.3350 O.co2     1 LEU        -0.5666
     89 H          31.7659   33.2426   35.6841 H         1 ALA         0.2015
     90 H          33.0230   32.5190   34.9060 H         1 ALA         0.2015
     91 H          32.2797   31.7526   36.1589 H         1 ALA         0.2015
     92 H          30.2612   31.5568   34.9661 H         1 ALA         0.1095
     93 H          30.2157   32.1900   32.5744 H         1 ALA         0.0310
     94 H          31.8593   32.8962   32.7368 H         1 ALA         0.0310
     95 H          30.4817   33.6097   33.6422 H         1 ALA         0.0310
     96 H          30.0157   29.4835   34.4319 H         1 ASN         0.1886
     97 H          32.4887   28.0115   33.7344 H         1 ASN         0.0826
     98 H          31.1768   25.9893   34.4139 H         1 ASN         0.0551
     99 H          29.7938   27.0675   34.8035 H         1 ASN         0.0551
    100 H          30.9806   27.1922   38.0754 H         1 ASN         0.1814
    101 H          29.7108   26.7511   36.9833 H         1 ASN         0.1814
    102 H          32.7316   26.6822   32.0056 H         1 SER         0.1884
    103 H          31.0102   27.2926   29.7342 H         1 SER         0.0823
    104 H          33.5614   26.9563   29.6533 H         1 SER         0.0606
    105 H          32.5875   26.1311   28.3894 H         1 SER         0.0606
    106 H          34.1466   24.7452   29.3694 H         1 SER         0.2097
    107 H          31.1963   24.7758   32.1357 H         1 ARG         0.1883
    108 H          29.5583   22.9745   30.4187 H         1 ARG         0.0800
    109 H          30.5886   21.5715   32.6460 H         1 ARG         0.0313
    110 H          31.9359   22.6074   32.0642 H         1 ARG         0.0313
    111 H          32.2415   21.3966   30.2070 H         1 ARG         0.0301
    112 H          30.4963   21.0111   30.0273 H         1 ARG         0.0301
    113 H          30.5961   19.3934   31.8521 H         1 ARG         0.0689
    114 H          32.2721   19.8897   32.2659 H         1 ARG         0.0689
    115 H          31.5809   17.8723   30.4306 H         1 ARG         0.2642
    116 H          34.6447   20.3180   29.3805 H         1 ARG         0.2615
    117 H          33.4653   20.8326   30.6162 H         1 ARG         0.2615
    118 H          33.0749   17.1957   28.8355 H         1 ARG         0.2615
    119 H          34.4382   18.2592   28.3959 H         1 ARG         0.2615
    120 H          27.4912   22.6846   31.1433 H         1 TRP         0.1884
    121 H          26.9253   23.0371   34.0620 H         1 TRP         0.0815
    122 H          24.6704   23.7466   33.4010 H         1 TRP         0.0397
    123 H          25.0699   23.4745   31.6710 H         1 TRP         0.0397
    124 H          27.9911   25.1854   33.0907 H         1 TRP         0.0795
    125 H          27.9039   27.7481   32.6552 H         1 TRP         0.2216
    126 H          23.0701   25.5385   31.7100 H         1 TRP         0.0540
    127 H          25.9676   29.6116   31.8148 H         1 TRP         0.0541
    128 H          22.1675   27.7546   31.1000 H         1 TRP         0.0510
    129 H          23.5982   29.7620   31.1580 H         1 TRP         0.0530
    130 H          25.8498   21.4448   35.0616 H         1 GLN         0.1883
    131 H          25.3679   18.8761   33.9825 H         1 GLN         0.0801
    132 H          24.0275   18.5020   35.9819 H         1 GLN         0.0337
    133 H          23.8524   20.2709   36.2410 H         1 GLN         0.0337
    134 H          26.6613   19.4838   36.1262 H         1 GLN         0.0504
    135 H          25.7663   18.5490   37.3718 H         1 GLN         0.0504
    136 H          26.0227   21.1193   39.6762 H         1 GLN         0.1814
    137 H          26.0131   19.4268   39.3084 H         1 GLN         0.1814
    138 H          23.4558   17.9067   33.1544 H         1 ASP         0.1884
    139 H          21.0679   19.6812   32.8925 H         1 ASP         0.0819
    140 H          22.2044   17.8785   30.7058 H         1 ASP         0.0478
    141 H          22.3006   19.6720   30.7320 H         1 ASP         0.0478
    142 H          19.3705   18.6446   33.8106 H         1 THR         0.1884
    143 H          19.6429   15.6880   34.1538 H         1 THR         0.0826
    144 H          18.6838   17.7093   36.2452 H         1 THR         0.0639
    145 H          20.9772   17.6164   35.9309 H         1 THR         0.2101
    146 H          18.6135   15.7567   37.7675 H         1 THR         0.0257
    147 H          19.0467   14.6738   36.4014 H         1 THR         0.0257
    148 H          17.4796   15.5517   36.3895 H         1 THR         0.0257
    149 H          17.9575   14.5600   33.5163 H         1 ARG         0.1883
    150 H          15.4567   15.9010   32.8147 H         1 ARG         0.0800
    151 H          16.2250   12.9495   32.7764 H         1 ARG         0.0313
    152 H          16.4058   14.1015   31.4100 H         1 ARG         0.0313
    153 H          13.9010   14.4526   31.5456 H         1 ARG         0.0301
    154 H          13.8599   13.0465   32.6626 H         1 ARG         0.0301
    155 H          15.0500   11.6938   30.9496 H         1 ARG         0.0689
    156 H          14.9827   13.0965   29.8296 H         1 ARG         0.0689
    157 H          12.3610   12.2784   30.8523 H         1 ARG         0.2642
    158 H          13.7137   11.0576   27.2225 H         1 ARG         0.2615
    159 H          14.8577   11.7557   28.4001 H         1 ARG         0.2615
    160 H          10.9136   11.3852   29.3482 H         1 ARG         0.2615
    161 H          11.5051   10.8558   27.7505 H         1 ARG         0.2615
    162 H          13.5908   15.8748   33.9007 H         1 LEU         0.1875
    163 H          13.5108   14.3825   36.4880 H         1 LEU         0.0726
    164 H          12.3784   16.2462   37.5192 H         1 LEU         0.0308
    165 H          12.2988   17.1268   35.9556 H         1 LEU         0.0308
    166 H          14.8465   17.1884   36.0341 H         1 LEU         0.0297
    167 H          14.8754   19.1394   37.5576 H         1 LEU         0.0232
    168 H          13.2627   18.6656   38.1911 H         1 LEU         0.0232
    169 H          13.4431   19.1603   36.4737 H         1 LEU         0.0232
    170 H          15.0980   15.4094   37.7199 H         1 LEU         0.0232
    171 H          14.2952   16.4573   38.9380 H         1 LEU         0.0232
    172 H          15.8765   16.9431   38.2380 H         1 LEU         0.0232
@<TRIPOS>BOND
     1    1    2 1  
     2    2    3 1  
     3    2    5 1  
     4    3    4 2  
     5    3    6 am 
     6    6    7 1  
     7    7    8 1  
     8    7   10 1  
     9    8    9 2  
    10    8   14 am 
    11   10   11 1  
    12   11   12 2  
    13   11   13 am 
    14   14   15 1  
    15   15   16 1  
    16   15   18 1  
    17   16   17 2  
    18   16   20 am 
    19   18   19 1  
    20   20   21 1  
    21   21   22 1  
    22   21   24 1  
    23   22   23 2  
    24   22   31 am 
    25   24   25 1  
    26   25   26 1  
    27   26   27 1  
    28   27   28 ar 
    29   28   29 ar 
    30   28   30 ar 
    31   31   32 1  
    32   32   33 1  
    33   32   35 1  
    34   33   34 2  
    35   33   45 am 
    36   35   36 1  
    37   36   37 2  
    38   36   38 1  
    39   37   39 1  
    40   38   40 ar 
    41   38   41 ar 
    42   39   40 1  
    43   40   42 ar 
    44   41   43 ar 
    45   42   44 ar 
    46   43   44 ar 
    47   45   46 1  
    48   46   47 1  
    49   46   49 1  
    50   47   48 2  
    51   47   54 am 
    52   49   50 1  
    53   50   51 1  
    54   51   52 2  
    55   51   53 am 
    56   54   55 1  
    57   55   56 1  
    58   55   58 1  
    59   56   57 2  
    60   56   62 am 
    61   58   59 1  
    62   59   60 ar 
    63   59   61 ar 
    64   62   63 1  
    65   63   64 1  
    66   63   66 1  
    67   64   65 2  
    68   64   69 am 
    69   66   67 1  
    70   66   68 1  
    71   69   70 1  
    72   70   71 1  
    73   70   73 1  
    74   71   72 2  
    75   71   80 am 
    76   73   74 1  
    77   74   75 1  
    78   75   76 1  
    79   76   77 ar 
    80   77   78 ar 
    81   77   79 ar 
    82   80   81 1  
    83   81   82 1  
    84   81   84 1  
    85   82   83 ar 
    86   82   88 ar 
    87   84   85 1  
    88   85   86 1  
    89   85   87 1  
    90    1   89 1  
    91    1   90 1  
    92    1   91 1  
    93    2   92 1  
    94    5   93 1  
    95    5   94 1  
    96    5   95 1  
    97    6   96 1  
    98    7   97 1  
    99   10   98 1  
   100   10   99 1  
   101   13  100 1  
   102   13  101 1  
   103   14  102 1  
   104   15  103 1  
   105   18  104 1  
   106   18  105 1  
   107   19  106 1  
   108   20  107 1  
   109   21  108 1  
   110   24  109 1  
   111   24  110 1  
   112   25  111 1  
   113   25  112 1  
   114   26  113 1  
   115   26  114 1  
   116   27  115 1  
   117   29  116 1  
   118   29  117 1  
   119   30  118 1  
   120   30  119 1  
   121   31  120 1  
   122   32  121 1  
   123   35  122 1  
   124   35  123 1  
   125   37  124 1  
   126   39  125 1  
   127   41  126 1  
   128   42  127 1  
   129   43  128 1  
   130   44  129 1  
   131   45  130 1  
   132   46  131 1  
   133   49  132 1  
   134   49  133 1  
   135   50  134 1  
   136   50  135 1  
   137   53  136 1  
   138   53  137 1  
   139   54  138 1  
   140   55  139 1  
   141   58  140 1  
   142   58  141 1  
   143   62  142 1  
   144   63  143 1  
   145   66  144 1  
   146   67  145 1  
   147   68  146 1  
   148   68  147 1  
   149   68  148 1  
   150   69  149 1  
   151   70  150 1  
   152   73  151 1  
   153   73  152 1  
   154   74  153 1  
   155   74  154 1  
   156   75  155 1  
   157   75  156 1  
   158   76  157 1  
   159   78  158 1  
   160   78  159 1  
   161   79  160 1  
   162   79  161 1  
   163   80  162 1  
   164   81  163 1  
   165   84  164 1  
   166   84  165 1  
   167   85  166 1  
   168   86  167 1  
   169   86  168 1  
   170   86  169 1  
   171   87  170 1  
   172   87  171 1  
   173   87  172 1  
@<TRIPOS>SUBSTRUCTURE
     1 ALA         1

