4k78_ligand
  -I-interpret- 

171172  0  0  0  0  0  0  0  0999 V2000
   32.1410   32.3620   35.3680 N   0  3  0  0  0
   31.2060   31.7420   34.4340 C   0  0  0  0  0
   31.7400   30.4050   33.9330 C   0  0  0  0  0
   32.8520   30.3270   33.4250 O   0  0  0  0  0
   30.9210   32.6740   33.2660 C   0  0  0  0  0
   30.9400   29.3540   34.0730 N   0  0  0  0  0
   31.3890   28.0120   33.7110 C   0  0  0  0  0
   30.9600   27.5960   32.3100 C   0  0  0  0  0
   29.8520   27.8960   31.8760 O   0  0  0  0  0
   30.8900   26.9990   34.7430 C   0  0  0  0  0
   31.4670   27.2430   36.1160 C   0  0  0  0  0
   32.6290   27.6170   36.2530 O   0  0  0  0  0
   30.6530   27.0460   37.1420 N   0  0  0  0  0
   31.8450   26.9080   31.6020 N   0  0  0  0  0
   31.5430   26.4770   30.2450 C   0  0  0  0  0
   30.6460   25.2400   30.2600 C   0  0  0  0  0
   29.9280   24.9730   29.2900 O   0  0  0  0  0
   32.8200   26.1660   29.4640 C   0  0  0  0  0
   33.3550   24.9220   29.8640 O   0  0  0  0  0
   30.6810   24.4650   31.3370 N   0  0  0  0  0
   30.0040   23.1900   31.4010 C   0  0  0  0  0
   28.9120   23.1410   32.4870 C   0  0  0  0  0
   29.2250   23.2680   33.6420 O   0  0  0  0  0
   30.9980   22.1090   31.7780 C   0  0  0  0  0
   31.3280   21.0980   30.7420 C   0  0  0  0  0
   31.5530   19.7520   31.4450 C   0  0  0  0  0
   32.0700   18.7740   30.5240 N   0  0  0  0  0
   33.1500   18.9920   29.7940 C   0  0  0  0  0
   33.8010   20.1310   29.9410 N   0  0  0  0  0
   33.5860   18.0830   28.9470 N   0  0  0  0  0
   27.6710   22.8610   32.1110 N   0  0  0  0  0
   26.5570   22.8000   33.0530 C   0  0  0  0  0
   25.9090   21.4250   33.0510 C   0  0  0  0  0
   25.6910   20.8350   31.9910 O   0  0  0  0  0
   25.4680   23.7950   32.6450 C   0  0  0  0  0
   25.8860   25.2220   32.5170 C   0  0  0  0  0
   27.1210   25.7530   32.7640 C   0  0  0  0  0
   25.0520   26.3130   32.1150 C   0  0  0  0  0
   27.1030   27.1110   32.5390 N   0  0  0  0  0
   25.8420   27.4780   32.1340 C   0  0  0  0  0
   23.7060   26.4160   31.7360 C   0  0  0  0  0
   25.3400   28.7280   31.7930 C   0  0  0  0  0
   23.2060   27.6600   31.3960 C   0  0  0  0  0
   24.0210   28.8010   31.4280 C   0  0  0  0  0
   25.5680   20.9460   34.2420 N   0  0  0  0  0
   24.8000   19.7230   34.3950 C   0  0  0  0  0
   23.4760   19.8670   33.6420 C   0  0  0  0  0
   22.9560   20.9740   33.5170 O   0  0  0  0  0
   24.5250   19.4780   35.8820 C   0  0  0  0  0
   25.7710   19.4710   36.7720 C   0  0  0  0  0
   25.8430   20.6600   37.7160 C   0  0  0  0  0
   25.7820   21.8150   37.2940 O   0  0  0  0  0
   25.9700   20.3790   39.0060 N   0  0  0  0  0
   22.9380   18.7620   33.1360 N   0  0  0  0  0
   21.6070   18.7830   32.5570 C   0  0  0  0  0
   20.8820   17.5410   33.0480 C   0  0  0  0  0
   21.3400   16.4220   32.8180 O   0  0  0  0  0
   21.7040   18.8000   31.0380 C   0  0  0  0  0
   20.3550   18.8820   30.3770 C   0  0  0  0  0
   19.7860   19.9910   30.3500 O   0  0  0  0  0
   19.8700   17.8400   29.8910 O   0  0  0  0  0
   19.7680   17.7290   33.7500 N   0  0  0  0  0
   19.1190   16.6140   34.4330 C   0  0  0  0  0
   17.6710   16.4900   34.0180 C   0  0  0  0  0
   16.9330   17.4680   34.0450 O   0  0  0  0  0
   19.2010   16.7810   35.9610 C   0  0  0  0  0
   20.5740   16.8680   36.3550 O   0  0  0  0  0
   18.5390   15.6090   36.6800 C   0  0  0  0  0
   17.2790   15.2890   33.6070 N   0  0  0  0  0
   15.8910   15.0070   33.2860 C   0  0  0  0  0
   15.0860   14.6890   34.5430 C   0  0  0  0  0
   15.5290   13.9130   35.4030 O   0  0  0  0  0
   15.8050   13.8450   32.2950 C   0  0  0  0  0
   14.4130   13.5250   31.8410 C   0  0  0  0  0
   14.4740   12.5850   30.6600 C   0  0  0  0  0
   13.1550   12.1600   30.2070 N   0  0  0  0  0
   12.9140   11.6290   29.0120 C   0  0  0  0  0
   13.9010   11.4690   28.1480 N   0  0  0  0  0
   11.6870   11.2630   28.6790 N   0  0  0  0  0
   13.9040   15.2900   34.6490 N   0  0  0  0  0
   13.0470   15.1250   35.8220 C   0  0  0  0  0
   11.6610   14.6380   35.4390 C   0  0  0  0  0
   11.2820   14.6410   34.2580 O   0  0  0  0  0
   12.9070   16.4530   36.5770 C   0  0  0  0  0
   14.2000   17.1860   36.9240 C   0  0  0  0  0
   13.9260   18.6400   37.3140 C   0  0  0  0  0
   14.9160   16.4490   38.0300 C   0  0  0  0  0
   10.8940   14.2520   36.3350 O   0  0  0  0  0
   32.3195   31.7232   36.1429 H   0  0  0  0  0
   33.0163   32.5663   34.8857 H   0  0  0  0  0
   31.7383   33.2282   35.7257 H   0  0  0  0  0
   30.2723   31.5557   34.9647 H   0  0  0  0  0
   31.8411   32.8466   32.7076 H   0  0  0  0  0
   30.1777   32.2180   32.6120 H   0  0  0  0  0
   30.5407   33.6228   33.6444 H   0  0  0  0  0
   29.9972   29.4861   34.4391 H   0  0  0  0  0
   32.4788   28.0317   33.7079 H   0  0  0  0  0
   31.2014   26.0062   34.4183 H   0  0  0  0  0
   29.8063   27.0938   34.8113 H   0  0  0  0  0
   30.9840   27.2054   38.0935 H   0  0  0  0  0
   29.6951   26.7349   36.9806 H   0  0  0  0  0
   32.7494   26.6777   32.0137 H   0  0  0  0  0
   31.0216   27.2972   29.7515 H   0  0  0  0  0
   33.5544   26.9468   29.6615 H   0  0  0  0  0
   32.5830   26.1237   28.4009 H   0  0  0  0  0
   34.1549   24.7434   29.3642 H   0  0  0  0  0
   31.2066   24.7820   32.1517 H   0  0  0  0  0
   29.5552   23.0414   30.4188 H   0  0  0  0  0
   30.5362   21.5549   32.5952 H   0  0  0  0  0
   31.9321   22.6282   31.9924 H   0  0  0  0  0
   32.2264   21.3941   30.2004 H   0  0  0  0  0
   30.5122   21.0154   30.0239 H   0  0  0  0  0
   30.5999   19.3965   31.8366 H   0  0  0  0  0
   32.2744   19.8923   32.2500 H   0  0  0  0  0
   31.5857   17.8811   30.4315 H   0  0  0  0  0
   34.6453   20.3097   29.3973 H   0  0  0  0  0
   33.4597   20.8324   30.5983 H   0  0  0  0  0
   33.0889   17.1978   28.8482 H   0  0  0  0  0
   27.4876   22.6810   31.1239 H   0  0  0  0  0
   26.9617   23.0296   34.0387 H   0  0  0  0  0
   24.7215   23.7686   33.4388 H   0  0  0  0  0
   25.1336   23.4878   31.6541 H   0  0  0  0  0
   27.9919   25.1849   33.0910 H   0  0  0  0  0
   23.0666   25.5336   31.7098 H   0  0  0  0  0
   25.9711   29.6165   31.8150 H   0  0  0  0  0
   22.1617   27.7551   31.0984 H   0  0  0  0  0
   23.5959   29.7673   31.1565 H   0  0  0  0  0
   25.8555   21.4547   35.0780 H   0  0  0  0  0
   25.3602   18.8803   33.9900 H   0  0  0  0  0
   24.0732   18.4893   35.9618 H   0  0  0  0  0
   23.8942   20.2974   36.2266 H   0  0  0  0  0
   26.6424   19.5161   36.1188 H   0  0  0  0  0
   25.7349   18.5682   37.3818 H   0  0  0  0  0
   26.0208   21.1341   39.6899 H   0  0  0  0  0
   26.0169   19.4078   39.3142 H   0  0  0  0  0
   23.4662   17.8896   33.1547 H   0  0  0  0  0
   21.0590   19.6761   32.8573 H   0  0  0  0  0
   22.1789   17.8717   30.7204 H   0  0  0  0  0
   22.2759   19.6810   30.7468 H   0  0  0  0  0
   20.4796   17.1110   30.0269 H   0  0  0  0  0
   19.3626   18.6629   33.8118 H   0  0  0  0  0
   19.6481   15.7055   34.1454 H   0  0  0  0  0
   18.6725   17.6936   36.2365 H   0  0  0  0  0
   20.6263   16.9722   37.3079 H   0  0  0  0  0
   17.4894   15.5533   36.3913 H   0  0  0  0  0
   19.0429   14.6830   36.4030 H   0  0  0  0  0
   18.6135   15.7565   37.7574 H   0  0  0  0  0
   17.9711   14.5454   33.5145 H   0  0  0  0  0
   15.4623   15.8988   32.8288 H   0  0  0  0  0
   16.1884   12.9603   32.8033 H   0  0  0  0  0
   16.3727   14.1344   31.4107 H   0  0  0  0  0
   13.9051   14.4441   31.5488 H   0  0  0  0  0
   13.8645   13.0514   32.6552 H   0  0  0  0  0
   15.0231   11.6957   30.9694 H   0  0  0  0  0
   14.9550   13.1138   29.8372 H   0  0  0  0  0
   12.3687   12.2772   30.8461 H   0  0  0  0  0
   14.8484   11.7529   28.3976 H   0  0  0  0  0
   11.5069   10.8598   27.7596 H   0  0  0  0  0
   10.9211   11.3841   29.3417 H   0  0  0  0  0
   13.5846   15.8864   33.8857 H   0  0  0  0  0
   13.5211   14.3790   36.4598 H   0  0  0  0  0
   12.4367   16.2080   37.5293 H   0  0  0  0  0
   12.3544   17.1181   35.9133 H   0  0  0  0  0
   14.8403   17.2071   36.0422 H   0  0  0  0  0
   13.4475   19.1544   36.4806 H   0  0  0  0  0
   13.2686   18.6640   38.1831 H   0  0  0  0  0
   14.8674   19.1337   37.5551 H   0  0  0  0  0
   14.2749   16.4058   38.9105 H   0  0  0  0  0
   15.1493   15.4371   37.6989 H   0  0  0  0  0
   15.8390   16.9739   38.2764 H   0  0  0  0  0
   11.3388   14.3126   37.1836 H   0  0  0  0  0
  1  2  1  0  0  0
  2  3  1  0  0  0
  2  5  1  0  0  0
  3  4  2  0  0  0
  3  6  1  0  0  0
  6  7  1  0  0  0
  7  8  1  0  0  0
  7 10  1  0  0  0
  8  9  2  0  0  0
  8 14  1  0  0  0
 10 11  1  0  0  0
 11 12  2  0  0  0
 11 13  1  0  0  0
 14 15  1  0  0  0
 15 16  1  0  0  0
 15 18  1  0  0  0
 16 17  2  0  0  0
 16 20  1  0  0  0
 18 19  1  0  0  0
 20 21  1  0  0  0
 21 22  1  0  0  0
 21 24  1  0  0  0
 22 23  2  0  0  0
 22 31  1  0  0  0
 24 25  1  0  0  0
 25 26  1  0  0  0
 26 27  1  0  0  0
 27 28  1  0  0  0
 28 29  1  0  0  0
 28 30  2  0  0  0
 31 32  1  0  0  0
 32 33  1  0  0  0
 32 35  1  0  0  0
 33 34  2  0  0  0
 33 45  1  0  0  0
 35 36  1  0  0  0
 36 37  4  0  0  0
 36 38  4  0  0  0
 37 39  4  0  0  0
 38 40  4  0  0  0
 38 41  4  0  0  0
 39 40  4  0  0  0
 40 42  4  0  0  0
 41 43  4  0  0  0
 42 44  4  0  0  0
 43 44  4  0  0  0
 45 46  1  0  0  0
 46 47  1  0  0  0
 46 49  1  0  0  0
 47 48  2  0  0  0
 47 54  1  0  0  0
 49 50  1  0  0  0
 50 51  1  0  0  0
 51 52  2  0  0  0
 51 53  1  0  0  0
 54 55  1  0  0  0
 55 56  1  0  0  0
 55 58  1  0  0  0
 56 57  2  0  0  0
 56 62  1  0  0  0
 58 59  1  0  0  0
 59 60  2  0  0  0
 59 61  1  0  0  0
 62 63  1  0  0  0
 63 64  1  0  0  0
 63 66  1  0  0  0
 64 65  2  0  0  0
 64 69  1  0  0  0
 66 67  1  0  0  0
 66 68  1  0  0  0
 69 70  1  0  0  0
 70 71  1  0  0  0
 70 73  1  0  0  0
 71 72  2  0  0  0
 71 80  1  0  0  0
 73 74  1  0  0  0
 74 75  1  0  0  0
 75 76  1  0  0  0
 76 77  1  0  0  0
 77 78  2  0  0  0
 77 79  1  0  0  0
 80 81  1  0  0  0
 81 82  1  0  0  0
 81 84  1  0  0  0
 82 83  2  0  0  0
 82 88  1  0  0  0
 84 85  1  0  0  0
 85 86  1  0  0  0
 85 87  1  0  0  0
  1 89  1  0  0  0
  1 90  1  0  0  0
  1 91  1  0  0  0
  2 92  1  0  0  0
  5 93  1  0  0  0
  5 94  1  0  0  0
  5 95  1  0  0  0
  6 96  1  0  0  0
  7 97  1  0  0  0
 10 98  1  0  0  0
 10 99  1  0  0  0
 13100  1  0  0  0
 13101  1  0  0  0
 14102  1  0  0  0
 15103  1  0  0  0
 18104  1  0  0  0
 18105  1  0  0  0
 19106  1  0  0  0
 20107  1  0  0  0
 21108  1  0  0  0
 24109  1  0  0  0
 24110  1  0  0  0
 25111  1  0  0  0
 25112  1  0  0  0
 26113  1  0  0  0
 26114  1  0  0  0
 27115  1  0  0  0
 29116  1  0  0  0
 29117  1  0  0  0
 30118  1  0  0  0
 31119  1  0  0  0
 32120  1  0  0  0
 35121  1  0  0  0
 35122  1  0  0  0
 37123  1  0  0  0
 41124  1  0  0  0
 42125  1  0  0  0
 43126  1  0  0  0
 44127  1  0  0  0
 45128  1  0  0  0
 46129  1  0  0  0
 49130  1  0  0  0
 49131  1  0  0  0
 50132  1  0  0  0
 50133  1  0  0  0
 53134  1  0  0  0
 53135  1  0  0  0
 54136  1  0  0  0
 55137  1  0  0  0
 58138  1  0  0  0
 58139  1  0  0  0
 61140  1  0  0  0
 62141  1  0  0  0
 63142  1  0  0  0
 66143  1  0  0  0
 67144  1  0  0  0
 68145  1  0  0  0
 68146  1  0  0  0
 68147  1  0  0  0
 69148  1  0  0  0
 70149  1  0  0  0
 73150  1  0  0  0
 73151  1  0  0  0
 74152  1  0  0  0
 74153  1  0  0  0
 75154  1  0  0  0
 75155  1  0  0  0
 76156  1  0  0  0
 78157  1  0  0  0
 79158  1  0  0  0
 79159  1  0  0  0
 80160  1  0  0  0
 81161  1  0  0  0
 84162  1  0  0  0
 84163  1  0  0  0
 85164  1  0  0  0
 86165  1  0  0  0
 86166  1  0  0  0
 86167  1  0  0  0
 87168  1  0  0  0
 87169  1  0  0  0
 87170  1  0  0  0
 88171  1  0  0  0
M  END
$$$$
