5w10_ligand
  -I-interpret- 

 34 37  0  0  0  0  0  0  0  0999 V2000
   48.9500   19.8980   40.7340 P   0  0  0  0  0
   47.5410   19.6310   41.1910 O   0  0  0  0  0
   50.0010   19.4900   41.7390 O   0  0  0  0  0
   49.2380   19.0240   39.4310 O   0  0  0  0  0
   48.6290   19.3670   38.1850 C   0  0  0  0  0
   48.8420   20.8230   37.9200 C   0  0  0  0  0
   48.0780   21.3080   36.8300 O   0  0  0  0  0
   48.2500   21.6310   39.0360 C   0  0  0  0  0
   49.0090   21.4100   40.1980 O   0  0  0  0  0
   48.2540   22.9940   38.3970 C   0  0  0  0  0
   49.5930   23.4610   38.5220 O   0  0  0  0  0
   47.9430   22.7160   36.9150 C   0  0  0  0  0
   46.5950   23.0350   36.4240 N   0  0  0  0  0
   45.4880   22.2830   36.6500 C   0  0  0  0  0
   44.4130   22.8670   36.0740 N   0  0  0  0  0
   44.7940   24.0140   35.4560 C   0  0  0  0  0
   44.1910   25.0890   34.6360 C   0  0  0  0  0
   42.8780   25.1720   34.2820 N   0  0  0  0  0
   44.9930   26.1080   34.2060 N   0  0  0  0  0
   46.3090   26.0950   34.4990 C   0  0  0  0  0
   46.9190   25.1430   35.2260 N   0  0  0  0  0
   46.2470   24.0940   35.7010 C   0  0  0  0  0
   50.8722   19.6865   41.3869 H   0  0  0  0  0
   47.5607   19.1549   38.2286 H   0  0  0  0  0
   49.0774   18.7793   37.3839 H   0  0  0  0  0
   49.9174   20.9155   37.7681 H   0  0  0  0  0
   47.2478   21.4072   39.4015 H   0  0  0  0  0
   47.5555   23.7134   38.8244 H   0  0  0  0  0
   49.6640   24.3345   38.1301 H   0  0  0  0  0
   48.5985   23.3462   36.3139 H   0  0  0  0  0
   45.4684   21.3489   37.2113 H   0  0  0  0  0
   42.2212   24.4536   34.5868 H   0  0  0  0  0
   42.5518   25.9526   33.7122 H   0  0  0  0  0
   46.9209   26.9135   34.1199 H   0  0  0  0  0
  1  2  2  0  0  0
  1  3  1  0  0  0
  1  4  1  0  0  0
  1  9  1  0  0  0
  4  5  1  0  0  0
  5  6  1  0  0  0
  6  7  1  0  0  0
  6  8  1  0  0  0
  7 12  1  0  0  0
  8  9  1  0  0  0
  8 10  1  0  0  0
 10 11  1  0  0  0
 10 12  1  0  0  0
 12 13  1  0  0  0
 13 14  4  0  0  0
 13 22  4  0  0  0
 14 15  4  0  0  0
 15 16  4  0  0  0
 16 17  4  0  0  0
 16 22  4  0  0  0
 17 18  1  0  0  0
 17 19  4  0  0  0
 19 20  4  0  0  0
 20 21  4  0  0  0
 21 22  4  0  0  0
  3 23  1  0  0  0
  5 24  1  0  0  0
  5 25  1  0  0  0
  6 26  1  0  0  0
  8 27  1  0  0  0
 10 28  1  0  0  0
 11 29  1  0  0  0
 12 30  1  0  0  0
 14 31  1  0  0  0
 18 32  1  0  0  0
 18 33  1  0  0  0
 20 34  1  0  0  0
M  END
$$$$
