### 
### Created by X-TOOL on Mon Sep 10 21:13:32 2018
### 

@<TRIPOS>MOLECULE
5w10_ligand
   33    36     1     0     0
SMALL
GAST_HUCK


@<TRIPOS>ATOM
      1 P          48.9500   19.8980   40.7340 P.3       1 CMP         0.2557
      2 O1P        47.5410   19.6310   41.1910 O.co2     1 CMP        -0.6177
      3 O2P        50.0010   19.4900   41.7390 O.co2     1 CMP        -0.6177
      4 O5'        49.2380   19.0240   39.4310 O.3       1 CMP        -0.2514
      5 C5'        48.6290   19.3670   38.1850 C.3       1 CMP         0.1128
      6 C4'        48.8420   20.8230   37.9200 C.3       1 CMP         0.1242
      7 O4'        48.0780   21.3080   36.8300 O.3       1 CMP        -0.3360
      8 C3'        48.2500   21.6310   39.0360 C.3       1 CMP         0.1540
      9 O3'        49.0090   21.4100   40.1980 O.3       1 CMP        -0.2453
     10 C2'        48.2540   22.9940   38.3970 C.3       1 CMP         0.1439
     11 O2'        49.5930   23.4610   38.5220 O.3       1 CMP        -0.3832
     12 C1'        47.9430   22.7160   36.9150 C.3       1 CMP         0.2014
     13 N9         46.5950   23.0350   36.4240 N.pl3     1 CMP        -0.1919
     14 C8         45.4880   22.2830   36.6500 C.2       1 CMP         0.1123
     15 N7         44.4130   22.8670   36.0740 N.2       1 CMP        -0.2958
     16 C5         44.7940   24.0140   35.4560 C.ar      1 CMP         0.1045
     17 C6         44.1910   25.0890   34.6360 C.ar      1 CMP         0.1298
     18 N6         42.8780   25.1720   34.2820 N.pl3     1 CMP        -0.3152
     19 N1         44.9930   26.1080   34.2060 N.ar      1 CMP        -0.2698
     20 C2         46.3090   26.0950   34.4990 C.ar      1 CMP         0.0533
     21 N3         46.9190   25.1430   35.2260 N.ar      1 CMP        -0.2714
     22 C4         46.2470   24.0940   35.7010 C.ar      1 CMP         0.1613
     23 H1         47.5506   19.1551   38.2315 H         1 CMP         0.0647
     24 H2         49.0844   18.7753   37.3773 H         1 CMP         0.0647
     25 H3         49.9150   21.0226   37.7829 H         1 CMP         0.0655
     26 H4         47.2134   21.3315   39.2501 H         1 CMP         0.0712
     27 H5         47.5308   23.6870   38.8516 H         1 CMP         0.0680
     28 H6         49.6632   24.3254   38.1342 H         1 CMP         0.2101
     29 H7         48.6792   23.2355   36.2840 H         1 CMP         0.0996
     30 H8         45.4685   21.3497   37.2108 H         1 CMP         0.1349
     31 H9         42.5486   25.9602   33.7066 H         1 CMP         0.1820
     32 H10        42.2148   24.4465   34.5898 H         1 CMP         0.1820
     33 H11        46.9176   26.9090   34.1220 H         1 CMP         0.0996
@<TRIPOS>BOND
     1    1    2 ar 
     2    1    3 ar 
     3    1    4 1  
     4    1    9 1  
     5    4    5 1  
     6    5    6 1  
     7    6    7 1  
     8    6    8 1  
     9    7   12 1  
    10    8    9 1  
    11    8   10 1  
    12   10   11 1  
    13   10   12 1  
    14   12   13 1  
    15   13   14 1  
    16   13   22 1  
    17   14   15 2  
    18   15   16 1  
    19   16   17 ar 
    20   16   22 ar 
    21   17   18 1  
    22   17   19 ar 
    23   19   20 ar 
    24   20   21 ar 
    25   21   22 ar 
    26    5   23 1  
    27    5   24 1  
    28    6   25 1  
    29    8   26 1  
    30   10   27 1  
    31   11   28 1  
    32   12   29 1  
    33   14   30 1  
    34   18   31 1  
    35   18   32 1  
    36   20   33 1  
@<TRIPOS>SUBSTRUCTURE
     1 CMP         1

