5nzm_ligand
  -I-interpret- 

 45 48  0  0  0  0  0  0  0  0999 V2000
   29.3990    5.2550    4.8360 C   0  0  0  0  0
   29.1840    3.5350    3.2250 C   0  0  0  0  0
   30.5360    3.6940    2.9410 C   0  0  0  0  0
   32.7180    5.1410    3.5720 C   0  0  0  0  0
   35.0770    6.4540    4.0010 C   0  0  0  0  0
   33.9890    6.8470    4.7480 C   0  0  0  0  0
   28.9680    6.4560    8.6390 C   0  0  0  0  0
   27.6460    5.7120    8.5710 C   0  0  0  0  0
   26.1800    5.2090    6.6940 C   0  0  0  0  0
   26.6430    5.4700    5.2430 C   0  0  0  0  0
   25.5940    6.1670    4.4420 C   0  0  0  0  0
   27.6080    6.5960    5.4060 C   0  0  0  0  0
   28.8850    6.1550    5.8030 C   0  0  0  0  0
   28.6020    4.3640    4.2070 C   0  0  0  0  0
   28.3590    2.5130    2.4940 C   0  0  0  0  0
   31.3280    4.6710    3.6200 C   0  0  0  0  0
   33.8580    4.7400    2.8130 C   0  0  0  0  0
   35.0390    5.4150    3.0480 C   0  0  0  0  0
   32.7970    6.1750    4.5180 C   0  0  0  0  0
   30.7670    5.4440    4.5510 C   0  0  0  0  0
   31.6140    6.3550    5.1040 N   0  0  0  0  0
   26.9540    5.8210    9.4850 O   0  0  0  0  0
   27.2560    4.8750    7.5180 O   0  0  0  0  0
   27.1650    4.2480    4.5520 O   0  0  0  0  0
   36.2560    7.1250    4.2440 O   0  0  0  0  0
   31.0011    3.0608    2.1854 H   0  0  0  0  0
   34.0607    7.6474    5.4845 H   0  0  0  0  0
   28.7774    7.5237    8.7473 H   0  0  0  0  0
   29.5407    6.0992    9.4951 H   0  0  0  0  0
   29.5316    6.2773    7.7233 H   0  0  0  0  0
   25.4758    4.3770    6.6889 H   0  0  0  0  0
   25.7173    6.1177    7.0791 H   0  0  0  0  0
   24.6950    5.5515    4.4090 H   0  0  0  0  0
   25.3624    7.1261    4.9052 H   0  0  0  0  0
   25.9612    6.3306    3.4288 H   0  0  0  0  0
   27.2243    7.2596    6.1809 H   0  0  0  0  0
   27.7083    7.0964    4.4429 H   0  0  0  0  0
   29.5528    7.0119    5.8914 H   0  0  0  0  0
   28.8104    5.6488    6.7654 H   0  0  0  0  0
   28.3724    2.7332    1.4266 H   0  0  0  0  0
   28.7755    1.5207    2.6668 H   0  0  0  0  0
   27.3330    2.5467    2.8604 H   0  0  0  0  0
   33.7988    3.9358    2.0797 H   0  0  0  0  0
   35.9406    5.1455    2.4980 H   0  0  0  0  0
   36.9451    6.7754    3.6743 H   0  0  0  0  0
 13  1  1  0  0  0
  1 14  4  0  0  0
  1 20  4  0  0  0
  2  3  4  0  0  0
 14  2  4  0  0  0
  2 15  1  0  0  0
  3 16  4  0  0  0
 16  4  4  0  0  0
  4 17  4  0  0  0
  4 19  4  0  0  0
  6  5  4  0  0  0
  5 18  4  0  0  0
  5 25  1  0  0  0
 19  6  4  0  0  0
  8  7  1  0  0  0
  8 22  2  0  0  0
 23  8  1  0  0  0
 10  9  1  0  0  0
  9 23  1  0  0  0
 10 11  1  0  0  0
 12 10  1  0  0  0
 10 24  1  0  0  0
 12 13  1  0  0  0
 14 24  1  0  0  0
 16 20  4  0  0  0
 17 18  4  0  0  0
 19 21  4  0  0  0
 20 21  4  0  0  0
  3 26  1  0  0  0
  6 27  1  0  0  0
  7 28  1  0  0  0
  7 29  1  0  0  0
  7 30  1  0  0  0
  9 31  1  0  0  0
  9 32  1  0  0  0
 11 33  1  0  0  0
 11 34  1  0  0  0
 11 35  1  0  0  0
 12 36  1  0  0  0
 12 37  1  0  0  0
 13 38  1  0  0  0
 13 39  1  0  0  0
 15 40  1  0  0  0
 15 41  1  0  0  0
 15 42  1  0  0  0
 17 43  1  0  0  0
 18 44  1  0  0  0
 25 45  1  0  0  0
M  END
$$$$
