5qaa_ligand
  -I-interpret- 

 29 30  0  0  0  0  0  0  0  0999 V2000
   97.7580  254.5490    6.2990 C   0  0  0  0  0
   98.8100  255.1260    6.6570 O   0  0  0  0  0
   97.4720  253.1960    6.8940 C   0  0  0  0  0
   94.7690  249.2920    4.0690 C   0  0  0  0  0
   96.9460  250.6880    7.9590 C   0  0  0  0  0
   96.5510  251.8260    8.6400 C   0  0  0  0  0
   96.8070  253.0760    8.1090 C   0  0  0  0  0
   97.8700  252.0480    6.2180 C   0  0  0  0  0
   97.5970  250.7830    6.7290 C   0  0  0  0  0
   97.8820  249.5760    5.9060 C   0  0  0  0  0
   99.1680  249.0360    5.8770 C   0  0  0  0  0
   99.4660  247.9690    5.0460 C   0  0  0  0  0
   98.4890  247.4140    4.2520 C   0  0  0  0  0
   97.2050  247.9270    4.2660 C   0  0  0  0  0
   96.9120  249.0070    5.0810 C   0  0  0  0  0
   95.6930  249.6240    5.1000 O   0  0  0  0  0
   96.9460  255.0010    5.4540 O   0  0  0  0  0
   95.2024  249.5411    3.1004 H   0  0  0  0  0
   94.5517  248.2246    4.1075 H   0  0  0  0  0
   93.8480  249.8570    4.2125 H   0  0  0  0  0
   96.7462  249.7063    8.3885 H   0  0  0  0  0
   96.0370  251.7364    9.5970 H   0  0  0  0  0
   96.4867  253.9700    8.6441 H   0  0  0  0  0
   98.4045  252.1405    5.2725 H   0  0  0  0  0
   99.9453  249.4577    6.5142 H   0  0  0  0  0
  100.4789  247.5671    5.0209 H   0  0  0  0  0
   98.7281  246.5666    3.6094 H   0  0  0  0  0
   96.4298  247.4846    3.6404 H   0  0  0  0  0
   96.2199  254.3822    5.3467 H   0  0  0  0  0
  1  2  2  0  0  0
  3  1  1  0  0  0
  1 17  1  0  0  0
  3  7  4  0  0  0
  8  3  4  0  0  0
 16  4  1  0  0  0
  5  6  4  0  0  0
  9  5  4  0  0  0
  6  7  4  0  0  0
  9  8  4  0  0  0
 10  9  1  0  0  0
 10 11  4  0  0  0
 15 10  4  0  0  0
 11 12  4  0  0  0
 13 12  4  0  0  0
 14 13  4  0  0  0
 15 14  4  0  0  0
 15 16  1  0  0  0
  4 18  1  0  0  0
  4 19  1  0  0  0
  4 20  1  0  0  0
  5 21  1  0  0  0
  6 22  1  0  0  0
  7 23  1  0  0  0
  8 24  1  0  0  0
 11 25  1  0  0  0
 12 26  1  0  0  0
 13 27  1  0  0  0
 14 28  1  0  0  0
 17 29  1  0  0  0
M  END
$$$$
