1hxb_ligand
  -I-interpret- 

100104  0  0  0  0  0  0  0  0999 V2000
   20.1680   -3.4210    6.0800 O   0  0  0  0  0
   19.0260   -3.5990    6.5160 C   0  0  0  0  0
   17.0310   -4.8170    6.8790 N   0  0  0  0  0
   18.3400   -4.8180    6.5140 C   0  0  0  0  0
   18.9700   -6.0340    6.2250 C   0  0  0  0  0
   18.2400   -7.2190    6.3330 C   0  0  0  0  0
   16.8980   -7.1660    6.7210 C   0  0  0  0  0
   16.1460   -8.3330    6.8450 C   0  0  0  0  0
   14.8060   -8.2410    7.2430 C   0  0  0  0  0
   14.2170   -7.0010    7.5160 C   0  0  0  0  0
   14.9660   -5.8350    7.3930 C   0  0  0  0  0
   16.2970   -5.9290    6.9950 C   0  0  0  0  0
   18.2790   -2.6270    7.0450 N   0  0  0  0  0
   18.7730   -1.2910    7.3000 C   0  0  0  0  0
   18.6260   -0.8980    8.7610 C   0  0  0  0  0
   17.7090   -0.1980    9.2080 O   0  0  0  0  0
   18.0410   -0.3040    6.4420 C   0  0  0  0  0
   18.4490   -0.5710    5.0140 C   0  0  0  0  0
   19.6160   -0.6910    4.6750 O   0  0  0  0  0
   17.5560   -0.7630    4.0770 N   0  0  0  0  0
   20.5870    0.0830   11.1880 C   0  0  0  0  0
   21.8770   -0.5100   11.1080 O   0  0  0  0  0
   19.5590   -1.0490   10.9830 C   0  0  0  0  0
   19.5670   -1.3870    9.5690 N   0  0  0  0  0
   19.8880   -2.3140   11.7920 C   0  0  0  0  0
   19.0890   -3.5050   11.3210 C   0  0  0  0  0
   17.7280   -3.5760   11.5980 C   0  0  0  0  0
   19.7250   -4.4940   10.5720 C   0  0  0  0  0
   16.9950   -4.6560   11.1170 C   0  0  0  0  0
   18.9830   -5.5600   10.1010 C   0  0  0  0  0
   17.6200   -5.6400   10.3700 C   0  0  0  0  0
   19.4210    1.9070   12.4190 N   0  3  0  0  0
   20.4640    0.8860   12.4880 C   0  0  0  0  0
   18.8880    2.2870   13.7380 C   0  0  0  0  0
   18.2420    1.1880   14.5710 C   0  0  0  0  0
   17.3660    0.4830   14.0690 O   0  0  0  0  0
   17.8450    3.3900   13.5940 C   0  0  0  0  0
   18.4400    4.6080   12.9310 C   0  0  0  0  0
   17.3550    5.6530   12.7550 C   0  0  0  0  0
   16.3630    5.2980   11.6560 C   0  0  0  0  0
   17.0720    5.0810   10.3330 C   0  0  0  0  0
   17.9910    3.8940   10.5180 C   0  0  0  0  0
   19.0660    4.2160   11.5430 C   0  0  0  0  0
   20.0220    3.0510   11.7430 C   0  0  0  0  0
   18.7210    1.1200   15.8140 N   0  0  0  0  0
   18.3340    0.1420   16.8130 C   0  0  0  0  0
   19.1540    0.4560   18.0370 C   0  0  0  0  0
   16.8870    0.3020   17.1980 C   0  0  0  0  0
   18.6330   -1.2900   16.3650 C   0  0  0  0  0
   20.0162   -6.0554    5.9198 H   0  0  0  0  0
   18.7123   -8.1773    6.1167 H   0  0  0  0  0
   16.5945   -9.3040    6.6351 H   0  0  0  0  0
   14.2124   -9.1499    7.3417 H   0  0  0  0  0
   13.1729   -6.9489    7.8246 H   0  0  0  0  0
   14.5183   -4.8640    7.6047 H   0  0  0  0  0
   17.3094   -2.8372    7.2818 H   0  0  0  0  0
   19.8354   -1.2839    7.0564 H   0  0  0  0  0
   18.2917    0.7170    6.7298 H   0  0  0  0  0
   16.9632   -0.4143    6.5617 H   0  0  0  0  0
   17.8530   -0.9978    3.1299 H   0  0  0  0  0
   16.5629   -0.6779    4.2938 H   0  0  0  0  0
   20.3975    0.8229   10.4104 H   0  0  0  0  0
   22.5471    0.1663   11.2313 H   0  0  0  0  0
   18.5868   -0.6960   11.3270 H   0  0  0  0  0
   20.2927   -1.9984    9.1950 H   0  0  0  0  0
   19.6396   -2.1266   12.8366 H   0  0  0  0  0
   20.9466   -2.5384   11.6611 H   0  0  0  0  0
   17.2422   -2.7959   12.1841 H   0  0  0  0  0
   20.7923   -4.4272   10.3610 H   0  0  0  0  0
   15.9281   -4.7276   11.3283 H   0  0  0  0  0
   19.4674   -6.3419    9.5161 H   0  0  0  0  0
   17.0412   -6.4821    9.9905 H   0  0  0  0  0
   18.6137    1.5437   11.9123 H   0  0  0  0  0
   20.2035    0.1929   13.2879 H   0  0  0  0  0
   21.4151    1.3885   12.6640 H   0  0  0  0  0
   19.7868    2.5958   14.2718 H   0  0  0  0  0
   17.4893    3.6686   14.5859 H   0  0  0  0  0
   17.0254    3.0200   12.9780 H   0  0  0  0  0
   19.2339    5.0180   13.5553 H   0  0  0  0  0
   17.8374    6.5903   12.4779 H   0  0  0  0  0
   16.8030    5.7209   13.6924 H   0  0  0  0  0
   15.6568    6.1206   11.5434 H   0  0  0  0  0
   15.8495    4.3772   11.9326 H   0  0  0  0  0
   17.6377    5.9677   10.0469 H   0  0  0  0  0
   16.3536    4.8937    9.5349 H   0  0  0  0  0
   18.4658    3.6589    9.5654 H   0  0  0  0  0
   17.4075    3.0428   10.8688 H   0  0  0  0  0
   19.6217    5.0658   11.1466 H   0  0  0  0  0
   20.3379    2.7160   10.7550 H   0  0  0  0  0
   20.8407    3.4057   12.3691 H   0  0  0  0  0
   19.4179    1.8139   16.0848 H   0  0  0  0  0
   20.2134    0.3746   17.7937 H   0  0  0  0  0
   18.9333    1.4701   18.3703 H   0  0  0  0  0
   18.9066   -0.2502   18.8295 H   0  0  0  0  0
   16.7295    1.2999   17.6074 H   0  0  0  0  0
   16.2606    0.1666   16.3163 H   0  0  0  0  0
   16.6272   -0.4450   17.9481 H   0  0  0  0  0
   18.0832   -1.5049   15.4487 H   0  0  0  0  0
   19.7023   -1.3964   16.1821 H   0  0  0  0  0
   18.3257   -1.9854   17.1461 H   0  0  0  0  0
 14 13  1  0  0  0
 14 17  1  0  0  0
 15 14  1  0  0  0
 15 16  2  0  0  0
 17 18  1  0  0  0
 18 20  1  0  0  0
 18 19  2  0  0  0
  2  1  2  0  0  0
  2  4  1  0  0  0
 13  2  1  0  0  0
  4  5  4  0  0  0
  5  6  4  0  0  0
  6  7  4  0  0  0
  7  8  4  0  0  0
  7 12  4  0  0  0
  8  9  4  0  0  0
  9 10  4  0  0  0
 11 10  4  0  0  0
 12 11  4  0  0  0
 21 22  1  0  0  0
 21 23  1  0  0  0
 23 24  1  0  0  0
 23 25  1  0  0  0
 24 15  1  0  0  0
 25 26  1  0  0  0
 26 27  4  0  0  0
 26 28  4  0  0  0
 27 29  4  0  0  0
 28 30  4  0  0  0
 29 31  4  0  0  0
 30 31  4  0  0  0
 33 32  1  0  0  0
 32 34  1  0  0  0
 32 44  1  0  0  0
 33 21  1  0  0  0
 34 35  1  0  0  0
 34 37  1  0  0  0
 35 36  2  0  0  0
 35 45  1  0  0  0
 37 38  1  0  0  0
 38 39  1  0  0  0
 38 43  1  0  0  0
 39 40  1  0  0  0
 40 41  1  0  0  0
 41 42  1  0  0  0
 42 43  1  0  0  0
 43 44  1  0  0  0
 45 46  1  0  0  0
 46 47  1  0  0  0
 46 48  1  0  0  0
 46 49  1  0  0  0
 12  3  4  0  0  0
  4  3  4  0  0  0
  5 50  1  0  0  0
  6 51  1  0  0  0
  8 52  1  0  0  0
  9 53  1  0  0  0
 10 54  1  0  0  0
 11 55  1  0  0  0
 13 56  1  0  0  0
 14 57  1  0  0  0
 17 58  1  0  0  0
 17 59  1  0  0  0
 20 60  1  0  0  0
 20 61  1  0  0  0
 21 62  1  0  0  0
 22 63  1  0  0  0
 23 64  1  0  0  0
 24 65  1  0  0  0
 25 66  1  0  0  0
 25 67  1  0  0  0
 27 68  1  0  0  0
 28 69  1  0  0  0
 29 70  1  0  0  0
 30 71  1  0  0  0
 31 72  1  0  0  0
 32 73  1  0  0  0
 33 74  1  0  0  0
 33 75  1  0  0  0
 34 76  1  0  0  0
 37 77  1  0  0  0
 37 78  1  0  0  0
 38 79  1  0  0  0
 39 80  1  0  0  0
 39 81  1  0  0  0
 40 82  1  0  0  0
 40 83  1  0  0  0
 41 84  1  0  0  0
 41 85  1  0  0  0
 42 86  1  0  0  0
 42 87  1  0  0  0
 43 88  1  0  0  0
 44 89  1  0  0  0
 44 90  1  0  0  0
 45 91  1  0  0  0
 47 92  1  0  0  0
 47 93  1  0  0  0
 47 94  1  0  0  0
 48 95  1  0  0  0
 48 96  1  0  0  0
 48 97  1  0  0  0
 49 98  1  0  0  0
 49 99  1  0  0  0
 49100  1  0  0  0
M  END
$$$$
