6hgj_ligand
  -I-interpret- 

 54 57  0  0  0  0  0  0  0  0999 V2000
  -36.6940   17.2040   -1.3370 C   0  0  0  0  0
  -39.1620   17.4400   -1.2940 C   0  0  0  0  0
  -38.1160   15.4000   -0.2710 C   0  0  0  0  0
  -38.0110   15.8350   -4.6950 C   0  0  0  0  0
  -36.7340   16.0080   -5.4520 C   0  0  0  0  0
  -36.6730   16.2870   -6.7550 C   0  0  0  0  0
  -37.8790   16.3270   -7.5640 C   0  0  0  0  0
  -38.0960   14.3480   -4.3550 C   0  0  0  0  0
  -36.1720   17.4920    0.9900 C   0  0  0  0  0
  -37.7040   17.5610    0.8280 C   0  0  0  0  0
  -38.4030   16.8100    1.9340 C   0  0  0  0  0
  -39.8710   17.0850    2.1540 C   0  0  0  0  0
  -35.5980   16.9260   -0.3150 C   0  0  0  0  0
  -37.9640   16.8950   -0.5290 C   0  0  0  0  0
  -36.6860   16.3630   -2.6030 C   0  0  0  0  0
  -37.9240   16.7240   -3.4330 C   0  0  0  0  0
  -39.2560   16.7170   -2.6440 C   0  0  0  0  0
  -39.6600   15.3970   -2.4180 O   0  0  0  0  0
  -39.2070   14.8480   -0.2380 O   0  0  0  0  0
  -37.8910   16.7970   -8.7090 O   0  0  0  0  0
  -39.1360   15.7590   -6.9520 C   0  0  0  0  0
  -39.2380   16.2580   -5.5240 C   0  0  0  0  0
  -35.4680   15.7870   -4.6950 C   0  0  0  0  0
  -35.4280   16.6220   -3.4210 C   0  0  0  0  0
  -37.8210   15.9990    2.6490 O   0  0  0  0  0
  -39.9250   18.0770    3.1290 O   0  0  0  0  0
  -36.5838   18.2150   -1.7292 H   0  0  0  0  0
  -39.0411   18.5111   -1.4559 H   0  0  0  0  0
  -40.0739   17.2728   -0.7208 H   0  0  0  0  0
  -37.2196   14.8012   -0.1101 H   0  0  0  0  0
  -35.7069   16.4873   -7.2182 H   0  0  0  0  0
  -37.2083   14.0532   -3.7954 H   0  0  0  0  0
  -38.9850   14.1648   -3.7515 H   0  0  0  0  0
  -38.1551   13.7687   -5.2764 H   0  0  0  0  0
  -35.9052   16.8545    1.8329 H   0  0  0  0  0
  -35.7638   18.4829    1.1889 H   0  0  0  0  0
  -38.0811   18.5825    0.8767 H   0  0  0  0  0
  -40.4012   16.1867    2.4703 H   0  0  0  0  0
  -40.3584   17.4050    1.2331 H   0  0  0  0  0
  -34.6476   17.3853   -0.5868 H   0  0  0  0  0
  -35.3567   15.8657   -0.2397 H   0  0  0  0  0
  -36.7010   15.3072   -2.3327 H   0  0  0  0  0
  -37.7846   17.7628   -3.7321 H   0  0  0  0  0
  -39.9822   17.2539   -3.2543 H   0  0  0  0  0
  -40.4860   15.3956   -1.9287 H   0  0  0  0  0
  -39.0991   14.6697   -6.9656 H   0  0  0  0  0
  -40.0075   16.0793   -7.5230 H   0  0  0  0  0
  -39.2880   17.3467   -5.5394 H   0  0  0  0  0
  -40.1298   15.8274   -5.0687 H   0  0  0  0  0
  -34.6308   16.0813   -5.3278 H   0  0  0  0  0
  -35.4087   14.7339   -4.4203 H   0  0  0  0  0
  -34.5511   16.3476   -2.8347 H   0  0  0  0  0
  -35.3758   17.6791   -3.6815 H   0  0  0  0  0
  -40.8419   18.2949    3.3118 H   0  0  0  0  0
  1 13  1  0  0  0
  1 14  1  0  0  0
 15  1  1  0  0  0
 14  2  1  0  0  0
  2 17  1  0  0  0
 14  3  1  0  0  0
  3 19  2  0  0  0
  4  5  1  0  0  0
  4  8  1  0  0  0
 16  4  1  0  0  0
  4 22  1  0  0  0
  5  6  2  0  0  0
  5 23  1  0  0  0
  6  7  1  0  0  0
  7 20  2  0  0  0
  7 21  1  0  0  0
 10  9  1  0  0  0
 13  9  1  0  0  0
 10 11  1  0  0  0
 14 10  1  0  0  0
 11 12  1  0  0  0
 11 25  2  0  0  0
 12 26  1  0  0  0
 15 16  1  0  0  0
 15 24  1  0  0  0
 16 17  1  0  0  0
 17 18  1  0  0  0
 21 22  1  0  0  0
 23 24  1  0  0  0
  1 27  1  0  0  0
  2 28  1  0  0  0
  2 29  1  0  0  0
  3 30  1  0  0  0
  6 31  1  0  0  0
  8 32  1  0  0  0
  8 33  1  0  0  0
  8 34  1  0  0  0
  9 35  1  0  0  0
  9 36  1  0  0  0
 10 37  1  0  0  0
 12 38  1  0  0  0
 12 39  1  0  0  0
 13 40  1  0  0  0
 13 41  1  0  0  0
 15 42  1  0  0  0
 16 43  1  0  0  0
 17 44  1  0  0  0
 18 45  1  0  0  0
 21 46  1  0  0  0
 21 47  1  0  0  0
 22 48  1  0  0  0
 22 49  1  0  0  0
 23 50  1  0  0  0
 23 51  1  0  0  0
 24 52  1  0  0  0
 24 53  1  0  0  0
 26 54  1  0  0  0
M  END
$$$$
