5un1_ligand
  -I-interpret- 

 33 36  0  0  0  0  0  0  0  0999 V2000
  -50.8820  -15.8260  -10.4180 C   0  0  0  0  0
  -51.0180  -15.9060   -8.9030 C   0  0  0  0  0
  -50.1950  -14.9220   -8.1570 C   0  0  0  0  0
  -49.0720  -14.3170   -8.7020 C   0  0  0  0  0
  -48.3500  -13.4120   -7.9340 C   0  0  0  0  0
  -48.7350  -13.1090   -6.6300 C   0  0  0  0  0
  -49.8520  -13.6990   -6.0440 C   0  0  0  0  0
  -50.6110  -14.6130   -6.7630 C   0  0  0  0  0
  -51.8370  -15.2640   -6.1310 C   0  0  0  0  0
  -52.4930  -16.2680   -7.0710 C   0  0  0  0  0
  -52.3640  -15.7120   -8.4050 N   0  3  0  0  0
  -51.6090  -17.4380   -7.2050 C   0  0  0  0  0
  -51.5570  -18.6000   -6.4610 C   0  0  0  0  0
  -50.5950  -19.5360   -6.8430 C   0  0  0  0  0
  -49.7210  -19.3340   -7.9200 C   0  0  0  0  0
  -49.7560  -18.1730   -8.6880 C   0  0  0  0  0
  -50.7070  -17.2360   -8.3290 C   0  0  0  0  0
  -51.5028  -16.5947  -10.8783 H   0  0  0  0  0
  -51.2062  -14.8428  -10.7592 H   0  0  0  0  0
  -49.8401  -15.9834  -10.6968 H   0  0  0  0  0
  -48.7599  -14.5488   -9.7203 H   0  0  0  0  0
  -47.4685  -12.9315   -8.3585 H   0  0  0  0  0
  -48.1480  -12.3931   -6.0547 H   0  0  0  0  0
  -50.1304  -13.4436   -5.0216 H   0  0  0  0  0
  -52.5619  -14.4819   -5.9053 H   0  0  0  0  0
  -51.5190  -15.7931   -5.2327 H   0  0  0  0  0
  -53.4997  -16.4905   -6.7172 H   0  0  0  0  0
  -53.0203  -16.1839   -9.0271 H   0  0  0  0  0
  -52.5651  -14.7126   -8.3699 H   0  0  0  0  0
  -52.2300  -18.7764   -5.6219 H   0  0  0  0  0
  -50.5199  -20.4655   -6.2787 H   0  0  0  0  0
  -48.9930  -20.1079   -8.1633 H   0  0  0  0  0
  -49.0739  -18.0124   -9.5229 H   0  0  0  0  0
  1  2  1  0  0  0
  2  3  1  0  0  0
  2 11  1  0  0  0
  2 17  1  0  0  0
  3  4  4  0  0  0
  3  8  4  0  0  0
  4  5  4  0  0  0
  5  6  4  0  0  0
  6  7  4  0  0  0
  7  8  4  0  0  0
  8  9  1  0  0  0
  9 10  1  0  0  0
 10 11  1  0  0  0
 10 12  1  0  0  0
 12 13  4  0  0  0
 12 17  4  0  0  0
 13 14  4  0  0  0
 14 15  4  0  0  0
 15 16  4  0  0  0
 16 17  4  0  0  0
  1 18  1  0  0  0
  1 19  1  0  0  0
  1 20  1  0  0  0
  4 21  1  0  0  0
  5 22  1  0  0  0
  6 23  1  0  0  0
  7 24  1  0  0  0
  9 25  1  0  0  0
  9 26  1  0  0  0
 10 27  1  0  0  0
 11 28  1  0  0  0
 11 29  1  0  0  0
 13 30  1  0  0  0
 14 31  1  0  0  0
 15 32  1  0  0  0
 16 33  1  0  0  0
M  END
$$$$
