4tvj_ligand
  -I-interpret- 

 53 57  0  0  0  0  0  0  0  0999 V2000
   16.4020   -7.5350   12.6810 C   0  0  0  0  0
   17.6490   -7.4050   13.2830 C   0  0  0  0  0
   16.7570   -6.1920   13.2670 C   0  0  0  0  0
   16.2000   -5.8620   14.6610 C   0  0  0  0  0
   15.2570   -6.5140   15.1140 O   0  0  0  0  0
   16.8100   -4.8650   15.3620 N   0  0  0  0  0
   17.9820   -4.1070   14.8650 C   0  0  0  0  0
   19.1900   -4.2450   15.7390 C   0  0  0  0  0
   16.3570   -4.6520   16.7490 C   0  0  0  0  0
   17.5990   -4.8690   17.5860 C   0  0  0  0  0
   18.6990   -4.0190   17.1200 N   0  0  0  0  0
   19.0550   -2.9570   17.8950 C   0  0  0  0  0
   18.5530   -2.8790   19.0210 O   0  0  0  0  0
   20.1040   -2.0070   17.5910 C   0  0  0  0  0
   19.8210   -0.6330   17.5700 C   0  0  0  0  0
   21.4230   -2.4090   17.3800 C   0  0  0  0  0
   21.7420   -3.7090   17.3940 F   0  0  0  0  0
   22.4100   -1.4750   17.1640 C   0  0  0  0  0
   22.1250   -0.0880   17.1600 C   0  0  0  0  0
   20.8210    0.3620   17.3710 C   0  0  0  0  0
   20.5120    1.7440   17.3360 C   0  0  0  0  0
   19.4670    2.1180   18.3150 C   0  0  0  0  0
   19.7400    2.4230   19.6360 C   0  0  0  0  0
   21.0490    2.3710   20.1340 C   0  0  0  0  0
   21.3450    2.6590   21.4580 C   0  0  0  0  0
   20.2880    2.9740   22.3220 C   0  0  0  0  0
   18.9830    3.0070   21.8430 C   0  0  0  0  0
   18.6890    2.7420   20.5210 C   0  0  0  0  0
   17.3780    2.8200   20.0520 C   0  0  0  0  0
   16.4090    3.1240   20.7760 O   0  0  0  0  0
   17.1870    2.5200   18.7000 N   0  0  0  0  0
   18.2000    2.2090   17.8930 N   0  0  0  0  0
   15.6805   -8.1623   12.1574 H   0  0  0  0  0
   18.5987   -7.8592   13.5658 H   0  0  0  0  0
   16.7608   -5.1655   12.9006 H   0  0  0  0  0
   17.7081   -3.0521   14.8454 H   0  0  0  0  0
   18.2388   -4.5037   13.8828 H   0  0  0  0  0
   19.9670   -3.5307   15.4666 H   0  0  0  0  0
   19.6533   -5.2259   15.6325 H   0  0  0  0  0
   15.5515   -5.3319   17.0264 H   0  0  0  0  0
   15.9331   -3.6583   16.8940 H   0  0  0  0  0
   17.9017   -5.9126   17.5000 H   0  0  0  0  0
   17.3730   -4.6136   18.6213 H   0  0  0  0  0
   18.7891   -0.3122   17.7124 H   0  0  0  0  0
   23.4330   -1.8099   16.9923 H   0  0  0  0  0
   22.9270    0.6307   16.9915 H   0  0  0  0  0
   20.1379    1.9791   16.3396 H   0  0  0  0  0
   21.4179    2.2968   17.5845 H   0  0  0  0  0
   21.8598    2.0956   19.4596 H   0  0  0  0  0
   22.3739    2.6407   21.8173 H   0  0  0  0  0
   20.4888    3.1934   23.3706 H   0  0  0  0  0
   18.1714    3.2484   22.5294 H   0  0  0  0  0
   16.2410    2.5399   18.3191 H   0  0  0  0  0
  1  2  2  0  0  0
  1  3  1  0  0  0
  2  3  1  0  0  0
  3  4  1  0  0  0
  4  5  2  0  0  0
  4  6  1  0  0  0
  6  7  1  0  0  0
  6  9  1  0  0  0
  7  8  1  0  0  0
  8 11  1  0  0  0
  9 10  1  0  0  0
 10 11  1  0  0  0
 11 12  1  0  0  0
 12 13  2  0  0  0
 12 14  1  0  0  0
 14 15  4  0  0  0
 14 16  4  0  0  0
 15 20  4  0  0  0
 16 17  1  0  0  0
 16 18  4  0  0  0
 18 19  4  0  0  0
 19 20  4  0  0  0
 20 21  1  0  0  0
 21 22  1  0  0  0
 22 23  1  0  0  0
 22 32  2  0  0  0
 23 24  4  0  0  0
 23 28  4  0  0  0
 24 25  4  0  0  0
 25 26  4  0  0  0
 26 27  4  0  0  0
 27 28  4  0  0  0
 28 29  1  0  0  0
 29 30  2  0  0  0
 29 31  1  0  0  0
 31 32  1  0  0  0
  1 33  1  0  0  0
  2 34  1  0  0  0
  3 35  1  0  0  0
  7 36  1  0  0  0
  7 37  1  0  0  0
  8 38  1  0  0  0
  8 39  1  0  0  0
  9 40  1  0  0  0
  9 41  1  0  0  0
 10 42  1  0  0  0
 10 43  1  0  0  0
 15 44  1  0  0  0
 18 45  1  0  0  0
 19 46  1  0  0  0
 21 47  1  0  0  0
 21 48  1  0  0  0
 24 49  1  0  0  0
 25 50  1  0  0  0
 26 51  1  0  0  0
 27 52  1  0  0  0
 31 53  1  0  0  0
M  END
$$$$
