5f3g_ligand
  -I-interpret- 

 58 62  0  0  0  0  0  0  0  0999 V2000
  -17.8210  -16.4050  -29.7830 C   0  0  0  0  0
  -18.8180  -16.9210  -28.9770 C   0  0  0  0  0
  -23.1910  -12.2550  -17.4650 N   0  0  0  0  0
  -21.2430  -17.3150  -28.4140 C   0  0  0  0  0
  -20.7850  -15.0140  -25.3120 C   0  0  0  0  0
  -21.4440  -14.9880  -22.4300 C   0  0  0  0  0
  -21.6520  -14.2250  -21.1470 C   0  0  0  0  0
  -22.3940  -14.6160  -20.0620 C   0  0  0  0  0
  -21.2230  -12.9270  -20.8150 C   0  0  0  0  0
  -23.1220  -13.4890  -17.9750 C   0  0  0  0  0
  -24.0370  -12.0830  -16.4420 C   0  0  0  0  0
  -24.6930  -14.3650  -16.4390 C   0  0  0  0  0
  -23.8080  -14.6190  -17.4950 C   0  0  0  0  0
  -24.3220  -16.8410  -17.4620 C   0  0  0  0  0
  -22.5740  -16.5010  -24.8520 C   0  0  0  0  0
  -19.4880  -15.4540  -31.2160 C   0  0  0  0  0
  -26.3280  -15.3530  -15.0330 O   0  0  0  0  0
  -25.4690  -15.4780  -15.8980 C   0  0  0  0  0
  -24.8160  -13.0860  -15.9040 C   0  0  0  0  0
  -25.2160  -16.6740  -16.4590 N   0  0  0  0  0
  -23.6160  -15.8830  -18.0120 N   0  0  0  0  0
  -22.4010  -13.5900  -19.1870 N   0  0  0  0  0
  -21.6730  -12.5320  -19.6370 N   0  0  0  0  0
  -22.3530  -14.4690  -23.5310 C   0  0  0  0  0
  -22.1630  -15.1000  -24.8420 N   0  3  0  0  0
  -20.6880  -15.4800  -26.7590 C   0  0  0  0  0
  -22.5580  -17.0510  -26.2710 C   0  0  0  0  0
  -21.1940  -16.9060  -26.9370 C   0  0  0  0  0
  -20.1570  -16.7190  -29.2750 C   0  0  0  0  0
  -20.4740  -15.9740  -30.4010 C   0  0  0  0  0
  -18.1700  -15.6780  -30.8970 C   0  0  0  0  0
  -16.9210  -15.0350  -31.9250 Cl  0  0  0  0  0
  -16.7719  -16.5720  -29.5390 H   0  0  0  0  0
  -18.5471  -17.4966  -28.0919 H   0  0  0  0  0
  -22.1926  -16.9546  -28.8097 H   0  0  0  0  0
  -21.1129  -18.3967  -28.4462 H   0  0  0  0  0
  -20.1572  -15.6524  -24.6904 H   0  0  0  0  0
  -20.4524  -13.9779  -25.2494 H   0  0  0  0  0
  -21.6771  -16.0379  -22.2523 H   0  0  0  0  0
  -20.4083  -14.8623  -22.7456 H   0  0  0  0  0
  -22.8874  -15.5791  -19.9310 H   0  0  0  0  0
  -20.5900  -12.3153  -21.4578 H   0  0  0  0  0
  -24.1152  -11.0869  -16.0064 H   0  0  0  0  0
  -24.1778  -17.8522  -17.8424 H   0  0  0  0  0
  -23.5862  -16.5760  -24.4545 H   0  0  0  0  0
  -21.8801  -17.0780  -24.2407 H   0  0  0  0  0
  -19.7514  -14.8737  -32.1003 H   0  0  0  0  0
  -25.5065  -12.8833  -15.0853 H   0  0  0  0  0
  -25.7197  -17.4910  -16.1137 H   0  0  0  0  0
  -22.1236  -13.4107  -23.6553 H   0  0  0  0  0
  -23.3757  -14.6862  -23.2228 H   0  0  0  0  0
  -22.7625  -14.5716  -25.4758 H   0  0  0  0  0
  -19.6395  -15.4517  -27.0557 H   0  0  0  0  0
  -21.3050  -14.8215  -27.3703 H   0  0  0  0  0
  -23.2815  -16.4864  -26.8591 H   0  0  0  0  0
  -22.7981  -18.1132  -26.2231 H   0  0  0  0  0
  -20.4916  -17.5845  -26.4529 H   0  0  0  0  0
  -21.5207  -15.7956  -30.6472 H   0  0  0  0  0
  2  1  4  0  0  0
  1 31  4  0  0  0
 29  2  4  0  0  0
 10  3  4  0  0  0
  3 11  4  0  0  0
 28  4  1  0  0  0
  4 29  1  0  0  0
  5 25  1  0  0  0
 26  5  1  0  0  0
  6  7  1  0  0  0
 24  6  1  0  0  0
  7  8  4  0  0  0
  7  9  4  0  0  0
  8 22  4  0  0  0
  9 23  4  0  0  0
 10 13  4  0  0  0
 22 10  1  0  0  0
 11 19  4  0  0  0
 13 12  4  0  0  0
 12 18  1  0  0  0
 12 19  4  0  0  0
 13 21  1  0  0  0
 14 20  1  0  0  0
 21 14  2  0  0  0
 25 15  1  0  0  0
 15 27  1  0  0  0
 16 30  4  0  0  0
 31 16  4  0  0  0
 18 17  2  0  0  0
 18 20  1  0  0  0
 23 22  4  0  0  0
 25 24  1  0  0  0
 26 28  1  0  0  0
 27 28  1  0  0  0
 29 30  4  0  0  0
 31 32  1  0  0  0
  1 33  1  0  0  0
  2 34  1  0  0  0
  4 35  1  0  0  0
  4 36  1  0  0  0
  5 37  1  0  0  0
  5 38  1  0  0  0
  6 39  1  0  0  0
  6 40  1  0  0  0
  8 41  1  0  0  0
  9 42  1  0  0  0
 11 43  1  0  0  0
 14 44  1  0  0  0
 15 45  1  0  0  0
 15 46  1  0  0  0
 16 47  1  0  0  0
 19 48  1  0  0  0
 20 49  1  0  0  0
 24 50  1  0  0  0
 24 51  1  0  0  0
 25 52  1  0  0  0
 26 53  1  0  0  0
 26 54  1  0  0  0
 27 55  1  0  0  0
 27 56  1  0  0  0
 28 57  1  0  0  0
 30 58  1  0  0  0
M  END
$$$$
