1bky_ligand
  -I-interpret- 

 16 16  0  0  0  0  0  0  0  0999 V2000
   18.4620   14.3930   19.9330 N   0  0  0  0  0
   18.5980   13.0500   19.9160 C   0  0  0  0  0
   16.7750   14.4510   21.6720 N   0  0  0  0  0
   15.8510   15.1680   22.5430 C   0  0  0  0  0
   17.5970   14.9970   20.7610 C   0  0  0  0  0
   17.5310   16.3820   20.6740 O   0  0  0  0  0
   19.4340   12.4620   19.0680 N   0  0  0  0  0
   17.7940   12.3450   20.8290 C   0  0  0  0  0
   16.9210   13.1190   21.6630 C   0  0  0  0  0
   14.8326   14.8345   22.3434 H   0  0  0  0  0
   16.1035   14.9654   23.5838 H   0  0  0  0  0
   15.9286   16.2381   22.3506 H   0  0  0  0  0
   19.9828   13.0261   18.4192 H   0  0  0  0  0
   19.5273   11.4463   19.0655 H   0  0  0  0  0
   17.8325   11.2580   20.8998 H   0  0  0  0  0
   16.3068   12.5606   22.3694 H   0  0  0  0  0
  5  1  1  0  0  0
  1  2  2  0  0  0
  2  8  1  0  0  0
  2  7  1  0  0  0
  8  9  2  0  0  0
  9  3  1  0  0  0
  3  5  1  0  0  0
  3  4  1  0  0  0
  5  6  2  0  0  0
  4 10  1  0  0  0
  4 11  1  0  0  0
  4 12  1  0  0  0
  7 13  1  0  0  0
  7 14  1  0  0  0
  8 15  1  0  0  0
  9 16  1  0  0  0
M  END
$$$$
