### 
### Created by X-TOOL on Mon Sep 10 21:13:20 2018
### 

@<TRIPOS>MOLECULE
4wx4_ligand
   55    57     1     0     0
SMALL
GAST_HUCK


@<TRIPOS>ATOM
      1 C1         -6.5500   -2.7730   18.7340 C.ar      1 3VF         0.0740
      2 C2         -7.3740   -3.1320   19.8090 C.ar      1 3VF        -0.0005
      3 C3         -7.3760   -2.3290   20.9700 C.ar      1 3VF         0.0275
      4 C11       -11.3430   -4.8830   13.3720 C.ar      1 3VF         0.1159
      5 C12       -10.0880   -5.1980   12.8410 C.ar      1 3VF         0.0598
      6 C13        -8.9370   -5.0450   13.5800 C.ar      1 3VF        -0.0318
      7 C14        -9.0090   -4.5060   14.8830 C.ar      1 3VF         0.0448
      8 C15       -10.2400   -4.1290   15.3540 C.ar      1 3VF        -0.0456
      9 C16       -11.4230   -4.3330   14.6220 C.ar      1 3VF        -0.0203
     10 C17       -10.0240   -5.7200   11.4040 C.2       1 3VF         0.1198
     11 C18        -9.4560   -7.1470   11.1040 C.3       1 3VF         0.0215
     12 C20        -7.9360   -6.9770   10.8430 C.ar      1 3VF        -0.0397
     13 C22        -7.7430   -4.3740   15.6310 C.2       1 3VF         0.2005
     14 C23        -6.9820   -7.5310   11.6740 C.ar      1 3VF        -0.0251
     15 C24        -5.6480   -7.3630   11.3700 C.ar      1 3VF         0.0699
     16 C25        -5.2070   -6.6200   10.2860 C.ar      1 3VF        -0.0056
     17 C26        -6.1840   -6.0790    9.4670 C.ar      1 3VF         0.0699
     18 C27        -7.5450   -6.2360    9.7320 C.ar      1 3VF        -0.0251
     19 C30       -13.6980   -5.0060   13.1840 C.3       1 3VF         0.0625
     20 N4         -6.5760   -1.2460   21.0500 N.ar      1 3VF        -0.2567
     21 C5         -5.7680   -0.9800   19.9200 C.ar      1 3VF         0.1514
     22 N6         -5.7840   -1.7000   18.8180 N.ar      1 3VF        -0.2466
     23 C7         -6.4340   -3.5720   17.4810 C.3       1 3VF         0.0866
     24 N8         -7.7410   -3.6900   16.7890 N.am      1 3VF        -0.2718
     25 C9         -4.9680    0.2080   20.0970 C.2       1 3VF         0.0594
     26 N10        -4.7820    0.9550   21.0380 N.2       1 3VF        -0.3299
     27 O19       -10.3490   -4.9800   10.4910 O.2       1 3VF        -0.3517
     28 O21       -12.4100   -5.0990   12.5530 O.3       1 3VF        -0.3121
     29 CL1        -4.4380   -8.0860   12.4010 Cl        1 3VF        -0.0625
     30 CL2        -5.6870   -5.1550    8.0780 Cl        1 3VF        -0.0625
     31 C31        -9.7420   -8.0850   12.2740 C.3       1 3VF        -0.0771
     32 C32       -10.1650   -7.6850    9.8160 C.3       1 3VF        -0.0771
     33 O33        -6.6900   -4.8450   15.1780 O.2       1 3VF        -0.3894
     34 H1         -8.0012   -4.0141   19.7499 H         1 3VF         0.0763
     35 H2         -8.0235   -2.5839   21.8011 H         1 3VF         0.0930
     36 H3         -7.9797   -5.3369   13.1636 H         1 3VF         0.0697
     37 H4        -10.3037   -3.6559   16.3272 H         1 3VF         0.0680
     38 H5        -12.3840   -4.0586   15.0418 H         1 3VF         0.0570
     39 H6         -7.2784   -8.0906   12.5538 H         1 3VF         0.0856
     40 H7         -4.1516   -6.4701   10.0895 H         1 3VF         0.0870
     41 H8         -8.2871   -5.7871    9.0817 H         1 3VF         0.0856
     42 H9        -14.4854   -5.1959   12.4398 H         1 3VF         0.0584
     43 H10       -13.8277   -3.9985   13.6060 H         1 3VF         0.0584
     44 H11       -13.7667   -5.7524   13.9891 H         1 3VF         0.0584
     45 H12        -6.0700   -4.5793   17.7317 H         1 3VF         0.0740
     46 H13        -5.7164   -3.0797   16.8082 H         1 3VF         0.0740
     47 H14        -8.5745   -3.2834   17.1630 H         1 3VF         0.1875
     48 H15        -4.4169    0.4947   19.2026 H         1 3VF         0.1164
     49 H16        -4.1660    1.7467   20.9389 H         1 3VF         0.1392
     50 H17       -10.8292   -8.1715   12.4173 H         1 3VF         0.0132
     51 H18        -9.2827   -7.6813   13.1884 H         1 3VF         0.0132
     52 H19        -9.3203   -9.0780   12.0594 H         1 3VF         0.0132
     53 H20        -9.9581   -7.0083    8.9738 H         1 3VF         0.0132
     54 H21       -11.2503   -7.7346    9.9884 H         1 3VF         0.0132
     55 H22        -9.7847   -8.6900    9.5807 H         1 3VF         0.0132
@<TRIPOS>BOND
     1    1    2 ar 
     2    1   22 ar 
     3   23    1 1  
     4    2    3 ar 
     5    3   20 ar 
     6    5    4 ar 
     7    9    4 ar 
     8    4   28 1  
     9    6    5 ar 
    10    5   10 1  
    11    7    6 ar 
    12    7    8 ar 
    13   13    7 1  
    14    8    9 ar 
    15   10   11 1  
    16   10   27 2  
    17   11   12 1  
    18   11   31 1  
    19   11   32 1  
    20   12   14 ar 
    21   12   18 ar 
    22   24   13 am 
    23   13   33 2  
    24   14   15 ar 
    25   15   16 ar 
    26   15   29 1  
    27   17   16 ar 
    28   18   17 ar 
    29   17   30 1  
    30   28   19 1  
    31   21   20 ar 
    32   22   21 ar 
    33   21   25 1  
    34   23   24 1  
    35   25   26 2  
    36    2   34 1  
    37    3   35 1  
    38    6   36 1  
    39    8   37 1  
    40    9   38 1  
    41   14   39 1  
    42   16   40 1  
    43   18   41 1  
    44   19   42 1  
    45   19   43 1  
    46   19   44 1  
    47   23   45 1  
    48   23   46 1  
    49   24   47 1  
    50   25   48 1  
    51   26   49 1  
    52   31   50 1  
    53   31   51 1  
    54   31   52 1  
    55   32   53 1  
    56   32   54 1  
    57   32   55 1  
@<TRIPOS>SUBSTRUCTURE
     1 3VF         1

