4wx4_ligand
  -I-interpret- 

 55 57  0  0  0  0  0  0  0  0999 V2000
   -6.5500   -2.7730   18.7340 C   0  0  0  0  0
   -7.3740   -3.1320   19.8090 C   0  0  0  0  0
   -7.3760   -2.3290   20.9700 C   0  0  0  0  0
  -11.3430   -4.8830   13.3720 C   0  0  0  0  0
  -10.0880   -5.1980   12.8410 C   0  0  0  0  0
   -8.9370   -5.0450   13.5800 C   0  0  0  0  0
   -9.0090   -4.5060   14.8830 C   0  0  0  0  0
  -10.2400   -4.1290   15.3540 C   0  0  0  0  0
  -11.4230   -4.3330   14.6220 C   0  0  0  0  0
  -10.0240   -5.7200   11.4040 C   0  0  0  0  0
   -9.4560   -7.1470   11.1040 C   0  0  0  0  0
   -7.9360   -6.9770   10.8430 C   0  0  0  0  0
   -7.7430   -4.3740   15.6310 C   0  0  0  0  0
   -6.9820   -7.5310   11.6740 C   0  0  0  0  0
   -5.6480   -7.3630   11.3700 C   0  0  0  0  0
   -5.2070   -6.6200   10.2860 C   0  0  0  0  0
   -6.1840   -6.0790    9.4670 C   0  0  0  0  0
   -7.5450   -6.2360    9.7320 C   0  0  0  0  0
  -13.6980   -5.0060   13.1840 C   0  0  0  0  0
   -6.5760   -1.2460   21.0500 N   0  0  0  0  0
   -5.7680   -0.9800   19.9200 C   0  0  0  0  0
   -5.7840   -1.7000   18.8180 N   0  0  0  0  0
   -6.4340   -3.5720   17.4810 C   0  0  0  0  0
   -7.7410   -3.6900   16.7890 N   0  0  0  0  0
   -4.9680    0.2080   20.0970 C   0  0  0  0  0
   -4.7820    0.9550   21.0380 N   0  0  0  0  0
  -10.3490   -4.9800   10.4910 O   0  0  0  0  0
  -12.4100   -5.0990   12.5530 O   0  0  0  0  0
   -4.4380   -8.0860   12.4010 Cl  0  0  0  0  0
   -5.6870   -5.1550    8.0780 Cl  0  0  0  0  0
   -9.7420   -8.0850   12.2740 C   0  0  0  0  0
  -10.1650   -7.6850    9.8160 C   0  0  0  0  0
   -6.6900   -4.8450   15.1780 O   0  0  0  0  0
   -8.0047   -4.0190   19.7496 H   0  0  0  0  0
   -8.0271   -2.5854   21.8057 H   0  0  0  0  0
   -7.9744   -5.3386   13.1613 H   0  0  0  0  0
  -10.3041   -3.6533   16.3326 H   0  0  0  0  0
  -12.3893   -4.0571   15.0442 H   0  0  0  0  0
   -7.2801   -8.0937   12.5587 H   0  0  0  0  0
   -4.1457   -6.4693   10.0884 H   0  0  0  0  0
   -8.2912   -5.7846    9.0781 H   0  0  0  0  0
  -13.7648   -5.7460   13.9815 H   0  0  0  0  0
  -13.8252   -4.0073   13.6017 H   0  0  0  0  0
  -14.4774   -5.1944   12.4456 H   0  0  0  0  0
   -6.0888   -4.5729   17.7402 H   0  0  0  0  0
   -5.7341   -3.0687   16.8139 H   0  0  0  0  0
   -8.5912   -3.2752   17.1704 H   0  0  0  0  0
   -4.4164    0.4949   19.2018 H   0  0  0  0  0
   -5.2493    0.7806   21.9277 H   0  0  0  0  0
   -9.2693   -7.6944   13.1751 H   0  0  0  0  0
  -10.8189   -8.1541   12.4278 H   0  0  0  0  0
   -9.3413   -9.0740   12.0515 H   0  0  0  0  0
  -11.2401   -7.7344    9.9884 H   0  0  0  0  0
   -9.9599   -7.0133    8.9824 H   0  0  0  0  0
   -9.7869   -8.6805    9.5836 H   0  0  0  0  0
  1  2  4  0  0  0
  1 22  4  0  0  0
 23  1  1  0  0  0
  2  3  4  0  0  0
  3 20  4  0  0  0
  5  4  4  0  0  0
  9  4  4  0  0  0
  4 28  1  0  0  0
  6  5  4  0  0  0
  5 10  1  0  0  0
  7  6  4  0  0  0
  7  8  4  0  0  0
 13  7  1  0  0  0
  8  9  4  0  0  0
 10 11  1  0  0  0
 10 27  2  0  0  0
 11 12  1  0  0  0
 11 31  1  0  0  0
 11 32  1  0  0  0
 12 14  4  0  0  0
 12 18  4  0  0  0
 24 13  1  0  0  0
 13 33  2  0  0  0
 14 15  4  0  0  0
 15 16  4  0  0  0
 15 29  1  0  0  0
 17 16  4  0  0  0
 18 17  4  0  0  0
 17 30  1  0  0  0
 28 19  1  0  0  0
 21 20  4  0  0  0
 22 21  4  0  0  0
 21 25  1  0  0  0
 23 24  1  0  0  0
 25 26  2  0  0  0
  2 34  1  0  0  0
  3 35  1  0  0  0
  6 36  1  0  0  0
  8 37  1  0  0  0
  9 38  1  0  0  0
 14 39  1  0  0  0
 16 40  1  0  0  0
 18 41  1  0  0  0
 19 42  1  0  0  0
 19 43  1  0  0  0
 19 44  1  0  0  0
 23 45  1  0  0  0
 23 46  1  0  0  0
 24 47  1  0  0  0
 25 48  1  0  0  0
 26 49  1  0  0  0
 31 50  1  0  0  0
 31 51  1  0  0  0
 31 52  1  0  0  0
 32 53  1  0  0  0
 32 54  1  0  0  0
 32 55  1  0  0  0
M  END
$$$$
