4y59_ligand
  -I-interpret- 

 28 30  0  0  0  0  0  0  0  0999 V2000
   13.4600   -5.9900    0.3460 C   0  0  0  0  0
   12.1490   -5.3660   -3.5420 C   0  0  0  0  0
   12.7250   -6.9190   -0.3850 C   0  0  0  0  0
   12.6990   -5.3590   -2.2150 C   0  0  0  0  0
    9.4810  -10.4160   -6.1790 C   0  0  0  0  0
    9.4280   -8.0780   -7.0710 C   0  0  0  0  0
    9.7300   -6.7250   -6.9630 C   0  0  0  0  0
   10.4110   -6.2520   -5.8480 C   0  0  0  0  0
   10.7900   -7.1310   -4.8400 C   0  0  0  0  0
    9.3490  -10.7380   -7.4530 F   0  0  0  0  0
    8.3520  -10.6670   -5.5430 F   0  0  0  0  0
   10.4550  -11.1290   -5.6440 F   0  0  0  0  0
    9.8070   -8.9570   -6.0630 C   0  0  0  0  0
   10.4880   -8.4840   -4.9470 C   0  0  0  0  0
   11.5200   -6.6230   -3.6440 C   0  0  0  0  0
   13.4330   -4.4620   -1.4510 C   0  0  0  0  0
   13.7860   -3.2500   -1.9630 O   0  0  0  0  0
   13.7930   -4.8030   -0.1900 N   0  0  0  0  0
   11.6750   -7.2520   -2.5550 O   0  0  0  0  0
   12.3640   -6.5570   -1.6720 C   0  0  0  0  0
   13.7689   -6.2276    1.3640 H   0  0  0  0  0
   12.2052   -4.5807   -4.2958 H   0  0  0  0  0
   12.4468   -7.8854    0.0356 H   0  0  0  0  0
    8.8942   -8.4493   -7.9458 H   0  0  0  0  0
    9.4325   -6.0354   -7.7530 H   0  0  0  0  0
   10.6481   -5.1914   -5.7637 H   0  0  0  0  0
   10.7849   -9.1733   -4.1566 H   0  0  0  0  0
   14.3317   -4.1406    0.3681 H   0  0  0  0  0
  3  1  2  0  0  0
  1 18  1  0  0  0
  2  4  4  0  0  0
 15  2  4  0  0  0
 20  3  1  0  0  0
  4 16  1  0  0  0
  4 20  4  0  0  0
  5 10  1  0  0  0
  5 11  1  0  0  0
  5 12  1  0  0  0
 13  5  1  0  0  0
  7  6  4  0  0  0
  6 13  4  0  0  0
  8  7  4  0  0  0
  9  8  4  0  0  0
  9 14  4  0  0  0
  9 15  1  0  0  0
 13 14  4  0  0  0
 15 19  4  0  0  0
 16 17  2  0  0  0
 16 18  1  0  0  0
 19 20  4  0  0  0
  1 21  1  0  0  0
  2 22  1  0  0  0
  3 23  1  0  0  0
  6 24  1  0  0  0
  7 25  1  0  0  0
  8 26  1  0  0  0
 14 27  1  0  0  0
 18 28  1  0  0  0
M  END
$$$$
