5tci_ligand
  -I-interpret- 

 37 39  0  0  0  0  0  0  0  0999 V2000
   68.2880  -10.3400   25.3590 C   0  0  0  0  0
   70.9460  -11.0080   21.6710 C   0  0  0  0  0
   69.8090  -10.5410   22.4840 C   0  0  0  0  0
   69.2050  -11.1410   24.4930 C   0  0  0  0  0
   67.3250  -11.5770   22.6330 C   0  0  0  0  0
   66.6540  -12.7940   22.3170 C   0  0  0  0  0
   65.2790  -12.8160   21.9580 C   0  0  0  0  0
   68.8160  -11.6000   23.0370 C   0  0  0  0  0
   60.7250  -11.0020   22.1470 C   0  0  0  0  0
   60.2330  -11.6390   20.9870 C   0  0  0  0  0
   61.1370  -12.2800   20.1020 C   0  0  0  0  0
   62.5450  -12.2800   20.3730 C   0  0  0  0  0
   63.0510  -11.6330   21.5300 C   0  0  0  0  0
   62.1060  -11.0090   22.4010 C   0  0  0  0  0
   64.5150  -11.6260   21.8760 C   0  0  0  0  0
   65.1690  -10.4320   22.1950 C   0  0  0  0  0
   66.5370  -10.3900   22.5530 C   0  0  0  0  0
   70.2560  -10.2220   23.9040 N   0  3  0  0  0
   71.8620  -11.4200   21.0690 N   0  0  0  0  0
   68.4870   -8.8460   25.1560 O   0  0  0  0  0
   63.3770  -12.8730   19.5420 F   0  0  0  0  0
   68.5041  -10.5773   26.4007 H   0  0  0  0  0
   67.2603  -10.5891   25.0946 H   0  0  0  0  0
   69.4090   -9.8000   21.7919 H   0  0  0  0  0
   69.3653  -11.9578   25.1967 H   0  0  0  0  0
   67.2092  -13.7314   22.3515 H   0  0  0  0  0
   64.8010  -13.7712   21.7406 H   0  0  0  0  0
   68.8990  -12.6380   22.7147 H   0  0  0  0  0
   60.0403  -10.5101   22.8379 H   0  0  0  0  0
   59.1642  -11.6381   20.7728 H   0  0  0  0  0
   60.7584  -12.7766   19.2086 H   0  0  0  0  0
   62.4729  -10.5170   23.3018 H   0  0  0  0  0
   64.6045   -9.5000   22.1668 H   0  0  0  0  0
   67.0001   -9.4281   22.7730 H   0  0  0  0  0
   70.2851   -9.2480   24.2054 H   0  0  0  0  0
   71.2338  -10.3637   24.1574 H   0  0  0  0  0
   67.8838   -8.3636   25.7261 H   0  0  0  0  0
  4  1  1  0  0  0
  1 20  1  0  0  0
  3  2  1  0  0  0
  2 19  3  0  0  0
  8  3  1  0  0  0
  3 18  1  0  0  0
  8  4  1  0  0  0
  4 18  1  0  0  0
  6  5  4  0  0  0
  5  8  1  0  0  0
  5 17  4  0  0  0
  7  6  4  0  0  0
 15  7  4  0  0  0
  9 10  4  0  0  0
 14  9  4  0  0  0
 11 10  4  0  0  0
 12 11  4  0  0  0
 13 12  4  0  0  0
 12 21  1  0  0  0
 13 14  4  0  0  0
 13 15  1  0  0  0
 15 16  4  0  0  0
 16 17  4  0  0  0
  1 22  1  0  0  0
  1 23  1  0  0  0
  3 24  1  0  0  0
  4 25  1  0  0  0
  6 26  1  0  0  0
  7 27  1  0  0  0
  8 28  1  0  0  0
  9 29  1  0  0  0
 10 30  1  0  0  0
 11 31  1  0  0  0
 14 32  1  0  0  0
 16 33  1  0  0  0
 17 34  1  0  0  0
 18 35  1  0  0  0
 18 36  1  0  0  0
 20 37  1  0  0  0
M  END
$$$$
