4zx8_ligand
  -I-interpret- 

 37 37  0  0  0  0  0  0  0  0999 V2000
   85.1950   15.6820   31.4880 C   0  0  0  0  0
   83.7760   15.2460   31.1940 C   0  0  0  0  0
   81.7730   16.5170   31.2260 C   0  0  0  0  0
   83.7630   14.1430   30.1620 C   0  0  0  0  0
   79.6400   17.5200   30.7140 C   0  0  0  0  0
   78.8790   17.9170   29.4690 C   0  0  0  0  0
   78.6790   16.8170   31.6490 C   0  0  0  0  0
   80.1820   18.7680   31.3780 C   0  0  0  0  0
   85.6860   16.8560   30.9310 C   0  0  0  0  0
   86.9870   17.2590   31.2020 C   0  0  0  0  0
   83.0020   16.3380   30.7190 N   0  0  0  0  0
   83.5370   12.8820   30.5500 N   0  0  0  0  0
   86.0030   14.9100   32.3180 C   0  0  0  0  0
   89.5800   17.0570   32.3920 Br  0  0  0  0  0
   87.7940   16.4870   32.0290 C   0  0  0  0  0
   87.3060   15.3120   32.5900 C   0  0  0  0  0
   80.6970   16.6710   30.3280 O   0  0  0  0  0
   81.5650   16.1330   32.3780 O   0  0  0  0  0
   83.9510   14.4030   28.9750 O   0  0  0  0  0
   83.5170   11.8090   29.5650 O   0  0  0  0  0
   83.3424   14.8771   32.1235 H   0  0  0  0  0
   79.5496   18.4376   28.7854 H   0  0  0  0  0
   78.4862   17.0232   28.9843 H   0  0  0  0  0
   78.0546   18.5753   29.7431 H   0  0  0  0  0
   78.2577   15.9458   31.1473 H   0  0  0  0  0
   79.2126   16.4993   32.5448 H   0  0  0  0  0
   77.8772   17.5015   31.9258 H   0  0  0  0  0
   80.7546   18.4881   32.2622 H   0  0  0  0  0
   80.8276   19.2990   30.6785 H   0  0  0  0  0
   79.3526   19.4123   31.6697 H   0  0  0  0  0
   85.0513   17.4598   30.2824 H   0  0  0  0  0
   87.3748   18.1799   30.7665 H   0  0  0  0  0
   83.3717   16.9708   30.0096 H   0  0  0  0  0
   83.3788   12.6724   31.5356 H   0  0  0  0  0
   85.6142   13.9902   32.7548 H   0  0  0  0  0
   87.9413   14.7095   33.2393 H   0  0  0  0  0
   83.3432   10.9743   30.0062 H   0  0  0  0  0
  2  1  1  0  0  0
  1  9  4  0  0  0
  1 13  4  0  0  0
  2  4  1  0  0  0
 11  2  1  0  0  0
  3 11  1  0  0  0
 17  3  1  0  0  0
  3 18  2  0  0  0
  4 12  1  0  0  0
  4 19  2  0  0  0
  5  6  1  0  0  0
  5  7  1  0  0  0
  5  8  1  0  0  0
  5 17  1  0  0  0
  9 10  4  0  0  0
 10 15  4  0  0  0
 12 20  1  0  0  0
 13 16  4  0  0  0
 15 14  1  0  0  0
 15 16  4  0  0  0
  2 21  1  0  0  0
  6 22  1  0  0  0
  6 23  1  0  0  0
  6 24  1  0  0  0
  7 25  1  0  0  0
  7 26  1  0  0  0
  7 27  1  0  0  0
  8 28  1  0  0  0
  8 29  1  0  0  0
  8 30  1  0  0  0
  9 31  1  0  0  0
 10 32  1  0  0  0
 11 33  1  0  0  0
 12 34  1  0  0  0
 13 35  1  0  0  0
 16 36  1  0  0  0
 20 37  1  0  0  0
M  END
$$$$
