6mo4_ligand
  -I-interpret- 

 50 50  0  0  0  0  0  0  0  0999 V2000
  -11.8970  -16.1520  -24.6990 N   0  0  0  0  0
  -19.4360  -20.0220  -33.6290 C   0  0  0  0  0
  -18.2010  -20.3080  -34.3120 O   0  0  0  0  0
  -19.4020  -18.6160  -33.0360 C   0  0  0  0  0
  -14.0850  -17.0480  -26.3800 C   0  0  0  0  0
  -15.0800  -17.2850  -27.3170 C   0  0  0  0  0
  -11.6770  -17.0120  -25.6910 C   0  0  0  0  0
  -10.8170  -15.7080  -23.8320 C   0  0  0  0  0
  -10.4160  -14.2470  -24.0960 C   0  0  0  0  0
  -11.6410  -13.3540  -24.2670 C   0  0  0  0  0
   -9.5750  -13.7210  -22.9340 C   0  0  0  0  0
   -9.8850  -14.7180  -26.8530 C   0  0  0  0  0
  -11.2330  -15.9100  -22.3860 C   0  0  0  0  0
  -18.3490  -18.4680  -32.0130 C   0  0  0  0  0
  -17.5600  -18.3790  -31.1390 C   0  0  0  0  0
  -16.5930  -18.2520  -30.1640 C   0  0  0  0  0
  -15.7110  -18.0110  -29.4090 C   0  0  0  0  0
  -14.7420  -17.7410  -28.6010 C   0  0  0  0  0
  -13.4190  -17.9560  -28.9260 C   0  0  0  0  0
  -12.4120  -17.7100  -27.9800 C   0  0  0  0  0
  -12.7500  -17.2590  -26.7060 C   0  0  0  0  0
  -10.4370  -16.6540  -21.6080 N   0  0  0  0  0
  -10.6120  -17.6110  -25.7930 O   0  0  0  0  0
   -9.2240  -12.6490  -25.6250 O   0  0  0  0  0
   -8.1210  -14.6650  -25.1220 O   0  0  0  0  0
  -12.2840  -15.4260  -21.9800 O   0  0  0  0  0
  -10.7230  -16.8030  -20.2370 O   0  0  0  0  0
   -9.3900  -14.0620  -25.4270 S   0  0  0  0  0
  -12.8409  -15.7977  -24.5440 H   0  0  0  0  0
  -19.5721  -20.7440  -32.8238 H   0  0  0  0  0
  -20.2590  -20.0876  -34.3407 H   0  0  0  0  0
  -18.2374  -21.1943  -34.6790 H   0  0  0  0  0
  -20.3647  -18.4244  -32.5620 H   0  0  0  0  0
  -19.1929  -17.9128  -33.8422 H   0  0  0  0  0
  -14.3509  -16.6948  -25.3837 H   0  0  0  0  0
  -16.1249  -17.1171  -27.0562 H   0  0  0  0  0
   -9.9323  -16.3069  -24.0482 H   0  0  0  0  0
  -11.3235  -12.3137  -24.3389 H   0  0  0  0  0
  -12.1713  -13.6370  -25.1763 H   0  0  0  0  0
  -12.3004  -13.4754  -23.4076 H   0  0  0  0  0
   -8.6655  -14.3155  -22.8471 H   0  0  0  0  0
   -9.3133  -12.6792  -23.1190 H   0  0  0  0  0
  -10.1483  -13.7944  -22.0098 H   0  0  0  0  0
  -10.8303  -14.2646  -27.1513 H   0  0  0  0  0
   -9.1325  -14.5296  -27.6188 H   0  0  0  0  0
  -10.0189  -15.7927  -26.7300 H   0  0  0  0  0
  -13.1550  -18.3178  -29.9197 H   0  0  0  0  0
  -11.3663  -17.8717  -28.2418 H   0  0  0  0  0
   -9.6204  -17.1146  -22.0097 H   0  0  0  0  0
  -10.0573  -17.3634  -19.8315 H   0  0  0  0  0
  7  1  1  0  0  0
  1  8  1  0  0  0
  2  3  1  0  0  0
  4  2  1  0  0  0
 14  4  1  0  0  0
  6  5  4  0  0  0
  5 21  4  0  0  0
 18  6  4  0  0  0
 21  7  1  0  0  0
  7 23  2  0  0  0
  8  9  1  0  0  0
  8 13  1  0  0  0
  9 10  1  0  0  0
  9 11  1  0  0  0
  9 28  1  0  0  0
 28 12  1  0  0  0
 13 22  1  0  0  0
 13 26  2  0  0  0
 15 14  3  0  0  0
 16 15  1  0  0  0
 17 16  3  0  0  0
 17 18  1  0  0  0
 18 19  4  0  0  0
 19 20  4  0  0  0
 20 21  4  0  0  0
 22 27  1  0  0  0
 28 24  2  0  0  0
 28 25  2  0  0  0
  1 29  1  0  0  0
  2 30  1  0  0  0
  2 31  1  0  0  0
  3 32  1  0  0  0
  4 33  1  0  0  0
  4 34  1  0  0  0
  5 35  1  0  0  0
  6 36  1  0  0  0
  8 37  1  0  0  0
 10 38  1  0  0  0
 10 39  1  0  0  0
 10 40  1  0  0  0
 11 41  1  0  0  0
 11 42  1  0  0  0
 11 43  1  0  0  0
 12 44  1  0  0  0
 12 45  1  0  0  0
 12 46  1  0  0  0
 19 47  1  0  0  0
 20 48  1  0  0  0
 22 49  1  0  0  0
 27 50  1  0  0  0
M  END
$$$$
