6eeh_ligand
  -I-interpret- 

 36 37  0  0  0  0  0  0  0  0999 V2000
   -3.7510    9.6130   13.6410 C   0  0  0  0  0
   -2.0390   10.6750   14.9460 C   0  0  0  0  0
   -1.7820    8.3970   14.2560 C   0  0  0  0  0
   -4.5670    0.8060   13.6350 C   0  0  0  0  0
   -4.2530    1.2150   12.3610 C   0  0  0  0  0
   -4.0670    2.5600   12.0890 C   0  0  0  0  0
   -4.2110    3.5070   13.0810 C   0  0  0  0  0
   -4.5200    3.1240   14.3670 C   0  0  0  0  0
   -4.6930    1.7720   14.6140 C   0  0  0  0  0
   -3.7350    3.0020   10.8090 O   0  0  0  0  0
   -3.9830    4.8860   12.6830 N   0  0  0  0  0
   -3.6080    5.9730   13.5560 C   0  0  0  0  0
   -3.4330    7.2560   12.9210 N   0  0  0  0  0
   -3.4620    5.8490   14.7200 O   0  0  0  0  0
   -3.0130    8.4450   13.6310 C   0  0  0  0  0
   -3.2600   10.7260   14.3090 C   0  0  0  0  0
   -1.2980    9.5110   14.9180 C   0  0  0  0  0
   -1.0580    7.2400   14.2250 F   0  0  0  0  0
   -0.0950    9.4700   15.5490 F   0  0  0  0  0
   -1.5660   11.7740   15.6060 F   0  0  0  0  0
   -3.9690   11.8870   14.3490 F   0  0  0  0  0
   -4.9550    9.6540   13.0100 F   0  0  0  0  0
   -4.1400    0.2070   11.3370 N   0  0  0  0  0
   -3.9120   -0.9090   11.6370 O   0  0  0  0  0
   -4.3820    0.5710   10.0110 O   0  0  0  0  0
   -5.1360    1.2030   16.2550 S   0  0  0  0  0
   -4.2230    1.6910   17.2890 O   0  0  0  0  0
   -6.4640    1.7000   16.5710 O   0  0  0  0  0
   -5.0490   -0.4610   16.2760 N   0  0  0  0  0
   -4.7123   -0.2493   13.8659 H   0  0  0  0  0
   -4.6250    3.8601   15.1640 H   0  0  0  0  0
   -3.6480    3.9580   10.8144 H   0  0  0  0  0
   -4.0988    5.1066   11.6939 H   0  0  0  0  0
   -3.6146    7.3291   11.9200 H   0  0  0  0  0
   -4.4321   -0.9311   16.9384 H   0  0  0  0  0
   -5.6127   -1.0094   15.6264 H   0  0  0  0  0
 15  1  4  0  0  0
  1 16  4  0  0  0
  1 22  1  0  0  0
 16  2  4  0  0  0
 17  2  4  0  0  0
  2 20  1  0  0  0
 15  3  4  0  0  0
  3 17  4  0  0  0
  3 18  1  0  0  0
  5  4  4  0  0  0
  9  4  4  0  0  0
  6  5  4  0  0  0
  5 23  1  0  0  0
  7  6  4  0  0  0
  6 10  1  0  0  0
  7  8  4  0  0  0
 11  7  1  0  0  0
  8  9  4  0  0  0
  9 26  1  0  0  0
 12 11  1  0  0  0
 13 12  1  0  0  0
 12 14  2  0  0  0
 13 15  1  0  0  0
 16 21  1  0  0  0
 17 19  1  0  0  0
 23 24  2  0  0  0
 23 25  2  0  0  0
 26 27  2  0  0  0
 26 28  2  0  0  0
 26 29  1  0  0  0
  4 30  1  0  0  0
  8 31  1  0  0  0
 10 32  1  0  0  0
 11 33  1  0  0  0
 13 34  1  0  0  0
 29 35  1  0  0  0
 29 36  1  0  0  0
M  END
$$$$
