### 
### Created by X-TOOL on Mon Sep 10 21:13:31 2018
### 

@<TRIPOS>MOLECULE
5kns_ligand
   47    48     1     0     0
SMALL
GAST_HUCK


@<TRIPOS>ATOM
      1 OAD       -28.7480   41.9050  -44.9230 O.co2     1 3L7        -0.5622
      2 PBA       -29.7480   42.5270  -43.9980 P.3       1 3L7         0.0600
      3 OAE       -30.6690   43.4170  -44.7810 O.co2     1 3L7        -0.5622
      4 OAB       -29.0280   43.3460  -42.9570 O.co2     1 3L7        -0.5622
      5 CAP       -30.7100   41.2280  -43.1820 C.3       1 3L7         0.0430
      6 CAK       -31.7880   40.6780  -44.0770 C.3       1 3L7         0.0626
      7 OAU       -32.9650   40.4890  -43.3040 O.3       1 3L7        -0.3771
      8 CAJ       -34.1500   40.8120  -43.9920 C.3       1 3L7         0.0604
      9 CAL       -35.0020   41.6980  -43.0950 C.3       1 3L7         0.0225
     10 NAY       -36.1880   42.1250  -43.7840 N.3       1 3L7        -0.2962
     11 CAN       -36.8090   40.9970  -44.4030 C.3       1 3L7         0.0140
     12 CAQ       -38.3020   41.2360  -44.5800 C.3       1 3L7         0.0323
     13 PBB       -39.1670   39.7180  -45.1560 P.3       1 3L7         0.0591
     14 OAF       -39.2950   39.7460  -46.6550 O.co2     1 3L7        -0.5622
     15 OAG       -38.3710   38.5040  -44.7360 O.co2     1 3L7        -0.5622
     16 OAC       -40.5490   39.6300  -44.5490 O.co2     1 3L7        -0.5622
     17 CAM       -37.0970   42.7200  -42.8620 C.3       1 3L7         0.0269
     18 CAO       -36.5080   43.9980  -42.2820 C.3       1 3L7         0.0722
     19 N9        -37.3240   44.4940  -41.2320 N.pl3     1 3L7        -0.2326
     20 C4        -36.8600   45.2550  -40.3080 C.2       1 3L7         0.1334
     21 N3        -35.6450   45.7520  -40.0640 N.2       1 3L7        -0.2684
     22 C2        -35.4190   46.5470  -38.9930 C.2       1 3L7         0.1273
     23 N1        -36.4780   46.8270  -38.1630 N.am      1 3L7        -0.2042
     24 C6        -37.7310   46.3040  -38.4290 C.2       1 3L7         0.2200
     25 O6        -38.7870   46.5920  -37.5910 O.2       1 3L7        -0.4066
     26 C5        -37.9180   45.5180  -39.5030 C.2       1 3L7         0.1043
     27 N7        -39.0090   44.8420  -40.0590 N.2       1 3L7        -0.3156
     28 C8        -38.5580   44.2210  -41.1440 C.2       1 3L7         0.0980
     29 H1        -31.1778   41.6468  -42.2788 H         1 3L7         0.0474
     30 H2        -30.0323   40.4094  -42.8981 H         1 3L7         0.0474
     31 H3        -31.4637   39.7157  -44.4998 H         1 3L7         0.0574
     32 H4        -31.9903   41.3875  -44.8929 H         1 3L7         0.0574
     33 H5        -34.7007   39.8914  -44.2353 H         1 3L7         0.0572
     34 H6        -33.9056   41.3493  -44.9202 H         1 3L7         0.0572
     35 H7        -34.4176   42.5819  -42.8000 H         1 3L7         0.0449
     36 H8        -35.2900   41.1322  -42.1967 H         1 3L7         0.0449
     37 H9        -36.6576   40.1093  -43.7712 H         1 3L7         0.0440
     38 H10       -36.3509   40.8280  -45.3887 H         1 3L7         0.0440
     39 H11       -38.4503   42.0346  -45.3218 H         1 3L7         0.0464
     40 H12       -38.7306   41.5470  -43.6158 H         1 3L7         0.0464
     41 H13       -37.2996   42.0117  -42.0452 H         1 3L7         0.0454
     42 H14       -38.0364   42.9581  -43.3824 H         1 3L7         0.0454
     43 H15       -36.4395   44.7568  -43.0754 H         1 3L7         0.0631
     44 H16       -35.5026   43.7866  -41.8890 H         1 3L7         0.0631
     45 H17       -34.4281   46.9527  -38.7946 H         1 3L7         0.1493
     46 H18       -36.3423   47.4115  -37.3630 H         1 3L7         0.2557
     47 H19       -39.1366   43.5986  -41.8250 H         1 3L7         0.1212
@<TRIPOS>BOND
     1    1    2 ar 
     2    2    3 ar 
     3    2    4 ar 
     4    2    5 1  
     5    5    6 1  
     6    6    7 1  
     7    7    8 1  
     8    8    9 1  
     9    9   10 1  
    10   10   11 1  
    11   10   17 1  
    12   11   12 1  
    13   12   13 1  
    14   13   14 ar 
    15   13   15 ar 
    16   13   16 ar 
    17   17   18 1  
    18   18   19 1  
    19   19   20 1  
    20   19   28 1  
    21   20   21 1  
    22   20   26 2  
    23   21   22 2  
    24   22   23 am 
    25   23   24 am 
    26   24   25 2  
    27   24   26 1  
    28   26   27 1  
    29   27   28 2  
    30    5   29 1  
    31    5   30 1  
    32    6   31 1  
    33    6   32 1  
    34    8   33 1  
    35    8   34 1  
    36    9   35 1  
    37    9   36 1  
    38   11   37 1  
    39   11   38 1  
    40   12   39 1  
    41   12   40 1  
    42   17   41 1  
    43   17   42 1  
    44   18   43 1  
    45   18   44 1  
    46   22   45 1  
    47   23   46 1  
    48   28   47 1  
@<TRIPOS>SUBSTRUCTURE
     1 3L7         1

