5kns_ligand
  -I-interpret- 

 51 52  0  0  0  0  0  0  0  0999 V2000
  -28.7480   41.9050  -44.9230 O   0  0  0  0  0
  -29.7480   42.5270  -43.9980 P   0  0  0  0  0
  -30.6690   43.4170  -44.7810 O   0  0  0  0  0
  -29.0280   43.3460  -42.9570 O   0  0  0  0  0
  -30.7100   41.2280  -43.1820 C   0  0  0  0  0
  -31.7880   40.6780  -44.0770 C   0  0  0  0  0
  -32.9650   40.4890  -43.3040 O   0  0  0  0  0
  -34.1500   40.8120  -43.9920 C   0  0  0  0  0
  -35.0020   41.6980  -43.0950 C   0  0  0  0  0
  -36.1880   42.1250  -43.7840 N   0  0  0  0  0
  -36.8090   40.9970  -44.4030 C   0  0  0  0  0
  -38.3020   41.2360  -44.5800 C   0  0  0  0  0
  -39.1670   39.7180  -45.1560 P   0  0  0  0  0
  -39.2950   39.7460  -46.6550 O   0  0  0  0  0
  -38.3710   38.5040  -44.7360 O   0  0  0  0  0
  -40.5490   39.6300  -44.5490 O   0  0  0  0  0
  -37.0970   42.7200  -42.8620 C   0  0  0  0  0
  -36.5080   43.9980  -42.2820 C   0  0  0  0  0
  -37.3240   44.4940  -41.2320 N   0  0  0  0  0
  -36.8600   45.2550  -40.3080 C   0  0  0  0  0
  -35.6450   45.7520  -40.0640 N   0  0  0  0  0
  -35.4190   46.5470  -38.9930 C   0  0  0  0  0
  -36.4780   46.8270  -38.1630 N   0  0  0  0  0
  -37.7310   46.3040  -38.4290 C   0  0  0  0  0
  -38.7870   46.5920  -37.5910 O   0  0  0  0  0
  -37.9180   45.5180  -39.5030 C   0  0  0  0  0
  -39.0090   44.8420  -40.0590 N   0  0  0  0  0
  -38.5580   44.2210  -41.1440 C   0  0  0  0  0
  -31.3094   43.8150  -44.1867 H   0  0  0  0  0
  -29.6699   43.7443  -42.3646 H   0  0  0  0  0
  -31.1855   41.6586  -42.3008 H   0  0  0  0  0
  -30.0330   40.4137  -42.9239 H   0  0  0  0  0
  -31.4674   39.7277  -44.5039 H   0  0  0  0  0
  -31.9863   41.3750  -44.8912 H   0  0  0  0  0
  -34.6951   39.9019  -44.2424 H   0  0  0  0  0
  -33.9121   41.3376  -44.9168 H   0  0  0  0  0
  -34.4218   42.5768  -42.8134 H   0  0  0  0  0
  -35.2926   41.1299  -42.2113 H   0  0  0  0  0
  -36.6645   40.1225  -43.7686 H   0  0  0  0  0
  -36.3583   40.8398  -45.3829 H   0  0  0  0  0
  -38.4396   42.0160  -45.3289 H   0  0  0  0  0
  -38.7209   41.5266  -43.6166 H   0  0  0  0  0
  -38.2917   38.4900  -43.7794 H   0  0  0  0  0
  -40.4763   39.6116  -43.5919 H   0  0  0  0  0
  -37.2882   42.0181  -42.0503 H   0  0  0  0  0
  -38.0229   42.9619  -43.3838 H   0  0  0  0  0
  -36.4513   44.7494  -43.0696 H   0  0  0  0  0
  -35.5162   43.7809  -41.8854 H   0  0  0  0  0
  -34.4272   46.9531  -38.7944 H   0  0  0  0  0
  -36.3396   47.4232  -37.3470 H   0  0  0  0  0
  -39.1371   43.5980  -41.8256 H   0  0  0  0  0
  1  2  2  0  0  0
  2  3  1  0  0  0
  2  4  1  0  0  0
  2  5  1  0  0  0
  5  6  1  0  0  0
  6  7  1  0  0  0
  7  8  1  0  0  0
  8  9  1  0  0  0
  9 10  1  0  0  0
 10 11  1  0  0  0
 10 17  1  0  0  0
 11 12  1  0  0  0
 12 13  1  0  0  0
 13 14  2  0  0  0
 13 15  1  0  0  0
 13 16  1  0  0  0
 17 18  1  0  0  0
 18 19  1  0  0  0
 19 20  4  0  0  0
 19 28  4  0  0  0
 20 21  1  0  0  0
 20 26  4  0  0  0
 21 22  2  0  0  0
 22 23  1  0  0  0
 23 24  1  0  0  0
 24 25  2  0  0  0
 24 26  1  0  0  0
 26 27  4  0  0  0
 27 28  4  0  0  0
  3 29  1  0  0  0
  4 30  1  0  0  0
  5 31  1  0  0  0
  5 32  1  0  0  0
  6 33  1  0  0  0
  6 34  1  0  0  0
  8 35  1  0  0  0
  8 36  1  0  0  0
  9 37  1  0  0  0
  9 38  1  0  0  0
 11 39  1  0  0  0
 11 40  1  0  0  0
 12 41  1  0  0  0
 12 42  1  0  0  0
 15 43  1  0  0  0
 16 44  1  0  0  0
 17 45  1  0  0  0
 17 46  1  0  0  0
 18 47  1  0  0  0
 18 48  1  0  0  0
 22 49  1  0  0  0
 23 50  1  0  0  0
 28 51  1  0  0  0
M  END
$$$$
