5opc_ligand
  -I-interpret- 

 22 22  0  0  0  0  0  0  0  0999 V2000
  -24.0200   20.9030   -5.6670 O   0  0  0  0  0
  -24.5710   22.2200   -5.8860 C   0  0  0  0  0
  -25.6050   22.4090   -6.7620 C   0  0  0  0  0
  -26.1880   21.2210   -7.5240 C   0  0  0  0  0
  -25.6950   19.9250   -7.3220 N   0  0  0  0  0
  -26.2880   18.7750   -8.0940 C   0  0  0  0  0
  -25.4250   18.4190   -9.2340 C   0  0  0  0  0
  -25.2590   17.2610   -9.5170 O   0  0  0  0  0
  -24.8220   19.3830   -9.9260 O   0  0  0  0  0
  -27.0520   21.3930   -8.3090 O   0  0  0  0  0
  -26.1220   23.6190   -6.9720 N   0  0  0  0  0
  -25.6520   24.6830   -6.3370 C   0  0  0  0  0
  -24.6160   24.5780   -5.4420 C   0  0  0  0  0
  -24.0480   23.3270   -5.1980 C   0  0  0  0  0
  -23.3077   20.9579   -5.0258 H   0  0  0  0  0
  -24.9395   19.7612   -6.6566 H   0  0  0  0  0
  -27.2680   19.0688   -8.4700 H   0  0  0  0  0
  -26.3754   17.9126   -7.4332 H   0  0  0  0  0
  -25.0675   20.2373   -9.5633 H   0  0  0  0  0
  -26.0961   25.6598   -6.5288 H   0  0  0  0  0
  -24.2411   25.4627   -4.9274 H   0  0  0  0  0
  -23.2232   23.2124   -4.4946 H   0  0  0  0  0
  1  2  1  0  0  0
  2  3  4  0  0  0
  2 14  4  0  0  0
  3  4  1  0  0  0
  3 11  4  0  0  0
  4  5  1  0  0  0
  4 10  2  0  0  0
  5  6  1  0  0  0
  6  7  1  0  0  0
  7  8  2  0  0  0
  7  9  1  0  0  0
 11 12  4  0  0  0
 12 13  4  0  0  0
 13 14  4  0  0  0
  1 15  1  0  0  0
  5 16  1  0  0  0
  6 17  1  0  0  0
  6 18  1  0  0  0
  9 19  1  0  0  0
 12 20  1  0  0  0
 13 21  1  0  0  0
 14 22  1  0  0  0
M  END
$$$$
