3gds_ligand
  -I-interpret- 

 82 84  0  0  0  0  0  0  0  0999 V2000
    3.8950  -30.7490    8.8200 N   0  3  0  0  0
    3.6630  -31.4850   10.0570 C   0  0  0  0  0
    2.2040  -31.9120   10.1740 C   0  0  0  0  0
    1.2950  -31.1170    9.9350 O   0  0  0  0  0
    4.0380  -30.6460   11.2930 C   0  0  0  0  0
    3.9850  -31.5020   12.5510 C   0  0  0  0  0
    5.4180  -30.0330   11.1200 C   0  0  0  0  0
    1.9880  -33.1690   10.5450 N   0  0  0  0  0
    0.6390  -33.7070   10.6820 C   0  0  0  0  0
    0.3680  -34.1670   12.1120 C   0  0  0  0  0
    1.1110  -34.9790   12.6590 O   0  0  0  0  0
    0.4280  -34.8700    9.7110 C   0  0  0  0  0
    0.6970  -34.5250    8.2630 C   0  0  0  0  0
   -0.2220  -33.7900    7.5220 C   0  0  0  0  0
    1.8650  -34.9400    7.6340 C   0  0  0  0  0
    0.0190  -33.4720    6.1950 C   0  0  0  0  0
    2.1140  -34.6290    6.3070 C   0  0  0  0  0
    1.1870  -33.8960    5.5930 C   0  0  0  0  0
    1.4290  -33.5840    4.2750 O   0  0  0  0  0
   -0.6980  -33.6420   12.7100 N   0  0  0  0  0
   -1.0860  -34.0250   14.0640 C   0  0  0  0  0
   -2.3640  -34.8550   14.0570 C   0  0  0  0  0
   -3.3660  -34.4610   13.4600 O   0  0  0  0  0
   -1.2830  -32.7860   14.9410 C   0  0  0  0  0
   -0.0480  -31.9290   15.0840 C   0  0  0  0  0
    0.8950  -32.1940   16.0700 C   0  0  0  0  0
    0.1750  -30.8520   14.2350 C   0  0  0  0  0
    2.0290  -31.4100   16.2060 C   0  0  0  0  0
    1.3040  -30.0620   14.3620 C   0  0  0  0  0
    2.2280  -30.3460   15.3480 C   0  0  0  0  0
    3.3520  -29.5630   15.4780 O   0  0  0  0  0
   -2.3230  -36.0040   14.7250 N   0  0  0  0  0
   -3.4970  -36.8610   14.8500 C   0  0  0  0  0
   -3.3320  -37.8660   15.9840 C   0  0  0  0  0
   -4.3130  -38.4120   16.4860 O   0  0  0  0  0
   -3.7870  -37.5880   13.5340 C   0  0  0  0  0
   -2.6330  -38.3980   13.0190 C   0  0  0  0  0
   -1.6690  -37.8160   12.2090 C   0  0  0  0  0
   -2.5130  -39.7420   13.3380 C   0  0  0  0  0
   -0.6040  -38.5580   11.7290 C   0  0  0  0  0
   -1.4500  -40.4910   12.8620 C   0  0  0  0  0
   -0.4940  -39.8980   12.0560 C   0  0  0  0  0
   -2.2190  -38.1520   16.4250 O   0  0  0  0  0
    3.6367  -31.3331    8.0247 H   0  0  0  0  0
    3.3282  -29.9010    8.8189 H   0  0  0  0  0
    4.8819  -30.4998    8.7540 H   0  0  0  0  0
    4.2998  -32.3690   10.0216 H   0  0  0  0  0
    3.3144  -29.8374   11.3965 H   0  0  0  0  0
    4.7206  -32.3028   12.4753 H   0  0  0  0  0
    4.2082  -30.8829   13.4199 H   0  0  0  0  0
    2.9884  -31.9310   12.6553 H   0  0  0  0  0
    5.6472  -29.4078   11.9829 H   0  0  0  0  0
    6.1595  -30.8277   11.0383 H   0  0  0  0  0
    5.4335  -29.4255   10.2151 H   0  0  0  0  0
    2.7861  -33.7738   10.7391 H   0  0  0  0  0
   -0.0632  -32.9085   10.4421 H   0  0  0  0  0
   -0.6194  -35.1630    9.7827 H   0  0  0  0  0
    1.1313  -35.6544    9.9908 H   0  0  0  0  0
   -1.1474  -33.4585    7.9929 H   0  0  0  0  0
    2.5979  -35.5203    8.1946 H   0  0  0  0  0
   -0.7093  -32.8905    5.6297 H   0  0  0  0  0
    3.0360  -34.9609    5.8297 H   0  0  0  0  0
    2.2765  -33.9496    4.0112 H   0  0  0  0  0
   -1.2593  -32.9533   12.2089 H   0  0  0  0  0
   -0.2796  -34.6310   14.4770 H   0  0  0  0  0
   -1.5499  -33.1359   15.9382 H   0  0  0  0  0
   -2.0479  -32.1724   14.4651 H   0  0  0  0  0
    0.7396  -33.0332   16.7480 H   0  0  0  0  0
   -0.5521  -30.6254   13.4552 H   0  0  0  0  0
    2.7591  -31.6312   16.9846 H   0  0  0  0  0
    1.4630  -29.2205   13.6877 H   0  0  0  0  0
    3.3388  -28.8729   14.8107 H   0  0  0  0  0
   -1.4478  -36.2938   15.1614 H   0  0  0  0  0
   -4.3460  -36.2195   15.0860 H   0  0  0  0  0
   -4.0084  -36.8272   12.7855 H   0  0  0  0  0
   -4.6100  -38.2781   13.7196 H   0  0  0  0  0
   -1.7513  -36.7611   11.9473 H   0  0  0  0  0
   -3.2642  -40.2145   13.9709 H   0  0  0  0  0
    0.1470  -38.0876   11.0943 H   0  0  0  0  0
   -1.3663  -41.5463   13.1218 H   0  0  0  0  0
    0.3437  -40.4852   11.6796 H   0  0  0  0  0
   -1.5497  -37.6575   15.9464 H   0  0  0  0  0
  1  2  1  0  0  0
  2  3  1  0  0  0
  2  5  1  0  0  0
  3  4  2  0  0  0
  3  8  1  0  0  0
  5  6  1  0  0  0
  5  7  1  0  0  0
  8  9  1  0  0  0
  9 10  1  0  0  0
  9 12  1  0  0  0
 10 11  2  0  0  0
 10 20  1  0  0  0
 12 13  1  0  0  0
 13 14  4  0  0  0
 13 15  4  0  0  0
 14 16  4  0  0  0
 15 17  4  0  0  0
 16 18  4  0  0  0
 17 18  4  0  0  0
 18 19  1  0  0  0
 20 21  1  0  0  0
 21 22  1  0  0  0
 21 24  1  0  0  0
 22 23  2  0  0  0
 22 32  1  0  0  0
 24 25  1  0  0  0
 25 26  4  0  0  0
 25 27  4  0  0  0
 26 28  4  0  0  0
 27 29  4  0  0  0
 28 30  4  0  0  0
 29 30  4  0  0  0
 30 31  1  0  0  0
 32 33  1  0  0  0
 33 34  1  0  0  0
 33 36  1  0  0  0
 34 35  2  0  0  0
 34 43  1  0  0  0
 36 37  1  0  0  0
 37 38  4  0  0  0
 37 39  4  0  0  0
 38 40  4  0  0  0
 39 41  4  0  0  0
 40 42  4  0  0  0
 41 42  4  0  0  0
  1 44  1  0  0  0
  1 45  1  0  0  0
  1 46  1  0  0  0
  2 47  1  0  0  0
  5 48  1  0  0  0
  6 49  1  0  0  0
  6 50  1  0  0  0
  6 51  1  0  0  0
  7 52  1  0  0  0
  7 53  1  0  0  0
  7 54  1  0  0  0
  8 55  1  0  0  0
  9 56  1  0  0  0
 12 57  1  0  0  0
 12 58  1  0  0  0
 14 59  1  0  0  0
 15 60  1  0  0  0
 16 61  1  0  0  0
 17 62  1  0  0  0
 19 63  1  0  0  0
 20 64  1  0  0  0
 21 65  1  0  0  0
 24 66  1  0  0  0
 24 67  1  0  0  0
 26 68  1  0  0  0
 27 69  1  0  0  0
 28 70  1  0  0  0
 29 71  1  0  0  0
 31 72  1  0  0  0
 32 73  1  0  0  0
 33 74  1  0  0  0
 36 75  1  0  0  0
 36 76  1  0  0  0
 38 77  1  0  0  0
 39 78  1  0  0  0
 40 79  1  0  0  0
 41 80  1  0  0  0
 42 81  1  0  0  0
 43 82  1  0  0  0
M  END
$$$$
