5nn4_ligand
  -I-interpret- 

 19 18  0  0  0  0  0  0  0  0999 V2000
  -10.1440   -4.8150  102.0560 C   0  0  0  0  0
   -7.9010   -5.9270  102.3200 C   0  0  0  0  0
   -8.0230   -3.9550  104.9340 C   0  0  0  0  0
   -8.7630   -4.7160  102.6720 C   0  0  0  0  0
   -8.8400   -4.6400  104.1260 N   0  0  0  0  0
  -11.0880   -4.2740  102.6680 O   0  0  0  0  0
  -10.3430   -5.4340  100.9780 O   0  0  0  0  0
   -8.1750   -3.9780  106.1500 O   0  0  0  0  0
   -6.9180   -3.1650  104.3280 C   0  0  0  0  0
   -8.6120   -7.4820  102.9220 S   0  0  0  0  0
   -6.9277   -5.7964  102.7930 H   0  0  0  0  0
   -7.8317   -5.9867  101.2338 H   0  0  0  0  0
   -8.3133   -3.8095  102.2668 H   0  0  0  0  0
   -9.5937   -5.1624  104.5727 H   0  0  0  0  0
   -9.5099   -5.7817  100.6515 H   0  0  0  0  0
   -7.0349   -2.1148  104.5953 H   0  0  0  0  0
   -5.9626   -3.5324  104.7025 H   0  0  0  0  0
   -6.9496   -3.2709  103.2436 H   0  0  0  0  0
   -7.8157   -8.4921  102.5836 H   0  0  0  0  0
  4  1  1  0  0  0
  1  6  2  0  0  0
  1  7  1  0  0  0
  4  2  1  0  0  0
  2 10  1  0  0  0
  5  3  1  0  0  0
  3  8  2  0  0  0
  3  9  1  0  0  0
  4  5  1  0  0  0
  2 11  1  0  0  0
  2 12  1  0  0  0
  4 13  1  0  0  0
  5 14  1  0  0  0
  7 15  1  0  0  0
  9 16  1  0  0  0
  9 17  1  0  0  0
  9 18  1  0  0  0
 10 19  1  0  0  0
M  END
$$$$
