4hy5_ligand
  -I-interpret- 

 90 94  0  0  0  0  0  0  0  0999 V2000
    3.1210   26.6040   19.4830 N   0  3  0  0  0
    3.5990   27.8840   18.9130 C   0  0  0  0  0
    4.0020   26.0860   20.5640 C   0  0  0  0  0
    3.2960   24.9910   21.3860 C   0  0  0  0  0
    5.2990   25.5280   20.0120 C   0  0  0  0  0
    5.3560   25.0490   18.9000 O   0  0  0  0  0
    8.1060   24.0310   21.3520 C   0  0  0  0  0
    7.6090   24.0900   22.4630 O   0  0  0  0  0
    7.6910   25.0470   20.3280 C   0  0  0  0  0
    6.4060   25.5720   20.7770 N   0  0  0  0  0
    8.7420   26.1470   20.1650 C   0  0  0  0  0
    8.2600   27.1320   19.0860 C   0  0  0  0  0
    9.3570   28.1770   18.8390 C   0  0  0  0  0
    9.7230   28.9110   20.1450 C   0  0  0  0  0
   10.8290   29.7360   19.8860 F   0  0  0  0  0
    8.6290   29.6970   20.5400 F   0  0  0  0  0
   10.0890   27.9400   21.2870 C   0  0  0  0  0
    8.9790   26.8930   21.4960 C   0  0  0  0  0
   15.3090   19.2410   17.8120 C   0  0  0  0  0
   13.7840   19.1020   17.7230 C   0  0  0  0  0
   13.1610   20.1560   18.4630 O   0  0  0  0  0
   11.7360   20.1060   18.5150 C   0  0  0  0  0
   11.1330   21.5180   18.2980 C   0  0  0  0  0
   10.0290   21.5650   19.3790 C   0  0  0  0  0
    9.6560   22.9970   19.7350 C   0  0  0  0  0
    8.9900   23.0520   21.0650 N   0  0  0  0  0
    9.3350   22.1220   22.1490 C   0  0  0  0  0
    9.8580   20.7550   21.6620 C   0  0  0  0  0
   10.7330   20.9420   20.5220 N   0  3  0  0  0
   11.2710   19.7080   19.9400 C   0  0  0  0  0
   10.3480   22.7750   23.0510 C   0  0  0  0  0
   10.9930   23.7260   22.6430 O   0  0  0  0  0
   10.4920   22.3040   24.3040 N   0  0  0  0  0
   11.4170   22.8940   25.2740 C   0  0  0  0  0
   12.8390   22.3410   25.0930 C   0  0  0  0  0
   13.0870   21.0870   25.9500 C   0  0  0  0  0
   12.7990   21.4060   27.3230 O   0  0  0  0  0
   11.5600   21.9020   27.5990 C   0  0  0  0  0
   11.0080   21.6700   28.8630 C   0  0  0  0  0
    9.7420   22.1550   29.1520 C   0  0  0  0  0
    9.0350   22.8760   28.1940 C   0  0  0  0  0
    9.5810   23.1100   26.9440 C   0  0  0  0  0
   10.8480   22.6220   26.6510 C   0  0  0  0  0
    3.1105   25.9136   18.7323 H   0  0  0  0  0
    2.1981   26.7677   19.8852 H   0  0  0  0  0
    3.6389   28.6380   19.6992 H   0  0  0  0  0
    4.5944   27.7434   18.4918 H   0  0  0  0  0
    2.9144   28.2097   18.1299 H   0  0  0  0  0
    4.2282   26.9339   21.2105 H   0  0  0  0  0
    3.0856   24.1355   20.7442 H   0  0  0  0  0
    3.9427   24.6808   22.2068 H   0  0  0  0  0
    2.3619   25.3847   21.7866 H   0  0  0  0  0
    7.5986   24.5973   19.3394 H   0  0  0  0  0
    6.3439   25.9883   21.7061 H   0  0  0  0  0
    9.6879   25.6951   19.8665 H   0  0  0  0  0
    7.3486   27.6274   19.4207 H   0  0  0  0  0
    8.0510   26.5925   18.1622 H   0  0  0  0  0
    8.9892   28.9072   18.1181 H   0  0  0  0  0
   10.2450   27.6701   18.4615 H   0  0  0  0  0
   10.2095   28.5113   22.2074 H   0  0  0  0  0
   11.0127   27.4238   21.0254 H   0  0  0  0  0
    9.2798   26.1848   22.2680 H   0  0  0  0  0
    8.0599   27.3869   21.8115 H   0  0  0  0  0
   15.6098   20.2026   17.3962 H   0  0  0  0  0
   15.6176   19.1825   18.8558 H   0  0  0  0  0
   15.7795   18.4363   17.2470 H   0  0  0  0  0
   13.4834   18.1407   18.1397 H   0  0  0  0  0
   13.4756   19.1615   16.6792 H   0  0  0  0  0
   11.4170   19.3970   17.7510 H   0  0  0  0  0
   10.7553   21.6757   17.2878 H   0  0  0  0  0
   11.8653   22.3197   18.3934 H   0  0  0  0  0
    9.0991   21.0832   19.0769 H   0  0  0  0  0
    8.9687   23.3801   18.9806 H   0  0  0  0  0
   10.5638   23.5992   19.7703 H   0  0  0  0  0
    8.4123   21.9077   22.6883 H   0  0  0  0  0
    9.0144   20.1296   21.3700 H   0  0  0  0  0
   10.4131   20.2738   22.4673 H   0  0  0  0  0
   11.4764   21.5152   20.9210 H   0  0  0  0  0
   12.0907   19.3048   20.5346 H   0  0  0  0  0
   10.5243   18.9144   19.9144 H   0  0  0  0  0
    9.9322   21.5009   24.5903 H   0  0  0  0  0
   11.5104   23.9700   25.1267 H   0  0  0  0  0
   13.5450   23.1106   25.4050 H   0  0  0  0  0
   12.9662   22.0672   24.0456 H   0  0  0  0  0
   14.1252   20.7697   25.8523 H   0  0  0  0  0
   12.4426   20.2744   25.6144 H   0  0  0  0  0
   11.5682   21.1129   29.6140 H   0  0  0  0  0
    9.2994   21.9715   30.1311 H   0  0  0  0  0
    8.0425   23.2597   28.4304 H   0  0  0  0  0
    9.0218   23.6722   26.1962 H   0  0  0  0  0
  1  2  1  0  0  0
  3  1  1  0  0  0
  3  4  1  0  0  0
  5  3  1  0  0  0
  5  6  2  0  0  0
 10  5  1  0  0  0
  7  8  2  0  0  0
  7  9  1  0  0  0
 26  7  1  0  0  0
  9 10  1  0  0  0
  9 11  1  0  0  0
 11 12  1  0  0  0
 11 18  1  0  0  0
 12 13  1  0  0  0
 13 14  1  0  0  0
 14 15  1  0  0  0
 14 16  1  0  0  0
 17 14  1  0  0  0
 18 17  1  0  0  0
 20 19  1  0  0  0
 21 20  1  0  0  0
 22 21  1  0  0  0
 23 22  1  0  0  0
 22 30  1  0  0  0
 24 23  1  0  0  0
 25 24  1  0  0  0
 24 29  1  0  0  0
 25 26  1  0  0  0
 26 27  1  0  0  0
 27 28  1  0  0  0
 27 31  1  0  0  0
 28 29  1  0  0  0
 29 30  1  0  0  0
 31 32  2  0  0  0
 31 33  1  0  0  0
 33 34  1  0  0  0
 34 35  1  0  0  0
 34 43  1  0  0  0
 35 36  1  0  0  0
 36 37  1  0  0  0
 37 38  1  0  0  0
 38 39  4  0  0  0
 38 43  4  0  0  0
 39 40  4  0  0  0
 40 41  4  0  0  0
 41 42  4  0  0  0
 42 43  4  0  0  0
  1 44  1  0  0  0
  1 45  1  0  0  0
  2 46  1  0  0  0
  2 47  1  0  0  0
  2 48  1  0  0  0
  3 49  1  0  0  0
  4 50  1  0  0  0
  4 51  1  0  0  0
  4 52  1  0  0  0
  9 53  1  0  0  0
 10 54  1  0  0  0
 11 55  1  0  0  0
 12 56  1  0  0  0
 12 57  1  0  0  0
 13 58  1  0  0  0
 13 59  1  0  0  0
 17 60  1  0  0  0
 17 61  1  0  0  0
 18 62  1  0  0  0
 18 63  1  0  0  0
 19 64  1  0  0  0
 19 65  1  0  0  0
 19 66  1  0  0  0
 20 67  1  0  0  0
 20 68  1  0  0  0
 22 69  1  0  0  0
 23 70  1  0  0  0
 23 71  1  0  0  0
 24 72  1  0  0  0
 25 73  1  0  0  0
 25 74  1  0  0  0
 27 75  1  0  0  0
 28 76  1  0  0  0
 28 77  1  0  0  0
 29 78  1  0  0  0
 30 79  1  0  0  0
 30 80  1  0  0  0
 33 81  1  0  0  0
 34 82  1  0  0  0
 35 83  1  0  0  0
 35 84  1  0  0  0
 36 85  1  0  0  0
 36 86  1  0  0  0
 39 87  1  0  0  0
 40 88  1  0  0  0
 41 89  1  0  0  0
 42 90  1  0  0  0
M  END
$$$$
