4d62_ligand
  -I-interpret- 

 40 40  0  0  0  0  0  0  0  0999 V2000
   47.4450   12.0130   31.7510 C   0  0  0  0  0
   46.8400   12.0380   33.1780 C   0  0  0  0  0
   46.3850   13.4660   33.5370 C   0  0  0  0  0
   45.1110   13.8400   32.7630 C   0  0  0  0  0
   44.0670   12.7520   33.0320 C   0  0  0  0  0
   44.5890   11.3970   32.4930 C   0  0  0  0  0
   43.6720   10.1830   32.6870 C   0  0  0  0  0
   44.3710    8.7850   32.7830 C   0  0  0  0  0
   44.2840    8.1430   34.1860 C   0  0  0  0  0
   41.6760   13.3160   33.2240 C   0  0  0  0  0
   40.4340   13.8940   32.5950 C   0  0  0  0  0
   42.7960   13.2220   32.4870 N   0  0  0  0  0
   47.7020   13.0870   31.1410 O   0  0  0  0  0
   47.6590   10.9070   31.1840 O   0  0  0  0  0
   47.6830   11.5070   34.2460 O   0  0  0  0  0
   44.5840   15.1550   33.0890 O   0  0  0  0  0
   45.7660   11.1030   33.2290 O   0  0  0  0  0
   42.9410   10.4760   33.8830 O   0  0  0  0  0
   43.8330    7.8220   31.8460 O   0  0  0  0  0
   45.4120    7.2900   34.4600 O   0  0  0  0  0
   41.6410   12.9420   34.3780 O   0  0  0  0  0
   47.1773   14.1658   33.2713 H   0  0  0  0  0
   46.1744   13.5109   34.6055 H   0  0  0  0  0
   45.3632   13.8975   31.7041 H   0  0  0  0  0
   43.8916   12.5661   34.0916 H   0  0  0  0  0
   44.7032   11.5312   31.4173 H   0  0  0  0  0
   43.0548   10.0634   31.7966 H   0  0  0  0  0
   45.4112    9.0087   32.5461 H   0  0  0  0  0
   43.3796    7.5360   34.2276 H   0  0  0  0  0
   44.2735    8.9426   34.9267 H   0  0  0  0  0
   39.6386   13.1490   32.6133 H   0  0  0  0  0
   40.1211   14.7752   33.1550 H   0  0  0  0  0
   40.6474   14.1743   31.5635 H   0  0  0  0  0
   42.7567   13.4907   31.5038 H   0  0  0  0  0
   47.4852   13.8334   31.7044 H   0  0  0  0  0
   48.4693   12.0510   34.3318 H   0  0  0  0  0
   45.2540   15.8196   32.9130 H   0  0  0  0  0
   42.5231   11.3361   33.7986 H   0  0  0  0  0
   44.2950    6.9865   31.9469 H   0  0  0  0  0
   45.3202    6.9121   35.3377 H   0  0  0  0  0
  2  1  1  0  0  0
  1 13  1  0  0  0
  1 14  2  0  0  0
  3  2  1  0  0  0
  2 15  1  0  0  0
 17  2  1  0  0  0
  4  3  1  0  0  0
  5  4  1  0  0  0
  4 16  1  0  0  0
  5  6  1  0  0  0
 12  5  1  0  0  0
  6  7  1  0  0  0
  6 17  1  0  0  0
  7  8  1  0  0  0
  7 18  1  0  0  0
  8  9  1  0  0  0
  8 19  1  0  0  0
  9 20  1  0  0  0
 10 11  1  0  0  0
 10 12  1  0  0  0
 10 21  2  0  0  0
  3 22  1  0  0  0
  3 23  1  0  0  0
  4 24  1  0  0  0
  5 25  1  0  0  0
  6 26  1  0  0  0
  7 27  1  0  0  0
  8 28  1  0  0  0
  9 29  1  0  0  0
  9 30  1  0  0  0
 11 31  1  0  0  0
 11 32  1  0  0  0
 11 33  1  0  0  0
 12 34  1  0  0  0
 13 35  1  0  0  0
 15 36  1  0  0  0
 16 37  1  0  0  0
 18 38  1  0  0  0
 19 39  1  0  0  0
 20 40  1  0  0  0
M  END
$$$$
