3w0l_ligand
  -I-interpret- 

 29 28  0  0  0  0  0  0  0  0999 V2000
   -5.6470   28.8100   17.9350 C   0  0  0  0  0
   -5.7450   27.9550   16.7230 C   0  0  0  0  0
   -7.0300   27.7590   15.9930 C   0  0  0  0  0
   -7.4420   26.3280   16.1580 C   0  0  0  0  0
   -8.9440   26.2030   16.0220 C   0  0  0  0  0
   -9.3060   24.7680   16.0110 C   0  0  0  0  0
   -4.3360   28.9280   18.3120 O   0  0  0  0  0
   -4.7670   27.3690   16.3270 O   0  0  0  0  0
   -6.7690   27.9490   14.6480 O   0  0  0  0  0
   -6.7690   25.6110   15.1810 O   0  0  0  0  0
   -9.5960   26.8180   17.0660 O   0  0  0  0  0
  -10.5400   24.6650   16.6390 O   0  0  0  0  0
  -10.6920   23.7670   17.9050 P   0  0  0  0  0
   -9.7660   22.5950   17.7720 O   0  0  0  0  0
  -10.3370   24.5400   19.1430 O   0  0  0  0  0
  -12.1280   23.3090   17.9860 O   0  0  0  0  0
   -6.2163   28.3546   18.7453 H   0  0  0  0  0
   -6.0495   29.7984   17.7133 H   0  0  0  0  0
   -7.7981   28.4386   16.3620 H   0  0  0  0  0
   -7.1889   25.9405   17.1449 H   0  0  0  0  0
   -9.2463   26.6884   15.0941 H   0  0  0  0  0
   -8.5544   24.1731   16.5299 H   0  0  0  0  0
   -9.3554   24.3869   14.9910 H   0  0  0  0  0
   -4.2778   29.4808   19.0947 H   0  0  0  0  0
   -6.5004   28.8588   14.5007 H   0  0  0  0  0
   -5.8227   25.7167   15.3029 H   0  0  0  0  0
   -9.3666   27.7501   17.0805 H   0  0  0  0  0
  -10.9285   25.2911   19.2305 H   0  0  0  0  0
  -12.7023   24.0736   18.0706 H   0  0  0  0  0
  1  2  1  0  0  0
  1  7  1  0  0  0
  2  3  1  0  0  0
  2  8  2  0  0  0
  3  4  1  0  0  0
  3  9  1  0  0  0
  4  5  1  0  0  0
  4 10  1  0  0  0
  5  6  1  0  0  0
  5 11  1  0  0  0
  6 12  1  0  0  0
 12 13  1  0  0  0
 13 14  2  0  0  0
 13 15  1  0  0  0
 13 16  1  0  0  0
  1 17  1  0  0  0
  1 18  1  0  0  0
  3 19  1  0  0  0
  4 20  1  0  0  0
  5 21  1  0  0  0
  6 22  1  0  0  0
  6 23  1  0  0  0
  7 24  1  0  0  0
  9 25  1  0  0  0
 10 26  1  0  0  0
 11 27  1  0  0  0
 15 28  1  0  0  0
 16 29  1  0  0  0
M  END
$$$$
