### 
### Created by X-TOOL on Mon Sep 10 21:13:16 2018
### 

@<TRIPOS>MOLECULE
3w0l_ligand
   27    26     1     0     0
SMALL
GAST_HUCK


@<TRIPOS>ATOM
      1 C1         -5.6470   28.8100   17.9350 C.3       1 F6R         0.1198
      2 C2         -5.7450   27.9550   16.7230 C.2       1 F6R         0.1614
      3 C3         -7.0300   27.7590   15.9930 C.3       1 F6R         0.1581
      4 C4         -7.4420   26.3280   16.1580 C.3       1 F6R         0.1253
      5 C5         -8.9440   26.2030   16.0220 C.3       1 F6R         0.1133
      6 C6         -9.3060   24.7680   16.0110 C.3       1 F6R         0.1069
      7 O1         -4.3360   28.9280   18.3120 O.3       1 F6R        -0.3756
      8 O2         -4.7670   27.3690   16.3270 O.2       1 F6R        -0.3863
      9 O3         -6.7690   27.9490   14.6480 O.3       1 F6R        -0.3697
     10 O4         -6.7690   25.6110   15.1810 O.3       1 F6R        -0.3841
     11 O5         -9.5960   26.8180   17.0660 O.3       1 F6R        -0.3864
     12 O6        -10.5400   24.6650   16.6390 O.3       1 F6R        -0.2734
     13 P         -10.6920   23.7670   17.9050 P.3       1 F6R         0.2008
     14 O1P        -9.7660   22.5950   17.7720 O.co2     1 F6R        -0.5537
     15 O2P       -10.3370   24.5400   19.1430 O.co2     1 F6R        -0.5537
     16 O3P       -12.1280   23.3090   17.9860 O.co2     1 F6R        -0.5537
     17 H1         -6.2228   28.3523   18.7529 H         1 F6R         0.0793
     18 H2         -6.0547   29.8072   17.7129 H         1 F6R         0.0793
     19 H3         -7.8077   28.4467   16.3566 H         1 F6R         0.0857
     20 H4         -7.1440   25.9638   17.1522 H         1 F6R         0.0673
     21 H5         -9.2591   26.6697   15.0771 H         1 F6R         0.0648
     22 H6         -8.5521   24.1822   16.5574 H         1 F6R         0.0639
     23 H7         -9.3753   24.4020   14.9760 H         1 F6R         0.0639
     24 H8         -3.9842   28.0667   18.5043 H         1 F6R         0.2130
     25 H9         -6.0717   27.3639   14.3761 H         1 F6R         0.2135
     26 H10        -7.0173   25.9362   14.3236 H         1 F6R         0.2102
     27 H11       -10.5343   26.7234   16.9516 H         1 F6R         0.2100
@<TRIPOS>BOND
     1    1    2 1  
     2    1    7 1  
     3    2    3 1  
     4    2    8 2  
     5    3    4 1  
     6    3    9 1  
     7    4    5 1  
     8    4   10 1  
     9    5    6 1  
    10    5   11 1  
    11    6   12 1  
    12   12   13 1  
    13   13   14 ar 
    14   13   15 ar 
    15   13   16 ar 
    16    1   17 1  
    17    1   18 1  
    18    3   19 1  
    19    4   20 1  
    20    5   21 1  
    21    6   22 1  
    22    6   23 1  
    23    7   24 1  
    24    9   25 1  
    25   10   26 1  
    26   11   27 1  
@<TRIPOS>SUBSTRUCTURE
     1 F6R         1

