3dhk_ligand
  -I-interpret- 

 62 65  0  0  0  0  0  0  0  0999 V2000
   19.3460  -14.2430   24.8680 C   0  0  0  0  0
   19.6330  -13.1540   25.6850 C   0  0  0  0  0
   20.9350  -12.6580   25.7570 C   0  0  0  0  0
   21.9630  -13.2490   25.0110 C   0  0  0  0  0
   21.6890  -14.3410   24.1900 C   0  0  0  0  0
   20.3820  -14.8350   24.1190 C   0  0  0  0  0
   17.8330  -16.0360   25.6990 C   0  0  0  0  0
   17.9070  -14.7760   24.7980 C   0  0  0  0  0
   17.4210  -14.9820   23.3300 C   0  0  0  0  0
   16.2050  -15.8320   23.3000 N   0  3  0  0  0
   17.2480  -13.5970   22.6830 C   0  0  0  0  0
   16.3220  -12.9400   23.1570 O   0  0  0  0  0
   17.9970  -13.1240   21.6610 N   0  0  0  0  0
   19.0400  -13.9400   21.0120 C   0  0  0  0  0
   19.7890  -12.8140   20.2550 C   0  0  0  0  0
   18.6160  -11.9370   19.7510 C   0  0  0  0  0
   17.7330  -11.8390   21.0280 C   0  0  0  0  0
   16.2780  -11.7360   20.6310 C   0  0  0  0  0
   15.6470  -10.5650   20.8610 N   0  0  0  0  0
   14.2860  -10.3630   20.3600 C   0  0  0  0  0
   13.2730  -10.3160   21.5220 C   0  0  0  0  0
   12.3830  -11.3660   21.7460 C   0  0  0  0  0
   11.4660  -11.3290   22.7960 C   0  0  0  0  0
   11.4270  -10.2260   23.6430 C   0  0  0  0  0
   12.3120   -9.1700   23.4310 C   0  0  0  0  0
   13.2310   -9.2060   22.3810 C   0  0  0  0  0
   12.2430   -7.7960   24.5140 Cl  0  0  0  0  0
   15.7490  -12.7140   20.1110 O   0  0  0  0  0
   17.2830  -16.0360   26.9810 C   0  0  0  0  0
   17.2590  -17.2200   27.7230 C   0  0  0  0  0
   17.7800  -18.3920   27.1840 C   0  0  0  0  0
   18.3340  -18.4000   25.8990 C   0  0  0  0  0
   18.3570  -17.2180   25.1600 C   0  0  0  0  0
   18.8398  -12.6879   26.2694 H   0  0  0  0  0
   21.1540  -11.8043   26.3984 H   0  0  0  0  0
   22.9773  -12.8546   25.0728 H   0  0  0  0  0
   22.4853  -14.8059   23.6087 H   0  0  0  0  0
   20.1627  -15.6879   23.4767 H   0  0  0  0  0
   17.1985  -14.0429   25.1837 H   0  0  0  0  0
   18.1561  -15.5265   22.7373 H   0  0  0  0  0
   15.9019  -15.9558   22.3340 H   0  0  0  0  0
   16.4171  -16.7414   23.7103 H   0  0  0  0  0
   15.4630  -15.3809   23.8352 H   0  0  0  0  0
   18.6674  -14.7488   20.3834 H   0  0  0  0  0
   19.6567  -14.5262   21.6933 H   0  0  0  0  0
   20.4304  -13.1821   19.4543 H   0  0  0  0  0
   20.4998  -12.2711   20.8780 H   0  0  0  0  0
   18.0948  -12.3569   18.8907 H   0  0  0  0  0
   18.9304  -10.9686   19.3619 H   0  0  0  0  0
   17.9425  -10.9791   21.6642 H   0  0  0  0  0
   16.1163   -9.8240   21.3816 H   0  0  0  0  0
   14.0275  -11.1935   19.7030 H   0  0  0  0  0
   14.2473   -9.4154   19.8228 H   0  0  0  0  0
   12.4046  -12.2337   21.0866 H   0  0  0  0  0
   10.7813  -12.1625   22.9528 H   0  0  0  0  0
   10.7114  -10.1879   24.4644 H   0  0  0  0  0
   13.9162   -8.3723   22.2278 H   0  0  0  0  0
   16.8741  -15.1174   27.4018 H   0  0  0  0  0
   16.8314  -17.2253   28.7256 H   0  0  0  0  0
   17.7565  -19.3122   27.7678 H   0  0  0  0  0
   18.7428  -19.3197   25.4807 H   0  0  0  0  0
   18.7850  -17.2136   24.1575 H   0  0  0  0  0
  1  2  4  0  0  0
  1  6  4  0  0  0
  1  8  1  0  0  0
  2  3  4  0  0  0
  3  4  4  0  0  0
  4  5  4  0  0  0
  5  6  4  0  0  0
  8  7  1  0  0  0
  7 29  4  0  0  0
  7 33  4  0  0  0
  8  9  1  0  0  0
  9 10  1  0  0  0
  9 11  1  0  0  0
 11 12  2  0  0  0
 11 13  1  0  0  0
 13 14  1  0  0  0
 13 17  1  0  0  0
 14 15  1  0  0  0
 15 16  1  0  0  0
 16 17  1  0  0  0
 17 18  1  0  0  0
 18 19  1  0  0  0
 18 28  2  0  0  0
 19 20  1  0  0  0
 20 21  1  0  0  0
 21 22  4  0  0  0
 21 26  4  0  0  0
 22 23  4  0  0  0
 23 24  4  0  0  0
 24 25  4  0  0  0
 25 26  4  0  0  0
 25 27  1  0  0  0
 29 30  4  0  0  0
 30 31  4  0  0  0
 31 32  4  0  0  0
 32 33  4  0  0  0
  2 34  1  0  0  0
  3 35  1  0  0  0
  4 36  1  0  0  0
  5 37  1  0  0  0
  6 38  1  0  0  0
  8 39  1  0  0  0
  9 40  1  0  0  0
 10 41  1  0  0  0
 10 42  1  0  0  0
 10 43  1  0  0  0
 14 44  1  0  0  0
 14 45  1  0  0  0
 15 46  1  0  0  0
 15 47  1  0  0  0
 16 48  1  0  0  0
 16 49  1  0  0  0
 17 50  1  0  0  0
 19 51  1  0  0  0
 20 52  1  0  0  0
 20 53  1  0  0  0
 22 54  1  0  0  0
 23 55  1  0  0  0
 24 56  1  0  0  0
 26 57  1  0  0  0
 29 58  1  0  0  0
 30 59  1  0  0  0
 31 60  1  0  0  0
 32 61  1  0  0  0
 33 62  1  0  0  0
M  END
$$$$
