3d28_ligand
  -I-interpret- 

 48 51  0  0  0  0  0  0  0  0999 V2000
   94.0900    5.5460   56.5450 O   0  0  0  0  0
   94.7710    6.7180   56.0330 S   0  0  0  0  0
   96.1290    7.0440   56.4170 O   0  0  0  0  0
   93.7620    8.0760   56.4240 C   0  0  0  0  0
   93.4450    8.5250   57.6880 C   0  0  0  0  0
   92.6080    9.6440   57.7710 C   0  0  0  0  0
   94.6080    6.8900   54.4010 N   0  0  0  0  0
   93.8370    7.9020   54.1000 C   0  0  0  0  0
   93.2960    8.6630   55.2490 C   0  0  0  0  0
   92.4630    9.7740   55.3300 C   0  0  0  0  0
   92.1220   10.2630   56.6000 C   0  0  0  0  0
   93.5820    8.2430   52.6880 C   0  0  0  0  0
   93.1160    9.5130   52.0700 C   0  0  0  0  0
   92.8170   10.5320   52.6760 O   0  0  0  0  0
   93.0760    9.3000   50.6950 N   0  0  0  0  0
   93.5190    7.9590   50.3140 C   0  0  0  0  0
   94.7420    7.9960   49.3770 C   0  0  0  0  0
   95.1820    6.6050   48.9270 C   0  0  0  0  0
   95.9530    8.7280   49.9700 C   0  0  0  0  0
   93.8010    7.3940   51.6790 C   0  0  0  0  0
   94.2450    6.1070   51.8490 O   0  0  0  0  0
   92.6560   10.3120   49.7390 C   0  0  0  0  0
   91.2230   10.1650   49.3120 C   0  0  0  0  0
   90.8790   10.4270   47.9830 C   0  0  0  0  0
   89.5480   10.2960   47.5700 C   0  0  0  0  0
   90.2520    9.7680   50.2360 C   0  0  0  0  0
   88.9240    9.6300   49.8200 C   0  0  0  0  0
   88.5720    9.8980   48.4900 C   0  0  0  0  0
   93.8282    8.0318   58.5813 H   0  0  0  0  0
   92.3297   10.0401   58.7476 H   0  0  0  0  0
   92.0839   10.2536   54.4276 H   0  0  0  0  0
   91.4720   11.1340   56.6833 H   0  0  0  0  0
   92.8119    7.3698   49.7301 H   0  0  0  0  0
   94.3916    8.5612   48.5134 H   0  0  0  0  0
   95.4476    6.0091   49.8002 H   0  0  0  0  0
   94.3646    6.1224   48.3912 H   0  0  0  0  0
   96.0468    6.6939   48.2695 H   0  0  0  0  0
   95.6804    9.7604   50.1890 H   0  0  0  0  0
   96.2629    8.2300   50.8887 H   0  0  0  0  0
   96.7730    8.7118   49.2521 H   0  0  0  0  0
   94.3309    5.6835   50.9918 H   0  0  0  0  0
   93.2779   10.2050   48.8503 H   0  0  0  0  0
   92.7588   11.2843   50.2209 H   0  0  0  0  0
   91.6449   10.7325   47.2702 H   0  0  0  0  0
   89.2730   10.5032   46.5358 H   0  0  0  0  0
   90.5275    9.5678   51.2714 H   0  0  0  0  0
   88.1612    9.3134   50.5314 H   0  0  0  0  0
   87.5346    9.7960   48.1715 H   0  0  0  0  0
  1  2  2  0  0  0
  2  3  2  0  0  0
  2  4  1  0  0  0
  2  7  1  0  0  0
  4  5  4  0  0  0
  4  9  4  0  0  0
  5  6  4  0  0  0
  6 11  4  0  0  0
  7  8  2  0  0  0
  8  9  1  0  0  0
  8 12  1  0  0  0
  9 10  4  0  0  0
 10 11  4  0  0  0
 12 13  1  0  0  0
 12 20  2  0  0  0
 13 14  2  0  0  0
 13 15  1  0  0  0
 15 16  1  0  0  0
 15 22  1  0  0  0
 16 17  1  0  0  0
 16 20  1  0  0  0
 17 18  1  0  0  0
 17 19  1  0  0  0
 20 21  1  0  0  0
 22 23  1  0  0  0
 23 24  4  0  0  0
 23 26  4  0  0  0
 24 25  4  0  0  0
 25 28  4  0  0  0
 26 27  4  0  0  0
 27 28  4  0  0  0
  5 29  1  0  0  0
  6 30  1  0  0  0
 10 31  1  0  0  0
 11 32  1  0  0  0
 16 33  1  0  0  0
 17 34  1  0  0  0
 18 35  1  0  0  0
 18 36  1  0  0  0
 18 37  1  0  0  0
 19 38  1  0  0  0
 19 39  1  0  0  0
 19 40  1  0  0  0
 21 41  1  0  0  0
 22 42  1  0  0  0
 22 43  1  0  0  0
 24 44  1  0  0  0
 25 45  1  0  0  0
 26 46  1  0  0  0
 27 47  1  0  0  0
 28 48  1  0  0  0
M  END
$$$$
