6e3o_ligand
  -I-interpret- 

 32 33  0  0  0  0  0  0  0  0999 V2000
  -17.2200   15.4690  133.7750 O   0  0  0  0  0
  -18.0970   15.7370  134.6200 C   0  0  0  0  0
  -17.9660   15.3490  135.8170 O   0  0  0  0  0
  -19.1970   16.4970  134.2370 C   0  0  0  0  0
  -20.0260   16.9290  135.2610 N   0  0  0  0  0
  -19.4950   16.8490  132.9070 C   0  0  0  0  0
  -18.6830   16.4290  131.8830 O   0  0  0  0  0
  -20.6150   17.6270  132.5980 C   0  0  0  0  0
  -20.9240   17.9500  131.4420 O   0  0  0  0  0
  -21.4170   18.0420  133.6530 C   0  0  0  0  0
  -21.1340   17.6800  134.9710 C   0  0  0  0  0
  -21.9460   18.0900  136.0190 C   0  0  0  0  0
  -21.3480   18.8490  137.0350 C   0  0  0  0  0
  -22.1120   19.3110  138.1090 C   0  0  0  0  0
  -23.4770   19.0060  138.1720 C   0  0  0  0  0
  -24.0730   18.2430  137.1640 C   0  0  0  0  0
  -23.3220   17.7590  136.0840 C   0  0  0  0  0
  -24.0030   17.0270  135.1200 C   0  0  0  0  0
  -23.2830   15.6880  134.8350 C   0  0  0  0  0
  -18.7240   15.6376  136.3305 H   0  0  0  0  0
  -19.6045   16.8303  133.9913 H   0  0  0  0  0
  -17.9605   15.9087  132.2419 H   0  0  0  0  0
  -22.2875   18.6648  133.4471 H   0  0  0  0  0
  -20.2837   19.0792  136.9865 H   0  0  0  0  0
  -21.6475   19.9066  138.8949 H   0  0  0  0  0
  -24.0762   19.3644  139.0090 H   0  0  0  0  0
  -25.1387   18.0208  137.2186 H   0  0  0  0  0
  -24.0401   17.6086  134.1989 H   0  0  0  0  0
  -25.0077   16.8145  135.4854 H   0  0  0  0  0
  -22.2737   15.8889  134.4759 H   0  0  0  0  0
  -23.2336   15.1011  135.7522 H   0  0  0  0  0
  -23.8362   15.1337  134.0768 H   0  0  0  0  0
  1  2  2  0  0  0
  2  3  1  0  0  0
  2  4  1  0  0  0
  4  5  2  0  0  0
  4  6  1  0  0  0
  5 11  1  0  0  0
  6  7  1  0  0  0
  6  8  1  0  0  0
  8  9  2  0  0  0
  8 10  1  0  0  0
 10 11  2  0  0  0
 11 12  1  0  0  0
 12 13  4  0  0  0
 12 17  4  0  0  0
 13 14  4  0  0  0
 14 15  4  0  0  0
 15 16  4  0  0  0
 16 17  4  0  0  0
 17 18  1  0  0  0
 18 19  1  0  0  0
  3 20  1  0  0  0
  6 21  1  0  0  0
  7 22  1  0  0  0
 10 23  1  0  0  0
 13 24  1  0  0  0
 14 25  1  0  0  0
 15 26  1  0  0  0
 16 27  1  0  0  0
 18 28  1  0  0  0
 18 29  1  0  0  0
 19 30  1  0  0  0
 19 31  1  0  0  0
 19 32  1  0  0  0
M  END
$$$$
