5t2d_ligand
  -I-interpret- 

 56 60  0  0  0  0  0  0  0  0999 V2000
   13.6190   -1.0650   24.7360 C   0  0  0  0  0
   13.5620   -3.4990   23.9380 C   0  0  0  0  0
   11.9140   -2.8680   25.2790 N   0  0  0  0  0
   10.5970   -5.0120   25.3550 C   0  0  0  0  0
    9.5200   -4.5380   26.1120 C   0  0  0  0  0
    8.4650   -6.5940   25.9510 C   0  0  0  0  0
    9.5420   -7.0900   25.1640 C   0  0  0  0  0
    9.6060   -8.4630   24.5740 C   0  0  0  0  0
    9.0490   -9.6570   25.0800 C   0  0  0  0  0
   13.1580  -11.5980   22.8600 C   0  0  0  0  0
   15.6950   -4.7980   23.2380 C   0  0  0  0  0
   15.1420   -2.8450   19.2770 C   0  0  0  0  0
   13.8970   -2.3020   18.9690 C   0  0  0  0  0
   12.9460   -2.1630   19.9660 C   0  0  0  0  0
   13.2380   -2.6060   21.2580 C   0  0  0  0  0
   13.0870   -2.4310   24.6370 N   0  0  0  0  0
   12.7300   -4.4900   24.1290 N   0  0  0  0  0
   11.7360   -4.1320   24.9590 C   0  0  0  0  0
    8.5050   -5.3460   26.4030 N   0  0  0  0  0
   10.5530   -6.2650   24.8880 N   0  0  0  0  0
    9.3240  -10.6350   24.2600 N   0  0  0  0  0
   10.0950  -10.1270   23.2070 N   0  0  0  0  0
   10.2430   -8.7990   23.4060 C   0  0  0  0  0
   10.6670  -11.0280   21.9310 S   0  0  0  0  0
   10.1430  -10.4530   20.7370 O   0  0  0  0  0
   10.3640  -12.3810   22.2940 O   0  0  0  0  0
   12.3260  -10.9160   21.8620 N   0  0  0  0  0
   12.9850  -10.1800   20.7770 C   0  0  0  0  0
    7.3530   -7.3500   26.2770 N   0  0  0  0  0
   14.7670   -3.5920   23.0130 C   0  0  0  0  0
   16.1810   -3.3980   23.5890 C   0  0  0  0  0
   14.4870   -3.1460   21.5880 C   0  0  0  0  0
   15.4380   -3.2610   20.5750 C   0  0  0  0  0
   14.6270   -1.0981   25.1494 H   0  0  0  0  0
   13.6464   -0.6143   23.7439 H   0  0  0  0  0
   12.9768   -0.4727   25.3879 H   0  0  0  0  0
    9.5131   -3.5062   26.4632 H   0  0  0  0  0
    8.4810   -9.7479   26.0058 H   0  0  0  0  0
   12.9128  -11.2224   23.8534 H   0  0  0  0  0
   12.9675  -12.6704   22.8183 H   0  0  0  0  0
   14.2096  -11.4060   22.6469 H   0  0  0  0  0
   16.0486   -5.6680   22.6847 H   0  0  0  0  0
   15.6512   -5.7845   23.6995 H   0  0  0  0  0
   15.8940   -2.9461   18.4944 H   0  0  0  0  0
   13.6726   -1.9884   17.9495 H   0  0  0  0  0
   11.9787   -1.7121   19.7445 H   0  0  0  0  0
   12.4728   -2.5293   22.0304 H   0  0  0  0  0
   10.7774   -8.1115   22.7504 H   0  0  0  0  0
   12.7187  -10.6297   19.8205 H   0  0  0  0  0
   12.6586   -9.1402   20.7945 H   0  0  0  0  0
   14.0655  -10.2253   20.9129 H   0  0  0  0  0
    7.2771   -8.3130   25.9495 H   0  0  0  0  0
    6.6091   -6.9443   26.8448 H   0  0  0  0  0
   17.0542   -2.7701   23.4116 H   0  0  0  0  0
   16.6571   -2.8865   24.4255 H   0  0  0  0  0
   16.4195   -3.6789   20.7989 H   0  0  0  0  0
 16  1  1  0  0  0
  2 16  4  0  0  0
  2 17  4  0  0  0
 30  2  1  0  0  0
 16  3  4  0  0  0
 18  3  4  0  0  0
  4  5  4  0  0  0
 18  4  1  0  0  0
  4 20  4  0  0  0
  5 19  4  0  0  0
  7  6  4  0  0  0
 19  6  4  0  0  0
  6 29  1  0  0  0
  7  8  1  0  0  0
 20  7  4  0  0  0
  8  9  4  0  0  0
  8 23  4  0  0  0
  9 21  4  0  0  0
 27 10  1  0  0  0
 30 11  1  0  0  0
 31 11  1  0  0  0
 13 12  4  0  0  0
 12 33  4  0  0  0
 14 13  4  0  0  0
 15 14  4  0  0  0
 32 15  4  0  0  0
 17 18  4  0  0  0
 22 21  4  0  0  0
 23 22  4  0  0  0
 22 24  1  0  0  0
 24 25  2  0  0  0
 24 26  2  0  0  0
 24 27  1  0  0  0
 27 28  1  0  0  0
 30 31  1  0  0  0
 30 32  1  0  0  0
 32 33  4  0  0  0
  1 34  1  0  0  0
  1 35  1  0  0  0
  1 36  1  0  0  0
  5 37  1  0  0  0
  9 38  1  0  0  0
 10 39  1  0  0  0
 10 40  1  0  0  0
 10 41  1  0  0  0
 11 42  1  0  0  0
 11 43  1  0  0  0
 12 44  1  0  0  0
 13 45  1  0  0  0
 14 46  1  0  0  0
 15 47  1  0  0  0
 23 48  1  0  0  0
 28 49  1  0  0  0
 28 50  1  0  0  0
 28 51  1  0  0  0
 29 52  1  0  0  0
 29 53  1  0  0  0
 31 54  1  0  0  0
 31 55  1  0  0  0
 33 56  1  0  0  0
M  END
$$$$
