### 
### Created by X-TOOL on Mon Sep 10 21:13:30 2018
### 

@<TRIPOS>MOLECULE
5wxh_ligand
  123   122     1     0     0
SMALL
GAST_HUCK


@<TRIPOS>ATOM
      1 N          28.1910   14.5230   46.8360 N.4       1 ALA         0.2377
      2 CA         28.9270   14.2530   45.6100 C.3       1 ALA         0.0621
      3 C          27.9610   13.7870   44.5430 C.2       1 ALA         0.2264
      4 O          26.8280   13.3960   44.8360 O.2       1 ALA        -0.3907
      5 CB         29.9910   13.2080   45.8570 C.3       1 ALA        -0.0040
      6 N          28.4070   13.8320   43.2970 N.am      1 ARG        -0.2610
      7 CA         27.6040   13.3600   42.1800 C.3       1 ARG         0.1312
      8 C          27.9390   11.8990   41.9330 C.2       1 ARG         0.2040
      9 O          29.0860   11.5590   41.6090 O.2       1 ARG        -0.3944
     10 CB         27.8770   14.2080   40.9430 C.3       1 ARG        -0.0092
     11 CG         27.2990   15.6050   41.0650 C.3       1 ARG        -0.0156
     12 CD         27.6970   16.4810   39.8980 C.3       1 ARG         0.0627
     13 NE         29.1470   16.5580   39.7630 N.pl3     1 ARG        -0.2723
     14 CZ         29.8380   16.0590   38.7470 C.cat     1 ARG         0.2882
     15 NH1        29.2130   15.4500   37.7460 N.pl3     1 ARG        -0.2849
     16 NH2        31.1560   16.1820   38.7270 N.pl3     1 ARG        -0.2849
     17 N          26.9460   11.0390   42.0930 N.am      1 THR        -0.2613
     18 CA         27.1310    9.6140   41.8970 C.3       1 THR         0.1565
     19 C          26.0640    9.0800   40.9500 C.2       1 THR         0.2065
     20 O          25.0320    9.7140   40.7370 O.2       1 THR        -0.3943
     21 CB         27.0750    8.8480   43.2340 C.3       1 THR         0.0924
     22 OG1        25.7750    8.9950   43.8190 O.3       1 THR        -0.3874
     23 CG2        28.1230    9.3720   44.2110 C.3       1 THR        -0.0346
     24 N          26.3330    7.9150   40.3730 N.am      1 M3L        -0.2637
     25 CA         25.3990    7.2400   39.5050 C.3       1 M3L         0.1310
     26 CB         25.5670    7.5850   38.0090 C.3       1 M3L        -0.0122
     27 CG         26.9180    7.1680   37.4720 C.3       1 M3L        -0.0440
     28 CD         26.9150    7.0490   35.9520 C.3       1 M3L        -0.0123
     29 CE         27.1740    8.4200   35.3460 C.3       1 M3L        -0.0309
     30 NZ         27.5780    8.4950   33.8840 N.4       1 M3L         0.2369
     31 C          25.4980    5.7260   39.6950 C.2       1 M3L         0.2039
     32 O          26.5230    5.1800   40.1130 O.2       1 M3L        -0.3944
     33 CM1        27.7530    9.9250   33.4970 C.3       1 M3L        -0.0418
     34 CM2        26.5620    7.8680   32.9890 C.3       1 M3L        -0.0418
     35 CM3        28.8820    7.7880   33.6710 C.3       1 M3L        -0.0418
     36 N          24.3990    5.0380   39.3860 N.am      1 GLN        -0.2636
     37 CA         24.3040    3.5810   39.5430 C.3       1 GLN         0.1330
     38 C          23.1150    3.0410   38.7500 C.2       1 GLN         0.2041
     39 O          22.0610    3.6690   38.7210 O.2       1 GLN        -0.3944
     40 CB         24.1270    3.2250   41.0260 C.3       1 GLN         0.0045
     41 CG         24.2190    1.7340   41.3630 C.3       1 GLN         0.0412
     42 CD         22.9280    0.9690   41.1110 C.2       1 GLN         0.1737
     43 OE1        21.8290    1.4670   41.3620 O.2       1 GLN        -0.3973
     44 NE2        23.0590   -0.2500   40.6030 N.am      1 GLN        -0.3009
     45 N          23.2780    1.8740   38.1220 N.am      1 THR        -0.2613
     46 CA         22.1970    1.2300   37.3790 C.3       1 THR         0.1564
     47 C          22.2650   -0.2740   37.5930 C.2       1 THR         0.2059
     48 O          23.3040   -0.8930   37.3390 O.2       1 THR        -0.3943
     49 CB         22.2880    1.5400   35.8820 C.3       1 THR         0.0924
     50 OG1        22.3570    2.9580   35.6850 O.3       1 THR        -0.3874
     51 CG2        21.0690    0.9920   35.1560 C.3       1 THR        -0.0346
     52 N          21.1590   -0.8610   38.0420 N.am      1 ALA        -0.2697
     53 CA         21.0710   -2.3100   38.1820 C.3       1 ALA         0.0916
     54 C          20.8490   -2.9500   36.8170 C.2       1 ALA         0.0598
     55 O          20.0740   -2.4430   36.0040 O.co2     1 ALA        -0.5666
     56 CB         19.9470   -2.6880   39.1370 C.3       1 ALA        -0.0300
     57 OXT        21.4410   -3.9850   36.5050 O.co2     1 ALA        -0.5666
     58 H1         28.8306   14.8340   47.5503 H         1 ALA         0.2015
     59 H2         27.7284   13.6815   47.1425 H         1 ALA         0.2015
     60 H3         27.5042   15.2406   46.6645 H         1 ALA         0.2015
     61 H4         29.4134   15.1799   45.2720 H         1 ALA         0.1095
     62 H5         30.5385   13.0143   44.9228 H         1 ALA         0.0310
     63 H6         29.5177   12.2777   46.2042 H         1 ALA         0.0310
     64 H7         30.6911   13.5715   46.6236 H         1 ALA         0.0310
     65 H8         29.3197   14.2001   43.1194 H         1 ARG         0.1884
     66 H9         26.5380   13.4451   42.4375 H         1 ARG         0.0800
     67 H10        27.4274   13.7141   40.0690 H         1 ARG         0.0313
     68 H11        28.9649   14.2863   40.8006 H         1 ARG         0.0313
     69 H12        27.6666   16.0625   41.9953 H         1 ARG         0.0301
     70 H13        26.2018   15.5347   41.0995 H         1 ARG         0.0301
     71 H14        27.2979   17.4935   40.0576 H         1 ARG         0.0689
     72 H15        27.2730   16.0611   38.9739 H         1 ARG         0.0689
     73 H16        29.6721   17.0341   40.5103 H         1 ARG         0.2642
     74 H17        29.7545   15.0642   36.9594 H         1 ARG         0.2615
     75 H18        28.1867   15.3634   37.7563 H         1 ARG         0.2615
     76 H19        31.6410   16.6543   39.5033 H         1 ARG         0.2615
     77 H20        31.6964   15.8054   37.9352 H         1 ARG         0.2615
     78 H21        26.0438   11.3809   42.3561 H         1 THR         0.1884
     79 H22        28.1199    9.4507   41.4439 H         1 THR         0.0826
     80 H23        27.2675    7.7823   43.0412 H         1 THR         0.0639
     81 H24        25.1207    8.6442   43.2262 H         1 THR         0.2101
     82 H25        28.0598    8.8084   45.1535 H         1 THR         0.0257
     83 H26        27.9395   10.4384   44.4085 H         1 THR         0.0257
     84 H27        29.1253    9.2469   43.7755 H         1 THR         0.0257
     85 H28        27.2201    7.4875   40.5473 H         1 M3L         0.1883
     86 H29        24.3889    7.5571   39.8037 H         1 M3L         0.0800
     87 H30        25.4561    8.6720   37.8820 H         1 M3L         0.0312
     88 H31        24.7836    7.0671   37.4364 H         1 M3L         0.0312
     89 H32        27.1867    6.1928   37.9042 H         1 M3L         0.0269
     90 H33        27.6653    7.9188   37.7682 H         1 M3L         0.0269
     91 H34        25.9374    6.6752   35.6135 H         1 M3L         0.0317
     92 H35        27.7041    6.3511   35.6354 H         1 M3L         0.0317
     93 H36        27.9794    8.8881   35.9310 H         1 M3L         0.0815
     94 H37        26.2502    9.0062   35.4593 H         1 M3L         0.0815
     95 H38        28.0458    9.9851   32.4384 H         1 M3L         0.0778
     96 H39        28.5364   10.3804   34.1205 H         1 M3L         0.0778
     97 H40        26.8058   10.4639   33.6466 H         1 M3L         0.0778
     98 H41        26.4280    6.8127   33.2691 H         1 M3L         0.0778
     99 H42        26.9046    7.9297   31.9455 H         1 M3L         0.0778
    100 H43        25.6044    8.3992   33.0926 H         1 M3L         0.0778
    101 H44        29.6503    8.2322   34.3209 H         1 M3L         0.0778
    102 H45        29.1873    7.8907   32.6192 H         1 M3L         0.0778
    103 H46        28.7656    6.7221   33.9166 H         1 M3L         0.0778
    104 H47        23.6062    5.5346   39.0326 H         1 GLN         0.1883
    105 H48        25.2287    3.1186   39.1674 H         1 GLN         0.0801
    106 H49        23.1371    3.5837   41.3446 H         1 GLN         0.0337
    107 H50        24.9080    3.7497   41.5958 H         1 GLN         0.0337
    108 H51        24.4799    1.6339   42.4269 H         1 GLN         0.0504
    109 H52        25.0133    1.2871   40.7470 H         1 GLN         0.0504
    110 H53        22.2474   -0.8031   40.4149 H         1 GLN         0.1814
    111 H54        23.9693   -0.6154   40.4084 H         1 GLN         0.1814
    112 H55        24.1707    1.4252   38.1615 H         1 THR         0.1884
    113 H56        21.2350    1.6044   37.7588 H         1 THR         0.0826
    114 H57        23.1945    1.0712   35.4716 H         1 THR         0.0639
    115 H58        23.1260    3.3007   36.1252 H         1 THR         0.2101
    116 H59        21.1474    1.2215   34.0831 H         1 THR         0.0257
    117 H60        20.1594    1.4562   35.5647 H         1 THR         0.0257
    118 H61        21.0186   -0.0980   35.2951 H         1 THR         0.0257
    119 H62        20.3711   -0.2968   38.2888 H         1 ALA         0.1875
    120 H63        22.0203   -2.6818   38.5950 H         1 ALA         0.0723
    121 H64        19.8969   -3.7830   39.2291 H         1 ALA         0.0270
    122 H65        18.9911   -2.3088   38.7466 H         1 ALA         0.0270
    123 H66        20.1410   -2.2454   40.1252 H         1 ALA         0.0270
@<TRIPOS>BOND
     1    1    2 1  
     2    2    3 1  
     3    2    5 1  
     4    3    4 2  
     5    3    6 am 
     6    6    7 1  
     7    7    8 1  
     8    7   10 1  
     9    8    9 2  
    10    8   17 am 
    11   10   11 1  
    12   11   12 1  
    13   12   13 1  
    14   13   14 ar 
    15   14   15 ar 
    16   14   16 ar 
    17   17   18 1  
    18   18   19 1  
    19   18   21 1  
    20   19   20 2  
    21   19   24 am 
    22   21   22 1  
    23   21   23 1  
    24   24   25 1  
    25   25   26 1  
    26   25   31 1  
    27   26   27 1  
    28   27   28 1  
    29   28   29 1  
    30   29   30 1  
    31   30   33 1  
    32   30   34 1  
    33   30   35 1  
    34   31   32 2  
    35   31   36 am 
    36   36   37 1  
    37   37   38 1  
    38   37   40 1  
    39   38   39 2  
    40   38   45 am 
    41   40   41 1  
    42   41   42 1  
    43   42   43 2  
    44   42   44 am 
    45   45   46 1  
    46   46   47 1  
    47   46   49 1  
    48   47   48 2  
    49   47   52 am 
    50   49   50 1  
    51   49   51 1  
    52   52   53 1  
    53   53   54 1  
    54   53   56 1  
    55   54   55 ar 
    56   54   57 ar 
    57    1   58 1  
    58    1   59 1  
    59    1   60 1  
    60    2   61 1  
    61    5   62 1  
    62    5   63 1  
    63    5   64 1  
    64    6   65 1  
    65    7   66 1  
    66   10   67 1  
    67   10   68 1  
    68   11   69 1  
    69   11   70 1  
    70   12   71 1  
    71   12   72 1  
    72   13   73 1  
    73   15   74 1  
    74   15   75 1  
    75   16   76 1  
    76   16   77 1  
    77   17   78 1  
    78   18   79 1  
    79   21   80 1  
    80   22   81 1  
    81   23   82 1  
    82   23   83 1  
    83   23   84 1  
    84   24   85 1  
    85   25   86 1  
    86   26   87 1  
    87   26   88 1  
    88   27   89 1  
    89   27   90 1  
    90   28   91 1  
    91   28   92 1  
    92   29   93 1  
    93   29   94 1  
    94   33   95 1  
    95   33   96 1  
    96   33   97 1  
    97   34   98 1  
    98   34   99 1  
    99   34  100 1  
   100   35  101 1  
   101   35  102 1  
   102   35  103 1  
   103   36  104 1  
   104   37  105 1  
   105   40  106 1  
   106   40  107 1  
   107   41  108 1  
   108   41  109 1  
   109   44  110 1  
   110   44  111 1  
   111   45  112 1  
   112   46  113 1  
   113   49  114 1  
   114   50  115 1  
   115   51  116 1  
   116   51  117 1  
   117   51  118 1  
   118   52  119 1  
   119   53  120 1  
   120   56  121 1  
   121   56  122 1  
   122   56  123 1  
@<TRIPOS>SUBSTRUCTURE
     1 ALA         1

