5wxh_ligand
  -I-interpret- 

123122  0  0  0  0  0  0  0  0999 V2000
   28.1910   14.5230   46.8360 N   0  3  0  0  0
   28.9270   14.2530   45.6100 C   0  0  0  0  0
   27.9610   13.7870   44.5430 C   0  0  0  0  0
   26.8280   13.3960   44.8360 O   0  0  0  0  0
   29.9910   13.2080   45.8570 C   0  0  0  0  0
   28.4070   13.8320   43.2970 N   0  0  0  0  0
   27.6040   13.3600   42.1800 C   0  0  0  0  0
   27.9390   11.8990   41.9330 C   0  0  0  0  0
   29.0860   11.5590   41.6090 O   0  0  0  0  0
   27.8770   14.2080   40.9430 C   0  0  0  0  0
   27.2990   15.6050   41.0650 C   0  0  0  0  0
   27.6970   16.4810   39.8980 C   0  0  0  0  0
   29.1470   16.5580   39.7630 N   0  0  0  0  0
   29.8380   16.0590   38.7470 C   0  0  0  0  0
   29.2130   15.4500   37.7460 N   0  0  0  0  0
   31.1560   16.1820   38.7270 N   0  0  0  0  0
   26.9460   11.0390   42.0930 N   0  0  0  0  0
   27.1310    9.6140   41.8970 C   0  0  0  0  0
   26.0640    9.0800   40.9500 C   0  0  0  0  0
   25.0320    9.7140   40.7370 O   0  0  0  0  0
   27.0750    8.8480   43.2340 C   0  0  0  0  0
   25.7750    8.9950   43.8190 O   0  0  0  0  0
   28.1230    9.3720   44.2110 C   0  0  0  0  0
   26.3330    7.9150   40.3730 N   0  0  0  0  0
   25.3990    7.2400   39.5050 C   0  0  0  0  0
   25.5670    7.5850   38.0090 C   0  0  0  0  0
   26.9180    7.1680   37.4720 C   0  0  0  0  0
   26.9150    7.0490   35.9520 C   0  0  0  0  0
   27.1740    8.4200   35.3460 C   0  0  0  0  0
   27.5780    8.4950   33.8840 N   0  3  0  0  0
   25.4980    5.7260   39.6950 C   0  0  0  0  0
   26.5230    5.1800   40.1130 O   0  0  0  0  0
   27.7530    9.9250   33.4970 C   0  0  0  0  0
   26.5620    7.8680   32.9890 C   0  0  0  0  0
   28.8820    7.7880   33.6710 C   0  0  0  0  0
   24.3990    5.0380   39.3860 N   0  0  0  0  0
   24.3040    3.5810   39.5430 C   0  0  0  0  0
   23.1150    3.0410   38.7500 C   0  0  0  0  0
   22.0610    3.6690   38.7210 O   0  0  0  0  0
   24.1270    3.2250   41.0260 C   0  0  0  0  0
   24.2190    1.7340   41.3630 C   0  0  0  0  0
   22.9280    0.9690   41.1110 C   0  0  0  0  0
   21.8290    1.4670   41.3620 O   0  0  0  0  0
   23.0590   -0.2500   40.6030 N   0  0  0  0  0
   23.2780    1.8740   38.1220 N   0  0  0  0  0
   22.1970    1.2300   37.3790 C   0  0  0  0  0
   22.2650   -0.2740   37.5930 C   0  0  0  0  0
   23.3040   -0.8930   37.3390 O   0  0  0  0  0
   22.2880    1.5400   35.8820 C   0  0  0  0  0
   22.3570    2.9580   35.6850 O   0  0  0  0  0
   21.0690    0.9920   35.1560 C   0  0  0  0  0
   21.1590   -0.8610   38.0420 N   0  0  0  0  0
   21.0710   -2.3100   38.1820 C   0  0  0  0  0
   20.8490   -2.9500   36.8170 C   0  0  0  0  0
   20.0740   -2.4430   36.0040 O   0  0  0  0  0
   19.9470   -2.6880   39.1370 C   0  0  0  0  0
   21.4410   -3.9850   36.5050 O   0  0  0  0  0
   27.4775   15.2289   46.6544 H   0  0  0  0  0
   27.7465   13.6642   47.1604 H   0  0  0  0  0
   28.8350   14.8645   47.5495 H   0  0  0  0  0
   29.4204   15.1647   45.2732 H   0  0  0  0  0
   29.5195   12.2821   46.1865 H   0  0  0  0  0
   30.5428   13.0280   44.9344 H   0  0  0  0  0
   30.6752   13.5631   46.6276 H   0  0  0  0  0
   29.3379   14.2075   43.1159 H   0  0  0  0  0
   26.5423   13.4503   42.4098 H   0  0  0  0  0
   27.4076   13.7209   40.0883 H   0  0  0  0  0
   28.9569   14.2975   40.8255 H   0  0  0  0  0
   27.6839   16.0565   41.9794 H   0  0  0  0  0
   26.2120   15.5261   41.0793 H   0  0  0  0  0
   27.3110   17.4856   40.0709 H   0  0  0  0  0
   27.2861   16.0502   38.9850 H   0  0  0  0  0
   29.6670   17.0295   40.5031 H   0  0  0  0  0
   29.7484   15.0771   36.9620 H   0  0  0  0  0
   28.1975   15.3551   37.7612 H   0  0  0  0  0
   31.6354   16.6588   39.4907 H   0  0  0  0  0
   26.0258   11.3877   42.3614 H   0  0  0  0  0
   28.1185    9.4595   41.4622 H   0  0  0  0  0
   27.2800    7.7967   43.0316 H   0  0  0  0  0
   25.7438    8.5170   44.6509 H   0  0  0  0  0
   29.1157    9.2475   43.7783 H   0  0  0  0  0
   27.9401   10.4287   44.4058 H   0  0  0  0  0
   28.0594    8.8128   45.1445 H   0  0  0  0  0
   27.2378    7.4789   40.5508 H   0  0  0  0  0
   24.4122    7.5993   39.7968 H   0  0  0  0  0
   25.4784    8.6658   37.8992 H   0  0  0  0  0
   24.8005    7.0482   37.4500 H   0  0  0  0  0
   27.1652    6.1923   37.8903 H   0  0  0  0  0
   27.6466    7.9283   37.7534 H   0  0  0  0  0
   25.9481    6.6754   35.6150 H   0  0  0  0  0
   27.6942    6.3551   35.6366 H   0  0  0  0  0
   28.0224    8.8228   35.8993 H   0  0  0  0  0
   26.2212    8.9458   35.4078 H   0  0  0  0  0
   26.8138   10.4579   33.6457 H   0  0  0  0  0
   28.5295   10.3751   34.1156 H   0  0  0  0  0
   28.0431    9.9833   32.4479 H   0  0  0  0  0
   26.4432    6.8179   33.2559 H   0  0  0  0  0
   25.6090    8.3840   33.1058 H   0  0  0  0  0
   26.8943    7.9457   31.9538 H   0  0  0  0  0
   29.6533    8.2598   34.2798 H   0  0  0  0  0
   28.7783    6.7422   33.9601 H   0  0  0  0  0
   29.1596    7.8496   32.6187 H   0  0  0  0  0
   23.5904    5.5446   39.0255 H   0  0  0  0  0
   25.2222    3.1303   39.1664 H   0  0  0  0  0
   23.1224    3.5440   41.3035 H   0  0  0  0  0
   24.9405    3.7145   41.5614 H   0  0  0  0  0
   24.4431    1.6535   42.4267 H   0  0  0  0  0
   24.9851    1.3012   40.7197 H   0  0  0  0  0
   22.2310   -0.8120   40.4057 H   0  0  0  0  0
   23.9877   -0.6249   40.4098 H   0  0  0  0  0
   24.1886    1.4162   38.1623 H   0  0  0  0  0
   21.2480    1.6190   37.7482 H   0  0  0  0  0
   23.1856    1.0688   35.4814 H   0  0  0  0  0
   22.4139    3.1470   34.7455 H   0  0  0  0  0
   21.0202   -0.0880   35.2946 H   0  0  0  0  0
   20.1684    1.4527   35.5619 H   0  0  0  0  0
   21.1478    1.2200   34.0930 H   0  0  0  0  0
   20.3554   -0.2855   38.2937 H   0  0  0  0  0
   22.0084   -2.6803   38.5969 H   0  0  0  0  0
   20.1404   -2.2488   40.1157 H   0  0  0  0  0
   19.0004   -2.3117   38.7491 H   0  0  0  0  0
   19.8983   -3.7731   39.2275 H   0  0  0  0  0
   22.0052   -4.2609   37.2311 H   0  0  0  0  0
  1  2  1  0  0  0
  2  3  1  0  0  0
  2  5  1  0  0  0
  3  4  2  0  0  0
  3  6  1  0  0  0
  6  7  1  0  0  0
  7  8  1  0  0  0
  7 10  1  0  0  0
  8  9  2  0  0  0
  8 17  1  0  0  0
 10 11  1  0  0  0
 11 12  1  0  0  0
 12 13  1  0  0  0
 13 14  1  0  0  0
 14 15  1  0  0  0
 14 16  2  0  0  0
 17 18  1  0  0  0
 18 19  1  0  0  0
 18 21  1  0  0  0
 19 20  2  0  0  0
 19 24  1  0  0  0
 21 22  1  0  0  0
 21 23  1  0  0  0
 24 25  1  0  0  0
 25 26  1  0  0  0
 25 31  1  0  0  0
 26 27  1  0  0  0
 27 28  1  0  0  0
 28 29  1  0  0  0
 29 30  1  0  0  0
 30 33  1  0  0  0
 30 34  1  0  0  0
 30 35  1  0  0  0
 31 32  2  0  0  0
 31 36  1  0  0  0
 36 37  1  0  0  0
 37 38  1  0  0  0
 37 40  1  0  0  0
 38 39  2  0  0  0
 38 45  1  0  0  0
 40 41  1  0  0  0
 41 42  1  0  0  0
 42 43  2  0  0  0
 42 44  1  0  0  0
 45 46  1  0  0  0
 46 47  1  0  0  0
 46 49  1  0  0  0
 47 48  2  0  0  0
 47 52  1  0  0  0
 49 50  1  0  0  0
 49 51  1  0  0  0
 52 53  1  0  0  0
 53 54  1  0  0  0
 53 56  1  0  0  0
 54 55  2  0  0  0
 54 57  1  0  0  0
  1 58  1  0  0  0
  1 59  1  0  0  0
  1 60  1  0  0  0
  2 61  1  0  0  0
  5 62  1  0  0  0
  5 63  1  0  0  0
  5 64  1  0  0  0
  6 65  1  0  0  0
  7 66  1  0  0  0
 10 67  1  0  0  0
 10 68  1  0  0  0
 11 69  1  0  0  0
 11 70  1  0  0  0
 12 71  1  0  0  0
 12 72  1  0  0  0
 13 73  1  0  0  0
 15 74  1  0  0  0
 15 75  1  0  0  0
 16 76  1  0  0  0
 17 77  1  0  0  0
 18 78  1  0  0  0
 21 79  1  0  0  0
 22 80  1  0  0  0
 23 81  1  0  0  0
 23 82  1  0  0  0
 23 83  1  0  0  0
 24 84  1  0  0  0
 25 85  1  0  0  0
 26 86  1  0  0  0
 26 87  1  0  0  0
 27 88  1  0  0  0
 27 89  1  0  0  0
 28 90  1  0  0  0
 28 91  1  0  0  0
 29 92  1  0  0  0
 29 93  1  0  0  0
 33 94  1  0  0  0
 33 95  1  0  0  0
 33 96  1  0  0  0
 34 97  1  0  0  0
 34 98  1  0  0  0
 34 99  1  0  0  0
 35100  1  0  0  0
 35101  1  0  0  0
 35102  1  0  0  0
 36103  1  0  0  0
 37104  1  0  0  0
 40105  1  0  0  0
 40106  1  0  0  0
 41107  1  0  0  0
 41108  1  0  0  0
 44109  1  0  0  0
 44110  1  0  0  0
 45111  1  0  0  0
 46112  1  0  0  0
 49113  1  0  0  0
 50114  1  0  0  0
 51115  1  0  0  0
 51116  1  0  0  0
 51117  1  0  0  0
 52118  1  0  0  0
 53119  1  0  0  0
 56120  1  0  0  0
 56121  1  0  0  0
 56122  1  0  0  0
 57123  1  0  0  0
M  END
$$$$
