### 
### Created by X-TOOL on Mon Sep 10 21:13:27 2018
### 

@<TRIPOS>MOLECULE
5iop_ligand
  195   197     1     0     0
SMALL
GAST_HUCK


@<TRIPOS>ATOM
      1 N          16.7990   31.8400   29.6660 N.am      1 GLY        -0.0895
      2 CA         16.5550   32.2880   28.3060 C.3       1 GLY         0.2896
      3 C          17.1700   33.6360   27.9810 C.2       1 GLY         0.2370
      4 O          17.3780   33.9660   26.8130 O.2       1 GLY        -0.3915
      5 N          17.4340   34.4280   29.0140 N.am      1 GLN        -0.2614
      6 CA         18.0260   35.7450   28.8240 C.3       1 GLN         0.1331
      7 C          19.5210   35.7180   29.1000 C.2       1 GLN         0.2042
      8 O          19.9930   34.9900   29.9730 O.2       1 GLN        -0.3944
      9 CB         17.3500   36.7830   29.7200 C.3       1 GLN         0.0045
     10 CG         16.2460   37.5620   29.0310 C.3       1 GLN         0.0412
     11 CD         16.0930   38.9630   29.5880 C.2       1 GLN         0.1737
     12 OE1        16.7850   39.3460   30.5320 O.2       1 GLN        -0.3973
     13 NE2        15.1890   39.7380   29.0010 N.am      1 GLN        -0.3009
     14 CD1        24.6610   36.6800   27.0700 C.ar      1 4BF        -0.0573
     15 CE1        25.9710   37.1300   27.0770 C.ar      1 4BF        -0.0590
     16 CZ         26.2310   38.4850   27.2110 C.ar      1 4BF         0.0056
     17 BR         28.0500   39.0760   27.2040 Br        1 4BF        -0.0561
     18 CE2        25.1930   39.4020   27.3380 C.ar      1 4BF        -0.0590
     19 CD2        23.8810   38.9500   27.3310 C.ar      1 4BF        -0.0573
     20 CG         23.6200   37.5920   27.1970 C.ar      1 4BF        -0.0357
     21 CB         22.2110   37.0970   27.1950 C.3       1 4BF         0.0228
     22 CA         21.6800   36.5840   28.4920 C.3       1 4BF         0.1408
     23 N          20.2600   36.5220   28.3460 N.am      1 4BF        -0.2619
     24 C          22.0290   37.4230   29.6850 C.2       1 4BF         0.2061
     25 O          21.4720   38.4470   29.8840 O.2       1 4BF        -0.3942
     26 N          22.9810   36.9430   30.4780 N.am      1 ASP        -0.2620
     27 CA         23.4010   37.6340   31.6900 C.3       1 ASP         0.1423
     28 C          24.7920   38.2370   31.5190 C.2       1 ASP         0.2056
     29 O          25.7480   37.5340   31.1970 O.2       1 ASP        -0.3943
     30 CB         23.3790   36.6740   32.8820 C.3       1 ASP         0.0406
     31 CG         23.9400   37.2940   34.1460 C.2       1 ASP         0.0393
     32 OD1        24.6020   36.5670   34.9170 O.co2     1 ASP        -0.5688
     33 OD2        23.7170   38.5020   34.3720 O.co2     1 ASP        -0.5688
     34 N          24.8940   39.5500   31.7370 N.am      1 LEU        -0.2636
     35 CA         26.1790   40.2280   31.6040 C.3       1 LEU         0.1312
     36 C          27.1800   39.7760   32.6610 C.2       1 LEU         0.2040
     37 O          28.3930   39.8630   32.4380 O.2       1 LEU        -0.3944
     38 CB         25.9830   41.7410   31.6830 C.3       1 LEU        -0.0101
     39 CG         25.2290   42.4030   30.5300 C.3       1 LEU        -0.0425
     40 CD1        24.8370   43.8220   30.8990 C.3       1 LEU        -0.0625
     41 CD2        26.0770   42.3940   29.2680 C.3       1 LEU        -0.0625
     42 N          26.7000   39.2950   33.8110 N.am      1 SER        -0.2616
     43 CA         27.6100   38.9030   34.8830 C.3       1 SER         0.1539
     44 C          28.4070   37.6530   34.5290 C.2       1 SER         0.2063
     45 O          29.5060   37.4540   35.0580 O.2       1 SER        -0.3943
     46 CB         26.8290   38.6830   36.1780 C.3       1 SER         0.0843
     47 OG         26.1700   39.8710   36.5870 O.3       1 SER        -0.3903
     48 N          27.7690   36.6850   33.8690 N.am      1 THR        -0.2613
     49 CA         28.3560   35.3760   33.6090 C.3       1 THR         0.1565
     50 C          28.5970   35.1480   32.1350 C.2       1 THR         0.2065
     51 O          29.2130   34.1360   31.7760 O.2       1 THR        -0.3943
     52 CB         27.4540   34.2390   34.1300 C.3       1 THR         0.0924
     53 OG1        26.2820   34.1100   33.3080 O.3       1 THR        -0.3874
     54 CG2        27.0530   34.4410   35.5860 C.3       1 THR        -0.0346
     55 N          28.1400   36.0710   31.2830 N.am      1 ARG        -0.2636
     56 CA         28.2320   35.9370   29.8390 C.3       1 ARG         0.1311
     57 C          27.5140   34.6810   29.3470 C.2       1 ARG         0.2039
     58 O          27.8020   34.1580   28.2710 O.2       1 ARG        -0.3944
     59 CB         29.6980   35.9460   29.4020 C.3       1 ARG        -0.0092
     60 CG         29.9060   36.4000   27.9890 C.3       1 ARG        -0.0156
     61 CD         31.3410   36.7790   27.7370 C.3       1 ARG         0.0627
     62 NE         31.8540   37.8700   28.5460 N.pl3     1 ARG        -0.2723
     63 CZ         33.0680   38.3940   28.3980 C.cat     1 ARG         0.2882
     64 NH1        33.8970   37.9290   27.4690 N.pl3     1 ARG        -0.2849
     65 NH2        33.4540   39.3860   29.1820 N.pl3     1 ARG        -0.2849
     66 N          26.5770   34.1770   30.1440 N.am      1 ARG        -0.2637
     67 CA         25.8300   32.9720   29.8260 C.3       1 ARG         0.1311
     68 C          24.3360   33.2640   29.8240 C.2       1 ARG         0.2039
     69 O          23.8740   34.2860   30.3440 O.2       1 ARG        -0.3944
     70 CB         26.1470   31.8470   30.8210 C.3       1 ARG        -0.0092
     71 CG         27.5890   31.4290   30.8380 C.3       1 ARG        -0.0156
     72 CD         27.9680   30.7670   29.5310 C.3       1 ARG         0.0627
     73 NE         27.0390   29.6940   29.1880 N.pl3     1 ARG        -0.2723
     74 CZ         27.0530   28.4860   29.7430 C.cat     1 ARG         0.2882
     75 NH1        27.9500   28.1900   30.6740 N.pl3     1 ARG        -0.2849
     76 NH2        26.1680   27.5730   29.3680 N.pl3     1 ARG        -0.2849
     77 N          23.5840   32.3550   29.2040 N.am      1 LEU        -0.2637
     78 CA         22.1300   32.4350   29.2210 C.3       1 LEU         0.1312
     79 C          21.5980   31.9590   30.5660 C.2       1 LEU         0.2039
     80 O          21.9550   30.8740   31.0360 O.2       1 LEU        -0.3944
     81 CB         21.5310   31.5950   28.0930 C.3       1 LEU        -0.0101
     82 CG         21.8300   32.0560   26.6660 C.3       1 LEU        -0.0425
     83 CD1        21.2090   31.1040   25.6580 C.3       1 LEU        -0.0625
     84 CD2        21.3300   33.4740   26.4500 C.3       1 LEU        -0.0625
     85 N          20.7470   32.7750   31.1840 N.am      1 LYS        -0.2637
     86 CA         20.0830   32.4230   32.4320 C.3       1 LYS         0.1310
     87 C          18.5920   32.6590   32.2600 C.2       1 LYS         0.2037
     88 O          18.1530   33.8070   32.1390 O.2       1 LYS        -0.3944
     89 CB         20.6290   33.2440   33.6020 C.3       1 LYS        -0.0122
     90 CG         20.0710   32.8290   34.9540 C.3       1 LYS        -0.0440
     91 CD         20.6360   33.6930   36.0690 C.3       1 LYS        -0.0124
     92 CE         20.0540   33.2980   37.4190 C.3       1 LYS        -0.0354
     93 NZ         20.5540   34.1790   38.5120 N.4       1 LYS         0.2185
     94 N          17.8190   31.5770   32.2480 N.am      1 GLY        -0.2664
     95 CA         16.3870   31.6700   32.0410 C.3       1 GLY         0.1222
     96 C          16.0350   32.2340   30.6800 C.2       1 GLY         0.2295
     97 O          15.0980   33.0200   30.5470 O.2       1 GLY        -0.3942
     98 OXT        16.6790   31.9170   29.6810 O.3       1 GLY        -0.1970
     99 H1         16.0404   31.7874   27.4726 H         1 GLY         0.1177
    100 H2         17.2223   34.1141   29.9396 H         1 GLN         0.1884
    101 H3         17.8732   36.0406   27.7756 H         1 GLN         0.0801
    102 H4         18.1147   37.4954   30.0630 H         1 GLN         0.0337
    103 H5         16.9177   36.2631   30.5876 H         1 GLN         0.0337
    104 H6         15.2966   37.0230   29.1652 H         1 GLN         0.0504
    105 H7         16.4795   37.6320   27.9584 H         1 GLN         0.0504
    106 H8         15.0446   40.6725   29.3263 H         1 GLN         0.1814
    107 H9         14.6524   39.3873   28.2335 H         1 GLN         0.1814
    108 H10        24.4489   35.6221   26.9660 H         1 4BF         0.0564
    109 H11        26.7891   36.4258   26.9781 H         1 4BF         0.0626
    110 H12        25.4068   40.4597   27.4415 H         1 4BF         0.0626
    111 H13        23.0626   39.6540   27.4297 H         1 4BF         0.0564
    112 H14        22.1455   36.2800   26.4614 H         1 4BF         0.0480
    113 H15        21.5657   37.9288   26.8761 H         1 4BF         0.0480
    114 H16        22.0790   35.5727   28.6599 H         1 4BF         0.0824
    115 H17        19.8133   37.0971   27.6606 H         1 4BF         0.1885
    116 H18        23.4234   36.0797   30.2351 H         1 ASP         0.1884
    117 H19        22.6912   38.4509   31.8871 H         1 ASP         0.0819
    118 H20        23.9784   35.7868   32.6298 H         1 ASP         0.0478
    119 H21        22.3383   36.3719   33.0708 H         1 ASP         0.0478
    120 H22        24.0819   40.0739   31.9939 H         1 LEU         0.1883
    121 H23        26.5932   39.9816   30.6152 H         1 LEU         0.0800
    122 H24        26.9800   42.2027   31.7362 H         1 LEU         0.0315
    123 H25        25.4293   41.9562   32.6088 H         1 LEU         0.0315
    124 H26        24.3117   41.8275   30.3371 H         1 LEU         0.0298
    125 H27        24.2961   44.2830   30.0594 H         1 LEU         0.0232
    126 H28        25.7422   44.4074   31.1176 H         1 LEU         0.0232
    127 H29        24.1885   43.8041   31.7873 H         1 LEU         0.0232
    128 H30        26.3505   41.3584   29.0174 H         1 LEU         0.0232
    129 H31        26.9901   42.9840   29.4355 H         1 LEU         0.0232
    130 H32        25.5039   42.8329   28.4380 H         1 LEU         0.0232
    131 H33        25.7124   39.2030   33.9382 H         1 SER         0.1884
    132 H34        28.3222   39.7259   35.0429 H         1 SER         0.0823
    133 H35        27.5262   38.3689   36.9687 H         1 SER         0.0606
    134 H36        26.0794   37.8945   36.0156 H         1 SER         0.0606
    135 H37        25.6935   39.7063   37.3922 H         1 SER         0.2097
    136 H38        26.8434   36.8660   33.5365 H         1 THR         0.1884
    137 H39        29.3217   35.3278   34.1336 H         1 THR         0.0826
    138 H40        28.0246   33.3009   34.0646 H         1 THR         0.0639
    139 H41        25.7935   34.9247   33.3248 H         1 THR         0.2101
    140 H42        26.4127   33.6069   35.9091 H         1 THR         0.0257
    141 H43        26.5010   35.3871   35.6864 H         1 THR         0.0257
    142 H44        27.9557   34.4747   36.2137 H         1 THR         0.0257
    143 H45        27.7138   36.8943   31.6578 H         1 ARG         0.1883
    144 H46        27.7358   36.8072   29.3845 H         1 ARG         0.0800
    145 H47        30.0952   34.9249   29.5000 H         1 ARG         0.0313
    146 H48        30.2543   36.6215   30.0685 H         1 ARG         0.0313
    147 H49        29.2664   37.2740   27.7965 H         1 ARG         0.0301
    148 H50        29.6268   35.5838   27.3065 H         1 ARG         0.0301
    149 H51        31.4336   37.0692   26.6800 H         1 ARG         0.0689
    150 H52        31.9637   35.8930   27.9300 H         1 ARG         0.0689
    151 H53        31.2427   38.2610   29.2769 H         1 ARG         0.2642
    152 H54        34.8347   38.3415   27.3625 H         1 ARG         0.2615
    153 H55        33.6017   37.1561   26.8555 H         1 ARG         0.2615
    154 H56        32.8157   39.7504   29.9036 H         1 ARG         0.2615
    155 H57        34.3930   39.7945   29.0712 H         1 ARG         0.2615
    156 H58        26.3769   34.6492   31.0025 H         1 ARG         0.1883
    157 H59        26.1229   32.6379   28.8197 H         1 ARG         0.0800
    158 H60        25.5369   30.9707   30.5568 H         1 ARG         0.0313
    159 H61        25.8759   32.1920   31.8297 H         1 ARG         0.0313
    160 H62        27.7497   30.7189   31.6626 H         1 ARG         0.0301
    161 H63        28.2208   32.3166   30.9900 H         1 ARG         0.0301
    162 H64        28.9808   30.3477   29.6227 H         1 ARG         0.0689
    163 H65        27.9545   31.5214   28.7306 H         1 ARG         0.0689
    164 H66        26.3265   29.8854   28.4693 H         1 ARG         0.2642
    165 H67        27.9581   27.2532   31.1020 H         1 ARG         0.2615
    166 H68        28.6385   28.8970   30.9691 H         1 ARG         0.2615
    167 H69        25.4697   27.7989   28.6453 H         1 ARG         0.2615
    168 H70        26.1787   26.6377   29.7993 H         1 ARG         0.2615
    169 H71        24.0273   31.6024   28.7170 H         1 LEU         0.1883
    170 H72        21.8334   33.4840   29.0740 H         1 LEU         0.0800
    171 H73        20.4385   31.5933   28.2215 H         1 LEU         0.0315
    172 H74        21.9145   30.5696   28.2001 H         1 LEU         0.0315
    173 H75        22.9204   32.0488   26.5210 H         1 LEU         0.0298
    174 H76        21.4342   31.4512   24.6388 H         1 LEU         0.0232
    175 H77        20.1190   31.0760   25.8033 H         1 LEU         0.0232
    176 H78        21.6242   30.0956   25.8019 H         1 LEU         0.0232
    177 H79        21.7931   34.1428   27.1904 H         1 LEU         0.0232
    178 H80        20.2365   33.4990   26.5666 H         1 LEU         0.0232
    179 H81        21.5984   33.8071   25.4366 H         1 LEU         0.0232
    180 H82        20.5555   33.6670   30.7744 H         1 LYS         0.1883
    181 H83        20.2571   31.3574   32.6420 H         1 LYS         0.0800
    182 H84        20.3766   34.3011   33.4320 H         1 LYS         0.0312
    183 H85        21.7225   33.1276   33.6273 H         1 LYS         0.0312
    184 H86        20.3358   31.7785   35.1446 H         1 LYS         0.0269
    185 H87        18.9762   32.9341   34.9381 H         1 LYS         0.0269
    186 H88        20.3906   34.7460   35.8666 H         1 LYS         0.0317
    187 H89        21.7287   33.5704   36.0995 H         1 LYS         0.0317
    188 H90        20.3388   32.2588   37.6400 H         1 LYS         0.0813
    189 H91        18.9578   33.3757   37.3715 H         1 LYS         0.0813
    190 H92        20.1493   33.8894   39.3886 H         1 LYS         0.1994
    191 H93        20.2927   35.1335   38.3204 H         1 LYS         0.1994
    192 H94        21.5581   34.1100   38.5664 H         1 LYS         0.1994
    193 H95        18.2352   30.6781   32.3850 H         1 GLY         0.1880
    194 H96        15.9600   32.3241   32.8154 H         1 GLY         0.0763
    195 H97        15.9513   30.6639   32.1297 H         1 GLY         0.0763
@<TRIPOS>BOND
     1    2    1 1  
     2    1   96 am 
     3   98    1 1  
     4    3    2 1  
     5    2   98 1  
     6    3    4 2  
     7    5    3 am 
     8    6    5 1  
     9    7    6 1  
    10    6    9 1  
    11    7    8 2  
    12   23    7 am 
    13    9   10 1  
    14   10   11 1  
    15   11   12 2  
    16   11   13 am 
    17   14   15 ar 
    18   20   14 ar 
    19   15   16 ar 
    20   16   17 1  
    21   18   16 ar 
    22   19   18 ar 
    23   20   19 ar 
    24   21   20 1  
    25   22   21 1  
    26   22   23 1  
    27   22   24 1  
    28   24   25 2  
    29   24   26 am 
    30   26   27 1  
    31   27   28 1  
    32   27   30 1  
    33   28   29 2  
    34   28   34 am 
    35   30   31 1  
    36   31   32 ar 
    37   31   33 ar 
    38   34   35 1  
    39   35   36 1  
    40   35   38 1  
    41   36   37 2  
    42   36   42 am 
    43   38   39 1  
    44   39   40 1  
    45   39   41 1  
    46   42   43 1  
    47   43   44 1  
    48   43   46 1  
    49   44   45 2  
    50   44   48 am 
    51   46   47 1  
    52   48   49 1  
    53   49   50 1  
    54   49   52 1  
    55   50   51 2  
    56   50   55 am 
    57   52   53 1  
    58   52   54 1  
    59   55   56 1  
    60   56   57 1  
    61   56   59 1  
    62   57   58 2  
    63   57   66 am 
    64   59   60 1  
    65   60   61 1  
    66   61   62 1  
    67   62   63 ar 
    68   63   64 ar 
    69   63   65 ar 
    70   66   67 1  
    71   67   68 1  
    72   67   70 1  
    73   68   69 2  
    74   68   77 am 
    75   70   71 1  
    76   71   72 1  
    77   72   73 1  
    78   73   74 ar 
    79   74   75 ar 
    80   74   76 ar 
    81   77   78 1  
    82   78   79 1  
    83   78   81 1  
    84   79   80 2  
    85   79   85 am 
    86   81   82 1  
    87   82   83 1  
    88   82   84 1  
    89   85   86 1  
    90   86   87 1  
    91   86   89 1  
    92   87   88 2  
    93   87   94 am 
    94   89   90 1  
    95   90   91 1  
    96   91   92 1  
    97   92   93 1  
    98   94   95 1  
    99   95   96 1  
   100   96   97 2  
   101    2   99 1  
   102    5  100 1  
   103    6  101 1  
   104    9  102 1  
   105    9  103 1  
   106   10  104 1  
   107   10  105 1  
   108   13  106 1  
   109   13  107 1  
   110   14  108 1  
   111   15  109 1  
   112   18  110 1  
   113   19  111 1  
   114   21  112 1  
   115   21  113 1  
   116   22  114 1  
   117   23  115 1  
   118   26  116 1  
   119   27  117 1  
   120   30  118 1  
   121   30  119 1  
   122   34  120 1  
   123   35  121 1  
   124   38  122 1  
   125   38  123 1  
   126   39  124 1  
   127   40  125 1  
   128   40  126 1  
   129   40  127 1  
   130   41  128 1  
   131   41  129 1  
   132   41  130 1  
   133   42  131 1  
   134   43  132 1  
   135   46  133 1  
   136   46  134 1  
   137   47  135 1  
   138   48  136 1  
   139   49  137 1  
   140   52  138 1  
   141   53  139 1  
   142   54  140 1  
   143   54  141 1  
   144   54  142 1  
   145   55  143 1  
   146   56  144 1  
   147   59  145 1  
   148   59  146 1  
   149   60  147 1  
   150   60  148 1  
   151   61  149 1  
   152   61  150 1  
   153   62  151 1  
   154   64  152 1  
   155   64  153 1  
   156   65  154 1  
   157   65  155 1  
   158   66  156 1  
   159   67  157 1  
   160   70  158 1  
   161   70  159 1  
   162   71  160 1  
   163   71  161 1  
   164   72  162 1  
   165   72  163 1  
   166   73  164 1  
   167   75  165 1  
   168   75  166 1  
   169   76  167 1  
   170   76  168 1  
   171   77  169 1  
   172   78  170 1  
   173   81  171 1  
   174   81  172 1  
   175   82  173 1  
   176   83  174 1  
   177   83  175 1  
   178   83  176 1  
   179   84  177 1  
   180   84  178 1  
   181   84  179 1  
   182   85  180 1  
   183   86  181 1  
   184   89  182 1  
   185   89  183 1  
   186   90  184 1  
   187   90  185 1  
   188   91  186 1  
   189   91  187 1  
   190   92  188 1  
   191   92  189 1  
   192   93  190 1  
   193   93  191 1  
   194   93  192 1  
   195   94  193 1  
   196   95  194 1  
   197   95  195 1  
@<TRIPOS>SUBSTRUCTURE
     1 GLY         1

