5iop_ligand
  -I-interpret- 

194196  0  0  0  0  0  0  0  0999 V2000
   16.7990   31.8400   29.6660 N   0  0  0  0  0
   16.5550   32.2880   28.3060 C   0  0  0  0  0
   17.1700   33.6360   27.9810 C   0  0  0  0  0
   17.3780   33.9660   26.8130 O   0  0  0  0  0
   17.4340   34.4280   29.0140 N   0  0  0  0  0
   18.0260   35.7450   28.8240 C   0  0  0  0  0
   19.5210   35.7180   29.1000 C   0  0  0  0  0
   19.9930   34.9900   29.9730 O   0  0  0  0  0
   17.3500   36.7830   29.7200 C   0  0  0  0  0
   16.2460   37.5620   29.0310 C   0  0  0  0  0
   16.0930   38.9630   29.5880 C   0  0  0  0  0
   16.7850   39.3460   30.5320 O   0  0  0  0  0
   15.1890   39.7380   29.0010 N   0  0  0  0  0
   24.6610   36.6800   27.0700 C   0  0  0  0  0
   25.9710   37.1300   27.0770 C   0  0  0  0  0
   26.2310   38.4850   27.2110 C   0  0  0  0  0
   28.0500   39.0760   27.2040 Br  0  0  0  0  0
   25.1930   39.4020   27.3380 C   0  0  0  0  0
   23.8810   38.9500   27.3310 C   0  0  0  0  0
   23.6200   37.5920   27.1970 C   0  0  0  0  0
   22.2110   37.0970   27.1950 C   0  0  0  0  0
   21.6800   36.5840   28.4920 C   0  0  0  0  0
   20.2600   36.5220   28.3460 N   0  0  0  0  0
   22.0290   37.4230   29.6850 C   0  0  0  0  0
   21.4720   38.4470   29.8840 O   0  0  0  0  0
   22.9810   36.9430   30.4780 N   0  0  0  0  0
   23.4010   37.6340   31.6900 C   0  0  0  0  0
   24.7920   38.2370   31.5190 C   0  0  0  0  0
   25.7480   37.5340   31.1970 O   0  0  0  0  0
   23.3790   36.6740   32.8820 C   0  0  0  0  0
   23.9400   37.2940   34.1460 C   0  0  0  0  0
   24.6020   36.5670   34.9170 O   0  0  0  0  0
   23.7170   38.5020   34.3720 O   0  0  0  0  0
   24.8940   39.5500   31.7370 N   0  0  0  0  0
   26.1790   40.2280   31.6040 C   0  0  0  0  0
   27.1800   39.7760   32.6610 C   0  0  0  0  0
   28.3930   39.8630   32.4380 O   0  0  0  0  0
   25.9830   41.7410   31.6830 C   0  0  0  0  0
   25.2290   42.4030   30.5300 C   0  0  0  0  0
   24.8370   43.8220   30.8990 C   0  0  0  0  0
   26.0770   42.3940   29.2680 C   0  0  0  0  0
   26.7000   39.2950   33.8110 N   0  0  0  0  0
   27.6100   38.9030   34.8830 C   0  0  0  0  0
   28.4070   37.6530   34.5290 C   0  0  0  0  0
   29.5060   37.4540   35.0580 O   0  0  0  0  0
   26.8290   38.6830   36.1780 C   0  0  0  0  0
   26.1700   39.8710   36.5870 O   0  0  0  0  0
   27.7690   36.6850   33.8690 N   0  0  0  0  0
   28.3560   35.3760   33.6090 C   0  0  0  0  0
   28.5970   35.1480   32.1350 C   0  0  0  0  0
   29.2130   34.1360   31.7760 O   0  0  0  0  0
   27.4540   34.2390   34.1300 C   0  0  0  0  0
   26.2820   34.1100   33.3080 O   0  0  0  0  0
   27.0530   34.4410   35.5860 C   0  0  0  0  0
   28.1400   36.0710   31.2830 N   0  0  0  0  0
   28.2320   35.9370   29.8390 C   0  0  0  0  0
   27.5140   34.6810   29.3470 C   0  0  0  0  0
   27.8020   34.1580   28.2710 O   0  0  0  0  0
   29.6980   35.9460   29.4020 C   0  0  0  0  0
   29.9060   36.4000   27.9890 C   0  0  0  0  0
   31.3410   36.7790   27.7370 C   0  0  0  0  0
   31.8540   37.8700   28.5460 N   0  0  0  0  0
   33.0680   38.3940   28.3980 C   0  0  0  0  0
   33.8970   37.9290   27.4690 N   0  0  0  0  0
   33.4540   39.3860   29.1820 N   0  0  0  0  0
   26.5770   34.1770   30.1440 N   0  0  0  0  0
   25.8300   32.9720   29.8260 C   0  0  0  0  0
   24.3360   33.2640   29.8240 C   0  0  0  0  0
   23.8740   34.2860   30.3440 O   0  0  0  0  0
   26.1470   31.8470   30.8210 C   0  0  0  0  0
   27.5890   31.4290   30.8380 C   0  0  0  0  0
   27.9680   30.7670   29.5310 C   0  0  0  0  0
   27.0390   29.6940   29.1880 N   0  0  0  0  0
   27.0530   28.4860   29.7430 C   0  0  0  0  0
   27.9500   28.1900   30.6740 N   0  0  0  0  0
   26.1680   27.5730   29.3680 N   0  0  0  0  0
   23.5840   32.3550   29.2040 N   0  0  0  0  0
   22.1300   32.4350   29.2210 C   0  0  0  0  0
   21.5980   31.9590   30.5660 C   0  0  0  0  0
   21.9550   30.8740   31.0360 O   0  0  0  0  0
   21.5310   31.5950   28.0930 C   0  0  0  0  0
   21.8300   32.0560   26.6660 C   0  0  0  0  0
   21.2090   31.1040   25.6580 C   0  0  0  0  0
   21.3300   33.4740   26.4500 C   0  0  0  0  0
   20.7470   32.7750   31.1840 N   0  0  0  0  0
   20.0830   32.4230   32.4320 C   0  0  0  0  0
   18.5920   32.6590   32.2600 C   0  0  0  0  0
   18.1530   33.8070   32.1390 O   0  0  0  0  0
   20.6290   33.2440   33.6020 C   0  0  0  0  0
   20.0710   32.8290   34.9540 C   0  0  0  0  0
   20.6360   33.6930   36.0690 C   0  0  0  0  0
   20.0540   33.2980   37.4190 C   0  0  0  0  0
   20.5540   34.1790   38.5120 N   0  3  0  0  0
   17.8190   31.5770   32.2480 N   0  0  0  0  0
   16.3870   31.6700   32.0410 C   0  0  0  0  0
   16.0350   32.2340   30.6800 C   0  0  0  0  0
   15.0980   33.0200   30.5470 O   0  0  0  0  0
   16.6790   31.9170   29.6810 O   0  0  0  0  0
   16.1633   32.0977   27.3068 H   0  0  0  0  0
   17.2181   34.1079   29.9581 H   0  0  0  0  0
   17.8700   36.0269   27.7827 H   0  0  0  0  0
   18.1144   37.4997   30.0202 H   0  0  0  0  0
   16.8971   36.2465   30.5537 H   0  0  0  0  0
   15.3078   37.0309   29.1917 H   0  0  0  0  0
   16.5009   37.6452   27.9745 H   0  0  0  0  0
   15.0455   40.6930   29.3294 H   0  0  0  0  0
   14.6379   39.3785   28.2216 H   0  0  0  0  0
   24.4477   35.6162   26.9654 H   0  0  0  0  0
   26.7937   36.4219   26.9776 H   0  0  0  0  0
   25.4080   40.4655   27.4420 H   0  0  0  0  0
   23.0581   39.6579   27.4303 H   0  0  0  0  0
   22.1901   36.2523   26.5065 H   0  0  0  0  0
   21.5913   37.9551   26.9348 H   0  0  0  0  0
   22.1370   35.6145   28.6901 H   0  0  0  0  0
   19.8043   37.1086   27.6469 H   0  0  0  0  0
   23.4323   36.0624   30.2303 H   0  0  0  0  0
   22.7000   38.4468   31.8801 H   0  0  0  0  0
   23.9984   35.8135   32.6290 H   0  0  0  0  0
   22.3405   36.4050   33.0747 H   0  0  0  0  0
   24.6515   35.6795   34.5544 H   0  0  0  0  0
   24.0657   40.0844   31.9991 H   0  0  0  0  0
   26.5894   39.9611   30.6301 H   0  0  0  0  0
   26.9840   42.1722   31.6710 H   0  0  0  0  0
   25.3798   41.9172   32.5736 H   0  0  0  0  0
   24.3194   41.8340   30.3378 H   0  0  0  0  0
   24.1945   43.8028   31.7793 H   0  0  0  0  0
   25.7348   44.4010   31.1154 H   0  0  0  0  0
   24.3012   44.2777   30.0664 H   0  0  0  0  0
   27.0018   42.9418   29.4493 H   0  0  0  0  0
   26.3103   41.3646   28.9959 H   0  0  0  0  0
   25.5247   42.8692   28.4573 H   0  0  0  0  0
   25.6926   39.2011   33.9407 H   0  0  0  0  0
   28.3238   39.7149   35.0222 H   0  0  0  0  0
   27.5279   38.3857   36.9599 H   0  0  0  0  0
   26.0794   37.9107   36.0056 H   0  0  0  0  0
   25.6885   39.7046   37.4007 H   0  0  0  0  0
   26.8249   36.8696   33.5299 H   0  0  0  0  0
   29.3091   35.3650   34.1378 H   0  0  0  0  0
   28.0361   33.3190   34.0760 H   0  0  0  0  0
   25.7324   33.3990   33.6457 H   0  0  0  0  0
   27.9483   34.4742   36.2068 H   0  0  0  0  0
   26.5062   35.3788   35.6842 H   0  0  0  0  0
   26.4187   33.6140   35.9049 H   0  0  0  0  0
   27.7053   36.9108   31.6653 H   0  0  0  0  0
   27.7305   36.7909   29.3835 H   0  0  0  0  0
   30.0638   34.9215   29.4711 H   0  0  0  0  0
   30.2255   36.6467   30.0492 H   0  0  0  0  0
   29.2814   37.2756   27.8121 H   0  0  0  0  0
   29.6429   35.5802   27.3206 H   0  0  0  0  0
   31.3957   37.1107   26.7001 H   0  0  0  0  0
   31.9402   35.9026   27.9840 H   0  0  0  0  0
   31.2486   38.2572   29.2698 H   0  0  0  0  0
   34.8257   38.3374   27.3637 H   0  0  0  0  0
   33.6045   37.1638   26.8613 H   0  0  0  0  0
   32.8220   39.7466   29.8968 H   0  0  0  0  0
   26.3729   34.6587   31.0196 H   0  0  0  0  0
   26.1295   32.6409   28.8316 H   0  0  0  0  0
   25.5634   30.9771   30.5197 H   0  0  0  0  0
   25.9088   32.2215   31.8166 H   0  0  0  0  0
   27.7409   30.7185   31.6505 H   0  0  0  0  0
   28.2110   32.3129   30.9792 H   0  0  0  0  0
   28.9657   30.3407   29.6355 H   0  0  0  0  0
   27.9368   31.5175   28.7411 H   0  0  0  0  0
   26.3334   29.8836   28.4763 H   0  0  0  0  0
   27.9572   27.2627   31.0987 H   0  0  0  0  0
   28.6326   28.8897   30.9653 H   0  0  0  0  0
   25.4757   27.7971   28.6532 H   0  0  0  0  0
   24.0362   31.5874   28.7073 H   0  0  0  0  0
   21.8385   33.4743   29.0695 H   0  0  0  0  0
   20.4493   31.6594   28.2105 H   0  0  0  0  0
   21.9725   30.6030   28.1884 H   0  0  0  0  0
   22.9100   32.0498   26.5185 H   0  0  0  0  0
   21.6212   30.1052   25.8017 H   0  0  0  0  0
   20.1290   31.0771   25.8030 H   0  0  0  0  0
   21.4328   31.4490   24.6486 H   0  0  0  0  0
   20.2532   33.5073   26.6155 H   0  0  0  0  0
   21.8276   34.1441   27.1511 H   0  0  0  0  0
   21.5518   33.7845   25.4290 H   0  0  0  0  0
   20.5516   33.6848   30.7663 H   0  0  0  0  0
   20.2725   31.3746   32.6624 H   0  0  0  0  0
   20.3396   34.2815   33.4349 H   0  0  0  0  0
   21.7075   33.0889   33.6333 H   0  0  0  0  0
   20.3489   31.7919   35.1421 H   0  0  0  0  0
   18.9878   32.9488   34.9354 H   0  0  0  0  0
   20.3772   34.7328   35.8690 H   0  0  0  0  0
   21.7168   33.5558   36.1022 H   0  0  0  0  0
   20.3560   32.2737   37.6374 H   0  0  0  0  0
   18.9695   33.3951   37.3678 H   0  0  0  0  0
   20.1439   33.8851   39.3985 H   0  0  0  0  0
   21.5701   34.1083   38.5661 H   0  0  0  0  0
   20.2890   35.1445   38.3169 H   0  0  0  0  0
   18.2435   30.6601   32.3877 H   0  0  0  0  0
   15.9798   32.3394   32.7988 H   0  0  0  0  0
   15.9710   30.6647   32.1070 H   0  0  0  0  0
  2  1  1  0  0  0
  1 96  1  0  0  0
 98  1  1  0  0  0
  3  2  1  0  0  0
  2 98  1  0  0  0
  3  4  2  0  0  0
  5  3  1  0  0  0
  6  5  1  0  0  0
  7  6  1  0  0  0
  6  9  1  0  0  0
  7  8  2  0  0  0
 23  7  1  0  0  0
  9 10  1  0  0  0
 10 11  1  0  0  0
 11 12  2  0  0  0
 11 13  1  0  0  0
 14 15  4  0  0  0
 20 14  4  0  0  0
 15 16  4  0  0  0
 16 17  1  0  0  0
 18 16  4  0  0  0
 19 18  4  0  0  0
 20 19  4  0  0  0
 21 20  1  0  0  0
 22 21  1  0  0  0
 22 23  1  0  0  0
 22 24  1  0  0  0
 24 25  2  0  0  0
 24 26  1  0  0  0
 26 27  1  0  0  0
 27 28  1  0  0  0
 27 30  1  0  0  0
 28 29  2  0  0  0
 28 34  1  0  0  0
 30 31  1  0  0  0
 31 32  1  0  0  0
 31 33  2  0  0  0
 34 35  1  0  0  0
 35 36  1  0  0  0
 35 38  1  0  0  0
 36 37  2  0  0  0
 36 42  1  0  0  0
 38 39  1  0  0  0
 39 40  1  0  0  0
 39 41  1  0  0  0
 42 43  1  0  0  0
 43 44  1  0  0  0
 43 46  1  0  0  0
 44 45  2  0  0  0
 44 48  1  0  0  0
 46 47  1  0  0  0
 48 49  1  0  0  0
 49 50  1  0  0  0
 49 52  1  0  0  0
 50 51  2  0  0  0
 50 55  1  0  0  0
 52 53  1  0  0  0
 52 54  1  0  0  0
 55 56  1  0  0  0
 56 57  1  0  0  0
 56 59  1  0  0  0
 57 58  2  0  0  0
 57 66  1  0  0  0
 59 60  1  0  0  0
 60 61  1  0  0  0
 61 62  1  0  0  0
 62 63  1  0  0  0
 63 64  1  0  0  0
 63 65  2  0  0  0
 66 67  1  0  0  0
 67 68  1  0  0  0
 67 70  1  0  0  0
 68 69  2  0  0  0
 68 77  1  0  0  0
 70 71  1  0  0  0
 71 72  1  0  0  0
 72 73  1  0  0  0
 73 74  1  0  0  0
 74 75  1  0  0  0
 74 76  2  0  0  0
 77 78  1  0  0  0
 78 79  1  0  0  0
 78 81  1  0  0  0
 79 80  2  0  0  0
 79 85  1  0  0  0
 81 82  1  0  0  0
 82 83  1  0  0  0
 82 84  1  0  0  0
 85 86  1  0  0  0
 86 87  1  0  0  0
 86 89  1  0  0  0
 87 88  2  0  0  0
 87 94  1  0  0  0
 89 90  1  0  0  0
 90 91  1  0  0  0
 91 92  1  0  0  0
 92 93  1  0  0  0
 94 95  1  0  0  0
 95 96  1  0  0  0
 96 97  2  0  0  0
  2 99  1  0  0  0
  5100  1  0  0  0
  6101  1  0  0  0
  9102  1  0  0  0
  9103  1  0  0  0
 10104  1  0  0  0
 10105  1  0  0  0
 13106  1  0  0  0
 13107  1  0  0  0
 14108  1  0  0  0
 15109  1  0  0  0
 18110  1  0  0  0
 19111  1  0  0  0
 21112  1  0  0  0
 21113  1  0  0  0
 22114  1  0  0  0
 23115  1  0  0  0
 26116  1  0  0  0
 27117  1  0  0  0
 30118  1  0  0  0
 30119  1  0  0  0
 32120  1  0  0  0
 34121  1  0  0  0
 35122  1  0  0  0
 38123  1  0  0  0
 38124  1  0  0  0
 39125  1  0  0  0
 40126  1  0  0  0
 40127  1  0  0  0
 40128  1  0  0  0
 41129  1  0  0  0
 41130  1  0  0  0
 41131  1  0  0  0
 42132  1  0  0  0
 43133  1  0  0  0
 46134  1  0  0  0
 46135  1  0  0  0
 47136  1  0  0  0
 48137  1  0  0  0
 49138  1  0  0  0
 52139  1  0  0  0
 53140  1  0  0  0
 54141  1  0  0  0
 54142  1  0  0  0
 54143  1  0  0  0
 55144  1  0  0  0
 56145  1  0  0  0
 59146  1  0  0  0
 59147  1  0  0  0
 60148  1  0  0  0
 60149  1  0  0  0
 61150  1  0  0  0
 61151  1  0  0  0
 62152  1  0  0  0
 64153  1  0  0  0
 64154  1  0  0  0
 65155  1  0  0  0
 66156  1  0  0  0
 67157  1  0  0  0
 70158  1  0  0  0
 70159  1  0  0  0
 71160  1  0  0  0
 71161  1  0  0  0
 72162  1  0  0  0
 72163  1  0  0  0
 73164  1  0  0  0
 75165  1  0  0  0
 75166  1  0  0  0
 76167  1  0  0  0
 77168  1  0  0  0
 78169  1  0  0  0
 81170  1  0  0  0
 81171  1  0  0  0
 82172  1  0  0  0
 83173  1  0  0  0
 83174  1  0  0  0
 83175  1  0  0  0
 84176  1  0  0  0
 84177  1  0  0  0
 84178  1  0  0  0
 85179  1  0  0  0
 86180  1  0  0  0
 89181  1  0  0  0
 89182  1  0  0  0
 90183  1  0  0  0
 90184  1  0  0  0
 91185  1  0  0  0
 91186  1  0  0  0
 92187  1  0  0  0
 92188  1  0  0  0
 93189  1  0  0  0
 93190  1  0  0  0
 93191  1  0  0  0
 94192  1  0  0  0
 95193  1  0  0  0
 95194  1  0  0  0
M  END
$$$$
