6aan_ligand
  -I-interpret- 

 42 42  0  0  0  0  0  0  0  0999 V2000
  -22.0480    3.0620   11.9510 C   0  0  0  0  0
  -22.2000    5.3900   11.3330 C   0  0  0  0  0
  -22.0590    5.0360   10.0120 C   0  0  0  0  0
  -21.9120    3.7080    9.6500 C   0  0  0  0  0
  -21.9050    2.7270   10.6270 C   0  0  0  0  0
  -30.8170    5.6030   16.5200 O   0  0  0  0  0
  -29.6570    6.0320   17.1050 C   0  0  0  0  0
  -29.5390    7.3450   17.4480 O   0  0  0  0  0
  -28.4740    5.0700   17.3800 C   0  0  0  0  0
  -27.9110    5.4330   18.6640 N   0  3  0  0  0
  -28.8310    3.5640   17.3620 C   0  0  0  0  0
  -28.3520    2.8330   16.0870 C   0  0  0  0  0
  -26.8260    2.6590   15.9510 C   0  0  0  0  0
  -26.4440    2.2450   14.5150 C   0  0  0  0  0
  -25.1250    2.7280   14.1360 N   0  0  0  0  0
  -23.9670    1.8730   14.2730 C   0  0  0  0  0
  -24.1490    0.6780   14.5060 O   0  0  0  0  0
  -22.6750    2.3850   14.1530 O   0  0  0  0  0
  -22.0280    1.9580   12.9650 C   0  0  0  0  0
  -22.1890    4.4030   12.3080 C   0  0  0  0  0
  -22.3540    6.7800   11.6400 C   0  0  0  0  0
  -22.4810    7.9350   11.8130 C   0  0  0  0  0
  -22.0630    5.8081    9.2427 H   0  0  0  0  0
  -21.8022    3.4358    8.6003 H   0  0  0  0  0
  -21.7851    1.6814   10.3432 H   0  0  0  0  0
  -30.7531    4.6628   16.3370 H   0  0  0  0  0
  -27.7638    5.1890   16.5618 H   0  0  0  0  0
  -27.1266    4.8166   18.8765 H   0  0  0  0  0
  -27.5862    6.3993   18.6305 H   0  0  0  0  0
  -28.6251    5.3378   19.3861 H   0  0  0  0  0
  -29.9175    3.4841   17.3973 H   0  0  0  0  0
  -28.3337    3.0989   18.2131 H   0  0  0  0  0
  -28.6699    3.4442   15.2424 H   0  0  0  0  0
  -28.7751    1.8293   16.1287 H   0  0  0  0  0
  -26.4998    1.8789   16.6388 H   0  0  0  0  0
  -26.3433    3.6087   16.1818 H   0  0  0  0  0
  -27.1735    2.6795   13.8315 H   0  0  0  0  0
  -26.4328    1.1561   14.4677 H   0  0  0  0  0
  -25.0166    3.6746   13.7718 H   0  0  0  0  0
  -20.9946    1.6956   13.1917 H   0  0  0  0  0
  -22.5497    1.0896   12.5627 H   0  0  0  0  0
  -22.2910    4.6768   13.3581 H   0  0  0  0  0
  1  5  4  0  0  0
 19  1  1  0  0  0
  1 20  4  0  0  0
  2  3  4  0  0  0
 20  2  4  0  0  0
  2 21  1  0  0  0
  4  3  4  0  0  0
  5  4  4  0  0  0
  7  6  1  0  0  0
  7  8  2  0  0  0
  9  7  1  0  0  0
  9 10  1  0  0  0
 11  9  1  0  0  0
 12 11  1  0  0  0
 13 12  1  0  0  0
 14 13  1  0  0  0
 15 14  1  0  0  0
 16 15  1  0  0  0
 16 17  2  0  0  0
 18 16  1  0  0  0
 18 19  1  0  0  0
 21 22  3  0  0  0
  3 23  1  0  0  0
  4 24  1  0  0  0
  5 25  1  0  0  0
  6 26  1  0  0  0
  9 27  1  0  0  0
 10 28  1  0  0  0
 10 29  1  0  0  0
 10 30  1  0  0  0
 11 31  1  0  0  0
 11 32  1  0  0  0
 12 33  1  0  0  0
 12 34  1  0  0  0
 13 35  1  0  0  0
 13 36  1  0  0  0
 14 37  1  0  0  0
 14 38  1  0  0  0
 15 39  1  0  0  0
 19 40  1  0  0  0
 19 41  1  0  0  0
 20 42  1  0  0  0
M  END
$$$$
