2vwc_ligand
  -I-interpret- 

 82 83  0  0  0  0  0  0  0  0999 V2000
  -26.4460   34.5140   -3.4630 O   0  0  0  0  0
  -25.8930   33.6480   -4.1770 C   0  0  0  0  0
  -25.3910   32.3660   -3.5240 C   0  0  0  0  0
  -24.8060   31.4320   -4.2890 C   0  0  0  0  0
  -24.6140   31.6580   -5.7960 C   0  0  0  0  0
  -24.0520   30.7790   -6.5010 O   0  0  0  0  0
  -25.1020   32.9530   -6.4350 C   0  0  0  0  0
  -25.5610   32.1590   -2.1900 N   0  0  0  0  0
  -25.0550   32.9260   -1.1950 C   0  0  0  0  0
  -25.2220   32.5990   -0.0230 O   0  0  0  0  0
  -24.3100   34.1790   -1.4180 C   0  0  0  0  0
  -24.8420   35.4350   -0.7710 C   0  0  0  0  0
  -23.1680   34.1910   -2.1360 C   0  0  0  0  0
  -22.3940   35.4120   -2.4070 C   0  0  0  0  0
  -21.0990   35.4660   -2.7310 C   0  0  0  0  0
  -20.3170   34.1840   -2.7450 C   0  0  0  0  0
  -19.2660   34.1480   -1.6300 C   0  0  0  0  0
  -25.6990   33.8940   -5.6720 C   0  0  0  0  0
  -26.1810   35.1780   -6.2560 C   0  0  0  0  0
  -26.5670   34.9870   -7.6270 O   0  0  0  0  0
  -27.9240   34.5370   -7.7490 C   0  0  0  0  0
  -25.1260   36.2950   -6.2000 C   0  0  0  0  0
  -24.5550   36.6200   -4.8160 C   0  0  0  0  0
  -24.0760   36.1920   -7.3110 C   0  0  0  0  0
  -22.6890   36.7020   -6.9670 C   0  0  0  0  0
  -22.8600   38.1010   -7.2780 O   0  0  0  0  0
  -21.8710   39.0060   -6.7710 C   0  0  0  0  0
  -21.6100   36.3260   -7.9610 C   0  0  0  0  0
  -22.2180   36.1120   -9.2320 O   0  0  0  0  0
  -21.7340   37.0370  -10.2280 C   0  0  0  0  0
  -20.9250   34.9900   -7.5790 C   0  0  0  0  0
  -19.8700   34.5870   -8.6070 C   0  0  0  0  0
  -20.2230   34.9200   -6.2300 C   0  0  0  0  0
  -20.4220   33.8670   -5.4070 C   0  0  0  0  0
  -21.3380   32.7340   -5.7820 C   0  0  0  0  0
  -19.7430   33.6930   -4.0860 C   0  0  0  0  0
  -18.7630   32.6480   -3.9900 O   0  0  0  0  0
  -17.5420   32.6660   -4.7780 C   0  0  0  0  0
  -16.8250   31.6780   -4.6510 O   0  0  0  0  0
  -17.2090   33.6770   -5.5730 N   0  0  0  0  0
  -24.4630   30.5019   -3.8358 H   0  0  0  0  0
  -24.9696   33.1190   -7.5041 H   0  0  0  0  0
  -26.1208   31.3523   -1.9140 H   0  0  0  0  0
  -24.1052   35.8187   -0.0653 H   0  0  0  0  0
  -25.0357   36.1838   -1.5390 H   0  0  0  0  0
  -25.7678   35.2062   -0.2432 H   0  0  0  0  0
  -22.7996   33.2464   -2.5362 H   0  0  0  0  0
  -22.9262   36.3606   -2.3370 H   0  0  0  0  0
  -20.6230   36.4148   -2.9785 H   0  0  0  0  0
  -21.0945   33.4452   -2.5506 H   0  0  0  0  0
  -18.5699   34.9763   -1.7617 H   0  0  0  0  0
  -19.7608   34.2379   -0.6630 H   0  0  0  0  0
  -18.7225   33.2043   -1.6751 H   0  0  0  0  0
  -27.0336   35.4861   -5.6509 H   0  0  0  0  0
  -28.0384   33.5863   -7.2283 H   0  0  0  0  0
  -28.5919   35.2770   -7.3080 H   0  0  0  0  0
  -28.1690   34.4071   -8.8031 H   0  0  0  0  0
  -25.7011   37.1946   -6.4194 H   0  0  0  0  0
  -25.3629   36.9362   -4.1562 H   0  0  0  0  0
  -24.0748   35.7321   -4.4048 H   0  0  0  0  0
  -23.8225   37.4221   -4.9058 H   0  0  0  0  0
  -24.4359   36.8145   -8.1302 H   0  0  0  0  0
  -23.9655   35.1298   -7.5294 H   0  0  0  0  0
  -22.3999   36.3545   -5.9751 H   0  0  0  0  0
  -21.8507   38.9475   -5.6828 H   0  0  0  0  0
  -20.8934   38.7341   -7.1691 H   0  0  0  0  0
  -22.1194   40.0223   -7.0769 H   0  0  0  0  0
  -20.8756   37.1314   -7.9726 H   0  0  0  0  0
  -21.9549   38.0568   -9.9128 H   0  0  0  0  0
  -20.6567   36.9157  -10.3416 H   0  0  0  0  0
  -22.2260   36.8348  -11.1794 H   0  0  0  0  0
  -21.7845   34.3209   -7.5383 H   0  0  0  0  0
  -20.3420   34.4666   -9.5821 H   0  0  0  0  0
  -19.1062   35.3624   -8.6650 H   0  0  0  0  0
  -19.4114   33.6454   -8.3051 H   0  0  0  0  0
  -19.5547   35.7255   -5.9257 H   0  0  0  0  0
  -22.3454   33.1196   -5.9388 H   0  0  0  0  0
  -20.9795   32.2670   -6.6993 H   0  0  0  0  0
  -21.3504   31.9974   -4.9786 H   0  0  0  0  0
  -19.2669   34.6567   -4.2666 H   0  0  0  0  0
  -16.3358   33.6458   -6.0993 H   0  0  0  0  0
  -17.8265   34.4844   -5.6571 H   0  0  0  0  0
  1  2  2  0  0  0
  2  3  1  0  0  0
  2 18  1  0  0  0
  3  4  2  0  0  0
  3  8  1  0  0  0
  4  5  1  0  0  0
  5  6  2  0  0  0
  5  7  1  0  0  0
  7 18  2  0  0  0
  8  9  1  0  0  0
  9 10  2  0  0  0
  9 11  1  0  0  0
 11 12  1  0  0  0
 11 13  2  0  0  0
 13 14  1  0  0  0
 14 15  2  0  0  0
 15 16  1  0  0  0
 16 17  1  0  0  0
 16 36  1  0  0  0
 18 19  1  0  0  0
 19 20  1  0  0  0
 19 22  1  0  0  0
 20 21  1  0  0  0
 22 23  1  0  0  0
 22 24  1  0  0  0
 24 25  1  0  0  0
 25 26  1  0  0  0
 25 28  1  0  0  0
 26 27  1  0  0  0
 28 29  1  0  0  0
 28 31  1  0  0  0
 29 30  1  0  0  0
 31 32  1  0  0  0
 31 33  1  0  0  0
 33 34  2  0  0  0
 34 35  1  0  0  0
 34 36  1  0  0  0
 36 37  1  0  0  0
 37 38  1  0  0  0
 38 39  2  0  0  0
 38 40  1  0  0  0
  4 41  1  0  0  0
  7 42  1  0  0  0
  8 43  1  0  0  0
 12 44  1  0  0  0
 12 45  1  0  0  0
 12 46  1  0  0  0
 13 47  1  0  0  0
 14 48  1  0  0  0
 15 49  1  0  0  0
 16 50  1  0  0  0
 17 51  1  0  0  0
 17 52  1  0  0  0
 17 53  1  0  0  0
 19 54  1  0  0  0
 21 55  1  0  0  0
 21 56  1  0  0  0
 21 57  1  0  0  0
 22 58  1  0  0  0
 23 59  1  0  0  0
 23 60  1  0  0  0
 23 61  1  0  0  0
 24 62  1  0  0  0
 24 63  1  0  0  0
 25 64  1  0  0  0
 27 65  1  0  0  0
 27 66  1  0  0  0
 27 67  1  0  0  0
 28 68  1  0  0  0
 30 69  1  0  0  0
 30 70  1  0  0  0
 30 71  1  0  0  0
 31 72  1  0  0  0
 32 73  1  0  0  0
 32 74  1  0  0  0
 32 75  1  0  0  0
 33 76  1  0  0  0
 35 77  1  0  0  0
 35 78  1  0  0  0
 35 79  1  0  0  0
 36 80  1  0  0  0
 40 81  1  0  0  0
 40 82  1  0  0  0
M  END
$$$$
