3l5c_ligand
  -I-interpret- 

 60 62  0  0  0  0  0  0  0  0999 V2000
   21.4880   12.3400   25.1460 C   0  0  0  0  0
   22.0970   11.0640   25.4920 N   0  0  0  0  0
   20.3700   12.9330   23.0460 O   0  0  0  0  0
   21.9300   10.2520   24.4270 C   0  0  0  0  0
   21.2800   10.8310   23.3920 N   0  0  0  0  0
   25.6990   13.9260   19.7700 O   0  0  0  0  0
   20.9650   12.0970   23.7300 C   0  0  0  0  0
   22.3640    8.9960   24.3830 N   0  0  0  0  0
   22.5400   13.4600   25.0550 C   0  0  0  0  0
   25.1190   13.0410   17.7630 N   0  0  0  0  0
   20.3320   12.6590   26.0830 C   0  0  0  0  0
   25.1980   15.2910   18.0210 N   0  0  0  0  0
   19.5980   11.3920   26.5250 C   0  0  0  0  0
   26.2010   21.0630   21.4960 N   0  0  0  0  0
   18.1060   11.4860   26.2150 C   0  0  0  0  0
   19.8800   11.0750   27.9920 C   0  0  0  0  0
   21.0240   10.2150   22.0890 C   0  0  0  0  0
   22.1110   10.5900   21.1060 C   0  0  0  0  0
   23.2850    9.7880   20.9970 C   0  0  0  0  0
   24.3090   10.1470   20.0740 C   0  0  0  0  0
   24.1650   11.3040   19.2570 C   0  0  0  0  0
   22.9890   12.1050   19.3680 C   0  0  0  0  0
   21.9650   11.7480   20.2920 C   0  0  0  0  0
   25.2630   11.6770   18.2750 C   0  0  0  0  0
   25.4000   16.4440   18.7150 C   0  0  0  0  0
   24.5830   16.7550   19.8420 C   0  0  0  0  0
   26.4300   17.3470   18.3120 C   0  0  0  0  0
   24.7930   17.9630   20.5690 C   0  0  0  0  0
   26.6410   18.5570   19.0410 C   0  0  0  0  0
   25.3610   14.0780   18.5930 C   0  0  0  0  0
   25.8230   18.8650   20.1680 C   0  0  0  0  0
   26.0340   20.0820   20.9010 C   0  0  0  0  0
   22.5604   10.8290   26.3697 H   0  0  0  0  0
   22.2106    8.4324   23.5468 H   0  0  0  0  0
   23.3484   13.1447   24.3953 H   0  0  0  0  0
   22.0751   14.3619   24.6567 H   0  0  0  0  0
   22.9388   13.6638   26.0488 H   0  0  0  0  0
   24.8405   13.2051   16.7956 H   0  0  0  0  0
   19.6260   13.2984   25.5530 H   0  0  0  0  0
   20.7331   13.1510   26.9691 H   0  0  0  0  0
   24.9158   15.3441   17.0422 H   0  0  0  0  0
   19.9832   10.5514   25.9478 H   0  0  0  0  0
   17.6796   12.3392   26.7426 H   0  0  0  0  0
   17.9666   11.6144   25.1416 H   0  0  0  0  0
   17.6103   10.5713   26.5402 H   0  0  0  0  0
   20.9506   10.9241   28.1305 H   0  0  0  0  0
   19.5457   11.9062   28.6128 H   0  0  0  0  0
   19.3443   10.1692   28.2761 H   0  0  0  0  0
   20.0653   10.5698   21.7107 H   0  0  0  0  0
   21.0089    9.1313   22.2053 H   0  0  0  0  0
   23.3988    8.9006   21.6197 H   0  0  0  0  0
   25.2063    9.5335   19.9930 H   0  0  0  0  0
   22.8740   12.9917   18.7446 H   0  0  0  0  0
   21.0687   12.3626   20.3755 H   0  0  0  0  0
   26.2172   11.6135   18.7980 H   0  0  0  0  0
   25.2036   10.9925   17.4288 H   0  0  0  0  0
   23.7954   16.0666   20.1484 H   0  0  0  0  0
   27.0542   17.1133   17.4495 H   0  0  0  0  0
   24.1674   18.1973   21.4303 H   0  0  0  0  0
   27.4284   19.2461   18.7355 H   0  0  0  0  0
  1  2  1  0  0  0
  7  1  1  0  0  0
  1  9  1  0  0  0
  1 11  1  0  0  0
  4  2  1  0  0  0
  7  3  2  0  0  0
  5  4  4  0  0  0
  4  8  2  0  0  0
  5  7  1  0  0  0
 17  5  1  0  0  0
 30  6  2  0  0  0
 10 24  1  0  0  0
 30 10  1  0  0  0
 11 13  1  0  0  0
 25 12  1  0  0  0
 12 30  1  0  0  0
 13 15  1  0  0  0
 13 16  1  0  0  0
 32 14  3  0  0  0
 18 17  1  0  0  0
 19 18  4  0  0  0
 23 18  4  0  0  0
 20 19  4  0  0  0
 21 20  4  0  0  0
 21 22  4  0  0  0
 24 21  1  0  0  0
 22 23  4  0  0  0
 26 25  4  0  0  0
 27 25  4  0  0  0
 28 26  4  0  0  0
 29 27  4  0  0  0
 31 28  4  0  0  0
 31 29  4  0  0  0
 31 32  1  0  0  0
  2 33  1  0  0  0
  8 34  1  0  0  0
  9 35  1  0  0  0
  9 36  1  0  0  0
  9 37  1  0  0  0
 10 38  1  0  0  0
 11 39  1  0  0  0
 11 40  1  0  0  0
 12 41  1  0  0  0
 13 42  1  0  0  0
 15 43  1  0  0  0
 15 44  1  0  0  0
 15 45  1  0  0  0
 16 46  1  0  0  0
 16 47  1  0  0  0
 16 48  1  0  0  0
 17 49  1  0  0  0
 17 50  1  0  0  0
 19 51  1  0  0  0
 20 52  1  0  0  0
 22 53  1  0  0  0
 23 54  1  0  0  0
 24 55  1  0  0  0
 24 56  1  0  0  0
 26 57  1  0  0  0
 27 58  1  0  0  0
 28 59  1  0  0  0
 29 60  1  0  0  0
M  END
$$$$
