2vmf_ligand
  -I-interpret- 

 26 27  0  0  0  0  0  0  0  0999 V2000
   27.3100   45.7400   -1.8390 C   0  0  0  0  0
   26.8680   46.8430   -2.4160 N   0  0  0  0  0
   27.7980   46.8180    0.3060 C   0  0  0  0  0
   27.5200   48.1230   -0.4960 C   0  0  0  0  0
   26.4450   47.9680   -1.5690 C   0  0  0  0  0
   26.1240   49.2410   -2.3540 C   0  0  0  0  0
   27.6120   45.5840   -4.0000 C   0  0  0  0  0
   27.1560   46.8310   -3.7520 C   0  0  0  0  0
   27.7460   44.9390   -2.8210 N   0  0  0  0  0
   29.2060   46.6590    0.4770 O   0  0  0  0  0
   27.9790   44.3630    0.0130 O   0  0  0  0  0
   27.1230   49.2020    0.3640 O   0  0  0  0  0
   27.2640   45.5360   -0.3630 C   0  0  0  0  0
   27.1890   49.5940   -3.2240 O   0  0  0  0  0
   27.2712   46.9376    1.2527 H   0  0  0  0  0
   28.4694   48.3459   -0.9829 H   0  0  0  0  0
   25.4856   47.7611   -1.0948 H   0  0  0  0  0
   25.9704   50.0554   -1.6460 H   0  0  0  0  0
   25.2313   49.0627   -2.9535 H   0  0  0  0  0
   27.8338   45.1693   -4.9833 H   0  0  0  0  0
   27.0424   47.6496   -4.4627 H   0  0  0  0  0
   29.5675   47.4450    0.8931 H   0  0  0  0  0
   27.6011   43.6022   -0.4341 H   0  0  0  0  0
   27.7832   49.3221    1.0505 H   0  0  0  0  0
   26.2420   45.3676   -0.0235 H   0  0  0  0  0
   26.9588   50.3944   -3.7015 H   0  0  0  0  0
  1  2  4  0  0  0
  1  9  4  0  0  0
 13  1  1  0  0  0
  2  5  1  0  0  0
  2  8  4  0  0  0
  3  4  1  0  0  0
  3 10  1  0  0  0
  3 13  1  0  0  0
  4  5  1  0  0  0
  4 12  1  0  0  0
  5  6  1  0  0  0
  6 14  1  0  0  0
  8  7  4  0  0  0
  7  9  4  0  0  0
 13 11  1  0  0  0
  3 15  1  0  0  0
  4 16  1  0  0  0
  5 17  1  0  0  0
  6 18  1  0  0  0
  6 19  1  0  0  0
  7 20  1  0  0  0
  8 21  1  0  0  0
 10 22  1  0  0  0
 11 23  1  0  0  0
 12 24  1  0  0  0
 13 25  1  0  0  0
 14 26  1  0  0  0
M  END
$$$$
