5vtb_ligand
  -I-interpret- 

219220  0  0  0  0  0  0  0  0999 V2000
   13.9580    6.7730    1.5610 N   0  3  0  0  0
   12.9570    7.7630    1.1570 C   0  0  0  0  0
   11.5740    7.4890    1.8110 C   0  0  0  0  0
   10.8600    8.4370    2.1510 O   0  0  0  0  0
   12.8300    7.8060   -0.3720 C   0  0  0  0  0
   11.2050    6.2030    1.9860 N   0  0  0  0  0
    9.9270    5.8200    2.6080 C   0  0  0  0  0
   10.0700    5.5490    4.1050 C   0  0  0  0  0
    9.0560    5.3870    4.7860 O   0  0  0  0  0
    9.3170    4.5760    1.9210 C   0  0  0  0  0
    8.2670    4.9640    0.9210 C   0  0  0  0  0
    7.6620    3.7760    0.2060 C   0  0  0  0  0
    6.4960    3.2150    0.8940 N   0  0  0  0  0
    5.5930    2.4470    0.3010 C   0  0  0  0  0
    5.6930    2.1740   -0.9950 N   0  0  0  0  0
    4.5650    1.9660    0.9900 N   0  0  0  0  0
   11.3080    5.4350    4.6190 N   0  0  0  0  0
   11.4160    5.0990    6.0290 C   0  0  0  0  0
   12.4320    5.9600    6.7620 C   0  0  0  0  0
   13.3840    6.4590    6.1600 O   0  0  0  0  0
   11.6770    3.5900    6.2550 C   0  0  0  0  0
   12.8220    3.0050    5.4890 C   0  0  0  0  0
   12.8540    1.4830    5.5250 C   0  0  0  0  0
   13.6830    1.0740    4.3310 C   0  0  0  0  0
   14.2600   -0.2590    4.4530 N   0  3  0  0  0
   12.1680    6.1770    8.0720 N   0  0  0  0  0
   13.0060    6.9580    8.9820 C   0  0  0  0  0
   14.4030    6.3100    9.1050 C   0  0  0  0  0
   14.5530    5.1020    8.8910 O   0  0  0  0  0
   12.3270    7.0660   10.3600 C   0  0  0  0  0
   12.2370    5.7240   11.1130 C   0  0  0  0  0
   11.5770    5.8120   12.4610 C   0  0  0  0  0
   10.8020    4.9250   12.8400 O   0  0  0  0  0
   11.9080    6.8430   13.2420 N   0  0  0  0  0
   15.3940    7.1260    9.4470 N   0  0  0  0  0
   16.7800    6.6930    9.6010 C   0  0  0  0  0
   17.1610    6.2810   11.0050 C   0  0  0  0  0
   18.0850    5.4720   11.1830 O   0  0  0  0  0
   16.4450    6.8200   12.0220 N   0  0  0  0  0
   16.7710    6.5330   13.4200 C   0  0  0  0  0
   15.5900    5.8700   14.1810 C   0  0  0  0  0
   15.1070    6.4420   15.1760 O   0  0  0  0  0
   17.2430    7.8180   14.1260 C   0  0  0  0  0
   15.1270    4.6540   13.7830 N   0  0  0  0  0
   14.0350    4.0260   14.5350 C   0  0  0  0  0
   14.4410    3.8580   16.0000 C   0  0  0  0  0
   15.5660    3.4300   16.2960 O   0  0  0  0  0
   13.8290    2.6880   13.8210 C   0  0  0  0  0
   15.0830    2.4270   13.0980 C   0  0  0  0  0
   15.5740    3.7760   12.6810 C   0  0  0  0  0
   13.5430    4.2670   16.9010 N   0  0  0  0  0
   13.7390    4.2650   18.3420 C   0  0  0  0  0
   13.4470    2.9170   18.9790 C   0  0  0  0  0
   12.5270    2.1990   18.5790 O   0  0  0  0  0
   12.8430    5.3550   19.0040 C   0  0  0  0  0
   13.2270    6.8090   18.6200 C   0  0  0  0  0
   14.6250    7.1580   19.1110 C   0  0  0  0  0
   14.8840    7.2700   20.3120 O   0  0  0  0  0
   15.5830    7.1970   18.2080 N   0  0  0  0  0
   14.2010    2.6180   20.0240 N   0  0  0  0  0
   14.0630    1.4190   20.8200 C   0  0  0  0  0
   13.3100    1.7310   22.1090 C   0  0  0  0  0
   13.6770    2.6420   22.8340 O   0  0  0  0  0
   15.4530    0.8370   21.1270 C   0  0  0  0  0
   15.4240   -0.3640   22.0100 C   0  0  0  0  0
   15.6210   -0.2560   23.3700 N   0  0  0  0  0
   15.2050   -1.6620   21.6990 C   0  0  0  0  0
   15.5470   -1.4920   23.8420 C   0  0  0  0  0
   15.2980   -2.3700   22.8740 N   0  0  0  0  0
   12.2340    1.0110   22.3670 N   0  0  0  0  0
   11.5030    1.1490   23.6120 C   0  0  0  0  0
   11.9850    0.0480   24.5480 C   0  0  0  0  0
   12.4100   -1.0290   24.0980 O   0  0  0  0  0
    9.9850    1.1530   23.4160 C   0  0  0  0  0
    9.4020    2.4340   22.7700 C   0  0  0  0  0
    7.8890    2.3910   22.7400 C   0  0  0  0  0
    9.8620    3.7320   23.4960 C   0  0  0  0  0
   12.0060    0.3700   25.8430 N   0  0  0  0  0
   12.5270   -0.4050   26.9750 C   0  0  0  0  0
   11.6870   -1.6330   27.3730 C   0  0  0  0  0
   11.1940   -1.7370   28.5090 O   0  0  0  0  0
   12.6950    0.5190   28.1750 C   0  0  0  0  0
   14.0250    1.0020   28.1650 O   0  0  0  0  0
   11.6050   -2.5920   26.4580 N   0  0  0  0  0
   10.8530   -3.8490   26.6260 C   0  0  0  0  0
   11.5200   -4.9680   25.8190 C   0  0  0  0  0
   12.2780   -4.6620   24.9010 O   0  0  0  0  0
    9.3900   -3.6460   26.1570 C   0  0  0  0  0
   11.2690   -6.2440   26.1860 N   0  0  0  0  0
   11.7330   -7.4520   25.4710 C   0  0  0  0  0
   10.6270   -8.5240   25.5750 C   0  0  0  0  0
   10.4580   -9.1540   26.6240 O   0  0  0  0  0
   13.1050   -7.9490   25.9900 C   0  0  0  0  0
   13.6920   -9.1650   25.2550 C   0  0  0  0  0
   14.1130   -8.9040   23.8260 C   0  0  0  0  0
   15.3910   -8.2040   23.7530 N   0  0  0  0  0
   15.9410   -7.7610   22.6240 C   0  0  0  0  0
   15.3310   -7.9520   21.4570 N   0  0  0  0  0
   17.0980   -7.1110   22.6530 N   0  0  0  0  0
    9.8400   -8.6880   24.4930 N   0  0  0  0  0
    8.6760   -9.5930   24.4370 C   0  0  0  0  0
    9.0020  -10.9740   23.8610 C   0  0  0  0  0
    9.7010  -11.0750   22.8560 O   0  0  0  0  0
    7.5700   -8.9530   23.6040 C   0  0  0  0  0
    7.1010   -7.6050   24.1190 C   0  0  0  0  0
    5.8510   -7.1200   23.4180 C   0  0  0  0  0
    4.7650   -7.6750   23.7070 O   0  0  0  0  0
    5.9690   -6.2560   22.5190 O   0  0  0  0  0
    8.5660  -11.9870   24.4010 O   0  0  0  0  0
   14.0287    6.7584    2.5784 H   0  0  0  0  0
   13.6779    5.8515    1.2252 H   0  0  0  0  0
   14.8621    7.0221    1.1597 H   0  0  0  0  0
   13.2984    8.7359    1.5106 H   0  0  0  0  0
   12.4515    6.8489   -0.7309 H   0  0  0  0  0
   12.1399    8.6006   -0.6558 H   0  0  0  0  0
   13.8087    7.9989   -0.8113 H   0  0  0  0  0
   11.8376    5.4660    1.6745 H   0  0  0  0  0
    9.2583    6.6705    2.4749 H   0  0  0  0  0
    8.8544    3.9504    2.6843 H   0  0  0  0  0
   10.1122    4.0431    1.3996 H   0  0  0  0  0
    8.7414    5.5963    0.1705 H   0  0  0  0  0
    7.4660    5.4694    1.4605 H   0  0  0  0  0
    8.4231    2.9971    0.1607 H   0  0  0  0  0
    7.3322    4.1162   -0.7756 H   0  0  0  0  0
    6.3725    3.4273    1.8840 H   0  0  0  0  0
    4.9841    1.5999   -1.4514 H   0  0  0  0  0
    6.4787    2.5384   -1.5338 H   0  0  0  0  0
    4.4671    2.1870    1.9809 H   0  0  0  0  0
   12.1372    5.5785    4.0426 H   0  0  0  0  0
   10.4430    5.3251    6.4652 H   0  0  0  0  0
   10.7817    3.0687    5.9162 H   0  0  0  0  0
   11.9222    3.4748    7.3108 H   0  0  0  0  0
   13.7434    3.3653    5.9465 H   0  0  0  0  0
   12.7116    3.3081    4.4478 H   0  0  0  0  0
   11.8507    1.0593    5.4811 H   0  0  0  0  0
   13.2818    1.1125    6.4565 H   0  0  0  0  0
   14.5078    1.7816    4.2469 H   0  0  0  0  0
   13.0251    1.0680    3.4619 H   0  0  0  0  0
   14.8045   -0.4703    3.6168 H   0  0  0  0  0
   14.8665   -0.2919    5.2724 H   0  0  0  0  0
   13.5113   -0.9442    4.5549 H   0  0  0  0  0
   11.3178    5.7634    8.4547 H   0  0  0  0  0
   13.1306    7.9637    8.5807 H   0  0  0  0  0
   11.3081    7.4161   10.1948 H   0  0  0  0  0
   12.9290    7.7413   10.9680 H   0  0  0  0  0
   13.2582    5.3806   11.2784 H   0  0  0  0  0
   11.6306    5.0546   10.5028 H   0  0  0  0  0
   11.5189    6.9163   14.1820 H   0  0  0  0  0
   12.5500    7.5574   12.8987 H   0  0  0  0  0
   15.1748    8.1086    9.6110 H   0  0  0  0  0
   17.4091    7.5434    9.3382 H   0  0  0  0  0
   16.9108    5.8163    8.9666 H   0  0  0  0  0
   15.6626    7.4386   11.8087 H   0  0  0  0  0
   17.5843    5.8074   13.4281 H   0  0  0  0  0
   18.1297    8.2030   13.6223 H   0  0  0  0  0
   16.4494    8.5642   14.0883 H   0  0  0  0  0
   17.4828    7.5929   15.1652 H   0  0  0  0  0
   13.1152    4.6104   14.5573 H   0  0  0  0  0
   12.9781    2.7267   13.1409 H   0  0  0  0  0
   13.6039    1.8899   14.5284 H   0  0  0  0  0
   14.9278    1.7702   12.2421 H   0  0  0  0  0
   15.8095    1.9068   13.7222 H   0  0  0  0  0
   16.6536    3.8032   12.5334 H   0  0  0  0  0
   15.1820    4.0850   11.7120 H   0  0  0  0  0
   12.6481    4.6080   16.5499 H   0  0  0  0  0
   14.7931    4.4830   18.5136 H   0  0  0  0  0
   12.9667    5.2628   20.0830 H   0  0  0  0  0
   11.8230    5.1884   18.6576 H   0  0  0  0  0
   12.5150    7.4909   19.0849 H   0  0  0  0  0
   13.2077    6.8983   17.5338 H   0  0  0  0  0
   16.5529    7.3211   18.4984 H   0  0  0  0  0
   15.3550    7.1031   17.2182 H   0  0  0  0  0
   14.9312    3.2800   20.2867 H   0  0  0  0  0
   13.4914    0.6780   20.2612 H   0  0  0  0  0
   16.0195    1.6087   21.6482 H   0  0  0  0  0
   15.8929    0.5308   20.1779 H   0  0  0  0  0
   14.9955   -2.0678   20.7093 H   0  0  0  0  0
   15.6742   -1.7562   24.8918 H   0  0  0  0  0
   11.9079    0.3395   21.6719 H   0  0  0  0  0
   11.7077    2.1230   24.0565 H   0  0  0  0  0
    9.5427    1.0764   24.4093 H   0  0  0  0  0
    9.7566    0.3308   22.7378 H   0  0  0  0  0
    9.7883    2.4597   21.7511 H   0  0  0  0  0
    7.5628    1.5282   22.1593 H   0  0  0  0  0
    7.5088    2.3100   23.7583 H   0  0  0  0  0
    7.5099    3.3040   22.2808 H   0  0  0  0  0
    9.5344    3.7011   24.5351 H   0  0  0  0  0
   10.9491    3.8020   23.4584 H   0  0  0  0  0
    9.4235    4.5985   23.0010 H   0  0  0  0  0
   11.6055    1.2782   26.0778 H   0  0  0  0  0
   13.4820   -0.8125   26.6432 H   0  0  0  0  0
   12.4953   -0.0216   29.1002 H   0  0  0  0  0
   11.9903    1.3485   28.1159 H   0  0  0  0  0
   14.1569    1.5884   28.9136 H   0  0  0  0  0
   12.0973   -2.4488   25.5762 H   0  0  0  0  0
   10.8516   -4.1317   27.6787 H   0  0  0  0  0
    8.9240   -2.8618   26.7537 H   0  0  0  0  0
    9.3835   -3.3570   25.1060 H   0  0  0  0  0
    8.8371   -4.5769   26.2825 H   0  0  0  0  0
   10.7117   -6.3859   27.0284 H   0  0  0  0  0
   11.9042   -7.2170   24.4205 H   0  0  0  0  0
   12.9518   -8.2567   27.0244 H   0  0  0  0  0
   13.8076   -7.1289   25.8420 H   0  0  0  0  0
   12.9074   -9.9209   25.2195 H   0  0  0  0  0
   14.5893   -9.4594   25.7993 H   0  0  0  0  0
   13.3541   -8.2788   23.3555 H   0  0  0  0  0
   14.2205   -9.8641   23.3212 H   0  0  0  0  0
   15.8966   -8.0433   24.6242 H   0  0  0  0  0
   15.7529   -7.6004   20.5975 H   0  0  0  0  0
   14.4415   -8.4500   21.4219 H   0  0  0  0  0
   17.5698   -6.9489   23.5427 H   0  0  0  0  0
   10.0644   -8.1499   23.6561 H   0  0  0  0  0
    8.3537   -9.7458   25.4670 H   0  0  0  0  0
    9.9595  -10.1998   22.5581 H   0  0  0  0  0
    6.7128   -9.6254   23.6383 H   0  0  0  0  0
    7.9738   -8.7917   22.6045 H   0  0  0  0  0
    7.8934   -6.8799   23.9336 H   0  0  0  0  0
    6.8722   -7.7112   25.1794 H   0  0  0  0  0
    4.9066   -8.2998   24.4219 H   0  0  0  0  0
  1  2  1  0  0  0
  2  3  1  0  0  0
  2  5  1  0  0  0
  3  4  2  0  0  0
  3  6  1  0  0  0
  6  7  1  0  0  0
  7  8  1  0  0  0
  7 10  1  0  0  0
  8  9  2  0  0  0
  8 17  1  0  0  0
 10 11  1  0  0  0
 11 12  1  0  0  0
 12 13  1  0  0  0
 13 14  1  0  0  0
 14 15  1  0  0  0
 14 16  2  0  0  0
 17 18  1  0  0  0
 18 19  1  0  0  0
 18 21  1  0  0  0
 19 20  2  0  0  0
 19 26  1  0  0  0
 21 22  1  0  0  0
 22 23  1  0  0  0
 23 24  1  0  0  0
 24 25  1  0  0  0
 26 27  1  0  0  0
 27 28  1  0  0  0
 27 30  1  0  0  0
 28 29  2  0  0  0
 28 35  1  0  0  0
 30 31  1  0  0  0
 31 32  1  0  0  0
 32 33  2  0  0  0
 32 34  1  0  0  0
 35 36  1  0  0  0
 36 37  1  0  0  0
 37 38  2  0  0  0
 37 39  1  0  0  0
 39 40  1  0  0  0
 40 41  1  0  0  0
 40 43  1  0  0  0
 41 42  2  0  0  0
 41 44  1  0  0  0
 44 45  1  0  0  0
 44 50  1  0  0  0
 45 46  1  0  0  0
 45 48  1  0  0  0
 46 47  2  0  0  0
 46 51  1  0  0  0
 48 49  1  0  0  0
 49 50  1  0  0  0
 51 52  1  0  0  0
 52 53  1  0  0  0
 52 55  1  0  0  0
 53 54  2  0  0  0
 53 60  1  0  0  0
 55 56  1  0  0  0
 56 57  1  0  0  0
 57 58  2  0  0  0
 57 59  1  0  0  0
 60 61  1  0  0  0
 61 62  1  0  0  0
 61 64  1  0  0  0
 62 63  2  0  0  0
 62 70  1  0  0  0
 64 65  1  0  0  0
 65 66  4  0  0  0
 65 67  4  0  0  0
 66 68  4  0  0  0
 67 69  4  0  0  0
 68 69  4  0  0  0
 70 71  1  0  0  0
 71 72  1  0  0  0
 71 74  1  0  0  0
 72 73  2  0  0  0
 72 78  1  0  0  0
 74 75  1  0  0  0
 75 76  1  0  0  0
 75 77  1  0  0  0
 78 79  1  0  0  0
 79 80  1  0  0  0
 79 82  1  0  0  0
 80 81  2  0  0  0
 80 84  1  0  0  0
 82 83  1  0  0  0
 84 85  1  0  0  0
 85 86  1  0  0  0
 85 88  1  0  0  0
 86 87  2  0  0  0
 86 89  1  0  0  0
 89 90  1  0  0  0
 90 91  1  0  0  0
 90 93  1  0  0  0
 91 92  2  0  0  0
 91100  1  0  0  0
 93 94  1  0  0  0
 94 95  1  0  0  0
 95 96  1  0  0  0
 96 97  1  0  0  0
 97 98  1  0  0  0
 97 99  2  0  0  0
100101  1  0  0  0
101102  1  0  0  0
101104  1  0  0  0
102103  1  0  0  0
102109  2  0  0  0
104105  1  0  0  0
105106  1  0  0  0
106107  1  0  0  0
106108  2  0  0  0
  1110  1  0  0  0
  1111  1  0  0  0
  1112  1  0  0  0
  2113  1  0  0  0
  5114  1  0  0  0
  5115  1  0  0  0
  5116  1  0  0  0
  6117  1  0  0  0
  7118  1  0  0  0
 10119  1  0  0  0
 10120  1  0  0  0
 11121  1  0  0  0
 11122  1  0  0  0
 12123  1  0  0  0
 12124  1  0  0  0
 13125  1  0  0  0
 15126  1  0  0  0
 15127  1  0  0  0
 16128  1  0  0  0
 17129  1  0  0  0
 18130  1  0  0  0
 21131  1  0  0  0
 21132  1  0  0  0
 22133  1  0  0  0
 22134  1  0  0  0
 23135  1  0  0  0
 23136  1  0  0  0
 24137  1  0  0  0
 24138  1  0  0  0
 25139  1  0  0  0
 25140  1  0  0  0
 25141  1  0  0  0
 26142  1  0  0  0
 27143  1  0  0  0
 30144  1  0  0  0
 30145  1  0  0  0
 31146  1  0  0  0
 31147  1  0  0  0
 34148  1  0  0  0
 34149  1  0  0  0
 35150  1  0  0  0
 36151  1  0  0  0
 36152  1  0  0  0
 39153  1  0  0  0
 40154  1  0  0  0
 43155  1  0  0  0
 43156  1  0  0  0
 43157  1  0  0  0
 45158  1  0  0  0
 48159  1  0  0  0
 48160  1  0  0  0
 49161  1  0  0  0
 49162  1  0  0  0
 50163  1  0  0  0
 50164  1  0  0  0
 51165  1  0  0  0
 52166  1  0  0  0
 55167  1  0  0  0
 55168  1  0  0  0
 56169  1  0  0  0
 56170  1  0  0  0
 59171  1  0  0  0
 59172  1  0  0  0
 60173  1  0  0  0
 61174  1  0  0  0
 64175  1  0  0  0
 64176  1  0  0  0
 67177  1  0  0  0
 68178  1  0  0  0
 70179  1  0  0  0
 71180  1  0  0  0
 74181  1  0  0  0
 74182  1  0  0  0
 75183  1  0  0  0
 76184  1  0  0  0
 76185  1  0  0  0
 76186  1  0  0  0
 77187  1  0  0  0
 77188  1  0  0  0
 77189  1  0  0  0
 78190  1  0  0  0
 79191  1  0  0  0
 82192  1  0  0  0
 82193  1  0  0  0
 83194  1  0  0  0
 84195  1  0  0  0
 85196  1  0  0  0
 88197  1  0  0  0
 88198  1  0  0  0
 88199  1  0  0  0
 89200  1  0  0  0
 90201  1  0  0  0
 93202  1  0  0  0
 93203  1  0  0  0
 94204  1  0  0  0
 94205  1  0  0  0
 95206  1  0  0  0
 95207  1  0  0  0
 96208  1  0  0  0
 98209  1  0  0  0
 98210  1  0  0  0
 99211  1  0  0  0
100212  1  0  0  0
101213  1  0  0  0
103214  1  0  0  0
104215  1  0  0  0
104216  1  0  0  0
105217  1  0  0  0
105218  1  0  0  0
107219  1  0  0  0
M  END
$$$$
