### 
### Created by X-TOOL on Fri Nov  2 11:09:00 2018
### 

@<TRIPOS>MOLECULE
5vtb_ligand
  220   221     1     0     0
SMALL
GAST_HUCK


@<TRIPOS>ATOM
      1 N          13.9580    6.7730    1.5610 N.4       1 ARG         0.2377
      2 CA         12.9570    7.7630    1.1570 C.3       1 ARG         0.0621
      3 C          11.5740    7.4890    1.8110 C.2       1 ARG         0.2264
      4 O          10.8600    8.4370    2.1510 O.2       1 ARG        -0.3907
      5 CB         12.8300    7.8060   -0.3720 C.3       1 ARG        -0.0040
      6 N          11.2050    6.2030    1.9860 N.am      1 ARG        -0.2610
      7 CA          9.9270    5.8200    2.6080 C.3       1 ARG         0.1312
      8 C          10.0700    5.5490    4.1050 C.2       1 ARG         0.2039
      9 O           9.0560    5.3870    4.7860 O.2       1 ARG        -0.3944
     10 CB          9.3170    4.5760    1.9210 C.3       1 ARG        -0.0092
     11 CG          8.2670    4.9640    0.9210 C.3       1 ARG        -0.0156
     12 CD          7.6620    3.7760    0.2060 C.3       1 ARG         0.0627
     13 NE          6.4960    3.2150    0.8940 N.pl3     1 ARG        -0.2723
     14 CZ          5.5930    2.4470    0.3010 C.cat     1 ARG         0.2882
     15 NH1         5.6930    2.1740   -0.9950 N.pl3     1 ARG        -0.2849
     16 NH2         4.5650    1.9660    0.9900 N.pl3     1 ARG        -0.2849
     17 N          11.3080    5.4350    4.6190 N.am      1 ARG        -0.2637
     18 CA         11.4160    5.0990    6.0290 C.3       1 ARG         0.1310
     19 C          12.4320    5.9600    6.7620 C.2       1 ARG         0.2039
     20 O          13.3840    6.4590    6.1600 O.2       1 ARG        -0.3944
     21 CB         11.6770    3.5900    6.2550 C.3       1 ARG        -0.0122
     22 CG         12.8220    3.0050    5.4890 C.3       1 ARG        -0.0440
     23 CD         12.8540    1.4830    5.5250 C.3       1 ARG        -0.0124
     24 CE         13.6830    1.0740    4.3310 C.3       1 ARG        -0.0354
     25 NZ         14.2600   -0.2590    4.4530 N.4       1 ARG         0.2185
     26 N          12.1680    6.1770    8.0720 N.am      1 ARG        -0.2636
     27 CA         13.0060    6.9580    8.9820 C.3       1 ARG         0.1330
     28 C          14.4030    6.3100    9.1050 C.2       1 ARG         0.2038
     29 O          14.5530    5.1020    8.8910 O.2       1 ARG        -0.3944
     30 CB         12.3270    7.0660   10.3600 C.3       1 ARG         0.0045
     31 CG         12.2370    5.7240   11.1130 C.3       1 ARG         0.0412
     32 CD         11.5770    5.8120   12.4610 C.2       1 ARG         0.1737
     33 OE1        10.8020    4.9250   12.8400 O.2       1 ARG        -0.3973
     34 NE2        11.9080    6.8430   13.2420 N.am      1 ARG        -0.3009
     35 N          15.3940    7.1260    9.4470 N.am      1 ARG        -0.2664
     36 CA         16.7800    6.6930    9.6010 C.3       1 ARG         0.1201
     37 C          17.1610    6.2810   11.0050 C.2       1 ARG         0.2007
     38 O          18.0850    5.4720   11.1830 O.2       1 ARG        -0.3947
     39 N          16.4450    6.8200   12.0220 N.am      1 ARG        -0.2642
     40 CA         16.7710    6.5330   13.4200 C.3       1 ARG         0.1284
     41 C          15.5900    5.8700   14.1810 C.2       1 ARG         0.2061
     42 O          15.1070    6.4420   15.1760 O.2       1 ARG        -0.3942
     43 CB         17.2430    7.8180   14.1260 C.3       1 ARG        -0.0244
     44 N          15.1270    4.6540   13.7830 N.am      1 ARG        -0.2498
     45 CA         14.0350    4.0260   14.5350 C.3       1 ARG         0.1338
     46 C          14.4410    3.8580   16.0000 C.2       1 ARG         0.2041
     47 O          15.5660    3.4300   16.2960 O.2       1 ARG        -0.3944
     48 CB         13.8290    2.6880   13.8210 C.3       1 ARG        -0.0104
     49 CG         15.0830    2.4270   13.0980 C.3       1 ARG        -0.0281
     50 CD         15.5740    3.7760   12.6810 C.3       1 ARG         0.0369
     51 N          13.5430    4.2670   16.9010 N.am      1 ARG        -0.2636
     52 CA         13.7390    4.2650   18.3420 C.3       1 ARG         0.1330
     53 C          13.4470    2.9170   18.9790 C.2       1 ARG         0.2042
     54 O          12.5270    2.1990   18.5790 O.2       1 ARG        -0.3944
     55 CB         12.8430    5.3550   19.0040 C.3       1 ARG         0.0045
     56 CG         13.2270    6.8090   18.6200 C.3       1 ARG         0.0412
     57 CD         14.6250    7.1580   19.1110 C.2       1 ARG         0.1737
     58 OE1        14.8840    7.2700   20.3120 O.2       1 ARG        -0.3973
     59 NE2        15.5830    7.1970   18.2080 N.am      1 ARG        -0.3009
     60 N          14.2010    2.6180   20.0240 N.am      1 ARG        -0.2619
     61 CA         14.0630    1.4190   20.8200 C.3       1 ARG         0.1421
     62 C          13.3100    1.7310   22.1090 C.2       1 ARG         0.2060
     63 O          13.6770    2.6420   22.8340 O.2       1 ARG        -0.3942
     64 CB         15.4530    0.8370   21.1270 C.3       1 ARG         0.0427
     65 CG         15.4240   -0.3640   22.0100 C.2       1 ARG         0.0561
     66 ND1        15.6210   -0.2560   23.3700 N.pl3     1 ARG        -0.2623
     67 CD2        15.2050   -1.6620   21.6990 C.2       1 ARG        -0.0276
     68 CE1        15.5470   -1.4920   23.8420 C.2       1 ARG         0.0875
     69 NE2        15.2980   -2.3700   22.8740 N.2       1 ARG        -0.3437
     70 N          12.2340    1.0110   22.3670 N.am      1 ARG        -0.2636
     71 CA         11.5030    1.1490   23.6120 C.3       1 ARG         0.1312
     72 C          11.9850    0.0480   24.5480 C.2       1 ARG         0.2040
     73 O          12.4100   -1.0290   24.0980 O.2       1 ARG        -0.3944
     74 CB          9.9850    1.1530   23.4160 C.3       1 ARG        -0.0101
     75 CG          9.4020    2.4340   22.7700 C.3       1 ARG        -0.0425
     76 CD1         7.8890    2.3910   22.7400 C.3       1 ARG        -0.0625
     77 CD2         9.8620    3.7320   23.4960 C.3       1 ARG        -0.0625
     78 N          12.0060    0.3700   25.8430 N.am      1 ARG        -0.2616
     79 CA         12.5270   -0.4050   26.9750 C.3       1 ARG         0.1539
     80 C          11.6870   -1.6330   27.3730 C.2       1 ARG         0.2062
     81 O          11.1940   -1.7370   28.5090 O.2       1 ARG        -0.3943
     82 CB         12.6950    0.5190   28.1750 C.3       1 ARG         0.0843
     83 OG         14.0250    1.0020   28.1650 O.3       1 ARG        -0.3903
     84 N          11.6050   -2.5920   26.4580 N.am      1 ARG        -0.2639
     85 CA         10.8530   -3.8490   26.6260 C.3       1 ARG         0.1282
     86 C          11.5200   -4.9680   25.8190 C.2       1 ARG         0.2036
     87 O          12.2780   -4.6620   24.9010 O.2       1 ARG        -0.3944
     88 CB          9.3900   -3.6460   26.1570 C.3       1 ARG        -0.0244
     89 N          11.2690   -6.2440   26.1860 N.am      1 ARG        -0.2637
     90 CA         11.7330   -7.4520   25.4710 C.3       1 ARG         0.1310
     91 C          10.6270   -8.5240   25.5750 C.2       1 ARG         0.2033
     92 O          10.4580   -9.1540   26.6240 O.2       1 ARG        -0.3944
     93 CB         13.1050   -7.9490   25.9900 C.3       1 ARG        -0.0092
     94 CG         13.6920   -9.1650   25.2550 C.3       1 ARG        -0.0156
     95 CD         14.1130   -8.9040   23.8260 C.3       1 ARG         0.0627
     96 NE         15.3910   -8.2040   23.7530 N.pl3     1 ARG        -0.2723
     97 CZ         15.9410   -7.7610   22.6240 C.cat     1 ARG         0.2882
     98 NH1        15.3310   -7.9520   21.4570 N.pl3     1 ARG        -0.2849
     99 NH2        17.0980   -7.1110   22.6530 N.pl3     1 ARG        -0.2849
    100 N           9.8400   -8.6880   24.4930 N.am      1 ARG        -0.2694
    101 CA          8.6760   -9.5930   24.4370 C.3       1 ARG         0.0959
    102 C           9.0020  -10.9740   23.8610 C.2       1 ARG         0.0602
    103 O           9.7010  -11.0750   22.8560 O.co2     1 ARG        -0.5666
    104 CB          7.5700   -8.9530   23.6040 C.3       1 ARG        -0.0064
    105 CG          7.1010   -7.6050   24.1190 C.3       1 ARG         0.0038
    106 CD          5.8510   -7.1200   23.4180 C.2       1 ARG         0.0350
    107 OE1         4.7650   -7.6750   23.7070 O.co2     1 ARG        -0.5690
    108 OE2         5.9690   -6.2560   22.5190 O.co2     1 ARG        -0.5690
    109 OXT         8.5660  -11.9870   24.4010 O.co2     1 ARG        -0.5666
    110 H1         14.8380    6.9847    1.1173 H         1 ARG         0.2015
    111 H2         13.6533    5.8537    1.2815 H         1 ARG         0.2015
    112 H3         14.0716    6.7993    2.5622 H         1 ARG         0.2015
    113 H4         13.3019    8.7499    1.4993 H         1 ARG         0.1095
    114 H5         12.0750    8.5538   -0.6563 H         1 ARG         0.0310
    115 H6         12.5237    6.8166   -0.7425 H         1 ARG         0.0310
    116 H7         13.8002    8.0785   -0.8130 H         1 ARG         0.0310
    117 H8         11.8252    5.4804    1.6806 H         1 ARG         0.1884
    118 H9          9.2291    6.6605    2.4794 H         1 ARG         0.0800
    119 H10         8.8613    3.9313    2.6869 H         1 ARG         0.0313
    120 H11        10.1162    4.0238    1.4050 H         1 ARG         0.0313
    121 H12         8.7244    5.6276    0.1724 H         1 ARG         0.0301
    122 H13         7.4645    5.5023    1.4466 H         1 ARG         0.0301
    123 H14         8.4286    2.9915    0.1228 H         1 ARG         0.0689
    124 H15         7.3530    4.0949   -0.8004 H         1 ARG         0.0689
    125 H16         6.3713    3.4294    1.8937 H         1 ARG         0.2642
    126 H17         4.9888    1.5767   -1.4513 H         1 ARG         0.2615
    127 H18         6.4748    2.5596   -1.5437 H         1 ARG         0.2615
    128 H19         4.4776    2.1715    1.9955 H         1 ARG         0.2615
    129 H20         3.8549    1.3874    0.5190 H         1 ARG         0.2615
    130 H21        12.1210    5.5757    4.0539 H         1 ARG         0.1883
    131 H22        10.4362    5.3199    6.4775 H         1 ARG         0.0800
    132 H23        10.7660    3.0435    5.9698 H         1 ARG         0.0312
    133 H24        11.8753    3.4385    7.3263 H         1 ARG         0.0312
    134 H25        13.7605    3.3844    5.9194 H         1 ARG         0.0269
    135 H26        12.7424    3.3280    4.4405 H         1 ARG         0.0269
    136 H27        11.8359    1.0741    5.4455 H         1 ARG         0.0317
    137 H28        13.3195    1.1292    6.4567 H         1 ARG         0.0317
    138 H29        14.5022    1.7983    4.2113 H         1 ARG         0.0813
    139 H30        13.0413    1.0952    3.4378 H         1 ARG         0.0813
    140 H31        14.7983   -0.4690    3.6271 H         1 ARG         0.1994
    141 H32        13.5210   -0.9371    4.5537 H         1 ARG         0.1994
    142 H33        14.8597   -0.2928    5.2625 H         1 ARG         0.1994
    143 H34        11.3345    5.7715    8.4472 H         1 ARG         0.1883
    144 H35        13.1255    7.9710    8.5703 H         1 ARG         0.0801
    145 H36        11.3072    7.4522   10.2154 H         1 ARG         0.0337
    146 H37        12.9026    7.7722   10.9764 H         1 ARG         0.0337
    147 H38        13.2578    5.3394   11.2541 H         1 ARG         0.0504
    148 H39        11.6621    5.0197   10.4937 H         1 ARG         0.0504
    149 H40        11.4921    6.9390   14.1463 H         1 ARG         0.1814
    150 H41        12.5718    7.5193   12.9226 H         1 ARG         0.1814
    151 H42        15.1790    8.0893    9.6077 H         1 ARG         0.1881
    152 H43        17.4342    7.5239    9.2984 H         1 ARG         0.0763
    153 H44        16.9466    5.8337    8.9347 H         1 ARG         0.0763
    154 H45        15.6779    7.4265   11.8129 H         1 ARG         0.1883
    155 H46        17.6075    5.8187   13.4266 H         1 ARG         0.0797
    156 H47        17.4853    7.5922   15.1749 H         1 ARG         0.0277
    157 H48        16.4429    8.5719   14.0887 H         1 ARG         0.0277
    158 H49        18.1379    8.2076   13.6187 H         1 ARG         0.0277
    159 H50        13.1196    4.6337   14.4815 H         1 ARG         0.0802
    160 H51        12.9867    2.7545   13.1167 H         1 ARG         0.0313
    161 H52        13.6339    1.8892   14.5516 H         1 ARG         0.0313
    162 H53        14.8978    1.7935   12.2180 H         1 ARG         0.0287
    163 H54        15.8143    1.9354   13.7564 H         1 ARG         0.0287
    164 H55        16.6701    3.7856   12.5889 H         1 ARG         0.0524
    165 H56        15.1230    4.0817   11.7254 H         1 ARG         0.0524
    166 H57        12.6657    4.6013   16.5567 H         1 ARG         0.1883
    167 H58        14.7928    4.5117   18.5388 H         1 ARG         0.0801
    168 H59        12.9247    5.2530   20.0962 H         1 ARG         0.0337
    169 H60        11.8015    5.1799   18.6963 H         1 ARG         0.0337
    170 H61        12.5040    7.5027   19.0739 H         1 ARG         0.0504
    171 H62        13.1956    6.9110   17.5252 H         1 ARG         0.0504
    172 H63        16.5185    7.4215   18.4809 H         1 ARG         0.1814
    173 H64        15.3749    7.0021   17.2495 H         1 ARG         0.1814
    174 H65        14.9169    3.2670   20.2815 H         1 ARG         0.1885
    175 H66        13.4880    0.6763   20.2476 H         1 ARG         0.0824
    176 H67        16.0530    1.6155   21.6210 H         1 ARG         0.0491
    177 H68        15.9285    0.5559   20.1758 H         1 ARG         0.0491
    178 H69        15.7905    0.6061   23.9075 H         1 ARG         0.2386
    179 H70        14.9957   -2.0675   20.7102 H         1 ARG         0.0324
    180 H71        15.6741   -1.7560   24.8909 H         1 ARG         0.1149
    181 H72        11.9143    0.3526   21.6856 H         1 ARG         0.1883
    182 H73        11.7708    2.1175   24.0595 H         1 ARG         0.0800
    183 H74         9.5151    1.0264   24.4025 H         1 ARG         0.0315
    184 H75         9.7236    0.2996   22.7731 H         1 ARG         0.0315
    185 H76         9.7660    2.4782   21.7329 H         1 ARG         0.0298
    186 H77         7.5052    3.3119   22.2768 H         1 ARG         0.0232
    187 H78         7.5040    2.3093   23.7672 H         1 ARG         0.0232
    188 H79         7.5584    1.5206   22.1542 H         1 ARG         0.0232
    189 H80        10.9611    3.7684   23.5207 H         1 ARG         0.0232
    190 H81         9.4719    3.7348   24.5245 H         1 ARG         0.0232
    191 H82         9.4781    4.6100   22.9558 H         1 ARG         0.0232
    192 H83        11.6133    1.2604   26.0732 H         1 ARG         0.1884
    193 H84        13.5210   -0.7758   26.6843 H         1 ARG         0.0823
    194 H85        12.5057   -0.0370   29.1050 H         1 ARG         0.0606
    195 H86        11.9906    1.3606   28.1010 H         1 ARG         0.0606
    196 H87        14.1556    1.5823   28.9058 H         1 ARG         0.2097
    197 H88        12.0877   -2.4516   25.5935 H         1 ARG         0.1883
    198 H89        10.8523   -4.1280   27.6900 H         1 ARG         0.0797
    199 H90         8.8309   -4.5849   26.2832 H         1 ARG         0.0277
    200 H91         9.3820   -3.3543   25.0964 H         1 ARG         0.0277
    201 H92         8.9185   -2.8549   26.7585 H         1 ARG         0.0277
    202 H93        10.7226   -6.3831   27.0119 H         1 ARG         0.1883
    203 H94        11.8599   -7.1950   24.4090 H         1 ARG         0.0800
    204 H95        12.9886   -8.2181   27.0502 H         1 ARG         0.0313
    205 H96        13.8220   -7.1198   25.8987 H         1 ARG         0.0313
    206 H97        12.9312   -9.9594   25.2472 H         1 ARG         0.0301
    207 H98        14.5750   -9.5084   25.8139 H         1 ARG         0.0301
    208 H99        13.3433   -8.2903   23.3352 H         1 ARG         0.0689
    209 H100       14.2045   -9.8663   23.3011 H         1 ARG         0.0689
    210 H101       15.9015   -8.0418   24.6327 H         1 ARG         0.2642
    211 H102       15.7624   -7.6066   20.5878 H         1 ARG         0.2615
    212 H103       14.4274   -8.4453   21.4228 H         1 ARG         0.2615
    213 H104       17.5798   -6.9569   23.5502 H         1 ARG         0.2615
    214 H105       17.5140   -6.7607   21.7783 H         1 ARG         0.2615
    215 H106       10.0600   -8.1604   23.6725 H         1 ARG         0.1875
    216 H107        8.3082   -9.7328   25.4642 H         1 ARG         0.0727
    217 H108        6.7080   -9.6363   23.5926 H         1 ARG         0.0323
    218 H109        7.9449   -8.8185   22.5787 H         1 ARG         0.0323
    219 H110        7.9025   -6.8685   23.9606 H         1 ARG         0.0432
    220 H111        6.8906   -7.6922   25.1951 H         1 ARG         0.0432
@<TRIPOS>BOND
     1    1    2 1  
     2    2    3 1  
     3    2    5 1  
     4    3    4 2  
     5    3    6 am 
     6    6    7 1  
     7    7    8 1  
     8    7   10 1  
     9    8    9 2  
    10    8   17 am 
    11   10   11 1  
    12   11   12 1  
    13   12   13 1  
    14   13   14 ar 
    15   14   15 ar 
    16   14   16 ar 
    17   17   18 1  
    18   18   19 1  
    19   18   21 1  
    20   19   20 2  
    21   19   26 am 
    22   21   22 1  
    23   22   23 1  
    24   23   24 1  
    25   24   25 1  
    26   26   27 1  
    27   27   28 1  
    28   27   30 1  
    29   28   29 2  
    30   28   35 am 
    31   30   31 1  
    32   31   32 1  
    33   32   33 2  
    34   32   34 am 
    35   35   36 1  
    36   36   37 1  
    37   37   38 2  
    38   37   39 am 
    39   39   40 1  
    40   40   41 1  
    41   40   43 1  
    42   41   42 2  
    43   41   44 am 
    44   44   45 1  
    45   44   50 1  
    46   45   46 1  
    47   45   48 1  
    48   46   47 2  
    49   46   51 am 
    50   48   49 1  
    51   49   50 1  
    52   51   52 1  
    53   52   53 1  
    54   52   55 1  
    55   53   54 2  
    56   53   60 am 
    57   55   56 1  
    58   56   57 1  
    59   57   58 2  
    60   57   59 am 
    61   60   61 1  
    62   61   62 1  
    63   61   64 1  
    64   62   63 2  
    65   62   70 am 
    66   64   65 1  
    67   65   66 1  
    68   65   67 2  
    69   66   68 1  
    70   67   69 1  
    71   68   69 2  
    72   70   71 1  
    73   71   72 1  
    74   71   74 1  
    75   72   73 2  
    76   72   78 am 
    77   74   75 1  
    78   75   76 1  
    79   75   77 1  
    80   78   79 1  
    81   79   80 1  
    82   79   82 1  
    83   80   81 2  
    84   80   84 am 
    85   82   83 1  
    86   84   85 1  
    87   85   86 1  
    88   85   88 1  
    89   86   87 2  
    90   86   89 am 
    91   89   90 1  
    92   90   91 1  
    93   90   93 1  
    94   91   92 2  
    95   91  100 am 
    96   93   94 1  
    97   94   95 1  
    98   95   96 1  
    99   96   97 ar 
   100   97   98 ar 
   101   97   99 ar 
   102  100  101 1  
   103  101  102 1  
   104  101  104 1  
   105  102  103 ar 
   106  102  109 ar 
   107  104  105 1  
   108  105  106 1  
   109  106  107 ar 
   110  106  108 ar 
   111    1  110 1  
   112    1  111 1  
   113    1  112 1  
   114    2  113 1  
   115    5  114 1  
   116    5  115 1  
   117    5  116 1  
   118    6  117 1  
   119    7  118 1  
   120   10  119 1  
   121   10  120 1  
   122   11  121 1  
   123   11  122 1  
   124   12  123 1  
   125   12  124 1  
   126   13  125 1  
   127   15  126 1  
   128   15  127 1  
   129   16  128 1  
   130   16  129 1  
   131   17  130 1  
   132   18  131 1  
   133   21  132 1  
   134   21  133 1  
   135   22  134 1  
   136   22  135 1  
   137   23  136 1  
   138   23  137 1  
   139   24  138 1  
   140   24  139 1  
   141   25  140 1  
   142   25  141 1  
   143   25  142 1  
   144   26  143 1  
   145   27  144 1  
   146   30  145 1  
   147   30  146 1  
   148   31  147 1  
   149   31  148 1  
   150   34  149 1  
   151   34  150 1  
   152   35  151 1  
   153   36  152 1  
   154   36  153 1  
   155   39  154 1  
   156   40  155 1  
   157   43  156 1  
   158   43  157 1  
   159   43  158 1  
   160   45  159 1  
   161   48  160 1  
   162   48  161 1  
   163   49  162 1  
   164   49  163 1  
   165   50  164 1  
   166   50  165 1  
   167   51  166 1  
   168   52  167 1  
   169   55  168 1  
   170   55  169 1  
   171   56  170 1  
   172   56  171 1  
   173   59  172 1  
   174   59  173 1  
   175   60  174 1  
   176   61  175 1  
   177   64  176 1  
   178   64  177 1  
   179   66  178 1  
   180   67  179 1  
   181   68  180 1  
   182   70  181 1  
   183   71  182 1  
   184   74  183 1  
   185   74  184 1  
   186   75  185 1  
   187   76  186 1  
   188   76  187 1  
   189   76  188 1  
   190   77  189 1  
   191   77  190 1  
   192   77  191 1  
   193   78  192 1  
   194   79  193 1  
   195   82  194 1  
   196   82  195 1  
   197   83  196 1  
   198   84  197 1  
   199   85  198 1  
   200   88  199 1  
   201   88  200 1  
   202   88  201 1  
   203   89  202 1  
   204   90  203 1  
   205   93  204 1  
   206   93  205 1  
   207   94  206 1  
   208   94  207 1  
   209   95  208 1  
   210   95  209 1  
   211   96  210 1  
   212   98  211 1  
   213   98  212 1  
   214   99  213 1  
   215   99  214 1  
   216  100  215 1  
   217  101  216 1  
   218  104  217 1  
   219  104  218 1  
   220  105  219 1  
   221  105  220 1  
@<TRIPOS>SUBSTRUCTURE
     1 ARG         1

