2lo6_ligand
  -I-interpret- 

206211  0  0  0  0  0  0  0  0999 V2000
   -9.0840  -22.6320   -5.5780 N   0  3  0  0  0
   -8.2960  -21.6540   -4.8080 C   0  0  0  0  0
   -7.4120  -20.8260   -5.7370 C   0  0  0  0  0
   -7.3420  -21.0940   -6.9320 O   0  0  0  0  0
   -7.4560  -22.3560   -3.7370 C   0  0  0  0  0
   -6.4510  -23.3450   -4.2800 C   0  0  0  0  0
   -5.1640  -22.9150   -4.6330 C   0  0  0  0  0
   -6.8020  -24.6940   -4.4330 C   0  0  0  0  0
   -4.2300  -23.8240   -5.1450 C   0  0  0  0  0
   -5.8720  -25.6130   -4.9420 C   0  0  0  0  0
   -4.5820  -25.1810   -5.3050 C   0  0  0  0  0
   -3.6770  -26.0660   -5.8100 O   0  0  0  0  0
   -6.7380  -19.8170   -5.1830 N   0  0  0  0  0
   -5.8930  -18.9030   -5.9420 C   0  0  0  0  0
   -4.6380  -18.5610   -5.1320 C   0  0  0  0  0
   -4.5630  -18.8850   -3.9480 O   0  0  0  0  0
   -6.7000  -17.6490   -6.2760 C   0  0  0  0  0
   -7.0850  -17.0000   -5.0840 O   0  0  0  0  0
   -3.6480  -17.9030   -5.7580 N   0  0  0  0  0
   -2.4070  -17.4760   -5.1190 C   0  0  0  0  0
   -2.6050  -16.4870   -3.9680 C   0  0  0  0  0
   -1.6200  -16.0450   -3.3780 O   0  0  0  0  0
   -1.5720  -16.8290   -6.2260 C   0  0  0  0  0
   -2.1520  -17.4120   -7.5170 C   0  0  0  0  0
   -3.6310  -17.5410   -7.1650 C   0  0  0  0  0
   -3.8520  -16.1330   -3.6390 N   0  0  0  0  0
   -4.1560  -15.1920   -2.5690 C   0  0  0  0  0
   -5.2600  -15.7480   -1.6660 C   0  0  0  0  0
   -6.1060  -16.5260   -2.1090 O   0  0  0  0  0
   -4.5450  -13.8330   -3.1540 C   0  0  0  0  0
   -5.5940  -13.9860   -4.0850 O   0  0  0  0  0
   -3.3540  -13.2000   -3.8760 C   0  0  0  0  0
   -5.2510  -15.3450   -0.3900 N   0  0  0  0  0
   -6.1680  -15.8750    0.6080 C   0  0  0  0  0
   -5.5120  -17.1170    1.2170 C   0  0  0  0  0
   -4.2280  -16.7860    1.7060 O   0  0  0  0  0
   -6.4720  -14.8550    1.7110 C   0  0  0  0  0
   -5.6280  -14.5940    2.5660 O   0  0  0  0  0
   -3.2010  -17.9040    2.2470 P   0  0  0  0  0
   -2.0620  -17.0990    2.7440 O   0  0  0  0  0
   -3.9680  -18.5990    3.3050 O   0  0  0  0  0
   -2.9080  -18.7200    1.0470 O   0  0  0  0  0
   -7.6750  -14.2600    1.7200 N   0  0  0  0  0
   -8.6770  -14.3070    0.6710 C   0  0  0  0  0
   -8.1950  -13.5070   -0.5400 C   0  0  0  0  0
   -7.1430  -12.8710   -0.4860 O   0  0  0  0  0
   -9.9220  -13.6590    1.2870 C   0  0  0  0  0
   -9.3290  -12.6620    2.2860 C   0  0  0  0  0
   -8.1440  -13.4490    2.8280 C   0  0  0  0  0
   -8.9660  -13.5380   -1.6300 N   0  0  0  0  0
   -8.6350  -12.7740   -2.8220 C   0  0  0  0  0
   -8.7200  -11.2760   -2.5310 C   0  0  0  0  0
   -9.5720  -10.8430   -1.7590 O   0  0  0  0  0
   -9.5740  -13.1540   -3.9660 C   0  0  0  0  0
   -9.4900  -14.5400   -4.2200 O   0  0  0  0  0
   -7.8360  -10.4880   -3.1530 N   0  0  0  0  0
   -7.8190   -9.0440   -2.9700 C   0  0  0  0  0
   -7.2820   -8.3350   -4.2070 C   0  0  0  0  0
   -6.3600   -8.8220   -4.8570 O   0  0  0  0  0
   -6.9550   -8.6830   -1.7600 C   0  0  0  0  0
   -6.7760   -7.1910   -1.6370 C   0  0  0  0  0
   -5.7230   -6.5600   -2.3190 C   0  0  0  0  0
   -7.6580   -6.4370   -0.8550 C   0  0  0  0  0
   -5.5830   -5.1710   -2.2670 C   0  0  0  0  0
   -7.5200   -5.0460   -0.7910 C   0  0  0  0  0
   -6.4980   -4.4060   -1.5200 C   0  0  0  0  0
   -6.3920   -3.0500   -1.5000 O   0  0  0  0  0
   -7.8630   -7.1760   -4.5320 N   0  0  0  0  0
   -7.4230   -6.3700   -5.6590 C   0  0  0  0  0
   -7.5400   -4.8730   -5.3530 C   0  0  0  0  0
   -8.2830   -4.4640   -4.4580 O   0  0  0  0  0
   -8.2640   -6.7020   -6.8940 C   0  0  0  0  0
   -9.5320   -6.0830   -6.7840 O   0  0  0  0  0
   -6.8030   -4.0390   -6.1010 N   0  0  0  0  0
   -6.8770   -2.5870   -6.0270 C   0  0  0  0  0
   -8.2810   -2.0350   -6.2800 C   0  0  0  0  0
   -8.4800   -0.8230   -6.2270 O   0  0  0  0  0
   -5.8980   -2.0780   -7.0870 C   0  0  0  0  0
   -4.9140   -3.2330   -7.2540 C   0  0  0  0  0
   -5.8200   -4.4470   -7.0870 C   0  0  0  0  0
   -9.2610   -2.9070   -6.5530 N   0  0  0  0  0
  -10.6290   -2.4680   -6.7810 C   0  0  0  0  0
  -11.2420   -1.9120   -5.5000 C   0  0  0  0  0
  -11.9590   -0.9120   -5.5570 O   0  0  0  0  0
  -11.4620   -3.6380   -7.3120 C   0  0  0  0  0
  -10.8110   -4.2210   -8.4210 O   0  0  0  0  0
  -12.8510   -3.1690   -7.7370 C   0  0  0  0  0
  -10.9700   -2.5440   -4.3470 N   0  0  0  0  0
  -11.5090   -2.0880   -3.0660 C   0  0  0  0  0
  -12.8720   -2.7380   -2.8080 C   0  0  0  0  0
  -13.7920   -2.3810   -3.8120 O   0  0  0  0  0
  -10.5710   -2.4460   -1.9080 C   0  0  0  0  0
  -10.1740   -3.6050   -1.7840 O   0  0  0  0  0
  -15.3070   -2.9250   -3.7800 P   0  0  0  0  0
  -15.8500   -2.3730   -2.5170 O   0  0  0  0  0
  -15.8910   -2.3490   -5.0140 O   0  0  0  0  0
  -15.1530   -4.3960   -3.7990 O   0  0  0  0  0
  -10.2020   -1.4810   -1.0520 N   0  0  0  0  0
   -9.3550   -1.7130    0.1080 C   0  0  0  0  0
  -10.0650   -2.5020    1.2110 C   0  0  0  0  0
   -9.4110   -2.9620    2.1460 O   0  0  0  0  0
   -9.0000   -0.3170    0.6210 C   0  0  0  0  0
  -10.2190    0.5120    0.2240 C   0  0  0  0  0
  -10.5690   -0.0780   -1.1400 C   0  0  0  0  0
  -11.3890   -2.6660    1.1200 N   0  0  0  0  0
  -12.1610   -3.3160    2.1660 C   0  0  0  0  0
  -13.0750   -4.3950    1.5860 C   0  0  0  0  0
  -12.6290   -5.5640    1.5810 O   0  0  0  0  0
  -12.9220   -2.2530    2.9600 C   0  0  0  0  0
  -13.7590   -1.5140    2.0950 O   0  0  0  0  0
  -14.2000   -4.0550    1.1570 O   0  0  0  0  0
   -9.6344  -22.1431   -6.2839 H   0  0  0  0  0
   -8.4534  -23.2917   -6.0336 H   0  0  0  0  0
   -9.7078  -23.1360   -4.9477 H   0  0  0  0  0
   -8.9870  -20.9780   -4.3044 H   0  0  0  0  0
   -8.1461  -22.9156   -3.1055 H   0  0  0  0  0
   -6.8931  -21.5826   -3.2145 H   0  0  0  0  0
   -4.8891  -21.8676   -4.5082 H   0  0  0  0  0
   -7.8011  -25.0299   -4.1554 H   0  0  0  0  0
   -3.2317  -23.4835   -5.4198 H   0  0  0  0  0
   -6.1481  -26.6612   -5.0564 H   0  0  0  0  0
   -4.0742  -26.9389   -5.8526 H   0  0  0  0  0
   -6.8180  -19.6776   -4.1757 H   0  0  0  0  0
   -5.5697  -19.3699   -6.8724 H   0  0  0  0  0
   -7.5905  -17.9313   -6.8376 H   0  0  0  0  0
   -6.0876  -16.9737   -6.8736 H   0  0  0  0  0
   -7.5915  -16.2132   -5.2986 H   0  0  0  0  0
   -1.9240  -18.3405   -4.6635 H   0  0  0  0  0
   -0.5083  -17.0413   -6.1185 H   0  0  0  0  0
   -1.6279  -15.7407   -6.2028 H   0  0  0  0  0
   -1.6926  -18.3558   -7.8110 H   0  0  0  0  0
   -1.9678  -16.7912   -8.3938 H   0  0  0  0  0
   -4.1747  -16.6150   -7.3521 H   0  0  0  0  0
   -4.1311  -18.2876   -7.7819 H   0  0  0  0  0
   -4.6269  -16.5411   -4.1619 H   0  0  0  0  0
   -3.2651  -15.0517   -1.9568 H   0  0  0  0  0
   -4.8627  -13.1928   -2.3310 H   0  0  0  0  0
   -5.8289  -13.1275   -4.4447 H   0  0  0  0  0
   -2.5349  -13.0612   -3.1703 H   0  0  0  0  0
   -3.0311  -13.8552   -4.6850 H   0  0  0  0  0
   -3.6503  -12.2342   -4.2852 H   0  0  0  0  0
   -4.5737  -14.6374   -0.1053 H   0  0  0  0  0
   -7.1181  -16.1162    0.1313 H   0  0  0  0  0
   -5.4197  -17.8885    0.4526 H   0  0  0  0  0
   -6.1275  -17.4850    2.0379 H   0  0  0  0  0
   -1.6180  -16.6824    2.0017 H   0  0  0  0  0
   -2.4107  -18.1934    0.4169 H   0  0  0  0  0
   -8.8774  -15.3213    0.3259 H   0  0  0  0  0
  -10.5882  -14.3831    1.7561 H   0  0  0  0  0
  -10.5634  -13.1840    0.5447 H   0  0  0  0  0
  -10.0318  -12.3436    3.0559 H   0  0  0  0  0
   -9.0525  -11.7070    1.8393 H   0  0  0  0  0
   -7.3607  -12.7867    3.1967 H   0  0  0  0  0
   -8.4311  -14.0656    3.6797 H   0  0  0  0  0
   -9.8088  -14.1125   -1.6262 H   0  0  0  0  0
   -7.6130  -13.0085   -3.1197 H   0  0  0  0  0
   -9.2852  -12.6070   -4.8635 H   0  0  0  0  0
  -10.5975  -12.9018   -3.6884 H   0  0  0  0  0
  -10.0829  -14.7688   -4.9395 H   0  0  0  0  0
   -7.1504  -10.9135   -3.7769 H   0  0  0  0  0
   -8.8447   -8.7147   -2.8037 H   0  0  0  0  0
   -5.9736   -9.1400   -1.8869 H   0  0  0  0  0
   -7.4503   -9.0475   -0.8600 H   0  0  0  0  0
   -5.0122   -7.1563   -2.8911 H   0  0  0  0  0
   -8.4518   -6.9327   -0.2962 H   0  0  0  0  0
   -4.7691   -4.6822   -2.8024 H   0  0  0  0  0
   -8.2026   -4.4579   -0.1776 H   0  0  0  0  0
   -7.0872   -2.6839   -0.9483 H   0  0  0  0  0
   -8.6452   -6.8443   -3.9676 H   0  0  0  0  0
   -6.3750   -6.6020   -5.8487 H   0  0  0  0  0
   -8.3927   -7.7820   -6.9654 H   0  0  0  0  0
   -7.7576   -6.3351   -7.7868 H   0  0  0  0  0
  -10.0575   -6.2926   -7.5595 H   0  0  0  0  0
   -6.6256   -2.2507   -5.0211 H   0  0  0  0  0
   -5.4061   -1.1522   -6.7887 H   0  0  0  0  0
   -6.3951   -1.8165   -8.0211 H   0  0  0  0  0
   -4.0914   -3.2064   -6.5393 H   0  0  0  0  0
   -4.3859   -3.2161   -8.2074 H   0  0  0  0  0
   -6.2851   -4.7403   -8.0282 H   0  0  0  0  0
   -5.2644   -5.3285   -6.7672 H   0  0  0  0  0
   -9.0427   -3.9021   -6.6021 H   0  0  0  0  0
  -10.6227   -1.6685   -7.5219 H   0  0  0  0  0
  -11.5680   -4.3717   -6.5129 H   0  0  0  0  0
  -11.3366   -4.9537   -8.7504 H   0  0  0  0  0
  -13.3641   -2.7334   -6.8797 H   0  0  0  0  0
  -12.7555   -2.4206   -8.5237 H   0  0  0  0  0
  -13.4218   -4.0193   -8.1101 H   0  0  0  0  0
  -10.3688   -3.3678   -4.3650 H   0  0  0  0  0
  -11.6105   -1.0041   -3.1199 H   0  0  0  0  0
  -13.2499   -2.3936   -1.8454 H   0  0  0  0  0
  -12.7516   -3.8213   -2.8097 H   0  0  0  0  0
  -15.9173   -1.4181   -2.5892 H   0  0  0  0  0
  -15.9567   -1.3958   -4.9209 H   0  0  0  0  0
   -8.4850   -2.3085   -0.1686 H   0  0  0  0  0
   -8.0714    0.0661    0.1979 H   0  0  0  0  0
   -8.8052   -0.2968    1.6933 H   0  0  0  0  0
  -10.0229    1.5838    0.1947 H   0  0  0  0  0
  -11.0356    0.4533    0.9436 H   0  0  0  0  0
  -11.6262    0.0478   -1.3739 H   0  0  0  0  0
  -10.0371    0.4276   -1.9459 H   0  0  0  0  0
  -11.8728   -2.3239    0.2897 H   0  0  0  0  0
  -11.4919   -3.8332    2.8537 H   0  0  0  0  0
  -11.7475   -5.5706    1.9611 H   0  0  0  0  0
  -12.2084   -1.5782    3.4329 H   0  0  0  0  0
  -13.5319   -2.7406    3.7205 H   0  0  0  0  0
  -14.2328   -0.8495    2.6005 H   0  0  0  0  0
  1  2  1  0  0  0
  2  3  1  0  0  0
  2  5  1  0  0  0
  3  4  2  0  0  0
  3 13  1  0  0  0
  5  6  1  0  0  0
  6  7  4  0  0  0
  6  8  4  0  0  0
  7  9  4  0  0  0
  8 10  4  0  0  0
  9 11  4  0  0  0
 10 11  4  0  0  0
 11 12  1  0  0  0
 13 14  1  0  0  0
 14 15  1  0  0  0
 14 17  1  0  0  0
 15 16  2  0  0  0
 15 19  1  0  0  0
 17 18  1  0  0  0
 19 20  1  0  0  0
 19 25  1  0  0  0
 20 21  1  0  0  0
 20 23  1  0  0  0
 21 22  2  0  0  0
 21 26  1  0  0  0
 23 24  1  0  0  0
 24 25  1  0  0  0
 26 27  1  0  0  0
 27 28  1  0  0  0
 27 30  1  0  0  0
 28 29  2  0  0  0
 28 33  1  0  0  0
 30 31  1  0  0  0
 30 32  1  0  0  0
 33 34  1  0  0  0
 34 35  1  0  0  0
 34 37  1  0  0  0
 35 36  1  0  0  0
 36 39  1  0  0  0
 37 38  2  0  0  0
 37 43  1  0  0  0
 39 40  1  0  0  0
 39 41  2  0  0  0
 39 42  1  0  0  0
 43 44  1  0  0  0
 43 49  1  0  0  0
 44 45  1  0  0  0
 44 47  1  0  0  0
 45 46  2  0  0  0
 45 50  1  0  0  0
 47 48  1  0  0  0
 48 49  1  0  0  0
 50 51  1  0  0  0
 51 52  1  0  0  0
 51 54  1  0  0  0
 52 53  2  0  0  0
 52 56  1  0  0  0
 54 55  1  0  0  0
 56 57  1  0  0  0
 57 58  1  0  0  0
 57 60  1  0  0  0
 58 59  2  0  0  0
 58 68  1  0  0  0
 60 61  1  0  0  0
 61 62  4  0  0  0
 61 63  4  0  0  0
 62 64  4  0  0  0
 63 65  4  0  0  0
 64 66  4  0  0  0
 65 66  4  0  0  0
 66 67  1  0  0  0
 68 69  1  0  0  0
 69 70  1  0  0  0
 69 72  1  0  0  0
 70 71  2  0  0  0
 70 74  1  0  0  0
 72 73  1  0  0  0
 74 75  1  0  0  0
 74 80  1  0  0  0
 75 76  1  0  0  0
 75 78  1  0  0  0
 76 77  2  0  0  0
 76 81  1  0  0  0
 78 79  1  0  0  0
 79 80  1  0  0  0
 81 82  1  0  0  0
 82 83  1  0  0  0
 82 85  1  0  0  0
 83 84  2  0  0  0
 83 88  1  0  0  0
 85 86  1  0  0  0
 85 87  1  0  0  0
 88 89  1  0  0  0
 89 90  1  0  0  0
 89 92  1  0  0  0
 90 91  1  0  0  0
 91 94  1  0  0  0
 92 93  2  0  0  0
 92 98  1  0  0  0
 94 95  1  0  0  0
 94 96  1  0  0  0
 94 97  2  0  0  0
 98 99  1  0  0  0
 98104  1  0  0  0
 99100  1  0  0  0
 99102  1  0  0  0
100101  2  0  0  0
100105  1  0  0  0
102103  1  0  0  0
103104  1  0  0  0
105106  1  0  0  0
106107  1  0  0  0
106109  1  0  0  0
107108  1  0  0  0
107111  2  0  0  0
109110  1  0  0  0
  1112  1  0  0  0
  1113  1  0  0  0
  1114  1  0  0  0
  2115  1  0  0  0
  5116  1  0  0  0
  5117  1  0  0  0
  7118  1  0  0  0
  8119  1  0  0  0
  9120  1  0  0  0
 10121  1  0  0  0
 12122  1  0  0  0
 13123  1  0  0  0
 14124  1  0  0  0
 17125  1  0  0  0
 17126  1  0  0  0
 18127  1  0  0  0
 20128  1  0  0  0
 23129  1  0  0  0
 23130  1  0  0  0
 24131  1  0  0  0
 24132  1  0  0  0
 25133  1  0  0  0
 25134  1  0  0  0
 26135  1  0  0  0
 27136  1  0  0  0
 30137  1  0  0  0
 31138  1  0  0  0
 32139  1  0  0  0
 32140  1  0  0  0
 32141  1  0  0  0
 33142  1  0  0  0
 34143  1  0  0  0
 35144  1  0  0  0
 35145  1  0  0  0
 40146  1  0  0  0
 42147  1  0  0  0
 44148  1  0  0  0
 47149  1  0  0  0
 47150  1  0  0  0
 48151  1  0  0  0
 48152  1  0  0  0
 49153  1  0  0  0
 49154  1  0  0  0
 50155  1  0  0  0
 51156  1  0  0  0
 54157  1  0  0  0
 54158  1  0  0  0
 55159  1  0  0  0
 56160  1  0  0  0
 57161  1  0  0  0
 60162  1  0  0  0
 60163  1  0  0  0
 62164  1  0  0  0
 63165  1  0  0  0
 64166  1  0  0  0
 65167  1  0  0  0
 67168  1  0  0  0
 68169  1  0  0  0
 69170  1  0  0  0
 72171  1  0  0  0
 72172  1  0  0  0
 73173  1  0  0  0
 75174  1  0  0  0
 78175  1  0  0  0
 78176  1  0  0  0
 79177  1  0  0  0
 79178  1  0  0  0
 80179  1  0  0  0
 80180  1  0  0  0
 81181  1  0  0  0
 82182  1  0  0  0
 85183  1  0  0  0
 86184  1  0  0  0
 87185  1  0  0  0
 87186  1  0  0  0
 87187  1  0  0  0
 88188  1  0  0  0
 89189  1  0  0  0
 90190  1  0  0  0
 90191  1  0  0  0
 95192  1  0  0  0
 96193  1  0  0  0
 99194  1  0  0  0
102195  1  0  0  0
102196  1  0  0  0
103197  1  0  0  0
103198  1  0  0  0
104199  1  0  0  0
104200  1  0  0  0
105201  1  0  0  0
106202  1  0  0  0
108203  1  0  0  0
109204  1  0  0  0
109205  1  0  0  0
110206  1  0  0  0
M  END
$$$$
