### 
### Created by X-TOOL on Mon Sep 10 21:13:12 2018
### 

@<TRIPOS>MOLECULE
2lo6_ligand
  201   206     1     0     0
SMALL
GAST_HUCK


@<TRIPOS>ATOM
      1 N          -9.0840  -22.6320   -5.5780 N.4       1 TYR         0.2392
      2 CA         -8.2960  -21.6540   -4.8080 C.3       1 TYR         0.0730
      3 C          -7.4120  -20.8260   -5.7370 C.2       1 TYR         0.2286
      4 O          -7.3420  -21.0940   -6.9320 O.2       1 TYR        -0.3905
      5 CB         -7.4560  -22.3560   -3.7370 C.3       1 TYR         0.0365
      6 CG         -6.4510  -23.3450   -4.2800 C.ar      1 TYR        -0.0460
      7 CD1        -5.1640  -22.9150   -4.6330 C.ar      1 TYR        -0.0684
      8 CD2        -6.8020  -24.6940   -4.4330 C.ar      1 TYR        -0.0684
      9 CE1        -4.2300  -23.8240   -5.1450 C.ar      1 TYR        -0.0398
     10 CE2        -5.8720  -25.6130   -4.9420 C.ar      1 TYR        -0.0398
     11 CZ         -4.5820  -25.1810   -5.3050 C.ar      1 TYR         0.0805
     12 OH         -3.6770  -26.0660   -5.8100 O.3       1 TYR        -0.3376
     13 N          -6.7380  -19.8170   -5.1830 N.am      1 SER        -0.2587
     14 CA         -5.8930  -18.9030   -5.9420 C.3       1 SER         0.1542
     15 C          -4.6380  -18.5610   -5.1320 C.2       1 SER         0.2087
     16 O          -4.5630  -18.8850   -3.9480 O.2       1 SER        -0.3941
     17 CB         -6.7000  -17.6490   -6.2760 C.3       1 SER         0.0843
     18 OG         -7.0850  -17.0000   -5.0840 O.3       1 SER        -0.3903
     19 N          -3.6480  -17.9030   -5.7580 N.am      1 PRO        -0.2498
     20 CA         -2.4070  -17.4760   -5.1190 C.3       1 PRO         0.1338
     21 C          -2.6050  -16.4870   -3.9680 C.2       1 PRO         0.2042
     22 O          -1.6200  -16.0450   -3.3780 O.2       1 PRO        -0.3944
     23 CB         -1.5720  -16.8290   -6.2260 C.3       1 PRO        -0.0104
     24 CG         -2.1520  -17.4120   -7.5170 C.3       1 PRO        -0.0281
     25 CD         -3.6310  -17.5410   -7.1650 C.3       1 PRO         0.0369
     26 N          -3.8520  -16.1330   -3.6390 N.am      1 THR        -0.2613
     27 CA         -4.1560  -15.1920   -2.5690 C.3       1 THR         0.1565
     28 C          -5.2600  -15.7480   -1.6660 C.2       1 THR         0.2065
     29 O          -6.1060  -16.5260   -2.1090 O.2       1 THR        -0.3943
     30 CB         -4.5450  -13.8330   -3.1540 C.3       1 THR         0.0924
     31 OG1        -5.5940  -13.9860   -4.0850 O.3       1 THR        -0.3874
     32 CG2        -3.3540  -13.2000   -3.8760 C.3       1 THR        -0.0346
     33 N          -5.2510  -15.3450   -0.3900 N.am      1 SEP        -0.2612
     34 CA         -6.1680  -15.8750    0.6080 C.3       1 SEP         0.1588
     35 CB         -5.5120  -17.1170    1.2170 C.3       1 SEP         0.1184
     36 OG         -4.2280  -16.7860    1.7060 O.3       1 SEP        -0.2714
     37 C          -6.4720  -14.8550    1.7110 C.2       1 SEP         0.2090
     38 O          -5.6280  -14.5940    2.5660 O.2       1 SEP        -0.3941
     39 P          -3.2010  -17.9040    2.2470 P.3       1 SEP         0.2010
     40 O1P        -2.0620  -17.0990    2.7440 O.co2     1 SEP        -0.5537
     41 O2P        -3.9680  -18.5990    3.3050 O.co2     1 SEP        -0.5537
     42 O3P        -2.9080  -18.7200    1.0470 O.co2     1 SEP        -0.5537
     43 N          -7.6750  -14.2600    1.7200 N.am      1 PRO        -0.2498
     44 CA         -8.6770  -14.3070    0.6710 C.3       1 PRO         0.1338
     45 C          -8.1950  -13.5070   -0.5400 C.2       1 PRO         0.2042
     46 O          -7.1430  -12.8710   -0.4860 O.2       1 PRO        -0.3944
     47 CB         -9.9220  -13.6590    1.2870 C.3       1 PRO        -0.0104
     48 CG         -9.3290  -12.6620    2.2860 C.3       1 PRO        -0.0281
     49 CD         -8.1440  -13.4490    2.8280 C.3       1 PRO         0.0369
     50 N          -8.9660  -13.5380   -1.6300 N.am      1 SER        -0.2616
     51 CA         -8.6350  -12.7740   -2.8220 C.3       1 SER         0.1539
     52 C          -8.7200  -11.2760   -2.5310 C.2       1 SER         0.2063
     53 O          -9.5720  -10.8430   -1.7590 O.2       1 SER        -0.3943
     54 CB         -9.5740  -13.1540   -3.9660 C.3       1 SER         0.0843
     55 OG         -9.4900  -14.5400   -4.2200 O.3       1 SER        -0.3903
     56 N          -7.8360  -10.4880   -3.1530 N.am      1 TYR        -0.2621
     57 CA         -7.8190   -9.0440   -2.9700 C.3       1 TYR         0.1390
     58 C          -7.2820   -8.3350   -4.2070 C.2       1 TYR         0.2058
     59 O          -6.3600   -8.8220   -4.8570 O.2       1 TYR        -0.3942
     60 CB         -6.9550   -8.6830   -1.7600 C.3       1 TYR         0.0163
     61 CG         -6.7760   -7.1910   -1.6370 C.ar      1 TYR        -0.0493
     62 CD1        -5.7230   -6.5600   -2.3190 C.ar      1 TYR        -0.0685
     63 CD2        -7.6580   -6.4370   -0.8550 C.ar      1 TYR        -0.0685
     64 CE1        -5.5830   -5.1710   -2.2670 C.ar      1 TYR        -0.0398
     65 CE2        -7.5200   -5.0460   -0.7910 C.ar      1 TYR        -0.0398
     66 CZ         -6.4980   -4.4060   -1.5200 C.ar      1 TYR         0.0805
     67 OH         -6.3920   -3.0500   -1.5000 O.3       1 TYR        -0.3376
     68 N          -7.8630   -7.1760   -4.5320 N.am      1 SER        -0.2614
     69 CA         -7.4230   -6.3700   -5.6590 C.3       1 SER         0.1541
     70 C          -7.5400   -4.8730   -5.3530 C.2       1 SER         0.2087
     71 O          -8.2830   -4.4640   -4.4580 O.2       1 SER        -0.3941
     72 CB         -8.2640   -6.7020   -6.8940 C.3       1 SER         0.0843
     73 OG         -9.5320   -6.0830   -6.7840 O.3       1 SER        -0.3903
     74 N          -6.8030   -4.0390   -6.1010 N.am      1 PRO        -0.2498
     75 CA         -6.8770   -2.5870   -6.0270 C.3       1 PRO         0.1338
     76 C          -8.2810   -2.0350   -6.2800 C.2       1 PRO         0.2042
     77 O          -8.4800   -0.8230   -6.2270 O.2       1 PRO        -0.3944
     78 CB         -5.8980   -2.0780   -7.0870 C.3       1 PRO        -0.0104
     79 CG         -4.9140   -3.2330   -7.2540 C.3       1 PRO        -0.0281
     80 CD         -5.8200   -4.4470   -7.0870 C.3       1 PRO         0.0369
     81 N          -9.2610   -2.9070   -6.5530 N.am      1 THR        -0.2613
     82 CA        -10.6290   -2.4680   -6.7810 C.3       1 THR         0.1565
     83 C         -11.2420   -1.9120   -5.5000 C.2       1 THR         0.2065
     84 O         -11.9590   -0.9120   -5.5570 O.2       1 THR        -0.3943
     85 CB        -11.4620   -3.6380   -7.3120 C.3       1 THR         0.0924
     86 OG1       -10.8110   -4.2210   -8.4210 O.3       1 THR        -0.3874
     87 CG2       -12.8510   -3.1690   -7.7370 C.3       1 THR        -0.0346
     88 N         -10.9700   -2.5440   -4.3470 N.am      1 SEP        -0.2612
     89 CA        -11.5090   -2.0880   -3.0660 C.3       1 SEP         0.1588
     90 CB        -12.8720   -2.7380   -2.8080 C.3       1 SEP         0.1184
     91 OG        -13.7920   -2.3810   -3.8120 O.3       1 SEP        -0.2714
     92 C         -10.5710   -2.4460   -1.9080 C.2       1 SEP         0.2090
     93 O         -10.1740   -3.6050   -1.7840 O.2       1 SEP        -0.3941
     94 P         -15.3070   -2.9250   -3.7800 P.3       1 SEP         0.2010
     95 O1P       -15.8500   -2.3730   -2.5170 O.co2     1 SEP        -0.5537
     96 O2P       -15.8910   -2.3490   -5.0140 O.co2     1 SEP        -0.5537
     97 O3P       -15.1530   -4.3960   -3.7990 O.co2     1 SEP        -0.5537
     98 N         -10.2020   -1.4810   -1.0520 N.am      1 PRO        -0.2498
     99 CA         -9.3550   -1.7130    0.1080 C.3       1 PRO         0.1337
    100 C         -10.0650   -2.5020    1.2110 C.2       1 PRO         0.2036
    101 O          -9.4110   -2.9620    2.1460 O.2       1 PRO        -0.3944
    102 CB         -9.0000   -0.3170    0.6210 C.3       1 PRO        -0.0104
    103 CG        -10.2190    0.5120    0.2240 C.3       1 PRO        -0.0281
    104 CD        -10.5690   -0.0780   -1.1400 C.3       1 PRO         0.0369
    105 N         -11.3890   -2.6660    1.1200 N.am      1 SER        -0.2672
    106 CA        -12.1610   -3.3160    2.1660 C.3       1 SER         0.1173
    107 C         -13.0750   -4.3950    1.5860 C.2       1 SER         0.0623
    108 O         -12.6290   -5.5640    1.5810 O.co2     1 SER        -0.5665
    109 CB        -12.9220   -2.2530    2.9600 C.3       1 SER         0.0789
    110 OG        -13.7590   -1.5140    2.0950 O.3       1 SER        -0.3910
    111 OXT       -14.2000   -4.0550    1.1570 O.co2     1 SER        -0.5665
    112 H          -9.6344  -22.1431   -6.2839 H         1 TYR         0.2017
    113 H          -8.4534  -23.2917   -6.0336 H         1 TYR         0.2017
    114 H          -9.7078  -23.1360   -4.9477 H         1 TYR         0.2017
    115 H          -8.9870  -20.9780   -4.3044 H         1 TYR         0.1120
    116 H          -8.1461  -22.9156   -3.1055 H         1 TYR         0.0486
    117 H          -6.8931  -21.5826   -3.2145 H         1 TYR         0.0486
    118 H          -4.8891  -21.8676   -4.5082 H         1 TYR         0.0530
    119 H          -7.8011  -25.0299   -4.1554 H         1 TYR         0.0530
    120 H          -3.2317  -23.4835   -5.4198 H         1 TYR         0.0525
    121 H          -6.1481  -26.6612   -5.0564 H         1 TYR         0.0525
    122 H          -2.8558  -25.6075   -6.0024 H         1 TYR         0.2458
    123 H          -6.8180  -19.6776   -4.1757 H         1 SER         0.1885
    124 H          -5.5697  -19.3699   -6.8724 H         1 SER         0.0823
    125 H          -7.5905  -17.9313   -6.8376 H         1 SER         0.0606
    126 H          -6.0876  -16.9737   -6.8736 H         1 SER         0.0606
    127 H          -6.3011  -16.7521   -4.5884 H         1 SER         0.2097
    128 H          -1.9240  -18.3405   -4.6635 H         1 PRO         0.0802
    129 H          -0.5083  -17.0413   -6.1185 H         1 PRO         0.0313
    130 H          -1.6279  -15.7407   -6.2028 H         1 PRO         0.0313
    131 H          -1.6926  -18.3558   -7.8110 H         1 PRO         0.0287
    132 H          -1.9678  -16.7912   -8.3938 H         1 PRO         0.0287
    133 H          -4.1747  -16.6150   -7.3521 H         1 PRO         0.0524
    134 H          -4.1311  -18.2876   -7.7819 H         1 PRO         0.0524
    135 H          -4.6269  -16.5411   -4.1619 H         1 THR         0.1884
    136 H          -3.2651  -15.0517   -1.9568 H         1 THR         0.0826
    137 H          -4.8627  -13.1928   -2.3310 H         1 THR         0.0639
    138 H          -5.8289  -13.1275   -4.4447 H         1 THR         0.2101
    139 H          -2.5349  -13.0612   -3.1703 H         1 THR         0.0257
    140 H          -3.0311  -13.8552   -4.6850 H         1 THR         0.0257
    141 H          -3.6503  -12.2342   -4.2852 H         1 THR         0.0257
    142 H          -4.5737  -14.6374   -0.1053 H         1 SEP         0.1884
    143 H          -7.1181  -16.1162    0.1313 H         1 SEP         0.0827
    144 H          -5.4197  -17.8885    0.4526 H         1 SEP         0.0662
    145 H          -6.1275  -17.4850    2.0379 H         1 SEP         0.0662
    146 H          -8.8774  -15.3213    0.3259 H         1 PRO         0.0802
    147 H         -10.5882  -14.3831    1.7561 H         1 PRO         0.0313
    148 H         -10.5634  -13.1840    0.5447 H         1 PRO         0.0313
    149 H         -10.0318  -12.3436    3.0559 H         1 PRO         0.0287
    150 H          -9.0525  -11.7070    1.8393 H         1 PRO         0.0287
    151 H          -7.3607  -12.7867    3.1967 H         1 PRO         0.0524
    152 H          -8.4311  -14.0656    3.6797 H         1 PRO         0.0524
    153 H          -9.8088  -14.1125   -1.6262 H         1 SER         0.1884
    154 H          -7.6130  -13.0085   -3.1197 H         1 SER         0.0823
    155 H          -9.2852  -12.6070   -4.8635 H         1 SER         0.0606
    156 H         -10.5975  -12.9018   -3.6884 H         1 SER         0.0606
    157 H         -10.0829  -14.7688   -4.9395 H         1 SER         0.2097
    158 H          -7.1504  -10.9135   -3.7769 H         1 TYR         0.1885
    159 H          -8.8447   -8.7147   -2.8037 H         1 TYR         0.0821
    160 H          -5.9736   -9.1400   -1.8869 H         1 TYR         0.0453
    161 H          -7.4503   -9.0475   -0.8600 H         1 TYR         0.0453
    162 H          -5.0122   -7.1563   -2.8911 H         1 TYR         0.0530
    163 H          -8.4518   -6.9327   -0.2962 H         1 TYR         0.0530
    164 H          -4.7691   -4.6822   -2.8024 H         1 TYR         0.0525
    165 H          -8.2026   -4.4579   -0.1776 H         1 TYR         0.0525
    166 H          -5.6488   -2.7802   -2.0446 H         1 TYR         0.2458
    167 H          -8.6452   -6.8443   -3.9676 H         1 SER         0.1884
    168 H          -6.3750   -6.6020   -5.8487 H         1 SER         0.0823
    169 H          -8.3927   -7.7820   -6.9654 H         1 SER         0.0606
    170 H          -7.7576   -6.3351   -7.7868 H         1 SER         0.0606
    171 H         -10.0575   -6.2926   -7.5595 H         1 SER         0.2097
    172 H          -6.6256   -2.2507   -5.0211 H         1 PRO         0.0802
    173 H          -5.4061   -1.1522   -6.7887 H         1 PRO         0.0313
    174 H          -6.3951   -1.8165   -8.0211 H         1 PRO         0.0313
    175 H          -4.0914   -3.2064   -6.5393 H         1 PRO         0.0287
    176 H          -4.3859   -3.2161   -8.2074 H         1 PRO         0.0287
    177 H          -6.2851   -4.7403   -8.0282 H         1 PRO         0.0524
    178 H          -5.2644   -5.3285   -6.7672 H         1 PRO         0.0524
    179 H          -9.0427   -3.9021   -6.6021 H         1 THR         0.1884
    180 H         -10.6227   -1.6685   -7.5219 H         1 THR         0.0826
    181 H         -11.5680   -4.3717   -6.5129 H         1 THR         0.0639
    182 H          -9.9470   -4.5412   -8.1515 H         1 THR         0.2101
    183 H         -13.3641   -2.7334   -6.8797 H         1 THR         0.0257
    184 H         -12.7555   -2.4206   -8.5237 H         1 THR         0.0257
    185 H         -13.4218   -4.0193   -8.1101 H         1 THR         0.0257
    186 H         -10.3688   -3.3678   -4.3650 H         1 SEP         0.1884
    187 H         -11.6105   -1.0041   -3.1199 H         1 SEP         0.0827
    188 H         -13.2499   -2.3936   -1.8454 H         1 SEP         0.0662
    189 H         -12.7516   -3.8213   -2.8097 H         1 SEP         0.0662
    190 H          -8.4850   -2.3085   -0.1686 H         1 PRO         0.0802
    191 H          -8.0714    0.0661    0.1979 H         1 PRO         0.0313
    192 H          -8.8052   -0.2968    1.6933 H         1 PRO         0.0313
    193 H         -10.0229    1.5838    0.1947 H         1 PRO         0.0287
    194 H         -11.0356    0.4533    0.9436 H         1 PRO         0.0287
    195 H         -11.6262    0.0478   -1.3739 H         1 PRO         0.0524
    196 H         -10.0371    0.4276   -1.9459 H         1 PRO         0.0524
    197 H         -11.8728   -2.3239    0.2897 H         1 SER         0.1876
    198 H         -11.4919   -3.8332    2.8537 H         1 SER         0.0749
    199 H         -12.2084   -1.5782    3.4329 H         1 SER         0.0599
    200 H         -13.5319   -2.7406    3.7205 H         1 SER         0.0599
    201 H         -14.3871   -2.1067    1.6757 H         1 SER         0.2096
@<TRIPOS>BOND
     1    1    2 1  
     2    2    3 1  
     3    2    5 1  
     4    3    4 2  
     5    3   13 am 
     6    5    6 1  
     7    6    7 ar 
     8    6    8 ar 
     9    7    9 ar 
    10    8   10 ar 
    11    9   11 ar 
    12   10   11 ar 
    13   11   12 1  
    14   13   14 1  
    15   14   15 1  
    16   14   17 1  
    17   15   16 2  
    18   15   19 am 
    19   17   18 1  
    20   19   20 1  
    21   19   25 1  
    22   20   21 1  
    23   20   23 1  
    24   21   22 2  
    25   21   26 am 
    26   23   24 1  
    27   24   25 1  
    28   26   27 1  
    29   27   28 1  
    30   27   30 1  
    31   28   29 2  
    32   28   33 am 
    33   30   31 1  
    34   30   32 1  
    35   33   34 1  
    36   34   35 1  
    37   34   37 1  
    38   35   36 1  
    39   36   39 1  
    40   37   38 2  
    41   37   43 am 
    42   39   40 ar 
    43   39   41 ar 
    44   39   42 ar 
    45   43   44 1  
    46   43   49 1  
    47   44   45 1  
    48   44   47 1  
    49   45   46 2  
    50   45   50 am 
    51   47   48 1  
    52   48   49 1  
    53   50   51 1  
    54   51   52 1  
    55   51   54 1  
    56   52   53 2  
    57   52   56 am 
    58   54   55 1  
    59   56   57 1  
    60   57   58 1  
    61   57   60 1  
    62   58   59 2  
    63   58   68 am 
    64   60   61 1  
    65   61   62 ar 
    66   61   63 ar 
    67   62   64 ar 
    68   63   65 ar 
    69   64   66 ar 
    70   65   66 ar 
    71   66   67 1  
    72   68   69 1  
    73   69   70 1  
    74   69   72 1  
    75   70   71 2  
    76   70   74 am 
    77   72   73 1  
    78   74   75 1  
    79   74   80 1  
    80   75   76 1  
    81   75   78 1  
    82   76   77 2  
    83   76   81 am 
    84   78   79 1  
    85   79   80 1  
    86   81   82 1  
    87   82   83 1  
    88   82   85 1  
    89   83   84 2  
    90   83   88 am 
    91   85   86 1  
    92   85   87 1  
    93   88   89 1  
    94   89   90 1  
    95   89   92 1  
    96   90   91 1  
    97   91   94 1  
    98   92   93 2  
    99   92   98 am 
   100   94   95 ar 
   101   94   96 ar 
   102   94   97 ar 
   103   98   99 1  
   104   98  104 1  
   105   99  100 1  
   106   99  102 1  
   107  100  101 2  
   108  100  105 am 
   109  102  103 1  
   110  103  104 1  
   111  105  106 1  
   112  106  107 1  
   113  106  109 1  
   114  107  108 ar 
   115  107  111 ar 
   116  109  110 1  
   117    1  112 1  
   118    1  113 1  
   119    1  114 1  
   120    2  115 1  
   121    5  116 1  
   122    5  117 1  
   123    7  118 1  
   124    8  119 1  
   125    9  120 1  
   126   10  121 1  
   127   12  122 1  
   128   13  123 1  
   129   14  124 1  
   130   17  125 1  
   131   17  126 1  
   132   18  127 1  
   133   20  128 1  
   134   23  129 1  
   135   23  130 1  
   136   24  131 1  
   137   24  132 1  
   138   25  133 1  
   139   25  134 1  
   140   26  135 1  
   141   27  136 1  
   142   30  137 1  
   143   31  138 1  
   144   32  139 1  
   145   32  140 1  
   146   32  141 1  
   147   33  142 1  
   148   34  143 1  
   149   35  144 1  
   150   35  145 1  
   151   44  146 1  
   152   47  147 1  
   153   47  148 1  
   154   48  149 1  
   155   48  150 1  
   156   49  151 1  
   157   49  152 1  
   158   50  153 1  
   159   51  154 1  
   160   54  155 1  
   161   54  156 1  
   162   55  157 1  
   163   56  158 1  
   164   57  159 1  
   165   60  160 1  
   166   60  161 1  
   167   62  162 1  
   168   63  163 1  
   169   64  164 1  
   170   65  165 1  
   171   67  166 1  
   172   68  167 1  
   173   69  168 1  
   174   72  169 1  
   175   72  170 1  
   176   73  171 1  
   177   75  172 1  
   178   78  173 1  
   179   78  174 1  
   180   79  175 1  
   181   79  176 1  
   182   80  177 1  
   183   80  178 1  
   184   81  179 1  
   185   82  180 1  
   186   85  181 1  
   187   86  182 1  
   188   87  183 1  
   189   87  184 1  
   190   87  185 1  
   191   88  186 1  
   192   89  187 1  
   193   90  188 1  
   194   90  189 1  
   195   99  190 1  
   196  102  191 1  
   197  102  192 1  
   198  103  193 1  
   199  103  194 1  
   200  104  195 1  
   201  104  196 1  
   202  105  197 1  
   203  106  198 1  
   204  109  199 1  
   205  109  200 1  
   206  110  201 1  
@<TRIPOS>SUBSTRUCTURE
     1 TYR         1

