6npm_ligand
  -I-interpret- 

 26 27  0  0  0  0  0  0  0  0999 V2000
   -6.0570  -35.1770  -17.0490 C   0  0  0  0  0
   -4.9650  -34.9190  -17.8600 C   0  0  0  0  0
   -4.3160  -35.9630  -18.4790 C   0  0  0  0  0
   -4.7520  -37.2550  -18.2710 C   0  0  0  0  0
   -5.8250  -37.5120  -17.4480 C   0  0  0  0  0
   -6.4930  -36.4660  -16.8300 C   0  0  0  0  0
  -11.7670  -30.8350  -15.2730 C   0  0  0  0  0
  -10.3090  -31.0340  -14.9130 C   0  0  0  0  0
   -9.7000  -30.2470  -13.9430 C   0  0  0  0  0
   -7.6980  -31.3250  -14.2090 C   0  0  0  0  0
   -8.2480  -32.1350  -15.1900 C   0  0  0  0  0
   -9.5670  -31.9980  -15.5540 C   0  0  0  0  0
   -7.3930  -33.1880  -15.8480 C   0  0  0  0  0
   -6.7840  -34.0310  -16.3890 C   0  0  0  0  0
   -8.4300  -30.4070  -13.6090 N   0  0  0  0  0
  -12.4370  -29.9970  -14.6180 O   0  0  0  0  0
  -12.2790  -31.5040  -16.2210 O   0  0  0  0  0
   -4.6213  -33.8952  -18.0074 H   0  0  0  0  0
   -3.4629  -35.7701  -19.1295 H   0  0  0  0  0
   -4.2410  -38.0820  -18.7640 H   0  0  0  0  0
   -6.1499  -38.5391  -17.2819 H   0  0  0  0  0
   -7.3480  -36.6597  -16.1823 H   0  0  0  0  0
  -10.2856  -29.4756  -13.4429 H   0  0  0  0  0
   -6.6512  -31.4479  -13.9311 H   0  0  0  0  0
  -10.0087  -32.6312  -16.3235 H   0  0  0  0  0
  -11.6142  -32.0866  -16.5955 H   0  0  0  0  0
  1  2  4  0  0  0
  1  6  4  0  0  0
 14  1  1  0  0  0
  2  3  4  0  0  0
  3  4  4  0  0  0
  5  4  4  0  0  0
  6  5  4  0  0  0
  8  7  1  0  0  0
  7 16  2  0  0  0
  7 17  1  0  0  0
  8  9  4  0  0  0
 12  8  4  0  0  0
 15  9  4  0  0  0
 11 10  4  0  0  0
 10 15  4  0  0  0
 11 12  4  0  0  0
 13 11  1  0  0  0
 13 14  3  0  0  0
  2 18  1  0  0  0
  3 19  1  0  0  0
  4 20  1  0  0  0
  5 21  1  0  0  0
  6 22  1  0  0  0
  9 23  1  0  0  0
 10 24  1  0  0  0
 12 25  1  0  0  0
 17 26  1  0  0  0
M  END
$$$$
