### 
### Created by X-TOOL on Mon Sep 10 21:13:08 2018
### 

@<TRIPOS>MOLECULE
2lh8_ligand
   38    39     1     0     0
SMALL
GAST_HUCK


@<TRIPOS>ATOM
      1 CM2        -7.1500    5.3450    8.5870 C.3       1 VIB        -0.0029
      2 N4A       -11.0360    7.8780    9.6970 N.pl3     1 VIB        -0.3188
      3 CM4       -15.0340    9.4520    6.9150 C.3       1 VIB        -0.0799
      4 O1        -15.5680   12.6010    4.1090 O.3       1 VIB        -0.3950
      5 C7        -15.6710   11.1830    3.9710 C.3       1 VIB         0.0451
      6 C6        -14.2560   10.5830    3.9690 C.3       1 VIB        -0.0195
      7 C2        -11.6570   10.2500    6.7740 C.3       1 VIB        -0.0609
      8 S1        -12.2410   11.5110    5.7530 S.3       1 VIB        -0.1816
      9 C5        -13.6330   10.6060    5.3550 C.3       1 VIB        -0.0103
     10 C4        -13.7300    9.5110    6.1700 C.3       1 VIB        -0.0875
     11 N3        -12.4970    9.1550    6.7340 N.4       1 VIB         0.4168
     12 C7A       -12.1280    7.7370    6.9750 C.3       1 VIB        -0.0707
     13 C4A       -10.2990    7.2850    8.7230 C.ar      1 VIB         0.1192
     14 N3A        -9.1620    6.6660    9.1130 N.ar      1 VIB        -0.2611
     15 C2A        -8.3880    6.1120    8.1540 C.ar      1 VIB         0.0758
     16 N1A        -8.6820    6.1560    6.8370 N.ar      1 VIB        -0.2939
     17 C6A        -9.8670    6.6920    6.4720 C.ar      1 VIB         0.0044
     18 C5A       -10.7180    7.3100    7.3900 C.ar      1 VIB        -0.0005
     19 H          -6.4852    6.0112    9.1369 H         1 VIB         0.0449
     20 H          -7.4447    4.5138    9.2276 H         1 VIB         0.0449
     21 H          -6.6350    4.9617    7.7061 H         1 VIB         0.0449
     22 H         -11.9086    8.3501    9.4602 H         1 VIB         0.1789
     23 H         -10.7171    7.8513   10.6655 H         1 VIB         0.1789
     24 H         -15.1358   10.3409    7.5376 H         1 VIB         0.0213
     25 H         -15.8570    9.4104    6.2016 H         1 VIB         0.0213
     26 H         -15.0515    8.5621    7.5442 H         1 VIB         0.0213
     27 H         -16.4475   12.9859    4.1114 H         1 VIB         0.2094
     28 H         -16.1780   10.9380    3.0377 H         1 VIB         0.0557
     29 H         -16.2461   10.7714    4.8004 H         1 VIB         0.0557
     30 H         -13.6319   11.1780    3.3023 H         1 VIB         0.0297
     31 H         -14.3234    9.5460    3.6402 H         1 VIB         0.0297
     32 H         -11.6125   10.6205    7.7981 H         1 VIB         0.0131
     33 H         -10.6692    9.9470    6.4268 H         1 VIB         0.0131
     34 H         -14.4478   11.3009    5.5580 H         1 VIB         0.0395
     35 H         -13.8815    8.5840    5.6170 H         1 VIB         0.0064
     36 H         -12.2520    7.2753    5.9954 H         1 VIB         0.0168
     37 H         -12.7372    7.4619    7.8359 H         1 VIB         0.0168
     38 H         -10.1688    6.6402    5.4259 H         1 VIB         0.0790
@<TRIPOS>BOND
     1   15    1 1  
     2   13    2 1  
     3   10    3 1  
     4    5    4 1  
     5    6    5 1  
     6    9    6 1  
     7    7    8 1  
     8   11    7 1  
     9    9    8 1  
    10   10    9 1  
    11   11   10 1  
    12   12   11 1  
    13   18   12 1  
    14   14   13 ar 
    15   13   18 ar 
    16   14   15 ar 
    17   15   16 ar 
    18   16   17 ar 
    19   17   18 ar 
    20    1   19 1  
    21    1   20 1  
    22    1   21 1  
    23    2   22 1  
    24    2   23 1  
    25    3   24 1  
    26    3   25 1  
    27    3   26 1  
    28    4   27 1  
    29    5   28 1  
    30    5   29 1  
    31    6   30 1  
    32    6   31 1  
    33    7   32 1  
    34    7   33 1  
    35    9   34 1  
    36   10   35 1  
    37   12   36 1  
    38   12   37 1  
    39   17   38 1  
@<TRIPOS>SUBSTRUCTURE
     1 VIB         1

