2lh8_ligand
  -I-interpret- 

 39 40  0  0  0  0  0  0  0  0999 V2000
   -7.1500    5.3450    8.5870 C   0  0  0  0  0
  -11.0360    7.8780    9.6970 N   0  0  0  0  0
  -15.0340    9.4520    6.9150 C   0  0  0  0  0
  -15.5680   12.6010    4.1090 O   0  0  0  0  0
  -15.6710   11.1830    3.9710 C   0  0  0  0  0
  -14.2560   10.5830    3.9690 C   0  0  0  0  0
  -11.6570   10.2500    6.7740 C   0  0  0  0  0
  -12.2410   11.5110    5.7530 S   0  0  0  0  0
  -13.6330   10.6060    5.3550 C   0  0  0  0  0
  -13.7300    9.5110    6.1700 C   0  0  0  0  0
  -12.4970    9.1550    6.7340 N   0  3  0  0  0
  -12.1280    7.7370    6.9750 C   0  0  0  0  0
  -10.2990    7.2850    8.7230 C   0  0  0  0  0
   -9.1620    6.6660    9.1130 N   0  0  0  0  0
   -8.3880    6.1120    8.1540 C   0  0  0  0  0
   -8.6820    6.1560    6.8370 N   0  0  0  0  0
   -9.8670    6.6920    6.4720 C   0  0  0  0  0
  -10.7180    7.3100    7.3900 C   0  0  0  0  0
   -6.4852    6.0112    9.1369 H   0  0  0  0  0
   -7.4447    4.5138    9.2276 H   0  0  0  0  0
   -6.6350    4.9617    7.7061 H   0  0  0  0  0
  -10.7225    7.8421   10.6670 H   0  0  0  0  0
  -11.9031    8.3593    9.4587 H   0  0  0  0  0
  -15.1358   10.3409    7.5376 H   0  0  0  0  0
  -15.8570    9.4104    6.2016 H   0  0  0  0  0
  -15.0515    8.5621    7.5442 H   0  0  0  0  0
  -16.4475   12.9859    4.1114 H   0  0  0  0  0
  -16.1780   10.9380    3.0377 H   0  0  0  0  0
  -16.2461   10.7714    4.8004 H   0  0  0  0  0
  -13.6319   11.1780    3.3023 H   0  0  0  0  0
  -14.3234    9.5460    3.6402 H   0  0  0  0  0
  -11.6125   10.6205    7.7981 H   0  0  0  0  0
  -10.6692    9.9470    6.4268 H   0  0  0  0  0
  -14.4478   11.3009    5.5580 H   0  0  0  0  0
  -13.8815    8.5840    5.6170 H   0  0  0  0  0
  -12.3971    8.7490    7.6644 H   0  0  0  0  0
  -12.2520    7.2753    5.9954 H   0  0  0  0  0
  -12.7372    7.4619    7.8359 H   0  0  0  0  0
  -10.1688    6.6402    5.4259 H   0  0  0  0  0
 15  1  1  0  0  0
 13  2  1  0  0  0
 10  3  1  0  0  0
  5  4  1  0  0  0
  6  5  1  0  0  0
  9  6  1  0  0  0
  7  8  1  0  0  0
 11  7  1  0  0  0
  9  8  1  0  0  0
 10  9  1  0  0  0
 11 10  1  0  0  0
 12 11  1  0  0  0
 18 12  1  0  0  0
 14 13  4  0  0  0
 13 18  4  0  0  0
 14 15  4  0  0  0
 15 16  4  0  0  0
 16 17  4  0  0  0
 17 18  4  0  0  0
  1 19  1  0  0  0
  1 20  1  0  0  0
  1 21  1  0  0  0
  2 22  1  0  0  0
  2 23  1  0  0  0
  3 24  1  0  0  0
  3 25  1  0  0  0
  3 26  1  0  0  0
  4 27  1  0  0  0
  5 28  1  0  0  0
  5 29  1  0  0  0
  6 30  1  0  0  0
  6 31  1  0  0  0
  7 32  1  0  0  0
  7 33  1  0  0  0
  9 34  1  0  0  0
 10 35  1  0  0  0
 11 36  1  0  0  0
 12 37  1  0  0  0
 12 38  1  0  0  0
 17 39  1  0  0  0
M  END
$$$$
