1ax2_ligand
  -I-interpret- 

 51 52  0  0  0  0  0  0  0  0999 V2000
   22.1420   -1.2760   37.9780 C   0  0  0  0  0
   21.3360   -2.5720   38.0240 C   0  0  0  0  0
   20.1530   -2.5140   37.0560 C   0  0  0  0  0
   19.3240   -1.2470   37.3080 C   0  0  0  0  0
   20.2510   -0.0290   37.2680 C   0  0  0  0  0
   19.5530    1.2890   37.5310 C   0  0  0  0  0
   22.6230   -4.5170   38.6240 C   0  0  0  0  0
   23.5030   -5.6720   38.1720 C   0  0  0  0  0
   22.1850   -3.6950   37.6770 N   0  0  0  0  0
   22.6700   -1.1020   36.7080 O   0  0  0  0  0
   19.3470   -3.6700   37.2350 O   0  0  0  0  0
   18.3090   -1.1080   36.2890 O   0  0  0  0  0
   21.2880   -0.1660   38.2550 O   0  0  0  0  0
   18.6830    1.1950   38.6480 O   0  0  0  0  0
   22.3490   -4.3740   39.8210 O   0  0  0  0  0
   17.0120   -1.4920   36.6080 C   0  0  0  0  0
   16.0380   -0.8430   35.6150 C   0  0  0  0  0
   14.6200   -1.3930   35.8020 C   0  0  0  0  0
   14.6500   -2.9150   35.7080 C   0  0  0  0  0
   15.6260   -3.4420   36.7510 C   0  0  0  0  0
   15.7380   -4.9520   36.7380 C   0  0  0  0  0
   16.0370    0.5660   35.7960 O   0  0  0  0  0
   13.7610   -0.8680   34.8000 O   0  0  0  0  0
   15.0740   -3.3110   34.4070 O   0  0  0  0  0
   16.9460   -2.9200   36.5020 O   0  0  0  0  0
   16.7050   -5.3870   37.6770 O   0  0  0  0  0
   22.9396   -1.3340   38.7186 H   0  0  0  0  0
   20.9542   -2.6980   39.0371 H   0  0  0  0  0
   20.5239   -2.4849   36.0314 H   0  0  0  0  0
   18.8417   -1.3191   38.2828 H   0  0  0  0  0
   20.6466   -0.0056   36.2526 H   0  0  0  0  0
   18.9640    1.5521   36.6524 H   0  0  0  0  0
   20.3080    2.0467   37.7408 H   0  0  0  0  0
   24.4767   -5.5963   38.6560 H   0  0  0  0  0
   23.0316   -6.6155   38.4470 H   0  0  0  0  0
   23.6293   -5.6292   37.0902 H   0  0  0  0  0
   22.4464   -3.8541   36.7040 H   0  0  0  0  0
   23.2491   -1.8388   36.4997 H   0  0  0  0  0
   19.8756   -4.4552   37.0749 H   0  0  0  0  0
   18.2552    2.0424   38.7912 H   0  0  0  0  0
   16.7439   -1.1768   37.6164 H   0  0  0  0  0
   16.3670   -1.0801   34.6033 H   0  0  0  0  0
   14.2451   -1.0962   36.7815 H   0  0  0  0  0
   13.6543   -3.3200   35.8885 H   0  0  0  0  0
   15.2370   -3.1199   37.7170 H   0  0  0  0  0
   16.0413   -5.2756   35.7423 H   0  0  0  0  0
   14.7711   -5.3806   37.0017 H   0  0  0  0  0
   15.4266    0.9671   35.1730 H   0  0  0  0  0
   12.8754   -1.2172   34.9242 H   0  0  0  0  0
   15.0906   -4.2694   34.3550 H   0  0  0  0  0
   16.7624   -6.3450   37.6550 H   0  0  0  0  0
  2  1  1  0  0  0
  1 10  1  0  0  0
  1 13  1  0  0  0
  2  3  1  0  0  0
  9  2  1  0  0  0
  3  4  1  0  0  0
  3 11  1  0  0  0
  4  5  1  0  0  0
  4 12  1  0  0  0
  5  6  1  0  0  0
 13  5  1  0  0  0
  6 14  1  0  0  0
  7  8  1  0  0  0
  7  9  1  0  0  0
  7 15  2  0  0  0
 12 16  1  0  0  0
 16 17  1  0  0  0
 16 25  1  0  0  0
 17 18  1  0  0  0
 17 22  1  0  0  0
 18 19  1  0  0  0
 18 23  1  0  0  0
 19 20  1  0  0  0
 19 24  1  0  0  0
 20 21  1  0  0  0
 20 25  1  0  0  0
 21 26  1  0  0  0
  1 27  1  0  0  0
  2 28  1  0  0  0
  3 29  1  0  0  0
  4 30  1  0  0  0
  5 31  1  0  0  0
  6 32  1  0  0  0
  6 33  1  0  0  0
  8 34  1  0  0  0
  8 35  1  0  0  0
  8 36  1  0  0  0
  9 37  1  0  0  0
 10 38  1  0  0  0
 11 39  1  0  0  0
 14 40  1  0  0  0
 16 41  1  0  0  0
 17 42  1  0  0  0
 18 43  1  0  0  0
 19 44  1  0  0  0
 20 45  1  0  0  0
 21 46  1  0  0  0
 21 47  1  0  0  0
 22 48  1  0  0  0
 23 49  1  0  0  0
 24 50  1  0  0  0
 26 51  1  0  0  0
M  END
$$$$
