2ds1_ligand
  -I-interpret- 

 54 59  0  0  0  0  0  0  0  0999 V2000
   -6.7810   10.0080   12.8240 C   0  0  0  0  0
   -6.9360    8.2690   14.5930 N   0  3  0  0  0
   -7.6640    6.9900   14.3740 C   0  0  0  0  0
   -8.1390    7.0520   12.9180 C   0  0  0  0  0
   -6.7440    7.4970   12.5030 C   0  0  0  0  0
   -6.2410    8.6700   13.3410 C   0  0  0  0  0
  -10.4200    9.5770   11.5360 C   0  0  0  0  0
   -9.7580    8.2790   11.5480 C   0  0  0  0  0
  -11.2410    9.9780   10.3760 C   0  0  0  0  0
  -10.2140   10.3950   12.6260 N   0  0  0  0  0
   -9.8580    7.3430   10.4130 C   0  0  0  0  0
   -9.1010    8.0920   12.7620 O   0  0  0  0  0
  -11.3400    9.0350    9.2620 C   0  0  0  0  0
  -11.7780   11.2250   10.5350 N   0  0  0  0  0
  -10.6960   11.6760   12.8380 C   0  0  0  0  0
  -10.6590    7.7260    9.2510 C   0  0  0  0  0
  -11.5920   12.0950   11.6420 C   0  0  0  0  0
  -10.1150   12.5160   13.9300 C   0  0  0  0  0
  -12.1290   13.1970   11.7080 O   0  0  0  0  0
   -9.1810   11.8710   14.9830 C   0  0  0  0  0
  -10.2300   13.9710   13.8410 C   0  0  0  0  0
   -8.3650   12.7480   15.8740 C   0  0  0  0  0
   -8.7960   10.6110   15.3440 N   0  0  0  0  0
   -9.4210   14.7740   14.7440 C   0  0  0  0  0
   -7.5560   11.8010   16.6560 C   0  0  0  0  0
   -8.5010   14.2040   15.7380 C   0  0  0  0  0
   -7.8330   10.4980   16.3140 N   0  0  0  0  0
   -7.2100    9.2910   16.8760 C   0  0  0  0  0
   -6.7310   12.1390   17.5080 O   0  0  0  0  0
   -6.2780    8.6110   15.8740 C   0  0  0  0  0
   -6.4554   10.1563   11.7944 H   0  0  0  0  0
   -7.8702    9.9987   12.8642 H   0  0  0  0  0
   -6.4000   10.8172   13.4470 H   0  0  0  0  0
   -7.6948    8.9134   14.8151 H   0  0  0  0  0
   -8.4971    6.8742   15.0673 H   0  0  0  0  0
   -7.0265    6.1247   14.5556 H   0  0  0  0  0
   -8.6157    6.2035   12.4272 H   0  0  0  0  0
   -6.7853    7.8166   11.4617 H   0  0  0  0  0
   -6.0627    6.6587   12.6488 H   0  0  0  0  0
   -5.1628    8.8248   13.3825 H   0  0  0  0  0
   -9.6335   10.0083   13.3702 H   0  0  0  0  0
   -9.3438    6.3823   10.4397 H   0  0  0  0  0
  -11.9455    9.3125    8.3992 H   0  0  0  0  0
  -12.3739   11.5659    9.7806 H   0  0  0  0  0
  -11.3456   12.0559   13.6265 H   0  0  0  0  0
  -10.7511    7.0583    8.3944 H   0  0  0  0  0
  -10.9009   14.4389   13.1206 H   0  0  0  0  0
   -9.2088    9.7860   14.9089 H   0  0  0  0  0
   -9.5015   15.8591   14.6800 H   0  0  0  0  0
   -7.9165   14.8652   16.3777 H   0  0  0  0  0
   -8.0012    8.5885   17.1378 H   0  0  0  0  0
   -6.6216    9.5836   17.7457 H   0  0  0  0  0
   -5.4710    9.3091   15.6515 H   0  0  0  0  0
   -5.9356    7.6797   16.3251 H   0  0  0  0  0
  6  1  1  0  0  0
  3  2  1  0  0  0
  6  2  1  0  0  0
  2 30  1  0  0  0
  4  3  1  0  0  0
  4  5  1  0  0  0
 12  4  1  0  0  0
  5  6  1  0  0  0
  8  7  4  0  0  0
  7  9  4  0  0  0
  7 10  1  0  0  0
  8 11  4  0  0  0
  8 12  1  0  0  0
  9 13  4  0  0  0
  9 14  1  0  0  0
 10 15  1  0  0  0
 11 16  4  0  0  0
 13 16  4  0  0  0
 14 17  1  0  0  0
 15 17  1  0  0  0
 15 18  1  0  0  0
 17 19  2  0  0  0
 18 20  4  0  0  0
 18 21  4  0  0  0
 20 22  4  0  0  0
 20 23  1  0  0  0
 21 24  4  0  0  0
 22 25  1  0  0  0
 22 26  4  0  0  0
 23 27  1  0  0  0
 24 26  4  0  0  0
 25 27  1  0  0  0
 25 29  2  0  0  0
 27 28  1  0  0  0
 28 30  1  0  0  0
  1 31  1  0  0  0
  1 32  1  0  0  0
  1 33  1  0  0  0
  2 34  1  0  0  0
  3 35  1  0  0  0
  3 36  1  0  0  0
  4 37  1  0  0  0
  5 38  1  0  0  0
  5 39  1  0  0  0
  6 40  1  0  0  0
 10 41  1  0  0  0
 11 42  1  0  0  0
 13 43  1  0  0  0
 14 44  1  0  0  0
 15 45  1  0  0  0
 16 46  1  0  0  0
 21 47  1  0  0  0
 23 48  1  0  0  0
 24 49  1  0  0  0
 26 50  1  0  0  0
 28 51  1  0  0  0
 28 52  1  0  0  0
 30 53  1  0  0  0
 30 54  1  0  0  0
M  END
$$$$
