6e7m_ligand
  -I-interpret- 

 52 52  0  0  0  0  0  0  0  0999 V2000
   12.9750   19.6330  -26.2360 C   0  0  0  0  0
   14.4240   19.7210  -25.7480 C   0  0  0  0  0
   14.8270   18.5990  -24.7960 C   0  0  0  0  0
   14.4960   17.2110  -25.3220 C   0  0  0  0  0
   13.5610   17.2150  -26.4890 C   0  0  0  0  0
   12.6870   18.2080  -26.6990 C   0  0  0  0  0
   11.3640   17.9420  -27.2190 C   0  0  0  0  0
   10.4720   17.3000  -26.5300 C   0  0  0  0  0
    9.1530   16.8810  -26.9040 C   0  0  0  0  0
    8.9100   15.5430  -26.8360 C   0  0  0  0  0
    7.6980   14.8140  -27.0900 C   0  0  0  0  0
    7.6880   13.4970  -27.3690 C   0  0  0  0  0
    6.5420   12.6500  -27.5550 C   0  0  0  0  0
    6.7260   11.3200  -27.7410 C   0  0  0  0  0
    5.7170   10.2920  -27.8760 C   0  0  0  0  0
   12.7560   20.6240  -27.3840 C   0  0  0  0  0
   12.0570   20.0140  -25.0700 C   0  0  0  0  0
   13.5830   15.9300  -27.2740 C   0  0  0  0  0
    8.1660   17.9260  -27.3550 C   0  0  0  0  0
    5.1930   13.2830  -27.4400 C   0  0  0  0  0
   14.5254   20.6596  -25.2031 H   0  0  0  0  0
   15.0660   19.6467  -26.6257 H   0  0  0  0  0
   14.2712   18.7398  -23.8690 H   0  0  0  0  0
   15.9079   18.6515  -24.6659 H   0  0  0  0  0
   14.0064   16.6658  -24.5151 H   0  0  0  0  0
   15.4299   16.7584  -25.6553 H   0  0  0  0  0
   13.6505   18.0251  -27.2128 H   0  0  0  0  0
   13.3283   18.1325  -27.5771 H   0  0  0  0  0
   11.1089   18.2913  -28.2195 H   0  0  0  0  0
   10.7700   17.0401  -25.5143 H   0  0  0  0  0
    9.7645   14.9322  -26.5447 H   0  0  0  0  0
    6.7488   15.3487  -27.0554 H   0  0  0  0  0
    8.6621   13.0175  -27.4650 H   0  0  0  0  0
    7.7614   10.9837  -27.7956 H   0  0  0  0  0
    5.1028   10.2671  -26.9759 H   0  0  0  0  0
    5.0894   10.5119  -28.7396 H   0  0  0  0  0
    6.2013    9.3253  -28.0139 H   0  0  0  0  0
   11.7151   20.5822  -27.7048 H   0  0  0  0  0
   12.9921   21.6318  -27.0423 H   0  0  0  0  0
   13.4056   20.3605  -28.2187 H   0  0  0  0  0
   12.2955   21.0239  -24.7365 H   0  0  0  0  0
   11.0186   19.9744  -25.3989 H   0  0  0  0  0
   12.2061   19.3138  -24.2481 H   0  0  0  0  0
   12.6291   15.4163  -27.1544 H   0  0  0  0  0
   13.7476   16.1525  -28.3283 H   0  0  0  0  0
   14.3881   15.2943  -26.9055 H   0  0  0  0  0
    7.8602   17.7167  -28.3801 H   0  0  0  0  0
    7.2930   17.9050  -26.7026 H   0  0  0  0  0
    8.6331   18.9097  -27.3075 H   0  0  0  0  0
    4.6267   13.0967  -28.3525 H   0  0  0  0  0
    4.6637   12.8551  -26.5886 H   0  0  0  0  0
    5.3083   14.3572  -27.2953 H   0  0  0  0  0
  1  2  1  0  0  0
  1  6  1  0  0  0
  1 16  1  0  0  0
  1 17  1  0  0  0
  2  3  1  0  0  0
  3  4  1  0  0  0
  4  5  1  0  0  0
  5  6  1  0  0  0
  5 18  1  0  0  0
  6  7  1  0  0  0
  7  8  2  0  0  0
  8  9  1  0  0  0
  9 10  2  0  0  0
  9 19  1  0  0  0
 10 11  1  0  0  0
 11 12  2  0  0  0
 12 13  1  0  0  0
 13 14  2  0  0  0
 13 20  1  0  0  0
 14 15  1  0  0  0
  2 21  1  0  0  0
  2 22  1  0  0  0
  3 23  1  0  0  0
  3 24  1  0  0  0
  4 25  1  0  0  0
  4 26  1  0  0  0
  5 27  1  0  0  0
  6 28  1  0  0  0
  7 29  1  0  0  0
  8 30  1  0  0  0
 10 31  1  0  0  0
 11 32  1  0  0  0
 12 33  1  0  0  0
 14 34  1  0  0  0
 15 35  1  0  0  0
 15 36  1  0  0  0
 15 37  1  0  0  0
 16 38  1  0  0  0
 16 39  1  0  0  0
 16 40  1  0  0  0
 17 41  1  0  0  0
 17 42  1  0  0  0
 17 43  1  0  0  0
 18 44  1  0  0  0
 18 45  1  0  0  0
 18 46  1  0  0  0
 19 47  1  0  0  0
 19 48  1  0  0  0
 19 49  1  0  0  0
 20 50  1  0  0  0
 20 51  1  0  0  0
 20 52  1  0  0  0
M  END
$$$$
