5q13_ligand
  -I-interpret- 

 62 66  0  0  0  0  0  0  0  0999 V2000
   -0.3620   20.1030   64.0230 C   0  0  0  0  0
    0.1390   21.2670   64.6110 C   0  0  0  0  0
    0.7490   21.1950   65.8580 C   0  0  0  0  0
    0.7250   23.2820   65.1060 C   0  0  0  0  0
    1.0260   24.7200   65.0360 C   0  0  0  0  0
    1.0490   23.1840   68.6500 C   0  0  0  0  0
   -0.4090   22.3120   70.5020 C   0  0  0  0  0
    0.2850   21.9690   69.1470 C   0  0  0  0  0
    6.0350   22.2930   65.6310 C   0  0  0  0  0
    7.2120   20.4370   64.4290 C   0  0  0  0  0
    4.8770   20.0570   65.3450 C   0  0  0  0  0
    2.5020   26.2350   63.8600 C   0  0  0  0  0
   -1.2540   23.5770   70.3980 C   0  0  0  0  0
   -0.4410   24.7260   69.7660 C   0  0  0  0  0
    0.1810   24.3110   68.4890 O   0  0  0  0  0
    1.8550   23.0270   67.3590 C   0  0  0  0  0
    3.1810   22.2990   67.4940 C   0  0  0  0  0
    3.6670   22.0370   68.5900 O   0  0  0  0  0
    3.7560   21.9830   66.3390 N   0  0  0  0  0
    5.0230   21.3000   66.2230 C   0  0  0  0  0
    7.3740   21.6340   65.3390 C   0  0  0  0  0
    6.2450   19.4160   65.0500 C   0  0  0  0  0
    1.1230   22.5060   66.1590 N   0  0  0  0  0
    0.8950   20.0170   66.5570 C   0  0  0  0  0
    0.3990   18.8800   65.9730 C   0  0  0  0  0
   -0.2190   18.9290   64.7300 C   0  0  0  0  0
    0.1440   22.5900   64.1470 N   0  0  0  0  0
    2.0280   24.9630   64.0920 C   0  0  0  0  0
    1.9920   27.2810   64.5880 C   0  0  0  0  0
    1.0080   27.0870   65.5470 C   0  0  0  0  0
    0.5280   25.7950   65.7780 C   0  0  0  0  0
    2.6100   28.8800   64.2860 Cl  0  0  0  0  0
   -0.6930   17.7820   64.1990 F   0  0  0  0  0
    0.5520   17.3810   66.8120 Cl  0  0  0  0  0
   -0.8455   20.1227   63.0463 H   0  0  0  0  0
    1.7830   23.3293   69.4426 H   0  0  0  0  0
    0.3644   22.4762   71.2523 H   0  0  0  0  0
   -1.0631   21.4831   70.7725 H   0  0  0  0  0
    0.9761   21.1386   69.2919 H   0  0  0  0  0
   -0.4696   21.6879   68.4124 H   0  0  0  0  0
    6.1976   23.0887   66.3580 H   0  0  0  0  0
    5.6306   22.6741   64.6933 H   0  0  0  0  0
    8.1842   19.9644   64.2889 H   0  0  0  0  0
    6.8087   20.7708   63.4729 H   0  0  0  0  0
    4.4211   20.3517   64.3998 H   0  0  0  0  0
    4.2601   19.3300   65.8731 H   0  0  0  0  0
    3.2719   26.4089   63.1083 H   0  0  0  0  0
   -1.5661   23.8754   71.3988 H   0  0  0  0  0
   -2.1203   23.3712   69.7693 H   0  0  0  0  0
    0.3504   25.0112   70.4591 H   0  0  0  0  0
   -1.1162   25.5582   69.5670 H   0  0  0  0  0
    2.0614   24.0799   67.1668 H   0  0  0  0  0
    3.2715   22.2393   65.4788 H   0  0  0  0  0
    5.3716   20.9603   67.1983 H   0  0  0  0  0
    7.8071   21.2972   66.2808 H   0  0  0  0  0
    8.0174   22.3612   64.8437 H   0  0  0  0  0
    6.6712   19.0568   65.9867 H   0  0  0  0  0
    6.1019   18.5973   64.3447 H   0  0  0  0  0
    1.3832   19.9900   67.5312 H   0  0  0  0  0
    2.4429   24.1279   63.5276 H   0  0  0  0  0
    0.6145   27.9314   66.1128 H   0  0  0  0  0
   -0.2353   25.6254   66.5374 H   0  0  0  0  0
  2  1  4  0  0  0
  1 26  4  0  0  0
  3  2  4  0  0  0
 27  2  4  0  0  0
 23  3  4  0  0  0
  3 24  4  0  0  0
  4  5  1  0  0  0
 23  4  4  0  0  0
  4 27  4  0  0  0
  5 28  4  0  0  0
  5 31  4  0  0  0
  6  8  1  0  0  0
  6 15  1  0  0  0
 16  6  1  0  0  0
  8  7  1  0  0  0
  7 13  1  0  0  0
 20  9  1  0  0  0
  9 21  1  0  0  0
 21 10  1  0  0  0
 22 10  1  0  0  0
 20 11  1  0  0  0
 11 22  1  0  0  0
 28 12  4  0  0  0
 12 29  4  0  0  0
 14 13  1  0  0  0
 15 14  1  0  0  0
 17 16  1  0  0  0
 16 23  1  0  0  0
 17 18  2  0  0  0
 19 17  1  0  0  0
 19 20  1  0  0  0
 24 25  4  0  0  0
 25 26  4  0  0  0
 25 34  1  0  0  0
 26 33  1  0  0  0
 29 30  4  0  0  0
 29 32  1  0  0  0
 30 31  4  0  0  0
  1 35  1  0  0  0
  6 36  1  0  0  0
  7 37  1  0  0  0
  7 38  1  0  0  0
  8 39  1  0  0  0
  8 40  1  0  0  0
  9 41  1  0  0  0
  9 42  1  0  0  0
 10 43  1  0  0  0
 10 44  1  0  0  0
 11 45  1  0  0  0
 11 46  1  0  0  0
 12 47  1  0  0  0
 13 48  1  0  0  0
 13 49  1  0  0  0
 14 50  1  0  0  0
 14 51  1  0  0  0
 16 52  1  0  0  0
 19 53  1  0  0  0
 20 54  1  0  0  0
 21 55  1  0  0  0
 21 56  1  0  0  0
 22 57  1  0  0  0
 22 58  1  0  0  0
 24 59  1  0  0  0
 28 60  1  0  0  0
 30 61  1  0  0  0
 31 62  1  0  0  0
M  END
$$$$
