5th2_ligand
  -I-interpret- 

203204  0  0  0  0  0  0  0  0999 V2000
  -16.3200    7.9230  -26.1300 N   0  3  0  0  0
  -15.0520    7.4030  -26.6410 C   0  0  0  0  0
  -14.8140    5.9570  -26.2180 C   0  0  0  0  0
  -15.5100    5.4220  -25.3540 O   0  0  0  0  0
  -13.8760    8.2660  -26.1690 C   0  0  0  0  0
  -13.9390   10.0130  -26.6760 S   0  0  0  0  0
  -13.8100    5.3400  -26.8380 N   0  0  0  0  0
  -13.4280    3.9710  -26.5340 C   0  0  0  0  0
  -11.9310    3.8100  -26.7620 C   0  0  0  0  0
  -11.4070    4.2710  -27.7780 O   0  0  0  0  0
  -14.2270    3.0010  -27.4040 C   0  0  0  0  0
  -13.7040    1.5980  -27.4260 C   0  0  0  0  0
  -14.7530    0.6290  -27.9190 C   0  0  0  0  0
  -15.6870    0.2900  -27.1920 O   0  0  0  0  0
  -14.6140    0.1860  -29.1640 N   0  0  0  0  0
  -11.2480    3.1660  -25.8190 N   0  0  0  0  0
   -9.8080    2.9780  -25.9450 C   0  0  0  0  0
   -9.4870    2.0640  -27.1220 C   0  0  0  0  0
  -10.1350    1.0350  -27.3270 O   0  0  0  0  0
   -9.2300    2.3920  -24.6600 C   0  0  0  0  0
   -7.7530    2.0660  -24.7450 C   0  0  0  0  0
   -6.7980    3.0610  -24.5840 C   0  0  0  0  0
   -7.3280    0.7620  -24.9530 C   0  0  0  0  0
   -5.4350    2.7630  -24.6340 C   0  0  0  0  0
   -5.9720    0.4510  -25.0180 C   0  0  0  0  0
   -5.0210    1.4590  -24.8590 C   0  0  0  0  0
   -8.4540    2.4360  -27.8770 N   0  0  0  0  0
   -8.0440    1.7480  -29.0980 C   0  0  0  0  0
   -6.6410    1.2070  -28.8620 C   0  0  0  0  0
   -5.6930    1.9840  -28.7270 O   0  0  0  0  0
   -8.0940    2.7250  -30.2780 C   0  0  0  0  0
   -7.6500    2.1140  -31.5940 C   0  0  0  0  0
   -7.0950    0.9980  -31.6110 O   0  0  0  0  0
   -7.8670    2.7870  -32.6280 O   0  0  0  0  0
   -6.4980   -0.1220  -28.8220 N   0  0  0  0  0
   -5.2030   -0.6850  -28.4510 C   0  0  0  0  0
   -4.1530   -0.5520  -29.5450 C   0  0  0  0  0
   -2.9700   -0.7620  -29.2620 O   0  0  0  0  0
   -5.3470   -2.1580  -28.0590 C   0  0  0  0  0
   -5.9030   -3.0400  -29.1440 C   0  0  0  0  0
   -7.4190   -3.2080  -29.0380 C   0  0  0  0  0
   -8.1560   -2.2340  -28.8610 O   0  0  0  0  0
   -7.8850   -4.4490  -29.1350 N   0  0  0  0  0
   -4.5440   -0.2070  -30.7740 N   0  0  0  0  0
   -3.5670   -0.0330  -31.8440 C   0  0  0  0  0
   -2.8220    1.2870  -31.7300 C   0  0  0  0  0
   -1.6700    1.3850  -32.1690 O   0  0  0  0  0
   -4.2540   -0.1180  -33.2070 C   0  0  0  0  0
   -5.0170   -1.3030  -33.3000 O   0  0  0  0  0
   -3.4600    2.3080  -31.1560 N   0  0  0  0  0
   -2.8480    3.6110  -30.9840 C   0  0  0  0  0
   -2.6170    3.9650  -29.5250 C   0  0  0  0  0
   -1.9440    4.9630  -29.2500 O   0  0  0  0  0
   -3.7250    4.6980  -31.6190 C   0  0  0  0  0
   -5.0280    4.6460  -31.0330 O   0  0  0  0  0
   -3.8480    4.4860  -33.1250 C   0  0  0  0  0
   -3.1790    3.1870  -28.5960 N   0  0  0  0  0
   -3.2470    3.5350  -27.1720 C   0  0  0  0  0
   -3.9210    4.8840  -26.9340 C   0  0  0  0  0
   -3.6220    5.5880  -25.9680 O   0  0  0  0  0
   -1.8620    3.4920  -26.5220 C   0  0  0  0  0
   -1.1070    2.2140  -26.9020 C   0  0  0  0  0
   -0.2580    1.7390  -25.7660 C   0  0  0  0  0
    0.5590    0.5790  -26.1070 N   0  0  0  0  0
    1.6350    0.2350  -25.4110 C   0  0  0  0  0
    1.9870    0.9730  -24.3610 N   0  0  0  0  0
    2.3500   -0.8230  -25.7580 N   0  0  0  0  0
   -4.8740    5.2440  -27.7820 N   0  0  0  0  0
   -5.5970    6.4930  -27.6410 C   0  0  0  0  0
   -7.0900    6.2170  -27.5940 C   0  0  0  0  0
   -7.5790    5.2090  -28.1120 O   0  0  0  0  0
   -5.2920    7.4650  -28.8010 C   0  0  0  0  0
   -3.8270    7.8840  -28.8840 C   0  0  0  0  0
   -3.3820    8.6770  -27.6450 C   0  0  0  0  0
   -4.3030    9.7690  -27.3180 N   0  0  0  0  0
   -4.3470   10.9360  -27.9480 C   0  0  0  0  0
   -3.5150   11.1910  -28.9580 N   0  0  0  0  0
   -5.2380   11.8490  -27.5750 N   0  0  0  0  0
   -7.8030    7.1350  -26.9600 N   0  0  0  0  0
   -9.2520    7.1260  -27.0130 C   0  0  0  0  0
   -9.7050    7.3990  -28.4380 C   0  0  0  0  0
   -9.2240    8.3350  -29.0850 O   0  0  0  0  0
   -9.8200    8.1750  -26.0590 C   0  0  0  0  0
   -9.6030    7.8880  -24.5670 C   0  0  0  0  0
   -9.9550    9.1030  -23.6920 C   0  0  0  0  0
  -10.4400    6.6910  -24.1600 C   0  0  0  0  0
  -10.6270    6.5790  -28.9250 N   0  0  0  0  0
  -11.2150    6.7310  -30.2520 C   0  0  0  0  0
  -12.6790    7.1080  -30.0800 C   0  0  0  0  0
  -13.4290    6.4040  -29.3990 O   0  0  0  0  0
  -11.0560    5.4410  -31.0600 C   0  0  0  0  0
  -11.4930    5.5390  -32.5070 C   0  0  0  0  0
  -11.2280    4.2290  -33.2280 C   0  0  0  0  0
  -11.9090    3.0660  -32.5160 C   0  0  0  0  0
  -13.3970    3.1620  -32.5710 N   0  3  0  0  0
  -13.0800    8.2170  -30.6820 N   0  0  0  0  0
  -14.3720    8.8050  -30.3500 C   0  0  0  0  0
  -15.2990    8.9200  -31.5530 C   0  0  0  0  0
  -14.8620    9.0900  -32.6910 O   0  0  0  0  0
  -14.1560   10.1680  -29.7040 C   0  0  0  0  0
  -12.8810   10.1480  -28.4040 S   0  0  0  0  0
  -16.5180    8.8450  -31.4130 O   0  0  0  0  0
  -17.0848    7.3328  -26.4573 H   0  0  0  0  0
  -16.3004    7.9216  -25.1102 H   0  0  0  0  0
  -16.4560    8.8759  -26.4674 H   0  0  0  0  0
  -15.1174    7.4375  -27.7285 H   0  0  0  0  0
  -12.9782    7.8428  -26.6195 H   0  0  0  0  0
  -13.9000    8.2566  -25.0793 H   0  0  0  0  0
  -13.2893    5.8474  -27.5534 H   0  0  0  0  0
  -13.6499    3.7445  -25.4911 H   0  0  0  0  0
  -14.1718    3.3748  -28.4264 H   0  0  0  0  0
  -15.2327    2.9567  -26.9860 H   0  0  0  0  0
  -13.4214    1.3170  -26.4115 H   0  0  0  0  0
  -12.8490    1.5569  -28.1009 H   0  0  0  0  0
  -15.2979   -0.4626  -29.5539 H   0  0  0  0  0
  -13.8234    0.4945  -29.7298 H   0  0  0  0  0
  -11.7361    2.8009  -25.0012 H   0  0  0  0  0
   -9.3535    3.9526  -26.1233 H   0  0  0  0  0
   -9.7575    1.4587  -24.4631 H   0  0  0  0  0
   -9.3524    3.1413  -23.8779 H   0  0  0  0  0
   -7.1171    4.0896  -24.4161 H   0  0  0  0  0
   -8.0666   -0.0314  -25.0673 H   0  0  0  0  0
   -4.6977    3.5539  -24.4964 H   0  0  0  0  0
   -5.6548   -0.5771  -25.1926 H   0  0  0  0  0
   -3.9582    1.2228  -24.9114 H   0  0  0  0  0
   -7.9164    3.2518  -27.5839 H   0  0  0  0  0
   -8.7117    0.9214  -29.3410 H   0  0  0  0  0
   -7.4117    3.5445  -30.0521 H   0  0  0  0  0
   -9.1308    3.0392  -30.3976 H   0  0  0  0  0
   -8.3013    3.6089  -32.3882 H   0  0  0  0  0
   -7.2825   -0.7337  -29.0475 H   0  0  0  0  0
   -4.8562   -0.1026  -27.5974 H   0  0  0  0  0
   -6.0465   -2.1993  -27.2241 H   0  0  0  0  0
   -4.3473   -2.5264  -27.8289 H   0  0  0  0  0
   -5.4466   -4.0249  -29.0453 H   0  0  0  0  0
   -5.6814   -2.5742  -30.1042 H   0  0  0  0  0
   -8.8872   -4.6245  -29.0631 H   0  0  0  0  0
   -7.2404   -5.2258  -29.2814 H   0  0  0  0  0
   -5.5353   -0.0636  -30.9670 H   0  0  0  0  0
   -2.8378   -0.8374  -31.7473 H   0  0  0  0  0
   -3.4939   -0.1226  -33.9883 H   0  0  0  0  0
   -4.9151    0.7405  -33.3258 H   0  0  0  0  0
   -5.4417   -1.3421  -34.1601 H   0  0  0  0  0
   -4.4146    2.1667  -30.8255 H   0  0  0  0  0
   -1.8774    3.5616  -31.4775 H   0  0  0  0  0
   -3.2632    5.6689  -31.4397 H   0  0  0  0  0
   -5.5819    5.3242  -31.4265 H   0  0  0  0  0
   -2.8574    4.5245  -33.5781 H   0  0  0  0  0
   -4.2996    3.5129  -33.3180 H   0  0  0  0  0
   -4.4745    5.2697  -33.5510 H   0  0  0  0  0
   -3.5844    2.2996  -28.8936 H   0  0  0  0  0
   -3.8705    2.7786  -26.6952 H   0  0  0  0  0
   -1.9864    3.5121  -25.4393 H   0  0  0  0  0
   -1.2883    4.3504  -26.8715 H   0  0  0  0  0
   -0.4636    2.4273  -27.7556 H   0  0  0  0  0
   -1.8321    1.4378  -27.1466 H   0  0  0  0  0
   -0.9244    1.4473  -24.9542 H   0  0  0  0  0
    0.4169    2.5510  -25.4951 H   0  0  0  0  0
    0.2927    0.0109  -26.9112 H   0  0  0  0  0
    2.8134    0.7246  -23.8171 H   0  0  0  0  0
    1.4304    1.7870  -24.1002 H   0  0  0  0  0
    2.0754   -1.3814  -26.5662 H   0  0  0  0  0
   -5.1059    4.6234  -28.5575 H   0  0  0  0  0
   -5.2715    6.9624  -26.7127 H   0  0  0  0  0
   -5.8792    8.3676  -28.6318 H   0  0  0  0  0
   -5.5358    6.9494  -29.7299 H   0  0  0  0  0
   -3.7049    8.5228  -29.7587 H   0  0  0  0  0
   -3.2183    6.9820  -28.9473 H   0  0  0  0  0
   -2.4054    9.1124  -27.8569 H   0  0  0  0  0
   -3.3579    7.9918  -26.7976 H   0  0  0  0  0
   -4.9580    9.6212  -26.5501 H   0  0  0  0  0
   -3.5624   12.0864  -29.4441 H   0  0  0  0  0
   -2.8311   10.4907  -29.2446 H   0  0  0  0  0
   -5.8819   11.6503  -26.8093 H   0  0  0  0  0
   -7.3251    7.8605  -26.4255 H   0  0  0  0  0
   -9.6211    6.1483  -26.7033 H   0  0  0  0  0
  -10.8978    8.1935  -26.2204 H   0  0  0  0  0
   -9.3016    9.1089  -26.2765 H   0  0  0  0  0
   -8.5456    7.6730  -24.4124 H   0  0  0  0  0
   -9.3245    9.9465  -23.9732 H   0  0  0  0  0
  -11.0025    9.3652  -23.8410 H   0  0  0  0  0
   -9.7866    8.8553  -22.6439 H   0  0  0  0  0
  -11.4929    6.9070  -24.3413 H   0  0  0  0  0
  -10.1396    5.8228  -24.7467 H   0  0  0  0  0
  -10.2871    6.4857  -23.1005 H   0  0  0  0  0
  -10.9409    5.8028  -28.3424 H   0  0  0  0  0
  -10.7032    7.5168  -30.8076 H   0  0  0  0  0
  -11.6915    4.6918  -30.5878 H   0  0  0  0  0
   -9.9928    5.2009  -31.0664 H   0  0  0  0  0
  -10.9298    6.3341  -32.9956 H   0  0  0  0  0
  -12.5609    5.7547  -32.5422 H   0  0  0  0  0
  -10.1531    4.0490  -33.2423 H   0  0  0  0  0
  -11.6257    4.3004  -34.2403 H   0  0  0  0  0
  -11.6071    3.0869  -31.4688 H   0  0  0  0  0
  -11.6109    2.1433  -33.0138 H   0  0  0  0  0
  -13.8062    2.3651  -32.0833 H   0  0  0  0  0
  -13.6975    4.0275  -32.1226 H   0  0  0  0  0
  -13.7010    3.1589  -33.5447 H   0  0  0  0  0
  -12.4833    8.6611  -31.3799 H   0  0  0  0  0
  -14.8680    8.1348  -29.6479 H   0  0  0  0  0
  -13.9033    9.1306  -32.6617 H   0  0  0  0  0
  -15.0962   10.4681  -29.2413 H   0  0  0  0  0
  -13.8245   10.8549  -30.4827 H   0  0  0  0  0
  1  2  1  0  0  0
  2  3  1  0  0  0
  2  5  1  0  0  0
  3  4  2  0  0  0
  3  7  1  0  0  0
  5  6  1  0  0  0
  6101  1  0  0  0
  7  8  1  0  0  0
  8  9  1  0  0  0
  8 11  1  0  0  0
  9 10  2  0  0  0
  9 16  1  0  0  0
 11 12  1  0  0  0
 12 13  1  0  0  0
 13 14  2  0  0  0
 13 15  1  0  0  0
 16 17  1  0  0  0
 17 18  1  0  0  0
 17 20  1  0  0  0
 18 19  2  0  0  0
 18 27  1  0  0  0
 20 21  1  0  0  0
 21 22  4  0  0  0
 21 23  4  0  0  0
 22 24  4  0  0  0
 23 25  4  0  0  0
 24 26  4  0  0  0
 25 26  4  0  0  0
 27 28  1  0  0  0
 28 29  1  0  0  0
 28 31  1  0  0  0
 29 30  2  0  0  0
 29 35  1  0  0  0
 31 32  1  0  0  0
 32 33  2  0  0  0
 32 34  1  0  0  0
 35 36  1  0  0  0
 36 37  1  0  0  0
 36 39  1  0  0  0
 37 38  2  0  0  0
 37 44  1  0  0  0
 39 40  1  0  0  0
 40 41  1  0  0  0
 41 42  2  0  0  0
 41 43  1  0  0  0
 44 45  1  0  0  0
 45 46  1  0  0  0
 45 48  1  0  0  0
 46 47  2  0  0  0
 46 50  1  0  0  0
 48 49  1  0  0  0
 50 51  1  0  0  0
 51 52  1  0  0  0
 51 54  1  0  0  0
 52 53  2  0  0  0
 52 57  1  0  0  0
 54 55  1  0  0  0
 54 56  1  0  0  0
 57 58  1  0  0  0
 58 59  1  0  0  0
 58 61  1  0  0  0
 59 60  2  0  0  0
 59 68  1  0  0  0
 61 62  1  0  0  0
 62 63  1  0  0  0
 63 64  1  0  0  0
 64 65  1  0  0  0
 65 66  1  0  0  0
 65 67  2  0  0  0
 68 69  1  0  0  0
 69 70  1  0  0  0
 69 72  1  0  0  0
 70 71  2  0  0  0
 70 79  1  0  0  0
 72 73  1  0  0  0
 73 74  1  0  0  0
 74 75  1  0  0  0
 75 76  1  0  0  0
 76 77  1  0  0  0
 76 78  2  0  0  0
 79 80  1  0  0  0
 80 81  1  0  0  0
 80 83  1  0  0  0
 81 82  2  0  0  0
 81 87  1  0  0  0
 83 84  1  0  0  0
 84 85  1  0  0  0
 84 86  1  0  0  0
 87 88  1  0  0  0
 88 89  1  0  0  0
 88 91  1  0  0  0
 89 90  2  0  0  0
 89 96  1  0  0  0
 91 92  1  0  0  0
 92 93  1  0  0  0
 93 94  1  0  0  0
 94 95  1  0  0  0
 96 97  1  0  0  0
 97 98  1  0  0  0
 97100  1  0  0  0
 98 99  1  0  0  0
 98102  2  0  0  0
100101  1  0  0  0
  1103  1  0  0  0
  1104  1  0  0  0
  1105  1  0  0  0
  2106  1  0  0  0
  5107  1  0  0  0
  5108  1  0  0  0
  7109  1  0  0  0
  8110  1  0  0  0
 11111  1  0  0  0
 11112  1  0  0  0
 12113  1  0  0  0
 12114  1  0  0  0
 15115  1  0  0  0
 15116  1  0  0  0
 16117  1  0  0  0
 17118  1  0  0  0
 20119  1  0  0  0
 20120  1  0  0  0
 22121  1  0  0  0
 23122  1  0  0  0
 24123  1  0  0  0
 25124  1  0  0  0
 26125  1  0  0  0
 27126  1  0  0  0
 28127  1  0  0  0
 31128  1  0  0  0
 31129  1  0  0  0
 34130  1  0  0  0
 35131  1  0  0  0
 36132  1  0  0  0
 39133  1  0  0  0
 39134  1  0  0  0
 40135  1  0  0  0
 40136  1  0  0  0
 43137  1  0  0  0
 43138  1  0  0  0
 44139  1  0  0  0
 45140  1  0  0  0
 48141  1  0  0  0
 48142  1  0  0  0
 49143  1  0  0  0
 50144  1  0  0  0
 51145  1  0  0  0
 54146  1  0  0  0
 55147  1  0  0  0
 56148  1  0  0  0
 56149  1  0  0  0
 56150  1  0  0  0
 57151  1  0  0  0
 58152  1  0  0  0
 61153  1  0  0  0
 61154  1  0  0  0
 62155  1  0  0  0
 62156  1  0  0  0
 63157  1  0  0  0
 63158  1  0  0  0
 64159  1  0  0  0
 66160  1  0  0  0
 66161  1  0  0  0
 67162  1  0  0  0
 68163  1  0  0  0
 69164  1  0  0  0
 72165  1  0  0  0
 72166  1  0  0  0
 73167  1  0  0  0
 73168  1  0  0  0
 74169  1  0  0  0
 74170  1  0  0  0
 75171  1  0  0  0
 77172  1  0  0  0
 77173  1  0  0  0
 78174  1  0  0  0
 79175  1  0  0  0
 80176  1  0  0  0
 83177  1  0  0  0
 83178  1  0  0  0
 84179  1  0  0  0
 85180  1  0  0  0
 85181  1  0  0  0
 85182  1  0  0  0
 86183  1  0  0  0
 86184  1  0  0  0
 86185  1  0  0  0
 87186  1  0  0  0
 88187  1  0  0  0
 91188  1  0  0  0
 91189  1  0  0  0
 92190  1  0  0  0
 92191  1  0  0  0
 93192  1  0  0  0
 93193  1  0  0  0
 94194  1  0  0  0
 94195  1  0  0  0
 95196  1  0  0  0
 95197  1  0  0  0
 95198  1  0  0  0
 96199  1  0  0  0
 97200  1  0  0  0
 99201  1  0  0  0
100202  1  0  0  0
100203  1  0  0  0
M  END
$$$$
