### 
### Created by X-TOOL on Mon Sep 10 21:13:26 2018
### 

@<TRIPOS>MOLECULE
5th2_ligand
  203   204     1     0     0
SMALL
GAST_HUCK


@<TRIPOS>ATOM
      1 N         -16.3200    7.9230  -26.1300 N.4       1 CYS         0.2385
      2 CA        -15.0520    7.4030  -26.6410 C.3       1 CYS         0.0749
      3 C         -14.8140    5.9570  -26.2180 C.2       1 CYS         0.2275
      4 O         -15.5100    5.4220  -25.3540 O.2       1 CYS        -0.3907
      5 CB        -13.8760    8.2660  -26.1690 C.3       1 CYS         0.0643
      6 SG        -13.9390   10.0130  -26.6760 S.3       1 CYS        -0.0848
      7 N         -13.8100    5.3400  -26.8380 N.am      1 GLN        -0.2608
      8 CA        -13.4280    3.9710  -26.5340 C.3       1 GLN         0.1331
      9 C         -11.9310    3.8100  -26.7620 C.2       1 GLN         0.2042
     10 O         -11.4070    4.2710  -27.7780 O.2       1 GLN        -0.3944
     11 CB        -14.2270    3.0010  -27.4040 C.3       1 GLN         0.0045
     12 CG        -13.7040    1.5980  -27.4260 C.3       1 GLN         0.0412
     13 CD        -14.7530    0.6290  -27.9190 C.2       1 GLN         0.1737
     14 OE1       -15.6870    0.2900  -27.1920 O.2       1 GLN        -0.3973
     15 NE2       -14.6140    0.1860  -29.1640 N.am      1 GLN        -0.3009
     16 N         -11.2480    3.1660  -25.8190 N.am      1 PHE        -0.2619
     17 CA         -9.8080    2.9780  -25.9450 C.3       1 PHE         0.1404
     18 C          -9.4870    2.0640  -27.1220 C.2       1 PHE         0.2060
     19 O         -10.1350    1.0350  -27.3270 O.2       1 PHE        -0.3942
     20 CB         -9.2300    2.3920  -24.6600 C.3       1 PHE         0.0214
     21 CG         -7.7530    2.0660  -24.7450 C.ar      1 PHE        -0.0386
     22 CD1        -6.7980    3.0610  -24.5840 C.ar      1 PHE        -0.0601
     23 CD2        -7.3280    0.7620  -24.9530 C.ar      1 PHE        -0.0601
     24 CE1        -5.4350    2.7630  -24.6340 C.ar      1 PHE        -0.0686
     25 CE2        -5.9720    0.4510  -25.0180 C.ar      1 PHE        -0.0686
     26 CZ         -5.0210    1.4590  -24.8590 C.ar      1 PHE        -0.0687
     27 N          -8.4540    2.4360  -27.8770 N.am      1 ASP        -0.2620
     28 CA         -8.0440    1.7480  -29.0980 C.3       1 ASP         0.1423
     29 C          -6.6410    1.2070  -28.8620 C.2       1 ASP         0.2056
     30 O          -5.6930    1.9840  -28.7270 O.2       1 ASP        -0.3943
     31 CB         -8.0940    2.7250  -30.2780 C.3       1 ASP         0.0406
     32 CG         -7.6500    2.1140  -31.5940 C.2       1 ASP         0.0393
     33 OD1        -7.0950    0.9980  -31.6110 O.co2     1 ASP        -0.5688
     34 OD2        -7.8670    2.7870  -32.6280 O.co2     1 ASP        -0.5688
     35 N          -6.4980   -0.1220  -28.8220 N.am      1 GLN        -0.2635
     36 CA         -5.2030   -0.6850  -28.4510 C.3       1 GLN         0.1330
     37 C          -4.1530   -0.5520  -29.5450 C.2       1 GLN         0.2041
     38 O          -2.9700   -0.7620  -29.2620 O.2       1 GLN        -0.3944
     39 CB         -5.3470   -2.1580  -28.0590 C.3       1 GLN         0.0045
     40 CG         -5.9030   -3.0400  -29.1440 C.3       1 GLN         0.0412
     41 CD         -7.4190   -3.2080  -29.0380 C.2       1 GLN         0.1737
     42 OE1        -8.1560   -2.2340  -28.8610 O.2       1 GLN        -0.3973
     43 NE2        -7.8850   -4.4490  -29.1350 N.am      1 GLN        -0.3009
     44 N          -4.5440   -0.2070  -30.7740 N.am      1 SER        -0.2616
     45 CA         -3.5670   -0.0330  -31.8440 C.3       1 SER         0.1539
     46 C          -2.8220    1.2870  -31.7300 C.2       1 SER         0.2063
     47 O          -1.6700    1.3850  -32.1690 O.2       1 SER        -0.3943
     48 CB         -4.2540   -0.1180  -33.2070 C.3       1 SER         0.0843
     49 OG         -5.0170   -1.3030  -33.3000 O.3       1 SER        -0.3903
     50 N          -3.4600    2.3080  -31.1560 N.am      1 THR        -0.2613
     51 CA         -2.8480    3.6110  -30.9840 C.3       1 THR         0.1565
     52 C          -2.6170    3.9650  -29.5250 C.2       1 THR         0.2065
     53 O          -1.9440    4.9630  -29.2500 O.2       1 THR        -0.3943
     54 CB         -3.7250    4.6980  -31.6190 C.3       1 THR         0.0924
     55 OG1        -5.0280    4.6460  -31.0330 O.3       1 THR        -0.3874
     56 CG2        -3.8480    4.4860  -33.1250 C.3       1 THR        -0.0346
     57 N          -3.1790    3.1870  -28.5960 N.am      1 ARG        -0.2636
     58 CA         -3.2470    3.5350  -27.1720 C.3       1 ARG         0.1311
     59 C          -3.9210    4.8840  -26.9340 C.2       1 ARG         0.2039
     60 O          -3.6220    5.5880  -25.9680 O.2       1 ARG        -0.3944
     61 CB         -1.8620    3.4920  -26.5220 C.3       1 ARG        -0.0092
     62 CG         -1.1070    2.2140  -26.9020 C.3       1 ARG        -0.0156
     63 CD         -0.2580    1.7390  -25.7660 C.3       1 ARG         0.0627
     64 NE          0.5590    0.5790  -26.1070 N.pl3     1 ARG        -0.2723
     65 CZ          1.6350    0.2350  -25.4110 C.cat     1 ARG         0.2882
     66 NH1         1.9870    0.9730  -24.3610 N.pl3     1 ARG        -0.2849
     67 NH2         2.3500   -0.8230  -25.7580 N.pl3     1 ARG        -0.2849
     68 N          -4.8740    5.2440  -27.7820 N.am      1 ARG        -0.2637
     69 CA         -5.5970    6.4930  -27.6410 C.3       1 ARG         0.1311
     70 C          -7.0900    6.2170  -27.5940 C.2       1 ARG         0.2039
     71 O          -7.5790    5.2090  -28.1120 O.2       1 ARG        -0.3944
     72 CB         -5.2920    7.4650  -28.8010 C.3       1 ARG        -0.0092
     73 CG         -3.8270    7.8840  -28.8840 C.3       1 ARG        -0.0156
     74 CD         -3.3820    8.6770  -27.6450 C.3       1 ARG         0.0627
     75 NE         -4.3030    9.7690  -27.3180 N.pl3     1 ARG        -0.2723
     76 CZ         -4.3470   10.9360  -27.9480 C.cat     1 ARG         0.2882
     77 NH1        -3.5150   11.1910  -28.9580 N.pl3     1 ARG        -0.2849
     78 NH2        -5.2380   11.8490  -27.5750 N.pl3     1 ARG        -0.2849
     79 N          -7.8030    7.1350  -26.9600 N.am      1 LEU        -0.2637
     80 CA         -9.2520    7.1260  -27.0130 C.3       1 LEU         0.1312
     81 C          -9.7050    7.3990  -28.4380 C.2       1 LEU         0.2039
     82 O          -9.2240    8.3350  -29.0850 O.2       1 LEU        -0.3944
     83 CB         -9.8200    8.1750  -26.0590 C.3       1 LEU        -0.0101
     84 CG         -9.6030    7.8880  -24.5670 C.3       1 LEU        -0.0425
     85 CD1        -9.9550    9.1030  -23.6920 C.3       1 LEU        -0.0625
     86 CD2       -10.4400    6.6910  -24.1600 C.3       1 LEU        -0.0625
     87 N         -10.6270    6.5790  -28.9250 N.am      1 LYS        -0.2637
     88 CA        -11.2150    6.7310  -30.2520 C.3       1 LYS         0.1309
     89 C         -12.6790    7.1080  -30.0800 C.2       1 LYS         0.2034
     90 O         -13.4290    6.4040  -29.3990 O.2       1 LYS        -0.3944
     91 CB        -11.0560    5.4410  -31.0600 C.3       1 LYS        -0.0122
     92 CG        -11.4930    5.5390  -32.5070 C.3       1 LYS        -0.0440
     93 CD        -11.2280    4.2290  -33.2280 C.3       1 LYS        -0.0124
     94 CE        -11.9090    3.0660  -32.5160 C.3       1 LYS        -0.0354
     95 NZ        -13.3970    3.1620  -32.5710 N.4       1 LYS         0.2185
     96 N         -13.0800    8.2170  -30.6820 N.am      1 CYS        -0.2687
     97 CA        -14.3720    8.8050  -30.3500 C.3       1 CYS         0.1041
     98 C         -15.2990    8.9200  -31.5530 C.2       1 CYS         0.0609
     99 O         -14.8620    9.0900  -32.6910 O.co2     1 CYS        -0.5666
    100 CB        -14.1560   10.1680  -29.7040 C.3       1 CYS         0.0388
    101 SG        -12.8810   10.1480  -28.4040 S.3       1 CYS        -0.0887
    102 OXT       -16.5180    8.8450  -31.4130 O.co2     1 CYS        -0.5666
    103 H1        -16.4375    8.8777  -26.4315 H         1 CYS         0.2015
    104 H2        -16.3165    7.8868  -25.1227 H         1 CYS         0.2015
    105 H3        -17.0798    7.3630  -26.4837 H         1 CYS         0.2015
    106 H4        -15.0907    7.4382  -27.7397 H         1 CYS         0.1107
    107 H5        -12.9506    7.8287  -26.5718 H         1 CYS         0.0466
    108 H6        -13.8495    8.2321  -25.0699 H         1 CYS         0.0466
    109 H7        -13.2995    5.8374  -27.5394 H         1 GLN         0.1885
    110 H8        -13.6509    3.7615  -25.4774 H         1 GLN         0.0801
    111 H9        -14.2227    3.3836  -28.4353 H         1 GLN         0.0337
    112 H10       -15.2600    2.9749  -27.0269 H         1 GLN         0.0337
    113 H11       -13.4024    1.3120  -26.4076 H         1 GLN         0.0504
    114 H12       -12.8311    1.5514  -28.0937 H         1 GLN         0.0504
    115 H13       -15.2792   -0.4574  -29.5430 H         1 GLN         0.1814
    116 H14       -13.8442    0.4960  -29.7220 H         1 GLN         0.1814
    117 H15       -11.7265    2.8080  -25.0172 H         1 PHE         0.1885
    118 H16        -9.3426    3.9584  -26.1245 H         1 PHE         0.0823
    119 H17        -9.7761    1.4665  -24.4249 H         1 PHE         0.0474
    120 H18        -9.3778    3.1209  -23.8496 H         1 PHE         0.0474
    121 H19        -7.1153    4.0840  -24.4171 H         1 PHE         0.0557
    122 H20        -8.0626   -0.0270  -25.0667 H         1 PHE         0.0557
    123 H21        -4.7018    3.5496  -24.4972 H         1 PHE         0.0599
    124 H22        -5.6565   -0.5714  -25.1917 H         1 PHE         0.0599
    125 H23        -3.9640    1.2241  -24.9111 H         1 PHE         0.0559
    126 H24        -7.9269    3.2358  -27.5897 H         1 ASP         0.1884
    127 H25        -8.7272    0.9102  -29.3012 H         1 ASP         0.0819
    128 H26        -7.4366    3.5774  -30.0514 H         1 ASP         0.0478
    129 H27        -9.1289    3.0801  -30.3915 H         1 ASP         0.0478
    130 H28        -7.2671   -0.7217  -29.0431 H         1 GLN         0.1883
    131 H29        -4.8419   -0.1298  -27.5727 H         1 GLN         0.0801
    132 H30        -6.0180   -2.2183  -27.1895 H         1 GLN         0.0337
    133 H31        -4.3529   -2.5388  -27.7822 H         1 GLN         0.0337
    134 H32        -5.4316   -4.0311  -29.0700 H         1 GLN         0.0504
    135 H33        -5.6645   -2.5925  -30.1201 H         1 GLN         0.0504
    136 H34        -8.8683   -4.6201  -29.0730 H         1 GLN         0.1814
    137 H35        -7.2523   -5.2116  -29.2700 H         1 GLN         0.1814
    138 H36        -5.5158   -0.0664  -30.9632 H         1 SER         0.1884
    139 H37        -2.8327   -0.8488  -31.7709 H         1 SER         0.0823
    140 H38        -3.4904   -0.1154  -33.9987 H         1 SER         0.0606
    141 H39        -4.9167    0.7508  -33.3339 H         1 SER         0.0606
    142 H40        -4.4464   -2.0549  -33.1928 H         1 SER         0.2097
    143 H41        -4.3959    2.1695  -30.8320 H         1 THR         0.1884
    144 H42        -1.8738    3.5984  -31.4946 H         1 THR         0.0826
    145 H43        -3.2745    5.6832  -31.4283 H         1 THR         0.0639
    146 H44        -5.5761    5.3172  -31.4223 H         1 THR         0.2101
    147 H45        -4.4801    5.2763  -33.5561 H         1 THR         0.0257
    148 H46        -4.3037    3.5043  -33.3211 H         1 THR         0.0257
    149 H47        -2.8489    4.5247  -33.5836 H         1 THR         0.0257
    150 H48        -3.5764    2.3170  -28.8878 H         1 ARG         0.1883
    151 H49        -3.8660    2.7702  -26.6801 H         1 ARG         0.0800
    152 H50        -1.9782    3.5276  -25.4287 H         1 ARG         0.0313
    153 H51        -1.2816    4.3640  -26.8577 H         1 ARG         0.0313
    154 H52        -0.4642    2.4200  -27.7706 H         1 ARG         0.0301
    155 H53        -1.8335    1.4298  -27.1612 H         1 ARG         0.0301
    156 H54        -0.9157    1.4692  -24.9266 H         1 ARG         0.0689
    157 H55         0.4087    2.5589  -25.4607 H         1 ARG         0.0689
    158 H56         0.2901    0.0053  -26.9191 H         1 ARG         0.2642
    159 H57         2.8195    0.7202  -23.8097 H         1 ARG         0.2615
    160 H58         1.4270    1.7970  -24.0997 H         1 ARG         0.2615
    161 H59         2.0707   -1.3889  -26.5720 H         1 ARG         0.2615
    162 H60         3.1859   -1.0807  -25.2141 H         1 ARG         0.2615
    163 H61        -5.1014    4.6356  -28.5423 H         1 ARG         0.1883
    164 H62        -5.2915    6.9682  -26.6971 H         1 ARG         0.0800
    165 H63        -5.9041    8.3689  -28.6662 H         1 ARG         0.0313
    166 H64        -5.5664    6.9739  -29.7463 H         1 ARG         0.0313
    167 H65        -3.6876    8.5122  -29.7762 H         1 ARG         0.0301
    168 H66        -3.2041    6.9814  -28.9701 H         1 ARG         0.0301
    169 H67        -2.3854    9.1014  -27.8367 H         1 ARG         0.0689
    170 H68        -3.3295    7.9908  -26.7869 H         1 ARG         0.0689
    171 H69        -4.9644    9.6198  -26.5426 H         1 ARG         0.2642
    172 H70        -3.5556   12.0994  -29.4418 H         1 ARG         0.2615
    173 H71        -2.8316   10.4796  -29.2545 H         1 ARG         0.2615
    174 H72        -5.8810   11.6524  -26.7947 H         1 ARG         0.2615
    175 H73        -5.2855   12.7531  -28.0662 H         1 ARG         0.2615
    176 H74        -7.3345    7.8463  -26.4360 H         1 LEU         0.1883
    177 H75        -9.6160    6.1343  -26.7063 H         1 LEU         0.0800
    178 H76       -10.9030    8.2464  -26.2376 H         1 LEU         0.0315
    179 H77        -9.3455    9.1395  -26.2924 H         1 LEU         0.0315
    180 H78        -8.5413    7.6469  -24.4104 H         1 LEU         0.0298
    181 H79        -9.7855    8.8543  -22.6340 H         1 LEU         0.0232
    182 H80       -11.0119    9.3686  -23.8414 H         1 LEU         0.0232
    183 H81        -9.3193    9.9550  -23.9748 H         1 LEU         0.0232
    184 H82       -10.1794    5.8294  -24.7922 H         1 LEU         0.0232
    185 H83       -11.5064    6.9292  -24.2863 H         1 LEU         0.0232
    186 H84       -10.2413    6.4459  -23.1062 H         1 LEU         0.0232
    187 H85       -10.9348    5.8180  -28.3538 H         1 LYS         0.1883
    188 H86       -10.6977    7.5421  -30.7854 H         1 LYS         0.0800
    189 H87       -11.6553    4.6570  -30.5741 H         1 LYS         0.0312
    190 H88        -9.9940    5.1548  -31.0421 H         1 LYS         0.0312
    191 H89       -10.9317    6.3453  -33.0017 H         1 LYS         0.0269
    192 H90       -12.5691    5.7636  -32.5466 H         1 LYS         0.0269
    193 H91       -10.1435    4.0474  -33.2572 H         1 LYS         0.0317
    194 H92       -11.6159    4.2988  -34.2550 H         1 LYS         0.0317
    195 H93       -11.5934    3.0626  -31.4623 H         1 LYS         0.0813
    196 H94       -11.5972    2.1263  -32.9952 H         1 LYS         0.0813
    197 H95       -13.8025    2.3749  -32.0893 H         1 LYS         0.1994
    198 H96       -13.6986    3.1589  -33.5328 H         1 LYS         0.1994
    199 H97       -13.6952    4.0169  -32.1280 H         1 LYS         0.1994
    200 H98       -12.4950    8.6524  -31.3663 H         1 CYS         0.1876
    201 H99       -14.8616    8.1489  -29.6153 H         1 CYS         0.0734
    202 H100      -15.1056   10.4985  -29.2579 H         1 CYS         0.0425
    203 H101      -13.8496   10.8806  -30.4840 H         1 CYS         0.0425
@<TRIPOS>BOND
     1    1    2 1  
     2    2    3 1  
     3    2    5 1  
     4    3    4 2  
     5    3    7 am 
     6    5    6 1  
     7    6  101 1  
     8    7    8 1  
     9    8    9 1  
    10    8   11 1  
    11    9   10 2  
    12    9   16 am 
    13   11   12 1  
    14   12   13 1  
    15   13   14 2  
    16   13   15 am 
    17   16   17 1  
    18   17   18 1  
    19   17   20 1  
    20   18   19 2  
    21   18   27 am 
    22   20   21 1  
    23   21   22 ar 
    24   21   23 ar 
    25   22   24 ar 
    26   23   25 ar 
    27   24   26 ar 
    28   25   26 ar 
    29   27   28 1  
    30   28   29 1  
    31   28   31 1  
    32   29   30 2  
    33   29   35 am 
    34   31   32 1  
    35   32   33 ar 
    36   32   34 ar 
    37   35   36 1  
    38   36   37 1  
    39   36   39 1  
    40   37   38 2  
    41   37   44 am 
    42   39   40 1  
    43   40   41 1  
    44   41   42 2  
    45   41   43 am 
    46   44   45 1  
    47   45   46 1  
    48   45   48 1  
    49   46   47 2  
    50   46   50 am 
    51   48   49 1  
    52   50   51 1  
    53   51   52 1  
    54   51   54 1  
    55   52   53 2  
    56   52   57 am 
    57   54   55 1  
    58   54   56 1  
    59   57   58 1  
    60   58   59 1  
    61   58   61 1  
    62   59   60 2  
    63   59   68 am 
    64   61   62 1  
    65   62   63 1  
    66   63   64 1  
    67   64   65 ar 
    68   65   66 ar 
    69   65   67 ar 
    70   68   69 1  
    71   69   70 1  
    72   69   72 1  
    73   70   71 2  
    74   70   79 am 
    75   72   73 1  
    76   73   74 1  
    77   74   75 1  
    78   75   76 ar 
    79   76   77 ar 
    80   76   78 ar 
    81   79   80 1  
    82   80   81 1  
    83   80   83 1  
    84   81   82 2  
    85   81   87 am 
    86   83   84 1  
    87   84   85 1  
    88   84   86 1  
    89   87   88 1  
    90   88   89 1  
    91   88   91 1  
    92   89   90 2  
    93   89   96 am 
    94   91   92 1  
    95   92   93 1  
    96   93   94 1  
    97   94   95 1  
    98   96   97 1  
    99   97   98 1  
   100   97  100 1  
   101   98   99 ar 
   102   98  102 ar 
   103  100  101 1  
   104    1  103 1  
   105    1  104 1  
   106    1  105 1  
   107    2  106 1  
   108    5  107 1  
   109    5  108 1  
   110    7  109 1  
   111    8  110 1  
   112   11  111 1  
   113   11  112 1  
   114   12  113 1  
   115   12  114 1  
   116   15  115 1  
   117   15  116 1  
   118   16  117 1  
   119   17  118 1  
   120   20  119 1  
   121   20  120 1  
   122   22  121 1  
   123   23  122 1  
   124   24  123 1  
   125   25  124 1  
   126   26  125 1  
   127   27  126 1  
   128   28  127 1  
   129   31  128 1  
   130   31  129 1  
   131   35  130 1  
   132   36  131 1  
   133   39  132 1  
   134   39  133 1  
   135   40  134 1  
   136   40  135 1  
   137   43  136 1  
   138   43  137 1  
   139   44  138 1  
   140   45  139 1  
   141   48  140 1  
   142   48  141 1  
   143   49  142 1  
   144   50  143 1  
   145   51  144 1  
   146   54  145 1  
   147   55  146 1  
   148   56  147 1  
   149   56  148 1  
   150   56  149 1  
   151   57  150 1  
   152   58  151 1  
   153   61  152 1  
   154   61  153 1  
   155   62  154 1  
   156   62  155 1  
   157   63  156 1  
   158   63  157 1  
   159   64  158 1  
   160   66  159 1  
   161   66  160 1  
   162   67  161 1  
   163   67  162 1  
   164   68  163 1  
   165   69  164 1  
   166   72  165 1  
   167   72  166 1  
   168   73  167 1  
   169   73  168 1  
   170   74  169 1  
   171   74  170 1  
   172   75  171 1  
   173   77  172 1  
   174   77  173 1  
   175   78  174 1  
   176   78  175 1  
   177   79  176 1  
   178   80  177 1  
   179   83  178 1  
   180   83  179 1  
   181   84  180 1  
   182   85  181 1  
   183   85  182 1  
   184   85  183 1  
   185   86  184 1  
   186   86  185 1  
   187   86  186 1  
   188   87  187 1  
   189   88  188 1  
   190   91  189 1  
   191   91  190 1  
   192   92  191 1  
   193   92  192 1  
   194   93  193 1  
   195   93  194 1  
   196   94  195 1  
   197   94  196 1  
   198   95  197 1  
   199   95  198 1  
   200   95  199 1  
   201   96  200 1  
   202   97  201 1  
   203  100  202 1  
   204  100  203 1  
@<TRIPOS>SUBSTRUCTURE
     1 CYS         1

