5xpo_ligand
  -I-interpret- 

 77 80  0  0  0  0  0  0  0  0999 V2000
    9.0490    0.0250   26.4350 O   0  0  0  0  0
    8.4500    0.5220   27.3880 C   0  0  0  0  0
    7.6340   -0.4130   28.2410 C   0  0  0  0  0
    7.6560   -1.8070   27.9560 C   0  0  0  0  0
    6.8640   -2.6920   28.6900 C   0  0  0  0  0
    6.0260   -2.2140   29.7200 C   0  0  0  0  0
    5.2050   -3.0810   30.4500 O   0  0  0  0  0
    6.0000   -0.8400   29.9680 C   0  0  0  0  0
    6.8100    0.0500   29.2350 C   0  0  0  0  0
    8.5590    2.0160   27.5520 C   0  0  0  0  0
    9.9200    2.3180   28.1770 C   0  0  0  0  0
   11.1050    2.1410   27.2310 C   0  0  0  0  0
   12.3340    2.7440   27.9050 C   0  0  0  0  0
   12.8650    1.8280   28.9940 C   0  0  0  0  0
   13.5350    3.1240   27.0590 C   0  0  0  0  0
   13.4670    4.5270   26.4310 C   0  0  0  0  0
   12.3600    4.7230   25.3720 C   0  0  0  0  0
   13.4100    5.6560   27.4210 C   0  0  0  0  0
   13.8150    6.9830   26.7670 C   0  0  0  0  0
   15.0130    6.9070   25.8060 C   0  0  0  0  0
   13.9910    2.2070   25.9250 C   0  0  0  0  0
   14.9310    3.0880   25.1010 C   0  0  0  0  0
   14.8210    4.4800   25.7470 C   0  0  0  0  0
   14.8880    5.7190   24.9190 C   0  0  0  0  0
   14.8420    5.7470   23.5690 C   0  0  0  0  0
   14.8820    7.0130   22.8520 C   0  0  0  0  0
   14.6940    7.1780   21.5290 C   0  0  0  0  0
   14.7740    8.6270   21.0440 C   0  0  0  0  0
   14.4100    6.0420   20.5820 C   0  0  0  0  0
   15.0990    6.2900   19.2500 C   0  0  0  0  0
   14.5890    5.2850   18.3700 O   0  0  0  0  0
   14.7520    7.6320   18.7520 C   0  0  0  0  0
   14.0100    7.7970   17.6550 C   0  0  0  0  0
   15.1630    8.8300   19.5690 C   0  0  0  0  0
   16.5360    9.1380   19.3890 O   0  0  0  0  0
    8.2956   -2.1865   27.1591 H   0  0  0  0  0
    6.8931   -3.7584   28.4662 H   0  0  0  0  0
    4.7115   -2.5789   31.1027 H   0  0  0  0  0
    5.3409   -0.4487   30.7430 H   0  0  0  0  0
    6.7815    1.1162   29.4599 H   0  0  0  0  0
    7.7579    2.3863   28.1916 H   0  0  0  0  0
    8.4680    2.5109   26.5851 H   0  0  0  0  0
   10.0581    1.6126   28.9964 H   0  0  0  0  0
    9.9068    3.3653   28.4790 H   0  0  0  0  0
   10.9099    2.6413   26.2824 H   0  0  0  0  0
   11.2682    1.0836   27.0227 H   0  0  0  0  0
   11.9120    3.6842   28.2599 H   0  0  0  0  0
   12.0925    1.6760   29.7478 H   0  0  0  0  0
   13.1418    0.8686   28.5570 H   0  0  0  0  0
   13.7405    2.2844   29.4559 H   0  0  0  0  0
   14.2649    3.0407   27.8643 H   0  0  0  0  0
   12.5162    4.0231   24.5511 H   0  0  0  0  0
   11.3868    4.5396   25.8273 H   0  0  0  0  0
   12.3985    5.7442   24.9928 H   0  0  0  0  0
   14.1026    5.4421   28.2350 H   0  0  0  0  0
   12.3883    5.7459   27.7899 H   0  0  0  0  0
   14.1075    7.6520   27.5763 H   0  0  0  0  0
   12.9611    7.3109   26.1742 H   0  0  0  0  0
   15.9311    6.8223   26.3874 H   0  0  0  0  0
   15.0357    7.8081   25.1932 H   0  0  0  0  0
   13.1558    1.8267   25.3368 H   0  0  0  0  0
   14.4815    1.3052   26.2915 H   0  0  0  0  0
   14.6554    3.1044   24.0466 H   0  0  0  0  0
   15.9545    2.7133   25.1105 H   0  0  0  0  0
   15.7231    4.5302   26.3567 H   0  0  0  0  0
   14.7743    4.8127   23.0116 H   0  0  0  0  0
   15.0824    7.9090   23.4395 H   0  0  0  0  0
   15.5581    9.1022   21.6335 H   0  0  0  0  0
   13.7714    9.0403   21.1538 H   0  0  0  0  0
   13.3343    5.9700   20.4211 H   0  0  0  0  0
   14.7860    5.1140   21.0126 H   0  0  0  0  0
   16.1850    6.2431   19.3302 H   0  0  0  0  0
   14.9887    5.3875   17.5032 H   0  0  0  0  0
   13.6469    6.9277   17.1068 H   0  0  0  0  0
   13.7671    8.8011   17.3072 H   0  0  0  0  0
   14.6181    9.7041   19.2124 H   0  0  0  0  0
   16.7170    9.2527   18.4532 H   0  0  0  0  0
  1  2  2  0  0  0
  2  3  1  0  0  0
  2 10  1  0  0  0
  3  4  4  0  0  0
  3  9  4  0  0  0
  4  5  4  0  0  0
  5  6  4  0  0  0
  6  7  1  0  0  0
  6  8  4  0  0  0
  8  9  4  0  0  0
 10 11  1  0  0  0
 11 12  1  0  0  0
 12 13  1  0  0  0
 13 14  1  0  0  0
 13 15  1  0  0  0
 15 16  1  0  0  0
 15 21  1  0  0  0
 16 17  1  0  0  0
 16 18  1  0  0  0
 16 23  1  0  0  0
 18 19  1  0  0  0
 19 20  1  0  0  0
 20 24  1  0  0  0
 21 22  1  0  0  0
 22 23  1  0  0  0
 23 24  1  0  0  0
 24 25  2  0  0  0
 25 26  1  0  0  0
 26 27  2  0  0  0
 27 28  1  0  0  0
 27 29  1  0  0  0
 28 34  1  0  0  0
 29 30  1  0  0  0
 30 31  1  0  0  0
 30 32  1  0  0  0
 32 33  2  0  0  0
 32 34  1  0  0  0
 34 35  1  0  0  0
  4 36  1  0  0  0
  5 37  1  0  0  0
  7 38  1  0  0  0
  8 39  1  0  0  0
  9 40  1  0  0  0
 10 41  1  0  0  0
 10 42  1  0  0  0
 11 43  1  0  0  0
 11 44  1  0  0  0
 12 45  1  0  0  0
 12 46  1  0  0  0
 13 47  1  0  0  0
 14 48  1  0  0  0
 14 49  1  0  0  0
 14 50  1  0  0  0
 15 51  1  0  0  0
 17 52  1  0  0  0
 17 53  1  0  0  0
 17 54  1  0  0  0
 18 55  1  0  0  0
 18 56  1  0  0  0
 19 57  1  0  0  0
 19 58  1  0  0  0
 20 59  1  0  0  0
 20 60  1  0  0  0
 21 61  1  0  0  0
 21 62  1  0  0  0
 22 63  1  0  0  0
 22 64  1  0  0  0
 23 65  1  0  0  0
 25 66  1  0  0  0
 26 67  1  0  0  0
 28 68  1  0  0  0
 28 69  1  0  0  0
 29 70  1  0  0  0
 29 71  1  0  0  0
 30 72  1  0  0  0
 31 73  1  0  0  0
 33 74  1  0  0  0
 33 75  1  0  0  0
 34 76  1  0  0  0
 35 77  1  0  0  0
M  END
$$$$
