6dh5_ligand
  -I-interpret- 

 94 97  0  0  0  0  0  0  0  0999 V2000
   65.4120   51.6760   12.7160 N   0  3  0  0  0
   66.3660   52.3300   13.5790 C   0  0  0  0  0
   66.1450   53.8080   13.9900 C   0  0  0  0  0
   67.1490   54.5130   14.8990 C   0  0  0  0  0
   68.3790   53.7480   15.4150 C   0  0  0  0  0
   68.6090   52.2810   15.0070 C   0  0  0  0  0
   67.5940   51.5710   14.0860 C   0  0  0  0  0
   69.5930   54.6110   16.4990 S   0  0  0  0  0
   68.9990   55.7040   17.2620 O   0  0  0  0  0
   70.1060   53.7440   17.5470 O   0  0  0  0  0
   70.8320   55.1730   15.4550 N   0  0  0  0  0
   71.5170   54.1260   14.6850 C   0  0  0  0  0
   73.0920   54.3700   14.6700 C   0  0  0  0  0
   73.6230   54.2760   16.1320 C   0  0  0  0  0
   73.7420   53.3350   13.7170 C   0  0  0  0  0
   70.5710   56.4890   14.7710 C   0  0  0  0  0
   71.5220   57.5930   15.3510 C   0  0  0  0  0
   73.7060   51.8870   14.3000 C   0  0  0  0  0
   71.4860   58.7070   14.5380 O   0  0  0  0  0
   71.1110   57.9780   16.7720 C   0  0  0  0  0
   75.1330   54.5860   16.1960 C   0  0  0  0  0
   72.0860   58.9560   17.2920 N   0  0  0  0  0
   73.1900   58.5600   18.2170 C   0  0  0  0  0
   73.2080   57.4960   18.7370 O   0  0  0  0  0
   74.2180   59.5300   18.4370 O   0  0  0  0  0
   74.9950   59.4470   19.7320 C   0  0  0  0  0
   76.1740   59.8320   19.4850 C   0  0  0  0  0
   76.0370   61.4680   19.4040 O   0  0  0  0  0
   75.1710   61.8070   20.3040 C   0  0  0  0  0
   74.0090   62.7000   19.7080 O   0  0  0  0  0
   72.9570   61.9190   19.6100 C   0  0  0  0  0
   73.1690   60.7280   20.6960 C   0  0  0  0  0
   74.4970   60.5060   20.7650 C   0  0  0  0  0
   69.7660   58.6620   16.8250 C   0  0  0  0  0
   69.7500   60.6300   18.6450 C   0  0  0  0  0
   69.5440   61.1070   20.0990 C   0  0  0  0  0
   69.1380   60.0860   21.2000 C   0  0  0  0  0
   68.9430   58.6010   20.8430 C   0  0  0  0  0
   69.1480   58.1260   19.3880 C   0  0  0  0  0
   69.5530   59.1470   18.2870 C   0  0  0  0  0
   64.6651   52.3293   12.4800 H   0  0  0  0  0
   65.8805   51.3707   11.8629 H   0  0  0  0  0
   65.0185   50.8673   13.1973 H   0  0  0  0  0
   66.6144   51.3248   13.9195 H   0  0  0  0  0
   65.2214   53.7922   14.5687 H   0  0  0  0  0
   66.1964   54.3599   13.0515 H   0  0  0  0  0
   66.5816   54.7583   15.7968 H   0  0  0  0  0
   67.5612   55.3133   14.2844 H   0  0  0  0  0
   67.9165   53.0162   16.0774 H   0  0  0  0  0
   68.5630   51.7260   15.9440 H   0  0  0  0  0
   69.5346   52.2990   14.4316 H   0  0  0  0  0
   68.1605   51.3337   13.1855 H   0  0  0  0  0
   67.1856   50.7663   14.6973 H   0  0  0  0  0
   71.1490   54.1476   13.6592 H   0  0  0  0  0
   71.3161   53.1607   15.1497 H   0  0  0  0  0
   73.3484   55.3611   14.2958 H   0  0  0  0  0
   73.4594   53.2623   16.4978 H   0  0  0  0  0
   73.0912   55.0049   16.7436 H   0  0  0  0  0
   74.7855   53.6159   13.5742 H   0  0  0  0  0
   73.1808   53.3370   12.7826 H   0  0  0  0  0
   69.5352   56.7824   14.9414 H   0  0  0  0  0
   70.7570   56.3808   13.7024 H   0  0  0  0  0
   72.5355   57.1933   15.3841 H   0  0  0  0  0
   74.2487   51.8636   15.2450 H   0  0  0  0  0
   72.6707   51.5894   14.4666 H   0  0  0  0  0
   74.1736   51.2007   13.5940 H   0  0  0  0  0
   72.0687   59.3812   14.8950 H   0  0  0  0  0
   71.0696   57.0554   17.3510 H   0  0  0  0  0
   75.6762   53.8689   15.5805 H   0  0  0  0  0
   75.3116   55.5949   15.8239 H   0  0  0  0  0
   75.4743   54.5125   17.2286 H   0  0  0  0  0
   72.0035   59.9331   17.0110 H   0  0  0  0  0
   74.8975   58.4307   20.1137 H   0  0  0  0  0
   76.5694   59.4007   18.5654 H   0  0  0  0  0
   76.8856   59.5103   20.2454 H   0  0  0  0  0
   75.6842   62.3612   21.0899 H   0  0  0  0  0
   72.8602   61.5169   18.6015 H   0  0  0  0  0
   72.0389   62.4717   19.8090 H   0  0  0  0  0
   72.6372   59.8255   20.3947 H   0  0  0  0  0
   72.7692   61.0115   21.6696 H   0  0  0  0  0
   74.7241   60.1729   21.7777 H   0  0  0  0  0
   68.9739   57.9738   16.5300 H   0  0  0  0  0
   69.7364   59.5040   16.1335 H   0  0  0  0  0
   70.8036   60.8218   18.4419 H   0  0  0  0  0
   68.9814   61.1523   18.0753 H   0  0  0  0  0
   68.7027   61.7978   20.0434 H   0  0  0  0  0
   70.5244   61.4684   20.4095 H   0  0  0  0  0
   68.1529   60.4179   21.5280 H   0  0  0  0  0
   69.9766   60.0899   21.8963 H   0  0  0  0  0
   67.8904   58.4063   21.0484 H   0  0  0  0  0
   69.7129   58.0797   21.4119 H   0  0  0  0  0
   68.1671   57.7655   19.0781 H   0  0  0  0  0
   69.9897   57.4356   19.4426 H   0  0  0  0  0
   68.7592   59.8894   18.2040 H   0  0  0  0  0
  2  1  1  0  0  0
  3  2  1  0  0  0
  7  2  1  0  0  0
  4  3  1  0  0  0
  5  4  1  0  0  0
  5  6  1  0  0  0
  8  5  1  0  0  0
  6  7  1  0  0  0
  8  9  2  0  0  0
  8 10  2  0  0  0
 11  8  1  0  0  0
 11 12  1  0  0  0
 16 11  1  0  0  0
 12 13  1  0  0  0
 13 14  1  0  0  0
 13 15  1  0  0  0
 14 21  1  0  0  0
 15 18  1  0  0  0
 17 16  1  0  0  0
 17 19  1  0  0  0
 20 17  1  0  0  0
 20 22  1  0  0  0
 34 20  1  0  0  0
 22 23  1  0  0  0
 23 24  2  0  0  0
 23 25  1  0  0  0
 25 26  1  0  0  0
 26 27  1  0  0  0
 26 33  1  0  0  0
 27 28  1  0  0  0
 29 28  1  0  0  0
 29 30  1  0  0  0
 33 29  1  0  0  0
 31 30  1  0  0  0
 32 31  1  0  0  0
 33 32  1  0  0  0
 40 34  1  0  0  0
 35 36  1  0  0  0
 35 40  1  0  0  0
 36 37  1  0  0  0
 37 38  1  0  0  0
 38 39  1  0  0  0
 39 40  1  0  0  0
  1 41  1  0  0  0
  1 42  1  0  0  0
  1 43  1  0  0  0
  2 44  1  0  0  0
  3 45  1  0  0  0
  3 46  1  0  0  0
  4 47  1  0  0  0
  4 48  1  0  0  0
  5 49  1  0  0  0
  6 50  1  0  0  0
  6 51  1  0  0  0
  7 52  1  0  0  0
  7 53  1  0  0  0
 12 54  1  0  0  0
 12 55  1  0  0  0
 13 56  1  0  0  0
 14 57  1  0  0  0
 14 58  1  0  0  0
 15 59  1  0  0  0
 15 60  1  0  0  0
 16 61  1  0  0  0
 16 62  1  0  0  0
 17 63  1  0  0  0
 18 64  1  0  0  0
 18 65  1  0  0  0
 18 66  1  0  0  0
 19 67  1  0  0  0
 20 68  1  0  0  0
 21 69  1  0  0  0
 21 70  1  0  0  0
 21 71  1  0  0  0
 22 72  1  0  0  0
 26 73  1  0  0  0
 27 74  1  0  0  0
 27 75  1  0  0  0
 29 76  1  0  0  0
 31 77  1  0  0  0
 31 78  1  0  0  0
 32 79  1  0  0  0
 32 80  1  0  0  0
 33 81  1  0  0  0
 34 82  1  0  0  0
 34 83  1  0  0  0
 35 84  1  0  0  0
 35 85  1  0  0  0
 36 86  1  0  0  0
 36 87  1  0  0  0
 37 88  1  0  0  0
 37 89  1  0  0  0
 38 90  1  0  0  0
 38 91  1  0  0  0
 39 92  1  0  0  0
 39 93  1  0  0  0
 40 94  1  0  0  0
M  END
$$$$
