6ps4_ligand
  -I-interpret- 

 48 49  0  0  0  0  0  0  0  0999 V2000
    1.5890   -0.2440   51.0000 C   0  0  0  0  0
    2.8180    7.7520   51.9140 N   0  3  0  0  0
    3.1110    3.9060   49.3280 O   0  0  0  0  0
    2.2640    0.6430   52.0440 C   0  0  0  0  0
    3.6420    7.3700   49.4260 O   0  0  0  0  0
    3.0620    1.6760   51.2470 C   0  0  0  0  0
    2.2210    1.8150   50.0090 C   0  0  0  0  0
    1.3820    0.7180   49.8600 C   0  0  0  0  0
    0.4820    0.6400   48.7620 C   0  0  0  0  0
   -0.4700   -0.5110   48.5760 C   0  0  0  0  0
    0.4600    1.7010   47.8320 C   0  0  0  0  0
    1.2900    2.8120   47.9890 C   0  0  0  0  0
    2.1840    2.8810   49.0900 C   0  0  0  0  0
    2.7220    5.2440   49.0040 C   0  0  0  0  0
    3.3580    6.1350   50.0700 C   0  0  0  0  0
    2.6070    6.3280   51.4220 C   0  0  0  0  0
    1.0990    6.0300   51.3880 C   0  0  0  0  0
    2.9010    8.0840   53.3900 C   0  0  0  0  0
    3.9640    9.1740   53.5600 C   0  0  0  0  0
    1.5470    8.6530   53.8290 C   0  0  0  0  0
    0.6644   -0.7004   51.3535 H   0  0  0  0  0
    2.1816   -1.1170   50.7265 H   0  0  0  0  0
    1.9781    8.2408   51.6040 H   0  0  0  0  0
    3.7434    7.9944   51.5602 H   0  0  0  0  0
    2.9085    0.0631   52.7046 H   0  0  0  0  0
    1.5325    1.1198   52.6965 H   0  0  0  0  0
    4.0461    7.9721   50.0551 H   0  0  0  0  0
    4.0891    1.3722   51.0447 H   0  0  0  0  0
    3.2135    2.6152   51.7790 H   0  0  0  0  0
    0.0960   -1.4383   48.4871 H   0  0  0  0  0
   -1.1368   -0.5719   49.4361 H   0  0  0  0  0
   -1.0561   -0.3534   47.6706 H   0  0  0  0  0
   -0.2155    1.6522   46.9780 H   0  0  0  0  0
    1.2519    3.6270   47.2662 H   0  0  0  0  0
    1.6372    5.3496   48.9960 H   0  0  0  0  0
    3.0568    5.5223   48.0047 H   0  0  0  0  0
    4.2455    5.6145   50.4300 H   0  0  0  0  0
    3.0373    5.5893   52.0983 H   0  0  0  0  0
    0.6154    6.6913   50.6690 H   0  0  0  0  0
    0.9415    4.9927   51.0926 H   0  0  0  0  0
    0.6748    6.1955   52.3783 H   0  0  0  0  0
    3.1505    7.2017   53.9793 H   0  0  0  0  0
    3.7031   10.0336   52.9427 H   0  0  0  0  0
    4.0083    9.4765   54.6063 H   0  0  0  0  0
    4.9343    8.7847   53.2516 H   0  0  0  0  0
    1.6041    8.9582   54.8738 H   0  0  0  0  0
    1.2989    9.5154   53.2103 H   0  0  0  0  0
    0.7786    7.8886   53.7140 H   0  0  0  0  0
  1  4  1  0  0  0
  8  1  1  0  0  0
 16  2  1  0  0  0
  2 18  1  0  0  0
  3 13  1  0  0  0
 14  3  1  0  0  0
  6  4  1  0  0  0
 15  5  1  0  0  0
  7  6  1  0  0  0
  7  8  4  0  0  0
 13  7  4  0  0  0
  8  9  4  0  0  0
  9 10  1  0  0  0
 11  9  4  0  0  0
 12 11  4  0  0  0
 13 12  4  0  0  0
 15 14  1  0  0  0
 15 16  1  0  0  0
 16 17  1  0  0  0
 18 19  1  0  0  0
 18 20  1  0  0  0
  1 21  1  0  0  0
  1 22  1  0  0  0
  2 23  1  0  0  0
  2 24  1  0  0  0
  4 25  1  0  0  0
  4 26  1  0  0  0
  5 27  1  0  0  0
  6 28  1  0  0  0
  6 29  1  0  0  0
 10 30  1  0  0  0
 10 31  1  0  0  0
 10 32  1  0  0  0
 11 33  1  0  0  0
 12 34  1  0  0  0
 14 35  1  0  0  0
 14 36  1  0  0  0
 15 37  1  0  0  0
 16 38  1  0  0  0
 17 39  1  0  0  0
 17 40  1  0  0  0
 17 41  1  0  0  0
 18 42  1  0  0  0
 19 43  1  0  0  0
 19 44  1  0  0  0
 19 45  1  0  0  0
 20 46  1  0  0  0
 20 47  1  0  0  0
 20 48  1  0  0  0
M  END
$$$$
