6b1h_ligand
  -I-interpret- 

 28 28  0  0  0  0  0  0  0  0999 V2000
    9.1740   -2.9630    1.1090 O   0  0  0  0  0
    9.3000   -1.6790    0.5040 S   0  0  0  0  0
    8.2010   -1.4320   -0.3160 O   0  0  0  0  0
    9.2470   -0.5490    1.4520 O   0  0  0  0  0
   10.6840   -1.6430   -0.1650 O   0  0  0  0  0
   10.9270   -2.6050   -1.2040 N   0  3  0  0  0
   11.5270   -2.0690   -2.4760 C   0  0  0  0  0
   12.7130   -1.1080   -2.2140 C   0  0  0  0  0
   12.4100    0.4160   -2.0370 C   0  0  0  0  0
   11.4760    0.8940   -3.1020 C   0  0  0  0  0
   12.1310    0.8650   -4.4000 C   0  0  0  0  0
   12.6300    0.8390   -5.3980 N   0  0  0  0  0
   10.3350   -0.0260   -3.1590 N   0  0  0  0  0
    9.0900    0.4750   -2.9770 C   0  0  0  0  0
    8.8000    1.4590   -2.3130 O   0  0  0  0  0
   10.5390   -1.4740   -3.4010 C   0  0  0  0  0
    9.3383    0.2762    0.9700 H   0  0  0  0  0
   10.0162   -2.9880   -1.4572 H   0  0  0  0  0
   11.6037   -3.2682   -0.8264 H   0  0  0  0  0
   11.9232   -2.9463   -2.9873 H   0  0  0  0  0
   13.3366   -1.1738   -3.1055 H   0  0  0  0  0
   13.1352   -1.4280   -1.2614 H   0  0  0  0  0
   13.3442    0.9727   -2.1107 H   0  0  0  0  0
   11.9456    0.5730   -1.0635 H   0  0  0  0  0
   11.1629    1.9123   -2.8713 H   0  0  0  0  0
    8.2700   -0.0484   -3.4687 H   0  0  0  0  0
    9.5856   -1.9786   -3.2447 H   0  0  0  0  0
   10.9140   -1.5955   -4.4172 H   0  0  0  0  0
  1  2  2  0  0  0
  2  3  2  0  0  0
  2  4  1  0  0  0
  2  5  1  0  0  0
  5  6  1  0  0  0
  6  7  1  0  0  0
  7  8  1  0  0  0
  7 16  1  0  0  0
  8  9  1  0  0  0
  9 10  1  0  0  0
 10 11  1  0  0  0
 10 13  1  0  0  0
 11 12  3  0  0  0
 13 14  1  0  0  0
 13 16  1  0  0  0
 14 15  2  0  0  0
  4 17  1  0  0  0
  6 18  1  0  0  0
  6 19  1  0  0  0
  7 20  1  0  0  0
  8 21  1  0  0  0
  8 22  1  0  0  0
  9 23  1  0  0  0
  9 24  1  0  0  0
 10 25  1  0  0  0
 14 26  1  0  0  0
 16 27  1  0  0  0
 16 28  1  0  0  0
M  END
$$$$
