3oyq_ligand
  -I-interpret- 

 39 39  0  0  0  0  0  0  0  0999 V2000
   -0.2910   10.2450   14.9080 C   0  0  0  0  0
    0.3270    8.1210   13.1670 C   0  0  0  0  0
   -5.3460   -0.4520   16.0600 N   0  0  0  0  0
   -4.7630    6.7140   13.0320 O   0  0  0  0  0
   -5.3770    1.2400   18.0450 O   0  0  0  0  0
   -7.3160    1.1810   16.5400 O   0  0  0  0  0
   -5.1920    4.4030   14.5200 C   0  0  0  0  0
   -3.1020    3.2280   14.7680 C   0  0  0  0  0
   -5.8370    3.3890   15.2430 C   0  0  0  0  0
   -3.7260    2.2440   15.4980 C   0  0  0  0  0
   -0.9520    8.9190   15.0920 C   0  0  0  0  0
   -2.6310    7.3190   12.2220 C   0  0  0  0  0
   -2.0520    8.4300   13.0060 C   0  0  0  0  0
   -3.0400    5.2590   13.5640 N   0  0  0  0  0
   -3.5750    6.4350   12.9590 C   0  0  0  0  0
   -3.8170    4.3070   14.2930 C   0  0  0  0  0
   -5.0920    2.2980   15.7430 C   0  0  0  0  0
   -0.9620    8.0160   13.9160 C   0  0  0  0  0
   -5.8440    0.9830   16.6910 S   0  0  0  0  0
    0.7543   10.0942   14.6385 H   0  0  0  0  0
   -0.7966   10.7945   14.1140 H   0  0  0  0  0
   -0.3499   10.8110   15.8377 H   0  0  0  0  0
    0.4651    9.1471   12.8261 H   0  0  0  0  0
    1.1509    7.8408   13.8233 H   0  0  0  0  0
    0.3018    7.4514   12.3073 H   0  0  0  0  0
   -4.7586   -1.0760   16.6132 H   0  0  0  0  0
   -5.6246   -0.7179   15.1155 H   0  0  0  0  0
   -5.7562    5.2548   14.1402 H   0  0  0  0  0
   -2.0339    3.1545   14.5632 H   0  0  0  0  0
   -6.9114    3.4427   15.4188 H   0  0  0  0  0
   -3.1414    1.4113   15.8892 H   0  0  0  0  0
   -1.9969    9.1314   15.3184 H   0  0  0  0  0
   -0.3824    8.4024   15.8645 H   0  0  0  0  0
   -1.7959    6.6904   11.9127 H   0  0  0  0  0
   -3.2018    7.7755   11.4134 H   0  0  0  0  0
   -2.8505    8.8425   13.6227 H   0  0  0  0  0
   -1.6298    9.1420   12.2968 H   0  0  0  0  0
   -2.0390    5.0868   13.4702 H   0  0  0  0  0
   -1.1032    6.9918   14.2612 H   0  0  0  0  0
 11  1  1  0  0  0
 18  2  1  0  0  0
 19  3  1  0  0  0
 15  4  2  0  0  0
 19  5  2  0  0  0
 19  6  2  0  0  0
  9  7  4  0  0  0
  7 16  4  0  0  0
 10  8  4  0  0  0
  8 16  4  0  0  0
 17  9  4  0  0  0
 17 10  4  0  0  0
 18 11  1  0  0  0
 12 13  1  0  0  0
 15 12  1  0  0  0
 13 18  1  0  0  0
 14 15  1  0  0  0
 16 14  1  0  0  0
 17 19  1  0  0  0
  1 20  1  0  0  0
  1 21  1  0  0  0
  1 22  1  0  0  0
  2 23  1  0  0  0
  2 24  1  0  0  0
  2 25  1  0  0  0
  3 26  1  0  0  0
  3 27  1  0  0  0
  7 28  1  0  0  0
  8 29  1  0  0  0
  9 30  1  0  0  0
 10 31  1  0  0  0
 11 32  1  0  0  0
 11 33  1  0  0  0
 12 34  1  0  0  0
 12 35  1  0  0  0
 13 36  1  0  0  0
 13 37  1  0  0  0
 14 38  1  0  0  0
 18 39  1  0  0  0
M  END
$$$$
