4oho_ligand
  -I-interpret- 

 52 54  0  0  0  0  0  0  0  0999 V2000
   44.6010  -20.8990  -15.5290 C   0  0  0  0  0
   45.2760  -19.7130  -15.7530 C   0  0  0  0  0
   45.0620  -18.6700  -14.8840 C   0  0  0  0  0
   45.7030  -17.5230  -15.0590 N   0  0  0  0  0
   44.2250  -18.8150  -13.8280 N   0  0  0  0  0
   43.5680  -19.9270  -13.5860 C   0  0  0  0  0
   43.7330  -20.9970  -14.4420 C   0  0  0  0  0
   42.8310  -22.4490  -14.1510 S   0  0  0  0  0
   42.4910  -22.5300  -12.7160 O   0  0  0  0  0
   43.6780  -23.5980  -14.5690 O   0  0  0  0  0
   41.4470  -22.3850  -14.9290 N   0  0  0  0  0
   40.8640  -21.0630  -14.7090 C   0  0  0  0  0
   39.4890  -20.9720  -15.4040 C   0  0  0  0  0
   38.5500  -21.8820  -14.6810 C   0  0  0  0  0
   37.7580  -22.6840  -14.2190 C   0  0  0  0  0
   36.9090  -23.7100  -13.6130 C   0  0  0  0  0
   41.7080  -22.6040  -16.3310 C   0  0  0  0  0
   40.3800  -22.6630  -17.0680 C   0  0  0  0  0
   39.5450  -21.4960  -16.7650 N   0  0  0  0  0
   38.5700  -21.1010  -17.6490 C   0  0  0  0  0
   38.5490  -21.5070  -18.9720 C   0  0  0  0  0
   37.5490  -21.0810  -19.8370 C   0  0  0  0  0
   37.5400  -20.3150  -17.1900 C   0  0  0  0  0
   36.5350  -19.9060  -18.0540 C   0  0  0  0  0
   36.5310  -20.2740  -19.3690 C   0  0  0  0  0
   35.2470  -19.7270  -20.3750 S   0  0  0  0  0
   35.2100  -20.6820  -21.9290 C   0  0  0  0  0
   34.0030  -20.7000  -22.6340 F   0  0  0  0  0
   35.5250  -21.9830  -21.7170 F   0  0  0  0  0
   36.2150  -20.0000  -22.5170 F   0  0  0  0  0
   33.9700  -20.0350  -19.6770 O   0  0  0  0  0
   35.2930  -18.1450  -20.6580 N   0  0  0  0  0
   44.7460  -21.7490  -16.1957 H   0  0  0  0  0
   45.9592  -19.6083  -16.5958 H   0  0  0  0  0
   46.3535  -17.4159  -15.8373 H   0  0  0  0  0
   45.5458  -16.7475  -14.4153 H   0  0  0  0  0
   42.9045  -20.0030  -12.7245 H   0  0  0  0  0
   41.5273  -20.3043  -15.1243 H   0  0  0  0  0
   40.7370  -20.9000  -13.6388 H   0  0  0  0  0
   39.1826  -19.9260  -15.4057 H   0  0  0  0  0
   37.1831  -24.6875  -14.0098 H   0  0  0  0  0
   37.0484  -23.7032  -12.5320 H   0  0  0  0  0
   35.8652  -23.5010  -13.8473 H   0  0  0  0  0
   42.2493  -23.5405  -16.4659 H   0  0  0  0  0
   42.3163  -21.7907  -16.7267 H   0  0  0  0  0
   39.8483  -23.5599  -16.7503 H   0  0  0  0  0
   40.5799  -22.6757  -18.1394 H   0  0  0  0  0
   39.3299  -22.1719  -19.3412 H   0  0  0  0  0
   37.5679  -21.3835  -20.8840 H   0  0  0  0  0
   37.5129  -20.0120  -16.1433 H   0  0  0  0  0
   35.7301  -19.2765  -17.6747 H   0  0  0  0  0
   34.5180  -17.5513  -20.3625 H   0  0  0  0  0
  1  2  4  0  0  0
  1  7  4  0  0  0
  2  3  4  0  0  0
  3  4  1  0  0  0
  3  5  4  0  0  0
  5  6  4  0  0  0
  6  7  4  0  0  0
  7  8  1  0  0  0
  8  9  2  0  0  0
  8 10  2  0  0  0
  8 11  1  0  0  0
 11 12  1  0  0  0
 11 17  1  0  0  0
 12 13  1  0  0  0
 13 14  1  0  0  0
 13 19  1  0  0  0
 14 15  3  0  0  0
 15 16  1  0  0  0
 17 18  1  0  0  0
 18 19  1  0  0  0
 19 20  1  0  0  0
 20 21  4  0  0  0
 20 23  4  0  0  0
 21 22  4  0  0  0
 22 25  4  0  0  0
 23 24  4  0  0  0
 24 25  4  0  0  0
 25 26  1  0  0  0
 26 27  1  0  0  0
 26 31  2  0  0  0
 26 32  2  0  0  0
 27 28  1  0  0  0
 27 29  1  0  0  0
 27 30  1  0  0  0
  1 33  1  0  0  0
  2 34  1  0  0  0
  4 35  1  0  0  0
  4 36  1  0  0  0
  6 37  1  0  0  0
 12 38  1  0  0  0
 12 39  1  0  0  0
 13 40  1  0  0  0
 16 41  1  0  0  0
 16 42  1  0  0  0
 16 43  1  0  0  0
 17 44  1  0  0  0
 17 45  1  0  0  0
 18 46  1  0  0  0
 18 47  1  0  0  0
 21 48  1  0  0  0
 22 49  1  0  0  0
 23 50  1  0  0  0
 24 51  1  0  0  0
 32 52  1  0  0  0
M  END
$$$$
