5v9t_ligand
  -I-interpret- 

 42 44  0  0  0  0  0  0  0  0999 V2000
  -49.4670   47.0340   14.7760 C   0  0  0  0  0
  -48.7560   42.8880   18.9850 C   0  0  0  0  0
  -49.6030   46.2520   15.9160 C   0  0  0  0  0
  -50.8740   45.6750   15.8430 C   0  0  0  0  0
  -51.5260   44.7030   16.8510 C   0  0  0  0  0
  -49.1420   44.0800   18.0020 C   0  0  0  0  0
  -48.7040   49.3440   14.1070 C   0  0  0  0  0
  -47.7080   47.2770   13.0470 C   0  0  0  0  0
  -49.8380   42.7060   19.7060 C   0  0  0  0  0
  -51.1500   43.1100   18.7280 C   0  0  0  0  0
  -49.4580   43.0060   22.1590 C   0  0  0  0  0
  -48.2650   47.8860   14.3470 C   0  0  0  0  0
  -49.4620   43.7970   23.4630 C   0  0  0  0  0
  -48.6920   43.1420   24.6120 C   0  0  0  0  0
  -48.1010   44.3490   23.8850 C   0  0  0  0  0
  -50.7100   43.9810   17.8240 N   0  0  0  0  0
  -49.8650   43.5840   20.8850 N   0  0  0  0  0
  -51.4410   46.0890   14.7160 N   0  0  0  0  0
  -50.5750   46.9250   14.0650 N   0  0  0  0  0
  -52.6890   44.5030   16.8420 O   0  0  0  0  0
  -49.0970   41.8890   22.1950 O   0  0  0  0  0
  -47.8864   43.1242   19.5983 H   0  0  0  0  0
  -48.4631   41.9871   18.4459 H   0  0  0  0  0
  -48.8667   46.1158   16.7081 H   0  0  0  0  0
  -48.6233   43.9970   17.0469 H   0  0  0  0  0
  -48.8440   45.0471   18.4070 H   0  0  0  0  0
  -47.8468   49.9305   13.7764 H   0  0  0  0  0
  -49.4790   49.3673   13.3409 H   0  0  0  0  0
  -49.0956   49.7616   15.0346 H   0  0  0  0  0
  -48.4807   47.2955   12.2784 H   0  0  0  0  0
  -46.8484   47.8587   12.7139 H   0  0  0  0  0
  -47.4020   46.2473   13.2317 H   0  0  0  0  0
  -49.8670   41.6730   20.0528 H   0  0  0  0  0
  -51.9535   43.5450   19.3223 H   0  0  0  0  0
  -51.5554   42.2226   18.2420 H   0  0  0  0  0
  -47.5019   47.8912   15.1253 H   0  0  0  0  0
  -50.4608   44.2157   23.3400 H   0  0  0  0  0
  -48.3836   42.1449   24.9263 H   0  0  0  0  0
  -48.8736   42.8115   25.6347 H   0  0  0  0  0
  -47.6504   45.3105   24.1312 H   0  0  0  0  0
  -47.1592   44.6423   23.4212 H   0  0  0  0  0
  -50.1570   44.5587   20.8139 H   0  0  0  0  0
  3  1  4  0  0  0
  1 12  1  0  0  0
  1 19  4  0  0  0
  2  6  1  0  0  0
  9  2  1  0  0  0
  4  3  4  0  0  0
  5  4  1  0  0  0
  4 18  4  0  0  0
 16  5  1  0  0  0
  5 20  2  0  0  0
 16  6  1  0  0  0
 12  7  1  0  0  0
 12  8  1  0  0  0
  9 10  1  0  0  0
 17  9  1  0  0  0
 10 16  1  0  0  0
 11 13  1  0  0  0
 11 17  1  0  0  0
 11 21  2  0  0  0
 13 14  1  0  0  0
 13 15  1  0  0  0
 14 15  1  0  0  0
 18 19  4  0  0  0
  2 22  1  0  0  0
  2 23  1  0  0  0
  3 24  1  0  0  0
  6 25  1  0  0  0
  6 26  1  0  0  0
  7 27  1  0  0  0
  7 28  1  0  0  0
  7 29  1  0  0  0
  8 30  1  0  0  0
  8 31  1  0  0  0
  8 32  1  0  0  0
  9 33  1  0  0  0
 10 34  1  0  0  0
 10 35  1  0  0  0
 12 36  1  0  0  0
 13 37  1  0  0  0
 14 38  1  0  0  0
 14 39  1  0  0  0
 15 40  1  0  0  0
 15 41  1  0  0  0
 17 42  1  0  0  0
M  END
$$$$
