4rse_ligand
  -I-interpret- 

 52 53  0  0  0  0  0  0  0  0999 V2000
  -35.5600  133.6960    9.1730 O   0  0  0  0  0
  -36.7100  132.9970    9.6350 C   0  0  0  0  0
  -37.2450  132.2400    8.4230 C   0  0  0  0  0
  -36.2850  131.1420    7.9850 C   0  0  0  0  0
  -35.1080  131.5750    7.2280 N   0  3  0  0  0
  -37.6960  133.9690   10.2500 C   0  0  0  0  0
  -37.9300  133.9630   11.6150 C   0  0  0  0  0
  -38.8280  134.8490   12.1840 C   0  0  0  0  0
  -39.5060  135.7660   11.3980 C   0  0  0  0  0
  -38.3610  134.9000    9.4600 C   0  0  0  0  0
  -39.2500  135.7960   10.0340 C   0  0  0  0  0
  -39.7570  136.6870    9.1250 O   0  0  0  0  0
  -40.6860  137.6790    9.5400 C   0  0  0  0  0
  -41.0010  138.6240    8.4080 C   0  0  0  0  0
  -41.3100  137.9930    7.0340 C   0  0  0  0  0
  -40.0090  137.5710    6.3290 C   0  0  0  0  0
  -42.2220  136.7690    7.1960 C   0  0  0  0  0
  -42.0650  138.9940    6.1470 C   0  0  0  0  0
  -41.4090  140.3600    6.1330 C   0  0  0  0  0
  -41.3720  140.9420    7.5270 C   0  0  0  0  0
  -41.0480  139.9470    8.6110 C   0  0  0  0  0
  -40.8060  140.6150    9.9390 C   0  0  0  0  0
  -34.9419  133.0720    8.7854 H   0  0  0  0  0
  -36.4941  132.2854   10.4319 H   0  0  0  0  0
  -37.3637  132.9445    7.5998 H   0  0  0  0  0
  -38.1956  131.7806    8.6939 H   0  0  0  0  0
  -36.8515  130.4903    7.3199 H   0  0  0  0  0
  -35.9072  130.6856    8.8999 H   0  0  0  0  0
  -34.5406  130.7617    6.9894 H   0  0  0  0  0
  -35.4084  132.0439    6.3735 H   0  0  0  0  0
  -34.5583  132.2198    7.7959 H   0  0  0  0  0
  -37.4004  133.2518   12.2489 H   0  0  0  0  0
  -39.0032  134.8250   13.2596 H   0  0  0  0  0
  -40.2275  136.4516   11.8424 H   0  0  0  0  0
  -38.1828  134.9256    8.3850 H   0  0  0  0  0
  -40.2499  138.2474   10.3615 H   0  0  0  0  0
  -41.6069  137.1884    9.8551 H   0  0  0  0  0
  -39.3761  138.4463    6.1827 H   0  0  0  0  0
  -39.4842  136.8404    6.9445 H   0  0  0  0  0
  -40.2483  137.1284    5.3621 H   0  0  0  0  0
  -41.7256  136.0280    7.8225 H   0  0  0  0  0
  -43.1578  137.0742    7.6642 H   0  0  0  0  0
  -42.4280  136.3387    6.2159 H   0  0  0  0  0
  -43.0725  139.1071    6.5472 H   0  0  0  0  0
  -42.0651  138.6088    5.1273 H   0  0  0  0  0
  -41.9843  141.0231    5.4870 H   0  0  0  0  0
  -40.3885  140.2596    5.7634 H   0  0  0  0  0
  -42.3687  141.3297    7.7374 H   0  0  0  0  0
  -40.5830  141.6939    7.5379 H   0  0  0  0  0
  -41.5374  140.2564   10.6633 H   0  0  0  0  0
  -39.8010  140.3759   10.2868 H   0  0  0  0  0
  -40.9050  141.6945    9.8247 H   0  0  0  0  0
  1  2  1  0  0  0
  2  3  1  0  0  0
  2  6  1  0  0  0
  3  4  1  0  0  0
  4  5  1  0  0  0
  6  7  4  0  0  0
  6 10  4  0  0  0
  7  8  4  0  0  0
  8  9  4  0  0  0
  9 11  4  0  0  0
 10 11  4  0  0  0
 11 12  1  0  0  0
 12 13  1  0  0  0
 13 14  1  0  0  0
 14 15  1  0  0  0
 14 21  2  0  0  0
 15 16  1  0  0  0
 15 17  1  0  0  0
 15 18  1  0  0  0
 18 19  1  0  0  0
 19 20  1  0  0  0
 20 21  1  0  0  0
 21 22  1  0  0  0
  1 23  1  0  0  0
  2 24  1  0  0  0
  3 25  1  0  0  0
  3 26  1  0  0  0
  4 27  1  0  0  0
  4 28  1  0  0  0
  5 29  1  0  0  0
  5 30  1  0  0  0
  5 31  1  0  0  0
  7 32  1  0  0  0
  8 33  1  0  0  0
  9 34  1  0  0  0
 10 35  1  0  0  0
 13 36  1  0  0  0
 13 37  1  0  0  0
 16 38  1  0  0  0
 16 39  1  0  0  0
 16 40  1  0  0  0
 17 41  1  0  0  0
 17 42  1  0  0  0
 17 43  1  0  0  0
 18 44  1  0  0  0
 18 45  1  0  0  0
 19 46  1  0  0  0
 19 47  1  0  0  0
 20 48  1  0  0  0
 20 49  1  0  0  0
 22 50  1  0  0  0
 22 51  1  0  0  0
 22 52  1  0  0  0
M  END
$$$$
