4gbd_ligand
  -I-interpret- 

 39 41  0  0  0  0  0  0  0  0999 V2000
  -35.5780   -7.0800   34.8530 O   0  0  0  0  0
  -35.8050   -5.8390   35.5840 C   0  0  0  0  0
  -34.6410   -5.3150   36.4420 C   0  0  0  0  0
  -34.0390   -6.4000   37.1760 N   0  0  0  0  0
  -34.5740   -6.9340   38.2860 C   0  0  0  0  0
  -35.8160   -7.0470   38.5650 N   0  0  0  0  0
  -36.9180   -6.6400   37.8450 C   0  0  0  0  0
  -36.9290   -6.0630   36.4870 C   0  0  0  0  0
  -38.2360   -5.7820   36.2680 N   0  0  0  0  0
  -38.9560   -6.1350   37.3750 C   0  0  0  0  0
  -38.1440   -6.6500   38.3340 N   0  0  0  0  0
  -38.5820   -7.0930   39.6750 C   0  0  0  0  0
  -40.0820   -6.9430   39.8460 C   0  0  0  0  0
  -40.4370   -5.5960   40.1340 O   0  0  0  0  0
  -38.3700   -8.4710   39.7770 O   0  0  0  0  0
  -39.4080   -9.0550   40.5560 C   0  0  0  0  0
  -40.3870   -7.9590   40.9310 C   0  0  0  0  0
  -40.1130   -7.3130   42.1690 O   0  0  0  0  0
  -39.9100  -10.3440   39.9280 C   0  0  0  0  0
  -40.2260  -11.4770   41.2240 S   0  0  0  0  0
  -38.9150  -12.6430   41.1720 C   0  0  0  0  0
  -34.8415   -6.9637   34.2483 H   0  0  0  0  0
  -35.9668   -5.0833   34.8153 H   0  0  0  0  0
  -35.0206   -4.5742   37.1457 H   0  0  0  0  0
  -33.8917   -4.8641   35.7913 H   0  0  0  0  0
  -33.1580   -6.7832   36.8333 H   0  0  0  0  0
  -33.8727   -7.3121   39.0298 H   0  0  0  0  0
  -40.0352   -6.0189   37.4745 H   0  0  0  0  0
  -38.0341   -6.4980   40.4057 H   0  0  0  0  0
  -40.6778   -7.1407   38.9549 H   0  0  0  0  0
  -41.3894   -5.5322   40.2366 H   0  0  0  0  0
  -39.0749   -9.4394   41.5200 H   0  0  0  0  0
  -41.4005   -8.3500   41.0210 H   0  0  0  0  0
  -40.2919   -7.9193   42.8915 H   0  0  0  0  0
  -39.1647  -10.7484   39.2431 H   0  0  0  0  0
  -40.8187  -10.1588   39.3552 H   0  0  0  0  0
  -38.9121  -13.1415   40.2027 H   0  0  0  0  0
  -37.9660  -12.1276   41.3198 H   0  0  0  0  0
  -39.0557  -13.3814   41.9614 H   0  0  0  0  0
  1  2  1  0  0  0
  2  3  1  0  0  0
  2  8  1  0  0  0
  3  4  1  0  0  0
  4  5  1  0  0  0
  5  6  2  0  0  0
  6  7  1  0  0  0
  7  8  4  0  0  0
  7 11  4  0  0  0
  8  9  4  0  0  0
  9 10  4  0  0  0
 10 11  4  0  0  0
 11 12  1  0  0  0
 12 13  1  0  0  0
 12 15  1  0  0  0
 13 14  1  0  0  0
 13 17  1  0  0  0
 15 16  1  0  0  0
 16 17  1  0  0  0
 16 19  1  0  0  0
 17 18  1  0  0  0
 19 20  1  0  0  0
 20 21  1  0  0  0
  1 22  1  0  0  0
  2 23  1  0  0  0
  3 24  1  0  0  0
  3 25  1  0  0  0
  4 26  1  0  0  0
  5 27  1  0  0  0
 10 28  1  0  0  0
 12 29  1  0  0  0
 13 30  1  0  0  0
 14 31  1  0  0  0
 16 32  1  0  0  0
 17 33  1  0  0  0
 18 34  1  0  0  0
 19 35  1  0  0  0
 19 36  1  0  0  0
 21 37  1  0  0  0
 21 38  1  0  0  0
 21 39  1  0  0  0
M  END
$$$$
