4gjd_ligand
  -I-interpret- 

 81 85  0  0  0  0  0  0  0  0999 V2000
   40.9910  110.2090    9.0280 C   0  0  0  0  0
   40.1830  108.8930    9.0120 C   0  0  0  0  0
   40.7940  107.8390    9.9820 C   0  0  0  0  0
   42.3240  107.5820    9.7560 C   0  0  0  0  0
   43.0570  108.9440    9.6250 C   0  0  0  0  0
   42.3850  109.8820    8.6900 N   0  3  0  0  0
   38.7770  109.1170    9.3200 N   0  0  0  0  0
   43.0040  106.7930   10.8690 C   0  0  0  0  0
   37.5740  108.3940    8.4720 S   0  0  0  0  0
   36.8920  107.3300    9.7180 C   0  0  0  0  0
   36.6440  109.4570    8.1320 O   0  0  0  0  0
   38.1040  107.5490    7.4050 O   0  0  0  0  0
   36.4230  107.9050   10.9230 C   0  0  0  0  0
   35.8610  107.0850   11.9250 C   0  0  0  0  0
   35.7670  105.6950   11.7310 C   0  0  0  0  0
   36.2190  105.1200   10.5170 C   0  0  0  0  0
   36.7990  105.9300    9.5180 C   0  0  0  0  0
   35.1530  104.8210   12.8370 C   0  0  0  0  0
   42.5000  106.7900   11.9770 O   0  0  0  0  0
   44.1710  106.1310   10.6000 N   0  0  0  0  0
   44.9680  105.3800   11.5890 C   0  0  0  0  0
   46.2240  106.1460   12.1570 C   0  0  0  0  0
   45.2210  106.4820   14.8100 O   0  0  0  0  0
   45.7300  107.5380   12.6790 C   0  0  0  0  0
   45.1890  107.6050   13.9830 C   0  0  0  0  0
   44.6520  108.8030   14.4890 C   0  0  0  0  0
   44.6020  109.9520   13.6760 C   0  0  0  0  0
   45.1210  109.9280   12.3730 C   0  0  0  0  0
   45.6760  108.7310   11.8950 C   0  0  0  0  0
   46.2040  105.5080   14.6370 C   0  0  0  0  0
   46.7410  105.2750   13.3530 C   0  0  0  0  0
   47.7370  104.2530   13.2560 C   0  0  0  0  0
   48.1680  103.5020   14.3850 C   0  0  0  0  0
   47.6400  103.7820   15.6570 C   0  0  0  0  0
   46.6610  104.7930   15.7670 C   0  0  0  0  0
   47.3030  106.2690   11.0210 C   0  0  0  0  0
   48.5920  107.1100   11.2640 C   0  0  0  0  0
   49.6330  106.9050   10.1290 C   0  0  0  0  0
   49.3140  107.7570    8.8730 C   0  0  0  0  0
   50.4640  107.7690    8.0010 O   0  0  0  0  0
   50.1480  107.4150    6.6490 C   0  0  0  0  0
   40.9385  110.6744   10.0122 H   0  0  0  0  0
   40.5810  110.9147    8.3055 H   0  0  0  0  0
   40.2426  108.4979    7.9979 H   0  0  0  0  0
   40.2766  106.8961    9.8048 H   0  0  0  0  0
   40.6753  108.2228   10.9953 H   0  0  0  0  0
   42.3901  106.9807    8.8492 H   0  0  0  0  0
   44.0550  108.7459    9.2339 H   0  0  0  0  0
   43.0670  109.4100   10.6103 H   0  0  0  0  0
   42.9085  110.7567    8.7251 H   0  0  0  0  0
   42.3665  109.4248    7.7784 H   0  0  0  0  0
   38.5331  109.7433   10.0873 H   0  0  0  0  0
   36.4958  108.9815   11.0774 H   0  0  0  0  0
   35.4988  107.5301   12.8517 H   0  0  0  0  0
   36.1180  104.0469   10.3544 H   0  0  0  0  0
   37.1734  105.4817    8.5977 H   0  0  0  0  0
   35.7384  104.9284   13.7502 H   0  0  0  0  0
   34.1270  105.1390   13.0221 H   0  0  0  0  0
   35.1599  103.7781   12.5201 H   0  0  0  0  0
   44.5170  106.1589    9.6409 H   0  0  0  0  0
   45.3453  104.4932   11.0797 H   0  0  0  0  0
   44.3113  105.1826   12.4363 H   0  0  0  0  0
   44.2745  108.8419   15.5108 H   0  0  0  0  0
   44.1559  110.8682   14.0628 H   0  0  0  0  0
   45.0938  110.8191   11.7459 H   0  0  0  0  0
   46.0826  108.7107   10.8839 H   0  0  0  0  0
   48.1813  104.0422   12.2833 H   0  0  0  0  0
   48.9071  102.7101   14.2635 H   0  0  0  0  0
   47.9777  103.2327   16.5358 H   0  0  0  0  0
   46.2474  105.0279   16.7477 H   0  0  0  0  0
   46.7889  106.7841   10.2095 H   0  0  0  0  0
   47.6638  105.2509   10.8746 H   0  0  0  0  0
   49.0403  106.7882   12.2040 H   0  0  0  0  0
   48.3150  108.1639   11.2903 H   0  0  0  0  0
   49.6123  105.8547    9.8381 H   0  0  0  0  0
   50.6082  107.2126   10.5063 H   0  0  0  0  0
   49.0738  108.7765    9.1747 H   0  0  0  0  0
   48.4614  107.3272    8.3471 H   0  0  0  0  0
   49.7266  106.4100    6.6269 H   0  0  0  0  0
   49.4224  108.1235    6.2494 H   0  0  0  0  0
   51.0555  107.4432    6.0458 H   0  0  0  0  0
  2  1  1  0  0  0
  6  1  1  0  0  0
  3  2  1  0  0  0
  2  7  1  0  0  0
  4  3  1  0  0  0
  4  5  1  0  0  0
  8  4  1  0  0  0
  5  6  1  0  0  0
  7  9  1  0  0  0
  8 19  2  0  0  0
 20  8  1  0  0  0
  9 10  1  0  0  0
  9 11  2  0  0  0
  9 12  2  0  0  0
 10 13  4  0  0  0
 10 17  4  0  0  0
 13 14  4  0  0  0
 14 15  4  0  0  0
 16 15  4  0  0  0
 15 18  1  0  0  0
 17 16  4  0  0  0
 21 20  1  0  0  0
 22 21  1  0  0  0
 24 22  1  0  0  0
 22 31  1  0  0  0
 22 36  1  0  0  0
 25 23  1  0  0  0
 23 30  1  0  0  0
 24 25  4  0  0  0
 24 29  4  0  0  0
 25 26  4  0  0  0
 26 27  4  0  0  0
 27 28  4  0  0  0
 28 29  4  0  0  0
 30 31  4  0  0  0
 30 35  4  0  0  0
 31 32  4  0  0  0
 32 33  4  0  0  0
 33 34  4  0  0  0
 34 35  4  0  0  0
 36 37  1  0  0  0
 37 38  1  0  0  0
 38 39  1  0  0  0
 39 40  1  0  0  0
 40 41  1  0  0  0
  1 42  1  0  0  0
  1 43  1  0  0  0
  2 44  1  0  0  0
  3 45  1  0  0  0
  3 46  1  0  0  0
  4 47  1  0  0  0
  5 48  1  0  0  0
  5 49  1  0  0  0
  6 50  1  0  0  0
  6 51  1  0  0  0
  7 52  1  0  0  0
 13 53  1  0  0  0
 14 54  1  0  0  0
 16 55  1  0  0  0
 17 56  1  0  0  0
 18 57  1  0  0  0
 18 58  1  0  0  0
 18 59  1  0  0  0
 20 60  1  0  0  0
 21 61  1  0  0  0
 21 62  1  0  0  0
 26 63  1  0  0  0
 27 64  1  0  0  0
 28 65  1  0  0  0
 29 66  1  0  0  0
 32 67  1  0  0  0
 33 68  1  0  0  0
 34 69  1  0  0  0
 35 70  1  0  0  0
 36 71  1  0  0  0
 36 72  1  0  0  0
 37 73  1  0  0  0
 37 74  1  0  0  0
 38 75  1  0  0  0
 38 76  1  0  0  0
 39 77  1  0  0  0
 39 78  1  0  0  0
 41 79  1  0  0  0
 41 80  1  0  0  0
 41 81  1  0  0  0
M  END
$$$$
