5fnq_ligand
  -I-interpret- 

 21 21  0  0  0  0  0  0  0  0999 V2000
   16.9750   65.6170   23.8830 O   0  0  0  0  0
   17.7930   64.9260   24.5360 C   0  0  0  0  0
   18.5970   64.1080   24.0420 O   0  0  0  0  0
   17.8120   65.0940   26.0470 C   0  0  0  0  0
   16.9750   64.0620   26.7670 C   0  0  0  0  0
   16.9990   64.2150   28.2670 C   0  0  0  0  0
   18.1460   63.9000   28.9870 C   0  0  0  0  0
   18.1730   64.0380   30.3620 C   0  0  0  0  0
   17.0550   64.4910   31.0210 C   0  0  0  0  0
   17.0920   64.6630   32.7540 Cl  0  0  0  0  0
   15.9050   64.8090   30.3310 C   0  0  0  0  0
   15.8780   64.6720   28.9540 C   0  0  0  0  0
   16.4695   66.1671   24.4859 H   0  0  0  0  0
   17.3984   66.0759   26.2770 H   0  0  0  0  0
   18.8429   64.9769   26.3810 H   0  0  0  0  0
   17.3859   63.0808   26.5295 H   0  0  0  0  0
   15.9430   64.1883   26.4396 H   0  0  0  0  0
   19.0316   63.5411   28.4625 H   0  0  0  0  0
   19.0754   63.7891   30.9204 H   0  0  0  0  0
   15.0243   65.1654   30.8652 H   0  0  0  0  0
   14.9718   64.9240   28.4032 H   0  0  0  0  0
  1  2  1  0  0  0
  2  3  2  0  0  0
  2  4  1  0  0  0
  4  5  1  0  0  0
  5  6  1  0  0  0
  6  7  4  0  0  0
  6 12  4  0  0  0
  7  8  4  0  0  0
  8  9  4  0  0  0
  9 10  1  0  0  0
  9 11  4  0  0  0
 11 12  4  0  0  0
  1 13  1  0  0  0
  4 14  1  0  0  0
  4 15  1  0  0  0
  5 16  1  0  0  0
  5 17  1  0  0  0
  7 18  1  0  0  0
  8 19  1  0  0  0
 11 20  1  0  0  0
 12 21  1  0  0  0
M  END
$$$$
