5j59_ligand
  -I-interpret- 

 40 42  0  0  0  0  0  0  0  0999 V2000
  -45.0120   17.8460   16.5520 Cl  0  0  0  0  0
  -44.1940   16.7920   15.4540 C   0  0  0  0  0
  -42.8570   16.9440   15.2570 C   0  0  0  0  0
  -42.2410   16.0590   14.4020 C   0  0  0  0  0
  -44.9470   15.8690   14.8910 N   0  0  0  0  0
  -44.3020   15.0340   14.0800 C   0  0  0  0  0
  -43.0070   15.0660   13.8000 C   0  0  0  0  0
  -42.6880   14.1580   12.8170 N   0  0  0  0  0
  -44.8380   14.0900   13.2620 N   0  0  0  0  0
  -43.8290   13.5930   12.5240 C   0  0  0  0  0
  -44.0460   12.6470   11.6560 N   0  0  0  0  0
  -45.3720   12.0880   11.4920 C   0  0  0  0  0
  -42.9710   12.0500   10.8660 C   0  0  0  0  0
  -42.8280   12.5720    9.4510 C   0  0  0  0  0
  -41.6760   11.9200    8.8190 N   0  3  0  0  0
  -41.4120   12.3410    7.4360 C   0  0  0  0  0
  -40.6190   13.6200    7.3010 C   0  0  0  0  0
  -41.2960   14.8170    7.1690 C   0  0  0  0  0
  -40.5910   15.9860    7.0720 C   0  0  0  0  0
  -41.4560   17.4610    6.9370 Cl  0  0  0  0  0
  -39.2210   16.0260    7.0840 C   0  0  0  0  0
  -38.5610   14.8330    7.1900 C   0  0  0  0  0
  -36.8220   14.8420    7.1160 Cl  0  0  0  0  0
  -39.2280   13.6330    7.3090 C   0  0  0  0  0
  -42.2963   17.7344   15.7559 H   0  0  0  0  0
  -41.1725   16.1347   14.2002 H   0  0  0  0  0
  -45.7009   11.6533   12.4359 H   0  0  0  0  0
  -46.0629   12.8764   11.1933 H   0  0  0  0  0
  -45.3466   11.3151   10.7238 H   0  0  0  0  0
  -43.2030   10.9883   10.7814 H   0  0  0  0  0
  -42.0402   12.2909   11.3795 H   0  0  0  0  0
  -42.6765   13.6513    9.4697 H   0  0  0  0  0
  -43.7327   12.3528    8.8839 H   0  0  0  0  0
  -41.8798   10.9210    8.7907 H   0  0  0  0  0
  -40.8544   12.1734    9.3677 H   0  0  0  0  0
  -42.3810   12.5198    6.9701 H   0  0  0  0  0
  -40.8192   11.5518    6.9735 H   0  0  0  0  0
  -42.3856   14.8303    7.1423 H   0  0  0  0  0
  -38.6800   16.9695    7.0120 H   0  0  0  0  0
  -38.6703   12.7018    7.4086 H   0  0  0  0  0
  1  2  1  0  0  0
  2  3  4  0  0  0
  2  5  4  0  0  0
  3  4  4  0  0  0
  4  7  4  0  0  0
  5  6  4  0  0  0
  6  7  4  0  0  0
  6  9  4  0  0  0
  7  8  4  0  0  0
  8 10  4  0  0  0
  9 10  4  0  0  0
 10 11  1  0  0  0
 11 12  1  0  0  0
 11 13  1  0  0  0
 13 14  1  0  0  0
 14 15  1  0  0  0
 15 16  1  0  0  0
 16 17  1  0  0  0
 17 18  4  0  0  0
 17 24  4  0  0  0
 18 19  4  0  0  0
 19 20  1  0  0  0
 19 21  4  0  0  0
 21 22  4  0  0  0
 22 23  1  0  0  0
 22 24  4  0  0  0
  3 25  1  0  0  0
  4 26  1  0  0  0
 12 27  1  0  0  0
 12 28  1  0  0  0
 12 29  1  0  0  0
 13 30  1  0  0  0
 13 31  1  0  0  0
 14 32  1  0  0  0
 14 33  1  0  0  0
 15 34  1  0  0  0
 15 35  1  0  0  0
 16 36  1  0  0  0
 16 37  1  0  0  0
 18 38  1  0  0  0
 21 39  1  0  0  0
 24 40  1  0  0  0
M  END
$$$$
