5wic_ligand
  -I-interpret- 

 12 12  0  0  0  0  0  0  0  0999 V2000
    1.0220  -14.2840  -19.7660 C   0  0  0  0  0
    0.2330  -15.5560  -19.5540 C   0  0  0  0  0
   -0.3880  -16.3100  -20.5430 C   0  0  0  0  0
   -1.0040  -17.4050  -19.9300 C   0  0  0  0  0
   -0.7600  -17.3220  -18.5640 C   0  0  0  0  0
    2.2600  -14.3480  -19.9880 O   0  0  0  0  0
    0.4440  -13.1660  -19.7190 O   0  0  0  0  0
    0.0050  -16.1800  -18.3290 O   0  0  0  0  0
   -0.3937  -16.0865  -21.6098 H   0  0  0  0  0
   -1.5744  -18.1854  -20.4337 H   0  0  0  0  0
   -1.1063  -18.0269  -17.8082 H   0  0  0  0  0
   -0.4904  -13.2973  -19.5421 H   0  0  0  0  0
  1  2  1  0  0  0
  1  6  2  0  0  0
  1  7  1  0  0  0
  2  3  4  0  0  0
  2  8  4  0  0  0
  3  4  4  0  0  0
  4  5  4  0  0  0
  5  8  4  0  0  0
  3  9  1  0  0  0
  4 10  1  0  0  0
  5 11  1  0  0  0
  7 12  1  0  0  0
M  END
$$$$
