5lle_ligand
  -I-interpret- 

 43 46  0  0  0  0  0  0  0  0999 V2000
   -6.6900    3.5700   16.6240 F   0  0  0  0  0
   -5.8650    3.2710   15.5950 C   0  0  0  0  0
   -5.3330    2.0150   15.5190 C   0  0  0  0  0
   -5.8570    0.7900   16.7340 S   0  0  0  0  0
   -5.2980    1.0110   18.1270 O   0  0  0  0  0
   -5.2290   -0.7110   16.0980 N   0  0  0  0  0
   -7.3840    0.9580   16.8520 O   0  0  0  0  0
   -4.4930    1.7200   14.4230 C   0  0  0  0  0
   -3.9510    0.5100   14.1920 F   0  0  0  0  0
   -4.1330    2.7060   13.4870 C   0  0  0  0  0
   -3.2830    2.3080   12.5100 F   0  0  0  0  0
   -5.4950    4.2550   14.6820 C   0  0  0  0  0
   -6.0180    5.4560   14.8560 F   0  0  0  0  0
   -4.6410    4.0260   13.6030 C   0  0  0  0  0
   -4.3320    5.1210   12.7010 N   0  0  0  0  0
   -3.1170    5.9340   12.8020 C   0  0  0  0  0
   -3.0490    6.6930   14.1570 C   0  0  0  0  0
   -3.1440    6.9510   11.6140 C   0  0  0  0  0
   -1.8040    5.1100   12.7010 C   0  0  0  0  0
   -0.5730    6.0750   12.7120 C   0  0  0  0  0
   -0.6250    7.1030   11.5430 C   0  0  0  0  0
   -1.9170    7.9270   11.6490 C   0  0  0  0  0
   -0.5400    6.8740   14.0330 C   0  0  0  0  0
   -1.8400    7.6740   14.1920 C   0  0  0  0  0
   -1.8980    8.6810   13.0010 C   0  0  0  0  0
   -4.5914   -1.2756   16.6593 H   0  0  0  0  0
   -5.4999   -1.0228   15.1654 H   0  0  0  0  0
   -4.9961    5.3358   11.9573 H   0  0  0  0  0
   -2.9294    5.9642   14.9587 H   0  0  0  0  0
   -3.9671    7.2673   14.2809 H   0  0  0  0  0
   -4.0545    7.5448   11.6940 H   0  0  0  0  0
   -3.1051    6.3875   10.6817 H   0  0  0  0  0
   -1.8067    4.5388   11.7727 H   0  0  0  0  0
   -1.7378    4.4306   13.5508 H   0  0  0  0  0
    0.3149    5.4522   12.6032 H   0  0  0  0  0
   -0.6069    6.5736   10.5904 H   0  0  0  0  0
    0.2373    7.7671   11.6023 H   0  0  0  0  0
   -1.9919    8.6356   10.8241 H   0  0  0  0  0
    0.3056    7.5616   14.0163 H   0  0  0  0  0
   -0.4390    6.1822   14.8692 H   0  0  0  0  0
   -1.8758    8.2128   15.1388 H   0  0  0  0  0
   -2.8073    9.2760   13.0860 H   0  0  0  0  0
   -1.0158    9.3202   13.0361 H   0  0  0  0  0
  1  2  1  0  0  0
  2  3  4  0  0  0
  2 12  4  0  0  0
  3  4  1  0  0  0
  3  8  4  0  0  0
  4  5  2  0  0  0
  4  6  1  0  0  0
  4  7  2  0  0  0
  8  9  1  0  0  0
  8 10  4  0  0  0
 10 11  1  0  0  0
 10 14  4  0  0  0
 12 13  1  0  0  0
 12 14  4  0  0  0
 14 15  1  0  0  0
 15 16  1  0  0  0
 16 17  1  0  0  0
 16 18  1  0  0  0
 16 19  1  0  0  0
 17 24  1  0  0  0
 18 22  1  0  0  0
 19 20  1  0  0  0
 20 21  1  0  0  0
 20 23  1  0  0  0
 21 22  1  0  0  0
 22 25  1  0  0  0
 23 24  1  0  0  0
 24 25  1  0  0  0
  6 26  1  0  0  0
  6 27  1  0  0  0
 15 28  1  0  0  0
 17 29  1  0  0  0
 17 30  1  0  0  0
 18 31  1  0  0  0
 18 32  1  0  0  0
 19 33  1  0  0  0
 19 34  1  0  0  0
 20 35  1  0  0  0
 21 36  1  0  0  0
 21 37  1  0  0  0
 22 38  1  0  0  0
 23 39  1  0  0  0
 23 40  1  0  0  0
 24 41  1  0  0  0
 25 42  1  0  0  0
 25 43  1  0  0  0
M  END
$$$$
