3r7b_ligand
  -I-interpret- 

 60 59  0  0  0  0  0  0  0  0999 V2000
    5.1070   27.4120   28.5460 C   0  0  0  0  0
    5.2410   27.0350   27.3770 O   0  0  0  0  0
    6.0190   28.4490   29.1600 C   0  0  0  0  0
    4.0790   27.0000   29.2820 N   0  0  0  0  0
    3.1470   25.9940   28.7640 C   0  0  0  0  0
    2.0840   26.6540   27.8940 C   0  0  0  0  0
    1.5480   27.7050   28.2540 O   0  0  0  0  0
    2.5180   25.1930   29.9150 C   0  0  0  0  0
    3.5360   24.3390   30.6440 C   0  0  0  0  0
    4.2870   23.5980   29.9640 O   0  0  0  0  0
    3.5900   24.3900   31.8980 O   0  0  0  0  0
    1.8130   26.0540   26.7320 N   0  0  0  0  0
    0.7870   26.5370   25.8000 C   0  0  0  0  0
   -0.0220   25.3310   25.2800 C   0  0  0  0  0
    0.4060   24.1880   25.4540 O   0  0  0  0  0
    1.4060   27.3230   24.5970 C   0  0  0  0  0
    2.2480   28.5330   25.0830 C   0  0  0  0  0
    2.2590   26.4290   23.7440 C   0  0  0  0  0
   -1.1500   25.5890   24.6090 N   0  0  0  0  0
   -2.0060   24.5030   24.0770 C   0  0  0  0  0
   -1.7110   24.1080   22.6330 C   0  0  0  0  0
   -1.4690   24.9700   21.7880 O   0  0  0  0  0
   -3.4790   24.8890   24.2040 C   0  0  0  0  0
   -1.7690   22.8070   22.3490 N   0  0  0  0  0
   -1.7000   22.2840   20.9790 C   0  0  0  0  0
   -3.0250   22.3640   20.2070 C   0  0  0  0  0
   -3.3803   21.4522   19.4133 O   0  0  0  0  0
   -1.2020   20.8400   20.9870 C   0  0  0  0  0
    0.2450   20.7340   20.5920 C   0  0  0  0  0
    0.8660   19.7140   20.9550 O   0  0  0  0  0
    0.7390   21.6790   19.9210 O   0  0  0  0  0
   -3.7738   23.3640   20.3709 O   0  0  0  0  0
    7.0469   28.0872   29.1353 H   0  0  0  0  0
    5.9454   29.3771   28.5931 H   0  0  0  0  0
    5.7201   28.6280   30.1928 H   0  0  0  0  0
    3.9377   27.3873   30.2150 H   0  0  0  0  0
    3.7000   25.2918   28.1401 H   0  0  0  0  0
    1.7613   24.5315   29.4931 H   0  0  0  0  0
    2.0964   25.9006   30.6289 H   0  0  0  0  0
    2.9356   25.0141   32.2202 H   0  0  0  0  0
    2.3443   25.2205   26.4802 H   0  0  0  0  0
    0.1381   27.2296   26.3361 H   0  0  0  0  0
    0.5736   27.6935   23.9987 H   0  0  0  0  0
    1.6116   29.2126   25.6498 H   0  0  0  0  0
    3.0592   28.1777   25.7185 H   0  0  0  0  0
    2.6624   29.0554   24.2208 H   0  0  0  0  0
    3.0700   26.0199   24.3465 H   0  0  0  0  0
    1.6501   25.6148   23.3512 H   0  0  0  0  0
    2.6740   27.0056   22.9173 H   0  0  0  0  0
   -1.4282   26.5589   24.4596 H   0  0  0  0  0
   -1.7737   23.6280   24.6841 H   0  0  0  0  0
   -3.7205   25.0552   25.2538 H   0  0  0  0  0
   -3.6641   25.8021   23.6383 H   0  0  0  0  0
   -4.0995   24.0840   23.8102 H   0  0  0  0  0
   -1.8657   22.1446   23.1186 H   0  0  0  0  0
   -0.9968   22.9308   20.4542 H   0  0  0  0  0
   -2.7104   20.7648   19.3969 H   0  0  0  0  0
   -1.7920   20.2745   20.2657 H   0  0  0  0  0
   -1.3055   20.4519   22.0003 H   0  0  0  0  0
    0.0663   22.3463   19.7669 H   0  0  0  0  0
  1  2  2  0  0  0
  1  3  1  0  0  0
  1  4  1  0  0  0
  4  5  1  0  0  0
  5  6  1  0  0  0
  5  8  1  0  0  0
  6  7  2  0  0  0
  6 12  1  0  0  0
  8  9  1  0  0  0
  9 10  2  0  0  0
  9 11  1  0  0  0
 12 13  1  0  0  0
 13 14  1  0  0  0
 13 16  1  0  0  0
 14 15  2  0  0  0
 14 19  1  0  0  0
 16 17  1  0  0  0
 16 18  1  0  0  0
 19 20  1  0  0  0
 20 21  1  0  0  0
 20 23  1  0  0  0
 21 22  2  0  0  0
 21 24  1  0  0  0
 24 25  1  0  0  0
 25 26  1  0  0  0
 25 28  1  0  0  0
 26 27  1  0  0  0
 28 29  1  0  0  0
 29 30  2  0  0  0
 29 31  1  0  0  0
 26 32  2  0  0  0
  3 33  1  0  0  0
  3 34  1  0  0  0
  3 35  1  0  0  0
  4 36  1  0  0  0
  5 37  1  0  0  0
  8 38  1  0  0  0
  8 39  1  0  0  0
 11 40  1  0  0  0
 12 41  1  0  0  0
 13 42  1  0  0  0
 16 43  1  0  0  0
 17 44  1  0  0  0
 17 45  1  0  0  0
 17 46  1  0  0  0
 18 47  1  0  0  0
 18 48  1  0  0  0
 18 49  1  0  0  0
 19 50  1  0  0  0
 20 51  1  0  0  0
 23 52  1  0  0  0
 23 53  1  0  0  0
 23 54  1  0  0  0
 24 55  1  0  0  0
 25 56  1  0  0  0
 27 57  1  0  0  0
 28 58  1  0  0  0
 28 59  1  0  0  0
 31 60  1  0  0  0
M  END
$$$$
