5nzo_ligand
  -I-interpret- 

 24 25  0  0  0  0  0  0  0  0999 V2000
  -25.7480   14.5660    6.4860 C   0  0  0  0  0
  -26.8910   14.3110    5.7450 C   0  0  0  0  0
  -27.2050   12.9930    5.4240 C   0  0  0  0  0
  -27.7440   15.3930    5.2480 C   0  0  0  0  0
  -28.6120   15.3710    4.1540 C   0  0  0  0  0
  -29.1770   16.6090    4.0850 C   0  0  0  0  0
  -28.9230   18.6990    5.4940 C   0  0  0  0  0
  -28.6480   17.3350    5.1040 N   0  0  0  0  0
  -27.7630   16.5990    5.8190 N   0  0  0  0  0
  -24.9560   13.5190    6.9240 C   0  0  0  0  0
  -30.0970   17.0970    3.1990 N   0  0  0  0  0
  -26.4030   11.9550    5.8580 C   0  0  0  0  0
  -25.2670   12.2160    6.5870 C   0  0  0  0  0
  -25.4722   15.5933    6.7243 H   0  0  0  0  0
  -28.0905   12.7784    4.8256 H   0  0  0  0  0
  -28.8003   14.5296    3.4871 H   0  0  0  0  0
  -28.6821   19.3675    4.6675 H   0  0  0  0  0
  -29.9787   18.7975    5.7467 H   0  0  0  0  0
  -28.3149   18.9573    6.3610 H   0  0  0  0  0
  -24.0802   13.7241    7.5396 H   0  0  0  0  0
  -30.4554   16.4988    2.4546 H   0  0  0  0  0
  -30.4249   18.0593    3.2824 H   0  0  0  0  0
  -26.6719   10.9255    5.6216 H   0  0  0  0  0
  -24.6153   11.3992    6.8974 H   0  0  0  0  0
  1  2  4  0  0  0
  1 10  4  0  0  0
  2  3  4  0  0  0
  2  4  1  0  0  0
  3 12  4  0  0  0
  4  5  4  0  0  0
  4  9  4  0  0  0
  5  6  4  0  0  0
  6  8  4  0  0  0
  6 11  1  0  0  0
  8  7  1  0  0  0
  8  9  4  0  0  0
 10 13  4  0  0  0
 12 13  4  0  0  0
  1 14  1  0  0  0
  3 15  1  0  0  0
  5 16  1  0  0  0
  7 17  1  0  0  0
  7 18  1  0  0  0
  7 19  1  0  0  0
 10 20  1  0  0  0
 11 21  1  0  0  0
 11 22  1  0  0  0
 12 23  1  0  0  0
 13 24  1  0  0  0
M  END
$$$$
