4i72_ligand
  -I-interpret- 

 34 36  0  0  0  0  0  0  0  0999 V2000
   19.1230   41.9300   11.7770 C   0  0  0  0  0
   19.8260   44.0750   11.3100 C   0  0  0  0  0
   20.5780   44.1510   12.5570 C   0  0  0  0  0
   20.4950   42.9630   13.4040 C   0  0  0  0  0
   21.2060   49.1660   10.8210 O   0  0  0  0  0
   19.7790   48.9240   10.7090 C   0  0  0  0  0
   19.4520   48.3070    9.3580 C   0  0  0  0  0
   20.2460   47.1220    9.1260 N   0  3  0  0  0
   18.0300   47.7530    9.2920 C   0  0  0  0  0
   17.5010   48.0540    7.9860 O   0  0  0  0  0
   18.1120   46.2620    9.6680 C   0  0  0  0  0
   17.2320   45.4800    8.8890 O   0  0  0  0  0
   19.5810   45.8700    9.4330 C   0  0  0  0  0
   20.1210   45.3750   10.7010 C   0  0  0  0  0
   19.1410   42.9900   10.9290 N   0  0  0  0  0
   19.7550   41.9240   12.9590 N   0  0  0  0  0
   20.9270   46.1020   11.5690 C   0  0  0  0  0
   21.1810   45.3390   12.6610 N   0  0  0  0  0
   21.1540   42.9600   14.5790 N   0  0  0  0  0
   18.5672   41.0399   11.4821 H   0  0  0  0  0
   21.3972   49.5550   11.6776 H   0  0  0  0  0
   19.2490   49.8717   10.8048 H   0  0  0  0  0
   19.4719   48.2369   11.4974 H   0  0  0  0  0
   19.6250   49.1144    8.6465 H   0  0  0  0  0
   21.0561   47.1845    9.7426 H   0  0  0  0  0
   20.4639   47.1035    8.1297 H   0  0  0  0  0
   17.3293   48.2035    9.9950 H   0  0  0  0  0
   16.6053   47.7151    7.9189 H   0  0  0  0  0
   17.8092   46.0884   10.7006 H   0  0  0  0  0
   17.3088   44.5590    9.1489 H   0  0  0  0  0
   19.7042   45.1174    8.6542 H   0  0  0  0  0
   21.2932   47.1147   11.4005 H   0  0  0  0  0
   21.6968   43.7761   14.8614 H   0  0  0  0  0
   21.1102   42.1416   15.1862 H   0  0  0  0  0
 15  1  4  0  0  0
  1 16  4  0  0  0
  2  3  4  0  0  0
 14  2  4  0  0  0
  2 15  4  0  0  0
  3  4  4  0  0  0
  3 18  4  0  0  0
  4 16  4  0  0  0
  4 19  1  0  0  0
  6  5  1  0  0  0
  7  6  1  0  0  0
  8  7  1  0  0  0
  9  7  1  0  0  0
 13  8  1  0  0  0
  9 10  1  0  0  0
 11  9  1  0  0  0
 11 12  1  0  0  0
 13 11  1  0  0  0
 13 14  1  0  0  0
 14 17  4  0  0  0
 17 18  4  0  0  0
  1 20  1  0  0  0
  5 21  1  0  0  0
  6 22  1  0  0  0
  6 23  1  0  0  0
  7 24  1  0  0  0
  8 25  1  0  0  0
  8 26  1  0  0  0
  9 27  1  0  0  0
 10 28  1  0  0  0
 11 29  1  0  0  0
 12 30  1  0  0  0
 13 31  1  0  0  0
 17 32  1  0  0  0
 19 33  1  0  0  0
 19 34  1  0  0  0
M  END
$$$$
