1pdz_ligand
  -I-interpret- 

 14 13  0  0  0  0  0  0  0  0999 V2000
   31.8840   69.4060   13.7090 P   0  0  0  0  0
   31.1470   70.2090   12.5440 O   0  0  0  0  0
   31.1700   69.8960   14.8920 O   0  0  0  0  0
   31.6660   67.9750   13.3100 O   0  0  0  0  0
   33.2970   69.8230   13.6570 O   0  0  0  0  0
   29.7460   70.1730   12.5240 C   0  0  0  0  0
   29.2060   70.4510   11.1440 C   0  0  0  0  0
   29.8860   70.0780   10.1620 O   0  0  0  0  0
   28.0760   70.9870   11.0390 O   0  0  0  0  0
   32.1855   67.7797   12.5267 H   0  0  0  0  0
   33.7044   69.4709   12.8622 H   0  0  0  0  0
   29.3711   70.9394   13.2024 H   0  0  0  0  0
   29.4217   69.1776   12.8277 H   0  0  0  0  0
   27.7375   71.1913   11.9138 H   0  0  0  0  0
  1  2  1  0  0  0
  1  3  2  0  0  0
  1  4  1  0  0  0
  1  5  1  0  0  0
  2  6  1  0  0  0
  6  7  1  0  0  0
  7  8  2  0  0  0
  7  9  1  0  0  0
  4 10  1  0  0  0
  5 11  1  0  0  0
  6 12  1  0  0  0
  6 13  1  0  0  0
  9 14  1  0  0  0
M  END
$$$$
