6hvr_ligand
  -I-interpret- 

 91 92  0  0  0  0  0  0  0  0999 V2000
   58.0890 -134.7640   34.1230 C   0  0  0  0  0
   59.3770 -134.9530   34.8310 C   0  0  0  0  0
   61.0050 -134.2360   37.2060 C   0  0  0  0  0
   62.6220 -135.4310   40.1670 C   0  0  0  0  0
   63.5450 -135.1360   42.4280 C   0  0  0  0  0
   63.8500 -132.7970   42.6960 C   0  0  0  0  0
   64.9600 -130.5880   41.5010 C   0  0  0  0  0
   65.5250 -129.5090   40.8780 C   0  0  0  0  0
   64.7860 -132.9280   41.7120 C   0  0  0  0  0
   61.7520 -136.4970   43.3360 C   0  0  0  0  0
   61.7840 -139.2650   42.6130 C   0  0  0  0  0
   65.3280 -131.8350   41.1010 C   0  0  0  0  0
   65.1110 -128.3400   41.3260 N   0  3  0  0  0
   64.0450 -130.4370   42.5130 C   0  0  0  0  0
   63.4920 -131.5450   43.1150 C   0  0  0  0  0
   63.3650 -133.9260   43.3090 C   0  0  0  0  0
   63.2400 -136.4490   43.1470 C   0  0  0  0  0
   61.1710 -138.1030   43.7470 S   0  0  0  0  0
   61.4990 -138.4140   45.1320 O   0  0  0  0  0
   59.7150 -138.0310   43.6360 O   0  0  0  0  0
   62.5470 -134.9890   41.3690 N   0  0  0  0  0
   63.6260 -135.8680   39.6680 O   0  0  0  0  0
   61.4170 -135.0950   39.3640 C   0  0  0  0  0
   60.4070 -136.1920   39.5970 C   0  0  0  0  0
   59.2040 -135.9870   38.7270 C   0  0  0  0  0
   60.9750 -137.3800   39.1940 O   0  0  0  0  0
   61.7370 -134.9970   37.9600 N   0  0  0  0  0
   60.0780 -133.6020   37.6590 O   0  0  0  0  0
   61.4030 -134.1870   35.7560 C   0  0  0  0  0
   62.3820 -133.0690   35.7560 C   0  0  0  0  0
   62.9570 -132.9190   34.3950 C   0  0  0  0  0
   63.7000 -134.1860   34.0670 C   0  0  0  0  0
   63.9620 -131.7960   34.4570 C   0  0  0  0  0
   60.1580 -133.9200   35.0550 N   0  0  0  0  0
   59.6690 -136.0820   35.1510 O   0  0  0  0  0
   58.2930 -134.4930   32.7010 N   0  0  0  0  0
   58.4580 -134.3170   31.6270 N   0  0  0  0  0
   58.6190 -134.1350   30.6180 N   0  0  0  0  0
   57.5400 -133.6230   34.9260 C   0  0  0  0  0
   56.2500 -133.3280   34.6590 C   0  0  0  0  0
   55.8330 -132.7780   33.4780 C   0  0  0  0  0
   54.4860 -132.5000   33.2930 C   0  0  0  0  0
   53.5730 -132.7650   34.2870 C   0  0  0  0  0
   54.0080 -133.3110   35.4740 C   0  0  0  0  0
   55.3430 -133.5920   35.6520 C   0  0  0  0  0
   57.4166 -135.6208   34.0805 H   0  0  0  0  0
   64.5791 -135.1811   42.0862 H   0  0  0  0  0
   65.2444 -129.5650   39.8262 H   0  0  0  0  0
   66.5980 -129.5596   41.0631 H   0  0  0  0  0
   65.1068 -133.9245   41.4083 H   0  0  0  0  0
   61.2859 -136.2035   42.3954 H   0  0  0  0  0
   61.4978 -135.8288   44.1588 H   0  0  0  0  0
   62.8704 -139.3079   42.6901 H   0  0  0  0  0
   61.3636 -140.2455   42.8364 H   0  0  0  0  0
   61.5016 -138.9688   41.6027 H   0  0  0  0  0
   66.0524 -131.9605   40.2962 H   0  0  0  0  0
   65.5790 -127.5946   40.8106 H   0  0  0  0  0
   64.1023 -128.2646   41.1943 H   0  0  0  0  0
   65.3325 -128.2597   42.3184 H   0  0  0  0  0
   63.7557 -129.4384   42.8406 H   0  0  0  0  0
   62.7708 -131.4248   43.9234 H   0  0  0  0  0
   63.9136 -134.0838   44.2376 H   0  0  0  0  0
   62.3013 -133.7895   43.5040 H   0  0  0  0  0
   63.7565 -136.4976   44.1056 H   0  0  0  0  0
   63.5867 -137.3023   42.5641 H   0  0  0  0  0
   61.6980 -134.4790   41.6130 H   0  0  0  0  0
   61.0197 -134.1267   39.6684 H   0  0  0  0  0
   60.1214 -136.1930   40.6489 H   0  0  0  0  0
   58.7464 -135.0261   38.9624 H   0  0  0  0  0
   59.5078 -135.9995   37.6803 H   0  0  0  0  0
   58.4859 -136.7869   38.9078 H   0  0  0  0  0
   60.3501 -138.0954   39.3326 H   0  0  0  0  0
   62.5231 -135.5157   37.5683 H   0  0  0  0  0
   61.8516 -135.0637   35.2887 H   0  0  0  0  0
   63.1798 -133.2830   36.4673 H   0  0  0  0  0
   61.8803 -132.1451   36.0437 H   0  0  0  0  0
   62.1827 -132.7203   33.6540 H   0  0  0  0  0
   64.4933 -134.3402   34.7984 H   0  0  0  0  0
   63.0091 -135.0286   34.0954 H   0  0  0  0  0
   64.1338 -134.1037   33.0704 H   0  0  0  0  0
   63.4610 -130.8784   34.7656 H   0  0  0  0  0
   64.7407 -132.0463   35.1775 H   0  0  0  0  0
   64.4080 -131.6545   33.4725 H   0  0  0  0  0
   59.9037 -132.9796   34.7526 H   0  0  0  0  0
   58.1298 -132.7410   34.6761 H   0  0  0  0  0
   57.5927 -133.9137   35.9752 H   0  0  0  0  0
   56.5526 -132.5599   32.6889 H   0  0  0  0  0
   54.1484 -132.0676   32.3511 H   0  0  0  0  0
   52.5160 -132.5451   34.1367 H   0  0  0  0  0
   53.2954 -133.5204   36.2718 H   0  0  0  0  0
   55.6824 -134.0286   36.5913 H   0  0  0  0  0
  2  1  1  0  0  0
  1 36  1  0  0  0
  1 39  1  0  0  0
 34  2  1  0  0  0
  2 35  2  0  0  0
  3 27  1  0  0  0
  3 28  2  0  0  0
 29  3  1  0  0  0
  4 21  1  0  0  0
  4 22  2  0  0  0
 23  4  1  0  0  0
  5 16  1  0  0  0
  5 17  1  0  0  0
 21  5  1  0  0  0
  6  9  4  0  0  0
  6 15  4  0  0  0
 16  6  1  0  0  0
  7  8  1  0  0  0
 12  7  4  0  0  0
 14  7  4  0  0  0
  8 13  1  0  0  0
  9 12  4  0  0  0
 17 10  1  0  0  0
 10 18  1  0  0  0
 18 11  1  0  0  0
 15 14  4  0  0  0
 18 19  2  0  0  0
 18 20  2  0  0  0
 23 24  1  0  0  0
 27 23  1  0  0  0
 24 25  1  0  0  0
 24 26  1  0  0  0
 29 30  1  0  0  0
 29 34  1  0  0  0
 30 31  1  0  0  0
 31 32  1  0  0  0
 31 33  1  0  0  0
 36 37  3  0  0  0
 37 38  3  0  0  0
 39 40  1  0  0  0
 40 41  4  0  0  0
 40 45  4  0  0  0
 41 42  4  0  0  0
 42 43  4  0  0  0
 43 44  4  0  0  0
 44 45  4  0  0  0
  1 46  1  0  0  0
  5 47  1  0  0  0
  8 48  1  0  0  0
  8 49  1  0  0  0
  9 50  1  0  0  0
 10 51  1  0  0  0
 10 52  1  0  0  0
 11 53  1  0  0  0
 11 54  1  0  0  0
 11 55  1  0  0  0
 12 56  1  0  0  0
 13 57  1  0  0  0
 13 58  1  0  0  0
 13 59  1  0  0  0
 14 60  1  0  0  0
 15 61  1  0  0  0
 16 62  1  0  0  0
 16 63  1  0  0  0
 17 64  1  0  0  0
 17 65  1  0  0  0
 21 66  1  0  0  0
 23 67  1  0  0  0
 24 68  1  0  0  0
 25 69  1  0  0  0
 25 70  1  0  0  0
 25 71  1  0  0  0
 26 72  1  0  0  0
 27 73  1  0  0  0
 29 74  1  0  0  0
 30 75  1  0  0  0
 30 76  1  0  0  0
 31 77  1  0  0  0
 32 78  1  0  0  0
 32 79  1  0  0  0
 32 80  1  0  0  0
 33 81  1  0  0  0
 33 82  1  0  0  0
 33 83  1  0  0  0
 34 84  1  0  0  0
 39 85  1  0  0  0
 39 86  1  0  0  0
 41 87  1  0  0  0
 42 88  1  0  0  0
 43 89  1  0  0  0
 44 90  1  0  0  0
 45 91  1  0  0  0
M  END
$$$$
