3pp7_ligand
  -I-interpret- 

 61 64  0  0  0  0  0  0  0  0999 V2000
   30.0140   24.8660   53.6130 C   0  0  0  0  0
   29.3350   23.7720   53.0660 C   0  0  0  0  0
   30.8260   25.6580   52.7990 C   0  0  0  0  0
   30.9570   25.3530   51.4420 C   0  0  0  0  0
   30.2790   24.2560   50.8990 C   0  0  0  0  0
   29.4630   23.4530   51.7070 C   0  0  0  0  0
   28.6970   22.2360   51.1170 C   0  0  0  0  0
   27.6540   21.8510   51.6510 O   0  0  0  0  0
   29.2480   21.6540   50.0310 N   0  0  0  0  0
   28.7270   20.5980   49.3590 C   0  0  0  0  0
   28.1640   20.8070   48.0840 C   0  0  0  0  0
   28.7440   19.2890   49.8780 C   0  0  0  0  0
   29.3460   18.9660   51.2560 C   0  0  0  0  0
   28.1980   18.2390   49.1320 C   0  0  0  0  0
   27.6400   18.4720   47.8720 C   0  0  0  0  0
   27.6160   19.7580   47.3290 C   0  0  0  0  0
   26.9840   19.9850   45.9190 C   0  0  0  0  0
   25.7650   19.8940   45.7740 O   0  0  0  0  0
   27.8570   20.2520   44.9240 N   0  0  0  0  0
   27.6370   20.4790   43.6010 C   0  0  0  0  0
   26.3750   20.8470   43.1110 C   0  0  0  0  0
   26.1570   21.0800   41.7490 C   0  0  0  0  0
   27.2000   20.9620   40.8300 C   0  0  0  0  0
   26.9390   21.2640   39.0840 S   0  0  0  0  0
   25.5550   21.4630   38.7940 O   0  0  0  0  0
   27.4230   20.1010   38.2740 O   0  0  0  0  0
   27.7030   22.4860   38.6750 O   0  0  0  0  0
   28.7030   20.3610   42.6770 C   0  0  0  0  0
   28.4680   20.6050   41.3010 C   0  0  0  0  0
   29.5070   20.4920   40.3710 C   0  0  0  0  0
   30.0140   20.0000   43.0650 C   0  0  0  0  0
   30.5110   19.6570   44.7220 S   0  0  0  0  0
   31.9080   19.3440   44.7330 O   0  0  0  0  0
   29.7500   18.4770   45.2600 O   0  0  0  0  0
   30.2970   20.8630   45.5910 O   0  0  0  0  0
   31.0290   19.8950   42.1130 C   0  0  0  0  0
   30.7890   20.1370   40.7680 C   0  0  0  0  0
   32.0960   19.9930   39.5920 S   0  0  0  0  0
   31.9460   18.7770   38.8470 O   0  0  0  0  0
   33.4090   19.9830   40.3210 O   0  0  0  0  0
   32.0590   21.1630   38.6490 O   0  0  0  0  0
   29.9093   25.0996   54.6725 H   0  0  0  0  0
   28.6983   23.1598   53.7047 H   0  0  0  0  0
   31.3562   26.5118   53.2210 H   0  0  0  0  0
   31.5891   25.9712   50.8045 H   0  0  0  0  0
   30.3864   24.0243   49.8393 H   0  0  0  0  0
   30.1277   22.0399   49.6881 H   0  0  0  0  0
   28.1537   21.8156   47.6708 H   0  0  0  0  0
   30.3994   19.2459   51.2655 H   0  0  0  0  0
   28.8130   19.5261   52.0243 H   0  0  0  0  0
   29.2508   17.8979   51.4514 H   0  0  0  0  0
   28.2079   17.2275   49.5381 H   0  0  0  0  0
   27.2189   17.6405   47.3070 H   0  0  0  0  0
   28.8355   20.2893   45.2095 H   0  0  0  0  0
   25.5442   20.9540   43.8085 H   0  0  0  0  0
   25.1615   21.3567   41.4020 H   0  0  0  0  0
   28.6349   22.3587   38.8674 H   0  0  0  0  0
   29.3066   20.6859   39.3173 H   0  0  0  0  0
   28.8107   18.6753   45.2575 H   0  0  0  0  0
   32.0330   19.6166   42.4333 H   0  0  0  0  0
   32.1594   21.9774   39.1472 H   0  0  0  0  0
  1  2  4  0  0  0
  1  3  4  0  0  0
  2  6  4  0  0  0
  3  4  4  0  0  0
  4  5  4  0  0  0
  5  6  4  0  0  0
  6  7  1  0  0  0
  7  8  2  0  0  0
  7  9  1  0  0  0
  9 10  1  0  0  0
 10 11  4  0  0  0
 10 12  4  0  0  0
 11 16  4  0  0  0
 12 13  1  0  0  0
 12 14  4  0  0  0
 14 15  4  0  0  0
 15 16  4  0  0  0
 16 17  1  0  0  0
 17 18  2  0  0  0
 17 19  1  0  0  0
 19 20  1  0  0  0
 20 21  4  0  0  0
 20 28  4  0  0  0
 21 22  4  0  0  0
 22 23  4  0  0  0
 23 24  1  0  0  0
 23 29  4  0  0  0
 24 25  2  0  0  0
 24 26  2  0  0  0
 24 27  1  0  0  0
 28 29  4  0  0  0
 28 31  4  0  0  0
 29 30  4  0  0  0
 30 37  4  0  0  0
 31 32  1  0  0  0
 31 36  4  0  0  0
 32 33  2  0  0  0
 32 34  1  0  0  0
 32 35  2  0  0  0
 36 37  4  0  0  0
 37 38  1  0  0  0
 38 39  2  0  0  0
 38 40  2  0  0  0
 38 41  1  0  0  0
  1 42  1  0  0  0
  2 43  1  0  0  0
  3 44  1  0  0  0
  4 45  1  0  0  0
  5 46  1  0  0  0
  9 47  1  0  0  0
 11 48  1  0  0  0
 13 49  1  0  0  0
 13 50  1  0  0  0
 13 51  1  0  0  0
 14 52  1  0  0  0
 15 53  1  0  0  0
 19 54  1  0  0  0
 21 55  1  0  0  0
 22 56  1  0  0  0
 27 57  1  0  0  0
 30 58  1  0  0  0
 34 59  1  0  0  0
 36 60  1  0  0  0
 41 61  1  0  0  0
M  END
$$$$
