5owh_ligand
  -I-interpret- 

 27 28  0  0  0  0  0  0  0  0999 V2000
   19.4210   -2.3410   18.8170 C   0  0  0  0  0
   18.8380   -3.0950   19.8050 C   0  0  0  0  0
   17.9120   -4.1170   19.4520 C   0  0  0  0  0
   17.6010   -4.3460   18.1140 C   0  0  0  0  0
   18.1970   -3.5750   17.1160 C   0  0  0  0  0
   20.2540   -1.4450   19.4110 N   0  0  0  0  0
   19.0400   -3.1000   22.3180 C   0  0  0  0  0
   20.1640   -1.5810   24.0100 C   0  0  0  0  0
   19.1010   -2.5760   17.4570 C   0  0  0  0  0
   18.8770   -1.8990   23.2510 C   0  0  0  0  0
   20.1880   -1.6420   20.7140 C   0  0  0  0  0
   19.9350   -0.5710   25.0260 N   0  3  0  0  0
   19.3450   -2.6270   20.9810 N   0  0  0  0  0
   17.0680   -5.2080   20.8150 Br  0  0  0  0  0
   16.3400   -5.7400   17.6320 Br  0  0  0  0  0
   17.7650   -3.8950   15.2530 Br  0  0  0  0  0
   19.9350   -1.4960   16.0790 Br  0  0  0  0  0
   18.1157   -3.6774   22.2999 H   0  0  0  0  0
   19.8513   -3.7339   22.6758 H   0  0  0  0  0
   20.9020   -1.2030   23.3024 H   0  0  0  0  0
   20.5164   -2.4909   24.4958 H   0  0  0  0  0
   18.1028   -2.1379   23.9802 H   0  0  0  0  0
   18.6167   -1.0311   22.6451 H   0  0  0  0  0
   20.7457   -1.0768   21.4607 H   0  0  0  0  0
   20.8089   -0.3788   25.5157 H   0  0  0  0  0
   19.5966    0.2836   24.5839 H   0  0  0  0  0
   19.2391   -0.9102   25.6902 H   0  0  0  0  0
  2  1  4  0  0  0
  1  6  4  0  0  0
  1  9  4  0  0  0
  2  3  4  0  0  0
 13  2  4  0  0  0
  3  4  4  0  0  0
  3 14  1  0  0  0
  4  5  4  0  0  0
  4 15  1  0  0  0
  9  5  4  0  0  0
  5 16  1  0  0  0
  6 11  4  0  0  0
  7 10  1  0  0  0
  7 13  1  0  0  0
 10  8  1  0  0  0
  8 12  1  0  0  0
  9 17  1  0  0  0
 11 13  4  0  0  0
  7 18  1  0  0  0
  7 19  1  0  0  0
  8 20  1  0  0  0
  8 21  1  0  0  0
 10 22  1  0  0  0
 10 23  1  0  0  0
 11 24  1  0  0  0
 12 25  1  0  0  0
 12 26  1  0  0  0
 12 27  1  0  0  0
M  END
$$$$
