5k76_ligand
  -I-interpret- 

 59 63  0  0  0  0  0  0  0  0999 V2000
  -15.8180  -43.6740   -8.6480 C   0  0  0  0  0
  -17.7720  -43.4810   -7.6030 C   0  0  0  0  0
  -20.3740  -43.6920   -8.3270 N   0  0  0  0  0
  -19.4200  -43.8360   -9.2750 C   0  0  0  0  0
  -18.0360  -43.7630   -8.9570 C   0  0  0  0  0
  -16.7600  -43.8960   -9.6060 C   0  0  0  0  0
  -16.5230  -44.2280  -11.0590 C   0  0  0  0  0
  -16.6150  -45.7320  -11.3430 C   0  0  0  0  0
  -16.3390  -46.0080  -12.8020 C   0  0  0  0  0
  -15.0000  -44.0890  -13.0440 C   0  0  0  0  0
  -15.1940  -43.6760  -11.6030 C   0  0  0  0  0
  -23.3010  -42.8430  -11.7840 C   0  0  0  0  0
  -23.4930  -43.9640  -12.8160 C   0  0  0  0  0
  -22.8690  -45.2890  -12.3760 C   0  0  0  0  0
  -21.3980  -45.0930  -12.0240 C   0  0  0  0  0
  -24.9010  -44.1720  -13.2150 N   0  3  0  0  0
  -25.3290  -43.4850  -14.4410 C   0  0  0  0  0
  -27.2390  -44.4220  -12.5710 C   0  0  0  0  0
  -16.4170  -43.4250   -7.4470 N   0  0  0  0  0
  -18.6910  -43.3180   -6.6370 N   0  0  0  0  0
  -19.9470  -43.4430   -7.0820 C   0  0  0  0  0
  -15.0550  -45.5120  -13.1880 O   0  0  0  0  0
  -19.8340  -43.9270  -10.5490 N   0  0  0  0  0
  -21.2310  -44.0390  -10.9460 C   0  0  0  0  0
  -21.8210  -42.7060  -11.3960 C   0  0  0  0  0
  -26.7090  -43.9600  -14.8230 C   0  0  0  0  0
  -27.6480  -43.7450  -13.7650 O   0  0  0  0  0
  -25.8680  -43.9770  -12.1190 C   0  0  0  0  0
  -14.7412  -43.6925   -8.8160 H   0  0  0  0  0
  -17.3318  -43.7252  -11.5892 H   0  0  0  0  0
  -17.6189  -46.0794  -11.0989 H   0  0  0  0  0
  -15.8757  -46.2546  -10.7360 H   0  0  0  0  0
  -17.0998  -45.5073  -13.4008 H   0  0  0  0  0
  -16.3580  -47.0860  -12.9618 H   0  0  0  0  0
  -14.0206  -43.7439  -13.3754 H   0  0  0  0  0
  -15.7976  -43.6483  -13.6421 H   0  0  0  0  0
  -14.3738  -44.0754  -11.0065 H   0  0  0  0  0
  -15.2125  -42.5877  -11.5458 H   0  0  0  0  0
  -23.8774  -43.0849  -10.8911 H   0  0  0  0  0
  -23.6385  -41.9026  -12.2198 H   0  0  0  0  0
  -22.9573  -43.6100  -13.6968 H   0  0  0  0  0
  -22.9460  -46.0063  -13.1931 H   0  0  0  0  0
  -23.3985  -45.6562  -11.4969 H   0  0  0  0  0
  -20.8659  -44.7660  -12.9173 H   0  0  0  0  0
  -20.9988  -46.0373  -11.6537 H   0  0  0  0  0
  -24.9083  -45.1635  -13.4542 H   0  0  0  0  0
  -24.6302  -43.7082  -15.2472 H   0  0  0  0  0
  -25.3483  -42.4089  -14.2684 H   0  0  0  0  0
  -27.2024  -45.4916  -12.7777 H   0  0  0  0  0
  -27.9536  -44.1887  -11.7817 H   0  0  0  0  0
  -20.7275  -43.3265   -6.3301 H   0  0  0  0  0
  -19.1268  -43.9171  -11.2840 H   0  0  0  0  0
  -21.7886  -44.3475  -10.0617 H   0  0  0  0  0
  -21.7464  -42.0002  -10.5687 H   0  0  0  0  0
  -21.2670  -42.3622  -12.2695 H   0  0  0  0  0
  -26.6614  -45.0289  -15.0310 H   0  0  0  0  0
  -27.0384  -43.3981  -15.6970 H   0  0  0  0  0
  -25.9002  -42.9221  -11.8466 H   0  0  0  0  0
  -25.5614  -44.5667  -11.2551 H   0  0  0  0  0
  6  1  4  0  0  0
  1 19  4  0  0  0
  5  2  4  0  0  0
  2 19  4  0  0  0
  2 20  4  0  0  0
  4  3  4  0  0  0
  3 21  4  0  0  0
  4  5  4  0  0  0
 23  4  1  0  0  0
  5  6  4  0  0  0
  6  7  1  0  0  0
  7  8  1  0  0  0
  7 11  1  0  0  0
  8  9  1  0  0  0
  9 22  1  0  0  0
 11 10  1  0  0  0
 10 22  1  0  0  0
 13 12  1  0  0  0
 12 25  1  0  0  0
 14 13  1  0  0  0
 13 16  1  0  0  0
 15 14  1  0  0  0
 24 15  1  0  0  0
 16 17  1  0  0  0
 16 28  1  0  0  0
 17 26  1  0  0  0
 18 27  1  0  0  0
 28 18  1  0  0  0
 21 20  4  0  0  0
 23 24  1  0  0  0
 24 25  1  0  0  0
 26 27  1  0  0  0
  1 29  1  0  0  0
  7 30  1  0  0  0
  8 31  1  0  0  0
  8 32  1  0  0  0
  9 33  1  0  0  0
  9 34  1  0  0  0
 10 35  1  0  0  0
 10 36  1  0  0  0
 11 37  1  0  0  0
 11 38  1  0  0  0
 12 39  1  0  0  0
 12 40  1  0  0  0
 13 41  1  0  0  0
 14 42  1  0  0  0
 14 43  1  0  0  0
 15 44  1  0  0  0
 15 45  1  0  0  0
 16 46  1  0  0  0
 17 47  1  0  0  0
 17 48  1  0  0  0
 18 49  1  0  0  0
 18 50  1  0  0  0
 21 51  1  0  0  0
 23 52  1  0  0  0
 24 53  1  0  0  0
 25 54  1  0  0  0
 25 55  1  0  0  0
 26 56  1  0  0  0
 26 57  1  0  0  0
 28 58  1  0  0  0
 28 59  1  0  0  0
M  END
$$$$
