2jbl_ligand
  -I-interpret- 

 79 80  0  0  0  0  0  0  0  0999 V2000
  131.6690   69.7090   -2.3760 C   0  0  0  0  0
  131.4370   70.4200   -1.2070 C   0  0  0  0  0
  130.8740   69.7730    0.0140 C   0  0  0  0  0
  131.7600   71.8900   -1.1340 C   0  0  0  0  0
  132.3290   72.4980   -2.3900 C   0  0  0  0  0
  132.7070   73.8980   -2.5180 C   0  0  0  0  0
  132.8730   76.0750   -1.4470 C   0  0  0  0  0
  133.2420   74.4020   -3.7440 C   0  0  0  0  0
  133.4160   73.5410   -4.8610 C   0  0  0  0  0
  134.3260   75.2930   -6.3270 C   0  0  0  0  0
  133.0600   72.1600   -4.7790 C   0  0  0  0  0
  132.5190   71.6540   -3.5400 C   0  0  0  0  0
  131.4250   68.2370   -2.6190 C   0  0  0  0  0
  131.0770   67.9410   -4.0740 C   0  0  0  0  0
  130.8830   66.4500   -4.3470 C   0  0  0  0  0
  129.7320   65.7570   -3.5470 C   0  0  0  0  0
  128.3080   65.6660   -4.1860 C   0  0  0  0  0
  127.3840   64.8820   -3.2000 C   0  0  0  0  0
  126.0940   64.4880   -3.9060 C   0  0  0  0  0
  124.8210   64.7650   -3.5510 C   0  0  0  0  0
  123.7140   64.2990   -4.3760 C   0  0  0  0  0
  122.3990   64.5340   -4.1010 C   0  0  0  0  0
  121.2500   64.0940   -4.9210 C   0  0  0  0  0
  119.9890   64.4150   -4.5090 C   0  0  0  0  0
  118.7090   64.0600   -5.2110 C   0  0  0  0  0
  130.7590   66.2170   -5.8610 C   0  0  0  0  0
  130.7810   64.1210   -2.1310 C   0  0  0  0  0
  127.7070   67.0470   -4.4520 C   0  0  0  0  0
  127.3010   64.8830   -0.8080 C   0  0  0  0  0
  121.5260   63.3150   -6.1800 C   0  0  0  0  0
  132.2010   70.2930   -3.5420 O   0  0  0  0  0
  131.5680   72.5460   -0.0970 O   0  0  0  0  0
  132.5150   74.6850   -1.3900 O   0  0  0  0  0
  133.9300   73.9190   -6.1120 O   0  0  0  0  0
  133.2070   71.2720   -5.8310 O   0  0  0  0  0
  130.1340   64.3790   -3.3750 O   0  0  0  0  0
  127.1810   65.6640   -2.0010 O   0  0  0  0  0
  129.8936   69.3561   -0.2165 H   0  0  0  0  0
  131.5413   68.9759    0.3417 H   0  0  0  0  0
  130.7773   70.5161    0.8056 H   0  0  0  0  0
  133.9361   76.1662   -1.6696 H   0  0  0  0  0
  132.2934   76.5664   -2.2284 H   0  0  0  0  0
  132.6602   76.5434   -0.4860 H   0  0  0  0  0
  133.5183   75.4535   -3.8226 H   0  0  0  0  0
  133.4654   75.9453   -6.1785 H   0  0  0  0  0
  135.1112   75.5585   -5.6192 H   0  0  0  0  0
  134.6988   75.4073   -7.3449 H   0  0  0  0  0
  130.5832   67.9269   -1.9999 H   0  0  0  0  0
  132.3396   67.6974   -2.3733 H   0  0  0  0  0
  131.9054   68.2878   -4.6918 H   0  0  0  0  0
  130.1383   68.4462   -4.3014 H   0  0  0  0  0
  131.7767   65.9566   -3.9650 H   0  0  0  0  0
  129.6180   66.3840   -2.6627 H   0  0  0  0  0
  128.3896   65.1567   -5.1462 H   0  0  0  0  0
  127.8547   63.9509   -2.8845 H   0  0  0  0  0
  126.2139   63.9050   -4.8191 H   0  0  0  0  0
  124.6211   65.3382   -2.6457 H   0  0  0  0  0
  123.9525   63.7251   -5.2715 H   0  0  0  0  0
  122.1748   65.0970   -3.1950 H   0  0  0  0  0
  119.9024   64.9829   -3.5826 H   0  0  0  0  0
  118.7111   64.4958   -6.2101 H   0  0  0  0  0
  118.6260   62.9758   -5.2863 H   0  0  0  0  0
  117.8645   64.4518   -4.6441 H   0  0  0  0  0
  129.9019   66.7712   -6.2436 H   0  0  0  0  0
  131.6667   66.5621   -6.3560 H   0  0  0  0  0
  130.6207   65.1531   -6.0535 H   0  0  0  0  0
  131.6797   64.7333   -2.0565 H   0  0  0  0  0
  130.1038   64.3664   -1.3129 H   0  0  0  0  0
  131.0525   63.0668   -2.0759 H   0  0  0  0  0
  127.6236   67.5927   -3.5121 H   0  0  0  0  0
  128.3524   67.5969   -5.1369 H   0  0  0  0  0
  126.7181   66.9321   -4.8959 H   0  0  0  0  0
  126.5560   64.0874   -0.8196 H   0  0  0  0  0
  128.2990   64.4474   -0.7593 H   0  0  0  0  0
  127.1391   65.5214    0.0605 H   0  0  0  0  0
  121.0447   62.3392   -6.1148 H   0  0  0  0  0
  121.1305   63.8601   -7.0371 H   0  0  0  0  0
  122.6018   63.1839   -6.2961 H   0  0  0  0  0
  132.9074   70.4018   -5.5580 H   0  0  0  0  0
  1  2  2  0  0  0
  1 13  1  0  0  0
  1 31  1  0  0  0
  2  3  1  0  0  0
  2  4  1  0  0  0
  4  5  1  0  0  0
  4 32  2  0  0  0
  5  6  4  0  0  0
  5 12  4  0  0  0
  6  8  4  0  0  0
  6 33  1  0  0  0
 33  7  1  0  0  0
  8  9  4  0  0  0
  9 11  4  0  0  0
  9 34  1  0  0  0
 34 10  1  0  0  0
 11 12  4  0  0  0
 11 35  1  0  0  0
 12 31  1  0  0  0
 13 14  1  0  0  0
 14 15  1  0  0  0
 15 16  1  0  0  0
 15 26  1  0  0  0
 16 17  1  0  0  0
 16 36  1  0  0  0
 17 18  1  0  0  0
 17 28  1  0  0  0
 18 19  1  0  0  0
 18 37  1  0  0  0
 19 20  2  0  0  0
 20 21  1  0  0  0
 21 22  2  0  0  0
 22 23  1  0  0  0
 23 24  2  0  0  0
 23 30  1  0  0  0
 24 25  1  0  0  0
 36 27  1  0  0  0
 37 29  1  0  0  0
  3 38  1  0  0  0
  3 39  1  0  0  0
  3 40  1  0  0  0
  7 41  1  0  0  0
  7 42  1  0  0  0
  7 43  1  0  0  0
  8 44  1  0  0  0
 10 45  1  0  0  0
 10 46  1  0  0  0
 10 47  1  0  0  0
 13 48  1  0  0  0
 13 49  1  0  0  0
 14 50  1  0  0  0
 14 51  1  0  0  0
 15 52  1  0  0  0
 16 53  1  0  0  0
 17 54  1  0  0  0
 18 55  1  0  0  0
 19 56  1  0  0  0
 20 57  1  0  0  0
 21 58  1  0  0  0
 22 59  1  0  0  0
 24 60  1  0  0  0
 25 61  1  0  0  0
 25 62  1  0  0  0
 25 63  1  0  0  0
 26 64  1  0  0  0
 26 65  1  0  0  0
 26 66  1  0  0  0
 27 67  1  0  0  0
 27 68  1  0  0  0
 27 69  1  0  0  0
 28 70  1  0  0  0
 28 71  1  0  0  0
 28 72  1  0  0  0
 29 73  1  0  0  0
 29 74  1  0  0  0
 29 75  1  0  0  0
 30 76  1  0  0  0
 30 77  1  0  0  0
 30 78  1  0  0  0
 35 79  1  0  0  0
M  END
$$$$
