5i80_ligand
  -I-interpret- 

 38 40  0  0  0  0  0  0  0  0999 V2000
  -14.9500   -0.3860   10.2200 C   0  0  0  0  0
  -15.0510   -0.4560    7.7270 C   0  0  0  0  0
  -14.6270    0.1380    5.4130 C   0  0  0  0  0
  -14.7070   -1.0290   11.4230 C   0  0  0  0  0
  -14.3760   -2.4330    9.0980 C   0  0  0  0  0
  -13.6580   -4.4860   10.2790 C   0  0  0  0  0
  -14.2920   -2.3570   11.4830 C   0  0  0  0  0
  -12.6530   -4.8560   11.1250 C   0  0  0  0  0
  -11.0340   -6.3960   12.0710 C   0  0  0  0  0
  -12.0690   -8.2200   10.3350 O   0  0  0  0  0
  -12.5660   -7.0890   10.3080 C   0  0  0  0  0
  -12.1340   -6.1180   11.1370 N   0  0  0  0  0
  -13.6070   -6.8040    9.4080 C   0  0  0  0  0
  -14.2510   -7.5610    8.4690 N   0  0  0  0  0
  -15.1900   -6.7880    7.8530 C   0  0  0  0  0
  -15.1750   -5.5420    8.3720 C   0  0  0  0  0
  -14.1760   -5.5140    9.3660 C   0  0  0  0  0
  -14.1310   -3.0770   10.3000 C   0  0  0  0  0
  -14.7690   -1.0940    9.0330 C   0  0  0  0  0
  -16.1090    0.1290    7.6120 O   0  0  0  0  0
  -14.2120   -0.5080    6.6610 N   0  0  0  0  0
  -12.8920   -1.1610    6.6730 C   0  0  0  0  0
  -15.2765    0.6538   10.2021 H   0  0  0  0  0
  -13.9121    0.9192    5.1546 H   0  0  0  0  0
  -14.6607   -0.6038    4.6151 H   0  0  0  0  0
  -15.6158    0.5775    5.5442 H   0  0  0  0  0
  -14.8452   -0.4774   12.3529 H   0  0  0  0  0
  -14.2578   -2.9914    8.1694 H   0  0  0  0  0
  -14.0950   -2.8290   12.4456 H   0  0  0  0  0
  -12.2500   -4.1161   11.8166 H   0  0  0  0  0
  -10.1921   -5.7420   11.8438 H   0  0  0  0  0
  -11.3712   -6.2151   13.0916 H   0  0  0  0  0
  -10.7257   -7.4364   11.9679 H   0  0  0  0  0
  -15.8550   -7.1263    7.0584 H   0  0  0  0  0
  -15.8165   -4.7115    8.0771 H   0  0  0  0  0
  -12.8691   -1.9452    5.9163 H   0  0  0  0  0
  -12.1206   -0.4222    6.4558 H   0  0  0  0  0
  -12.7128   -1.5972    7.6557 H   0  0  0  0  0
  4  1  4  0  0  0
 19  1  4  0  0  0
 19  2  1  0  0  0
  2 20  2  0  0  0
  2 21  1  0  0  0
 21  3  1  0  0  0
  7  4  4  0  0  0
 18  5  4  0  0  0
  5 19  4  0  0  0
  8  6  2  0  0  0
  6 17  1  0  0  0
  6 18  1  0  0  0
 18  7  4  0  0  0
 12  8  1  0  0  0
 12  9  1  0  0  0
 11 10  2  0  0  0
 11 12  1  0  0  0
 11 13  1  0  0  0
 13 14  4  0  0  0
 13 17  4  0  0  0
 14 15  4  0  0  0
 15 16  4  0  0  0
 16 17  4  0  0  0
 21 22  1  0  0  0
  1 23  1  0  0  0
  3 24  1  0  0  0
  3 25  1  0  0  0
  3 26  1  0  0  0
  4 27  1  0  0  0
  5 28  1  0  0  0
  7 29  1  0  0  0
  8 30  1  0  0  0
  9 31  1  0  0  0
  9 32  1  0  0  0
  9 33  1  0  0  0
 15 34  1  0  0  0
 16 35  1  0  0  0
 22 36  1  0  0  0
 22 37  1  0  0  0
 22 38  1  0  0  0
M  END
$$$$
