6udu_ligand
  -I-interpret- 

 73 77  0  0  0  0  0  0  0  0999 V2000
    9.3530    1.5460   96.8290 C   0  0  0  0  0
   10.8290    1.5780   97.2730 C   0  0  0  0  0
   11.6770    2.3510   96.2780 C   0  0  0  0  0
   11.0340    3.6880   95.9650 C   0  0  0  0  0
   11.8720    4.6430   95.4060 C   0  0  0  0  0
   11.4020    5.8980   95.0660 C   0  0  0  0  0
   12.4940    7.0460   94.3890 Cl  0  0  0  0  0
   10.0800    6.2440   95.3080 C   0  0  0  0  0
    9.2390    5.2890   95.8700 C   0  0  0  0  0
    9.6940    4.0090   96.1980 C   0  0  0  0  0
    8.7230    2.9690   96.8170 C   0  0  0  0  0
    8.3950    3.3540   98.2450 C   0  0  0  0  0
    7.3930    2.9370   96.0150 C   0  0  0  0  0
    6.4160    3.9110   96.5020 O   0  0  0  0  0
    5.5870    3.3800   97.4420 C   0  0  0  0  0
    4.2210    3.5870   97.1960 C   0  0  0  0  0
    3.2670    3.0770   98.0780 C   0  0  0  0  0
    3.6770    2.3650   99.2110 C   0  0  0  0  0
    5.0440    2.1660   99.4320 C   0  0  0  0  0
    6.0150    2.6630   98.5480 C   0  0  0  0  0
    7.3120    2.5240   98.8150 N   0  0  0  0  0
    7.7640    1.7660  100.0040 C   0  0  0  0  0
    7.7280    2.6610  101.2550 C   0  0  0  0  0
    8.0360    1.8030  102.4950 C   0  0  0  0  0
    7.4430    2.4260  103.7620 C   0  0  0  0  0
    6.0820    2.1640  103.8660 C   0  0  0  0  0
    5.1700    3.1750  104.1630 C   0  0  0  0  0
    3.8060    2.8640  104.2390 C   0  0  0  0  0
    3.0410    3.7670  103.3580 N   0  0  0  0  0
    2.6850    5.1340  103.7680 C   0  0  0  0  0
    2.6160    3.4080  102.1230 C   0  0  0  0  0
    1.9570    4.1470  101.3850 O   0  0  0  0  0
    2.9590    1.9850  101.6650 C   0  0  0  0  0
    2.6570    1.7150  100.1970 C   0  0  0  0  0
    2.7420    0.1790   99.9540 C   0  0  0  0  0
    1.9820   -0.2990   99.0860 O   0  0  0  0  0
    3.5950   -0.4950  100.5930 O   0  0  0  0  0
    1.3090    2.1270   99.8960 O   0  0  0  0  0
    8.7958    0.9302   97.5350 H   0  0  0  0  0
    9.3079    1.1425   95.8175 H   0  0  0  0  0
   11.2004    0.5548   97.3300 H   0  0  0  0  0
   10.8926    2.0690   98.2440 H   0  0  0  0  0
   11.7615    1.7728   95.3579 H   0  0  0  0  0
   12.6633    2.5228   96.7090 H   0  0  0  0  0
   12.9200    4.3990   95.2319 H   0  0  0  0  0
    9.7097    7.2396   95.0637 H   0  0  0  0  0
    8.1969    5.5460   96.0597 H   0  0  0  0  0
    8.0627    4.3921   98.2477 H   0  0  0  0  0
    9.2896    3.2047   98.8496 H   0  0  0  0  0
    6.9589    1.9434   96.1265 H   0  0  0  0  0
    7.6217    3.1825   94.9779 H   0  0  0  0  0
    3.9048    4.1464   96.3156 H   0  0  0  0  0
    2.2056    3.2328   97.8849 H   0  0  0  0  0
    5.3637    1.6105  100.3137 H   0  0  0  0  0
    8.7862    1.4248   99.8404 H   0  0  0  0  0
    7.1000    0.9152  100.1566 H   0  0  0  0  0
    6.7406    3.1114  101.3561 H   0  0  0  0  0
    8.4718    3.4523  101.1620 H   0  0  0  0  0
    9.1177    1.7384  102.6130 H   0  0  0  0  0
    7.5946    0.8165  102.3534 H   0  0  0  0  0
    7.5854    3.5057  103.7164 H   0  0  0  0  0
    7.9458    1.9952  104.6278 H   0  0  0  0  0
    5.7207    1.1472  103.7121 H   0  0  0  0  0
    5.5136    4.1952  104.3341 H   0  0  0  0  0
    3.4640    2.9862  105.2667 H   0  0  0  0  0
    3.6520    1.8328  103.9213 H   0  0  0  0  0
    2.0733    5.0939  104.6693 H   0  0  0  0  0
    3.5945    5.7000  103.9695 H   0  0  0  0  0
    2.1244    5.6175  102.9680 H   0  0  0  0  0
    2.3461    1.3007  102.2516 H   0  0  0  0  0
    4.0318    1.8513  101.8036 H   0  0  0  0  0
    4.0622    0.0792  101.2042 H   0  0  0  0  0
    0.7034    1.7138  100.5158 H   0  0  0  0  0
  1  2  1  0  0  0
  1 11  1  0  0  0
  2  3  1  0  0  0
  3  4  1  0  0  0
  4  5  4  0  0  0
  4 10  4  0  0  0
  5  6  4  0  0  0
  6  7  1  0  0  0
  6  8  4  0  0  0
  8  9  4  0  0  0
  9 10  4  0  0  0
 10 11  1  0  0  0
 11 12  1  0  0  0
 11 13  1  0  0  0
 12 21  1  0  0  0
 13 14  1  0  0  0
 14 15  1  0  0  0
 15 16  4  0  0  0
 15 20  4  0  0  0
 16 17  4  0  0  0
 17 18  4  0  0  0
 18 19  4  0  0  0
 18 34  1  0  0  0
 19 20  4  0  0  0
 20 21  1  0  0  0
 21 22  1  0  0  0
 22 23  1  0  0  0
 23 24  1  0  0  0
 24 25  1  0  0  0
 25 26  1  0  0  0
 26 27  2  0  0  0
 27 28  1  0  0  0
 28 29  1  0  0  0
 29 30  1  0  0  0
 29 31  1  0  0  0
 31 32  2  0  0  0
 31 33  1  0  0  0
 33 34  1  0  0  0
 34 35  1  0  0  0
 34 38  1  0  0  0
 35 36  2  0  0  0
 35 37  1  0  0  0
  1 39  1  0  0  0
  1 40  1  0  0  0
  2 41  1  0  0  0
  2 42  1  0  0  0
  3 43  1  0  0  0
  3 44  1  0  0  0
  5 45  1  0  0  0
  8 46  1  0  0  0
  9 47  1  0  0  0
 12 48  1  0  0  0
 12 49  1  0  0  0
 13 50  1  0  0  0
 13 51  1  0  0  0
 16 52  1  0  0  0
 17 53  1  0  0  0
 19 54  1  0  0  0
 22 55  1  0  0  0
 22 56  1  0  0  0
 23 57  1  0  0  0
 23 58  1  0  0  0
 24 59  1  0  0  0
 24 60  1  0  0  0
 25 61  1  0  0  0
 25 62  1  0  0  0
 26 63  1  0  0  0
 27 64  1  0  0  0
 28 65  1  0  0  0
 28 66  1  0  0  0
 30 67  1  0  0  0
 30 68  1  0  0  0
 30 69  1  0  0  0
 33 70  1  0  0  0
 33 71  1  0  0  0
 37 72  1  0  0  0
 38 73  1  0  0  0
M  END
$$$$
