5jjs_ligand
  -I-interpret- 

 60 62  0  0  0  0  0  0  0  0999 V2000
   26.1140  172.0020   23.2700 C   0  0  0  0  0
   26.1180  170.5910   22.9140 O   0  0  0  0  0
   25.1000  170.1430   21.9760 C   0  0  0  0  0
   24.6650  171.2740   21.0050 C   0  0  0  0  0
   25.5390  168.8580   21.2360 C   0  0  0  0  0
   24.4570  168.3450   20.2280 C   0  0  0  0  0
   23.7130  169.4770   19.4700 C   0  0  0  0  0
   24.4890  170.7910   19.5790 C   0  0  0  0  0
   24.0180  172.4000   18.6050 S   0  0  0  0  0
   23.7390  172.0340   17.1610 O   0  0  0  0  0
   22.8200  173.1010   19.2220 O   0  0  0  0  0
   25.3470  173.4220   18.7370 N   0  0  0  0  0
   26.5450  173.0310   18.2800 C   0  0  0  0  0
   26.7580  171.9320   17.7670 O   0  0  0  0  0
   27.5910  173.9080   18.6170 C   0  0  0  0  0
   27.5840  175.2450   18.1630 C   0  0  0  0  0
   28.5740  173.5010   19.5460 C   0  0  0  0  0
   28.5120  172.1900   19.9780 O   0  0  0  0  0
   29.3080  171.8390   21.1270 C   0  0  0  0  0
   29.5540  174.3960   19.9660 C   0  0  0  0  0
   29.5470  175.7240   19.5040 C   0  0  0  0  0
   30.5300  176.6010   19.8680 O   0  0  0  0  0
   31.5340  176.1990   20.8450 C   0  0  0  0  0
   28.5470  176.1780   18.5940 C   0  0  0  0  0
   28.5370  177.4480   18.0760 C   0  0  0  0  0
   29.0100  178.8740   18.8530 S   0  0  0  0  0
   28.1440  177.8090   16.8320 C   0  0  0  0  0
   28.2520  179.1470   16.5520 C   0  0  0  0  0
   28.7580  179.8520   17.5680 C   0  0  0  0  0
   29.0520  181.2710   17.6360 C   0  0  0  0  0
   29.3190  182.3070   17.8020 C   0  0  0  0  0
   29.7190  183.6840   18.0550 C   0  0  0  0  0
   28.8140  184.3070   18.9460 O   0  0  0  0  0
   26.2580  172.6024   22.3718 H   0  0  0  0  0
   25.1590  172.2567   23.7296 H   0  0  0  0  0
   26.9220  172.2000   23.9743 H   0  0  0  0  0
   24.2133  169.8842   22.5547 H   0  0  0  0  0
   25.4475  172.0328   21.0055 H   0  0  0  0  0
   23.7037  171.6564   21.3483 H   0  0  0  0  0
   25.6989  168.0793   21.9818 H   0  0  0  0  0
   26.4420  169.0882   20.6706 H   0  0  0  0  0
   23.7113  167.7978   20.8048 H   0  0  0  0  0
   24.9716  167.7400   19.4815 H   0  0  0  0  0
   22.7253  169.6103   19.9113 H   0  0  0  0  0
   23.6254  169.2025   18.4188 H   0  0  0  0  0
   25.3662  170.3903   19.0710 H   0  0  0  0  0
   25.2413  174.3414   19.1658 H   0  0  0  0  0
   26.8134  175.5633   17.4608 H   0  0  0  0  0
   30.3596  172.0262   20.9098 H   0  0  0  0  0
   28.9988  172.4431   21.9799 H   0  0  0  0  0
   29.1656  170.7832   21.3573 H   0  0  0  0  0
   30.3304  174.0658   20.6562 H   0  0  0  0  0
   31.0434  175.9443   21.7844 H   0  0  0  0  0
   32.0769  175.3313   20.4702 H   0  0  0  0  0
   32.2299  177.0218   21.0085 H   0  0  0  0  0
   27.7688  177.0883   16.1054 H   0  0  0  0  0
   27.9562  179.5890   15.6006 H   0  0  0  0  0
   29.7210  184.2311   17.1123 H   0  0  0  0  0
   30.7138  183.6877   18.5006 H   0  0  0  0  0
   29.0921  185.2126   19.1016 H   0  0  0  0  0
  1  2  1  0  0  0
  2  3  1  0  0  0
  3  4  1  0  0  0
  3  5  1  0  0  0
  4  8  1  0  0  0
  5  6  1  0  0  0
  6  7  1  0  0  0
  7  8  1  0  0  0
  8  9  1  0  0  0
  9 10  2  0  0  0
  9 11  2  0  0  0
  9 12  1  0  0  0
 12 13  1  0  0  0
 13 14  2  0  0  0
 13 15  1  0  0  0
 15 16  4  0  0  0
 15 17  4  0  0  0
 16 24  4  0  0  0
 17 18  1  0  0  0
 17 20  4  0  0  0
 18 19  1  0  0  0
 20 21  4  0  0  0
 21 22  1  0  0  0
 21 24  4  0  0  0
 22 23  1  0  0  0
 24 25  1  0  0  0
 25 26  4  0  0  0
 25 27  4  0  0  0
 26 29  4  0  0  0
 27 28  4  0  0  0
 28 29  4  0  0  0
 29 30  1  0  0  0
 30 31  3  0  0  0
 31 32  1  0  0  0
 32 33  1  0  0  0
  1 34  1  0  0  0
  1 35  1  0  0  0
  1 36  1  0  0  0
  3 37  1  0  0  0
  4 38  1  0  0  0
  4 39  1  0  0  0
  5 40  1  0  0  0
  5 41  1  0  0  0
  6 42  1  0  0  0
  6 43  1  0  0  0
  7 44  1  0  0  0
  7 45  1  0  0  0
  8 46  1  0  0  0
 12 47  1  0  0  0
 16 48  1  0  0  0
 19 49  1  0  0  0
 19 50  1  0  0  0
 19 51  1  0  0  0
 20 52  1  0  0  0
 23 53  1  0  0  0
 23 54  1  0  0  0
 23 55  1  0  0  0
 27 56  1  0  0  0
 28 57  1  0  0  0
 32 58  1  0  0  0
 32 59  1  0  0  0
 33 60  1  0  0  0
M  END
$$$$
