3pa4_ligand
  -I-interpret- 

 46 49  0  0  0  0  0  0  0  0999 V2000
   18.3630   -2.9740   10.4180 C   0  0  0  0  0
   18.8580   -2.0370    9.5150 C   0  0  0  0  0
   17.6570   -0.9360    9.0660 S   0  0  0  0  0
   16.4680   -1.6520   10.0720 C   0  0  0  0  0
   16.9860   -2.7550   10.7430 C   0  0  0  0  0
   15.1290   -1.2360   10.2720 C   0  0  0  0  0
   14.3710   -1.9810   11.1150 C   0  0  0  0  0
   14.8120   -3.0400   11.7490 N   0  0  0  0  0
   16.1060   -3.4400   11.6610 C   0  0  0  0  0
   16.5340   -4.5270   12.3870 N   0  0  0  0  0
   20.2200   -1.9700    8.9360 C   0  0  0  0  0
   14.5930   -0.0750    9.5780 C   0  0  0  0  0
   15.8280   -4.8960   13.6230 C   0  0  0  0  0
   16.2220   -3.9310   14.7840 C   0  0  0  0  0
   15.6350   -4.4330   16.0700 N   0  3  0  0  0
   16.1170   -5.7830   16.4050 C   0  0  0  0  0
   15.6750   -6.7890   15.3280 C   0  0  0  0  0
   16.2700   -6.3380   13.9760 C   0  0  0  0  0
   20.6320   -0.8450    8.2190 C   0  0  0  0  0
   21.9090   -0.7930    7.6750 C   0  0  0  0  0
   22.7670   -1.8730    7.8620 C   0  0  0  0  0
   22.3730   -3.0020    8.5630 C   0  0  0  0  0
   21.0900   -3.0440    9.1150 C   0  0  0  0  0
   24.3620   -1.8100    7.1740 Cl  0  0  0  0  0
   13.3450    0.3870    9.9930 N   0  0  0  0  0
   15.2350    0.4800    8.6620 O   0  0  0  0  0
   18.9595   -3.7866   10.8328 H   0  0  0  0  0
   13.3351   -1.6816   11.2744 H   0  0  0  0  0
   17.3352   -5.0731   12.0704 H   0  0  0  0  0
   14.7489   -4.8308   13.4837 H   0  0  0  0  0
   15.8380   -2.9328   14.5738 H   0  0  0  0  0
   17.3078   -3.8903   14.8709 H   0  0  0  0  0
   14.6213   -4.4730   15.9642 H   0  0  0  0  0
   15.9156   -3.7990   16.8181 H   0  0  0  0  0
   15.6983   -6.0826   17.3657 H   0  0  0  0  0
   17.2058   -5.7703   16.4553 H   0  0  0  0  0
   14.5871   -6.8205   15.2676 H   0  0  0  0  0
   16.0298   -7.7884   15.5796 H   0  0  0  0  0
   17.3573   -6.3606   14.0494 H   0  0  0  0  0
   15.9137   -7.0118   13.1968 H   0  0  0  0  0
   19.9498   -0.0054    8.0858 H   0  0  0  0  0
   22.2344    0.0805    7.1101 H   0  0  0  0  0
   23.0540   -3.8447    8.6819 H   0  0  0  0  0
   20.7698   -3.9161    9.6852 H   0  0  0  0  0
   12.9285    1.2031    9.5449 H   0  0  0  0  0
   12.8484   -0.0911   10.7448 H   0  0  0  0  0
  1  2  4  0  0  0
  1  5  4  0  0  0
  2  3  4  0  0  0
  2 11  1  0  0  0
  3  4  4  0  0  0
  4  5  4  0  0  0
  4  6  4  0  0  0
  5  9  4  0  0  0
  6  7  4  0  0  0
  6 12  1  0  0  0
  7  8  4  0  0  0
  8  9  4  0  0  0
  9 10  1  0  0  0
 10 13  1  0  0  0
 11 19  4  0  0  0
 11 23  4  0  0  0
 12 25  1  0  0  0
 12 26  2  0  0  0
 13 14  1  0  0  0
 13 18  1  0  0  0
 14 15  1  0  0  0
 15 16  1  0  0  0
 16 17  1  0  0  0
 17 18  1  0  0  0
 19 20  4  0  0  0
 20 21  4  0  0  0
 21 22  4  0  0  0
 21 24  1  0  0  0
 22 23  4  0  0  0
  1 27  1  0  0  0
  7 28  1  0  0  0
 10 29  1  0  0  0
 13 30  1  0  0  0
 14 31  1  0  0  0
 14 32  1  0  0  0
 15 33  1  0  0  0
 15 34  1  0  0  0
 16 35  1  0  0  0
 16 36  1  0  0  0
 17 37  1  0  0  0
 17 38  1  0  0  0
 18 39  1  0  0  0
 18 40  1  0  0  0
 19 41  1  0  0  0
 20 42  1  0  0  0
 22 43  1  0  0  0
 23 44  1  0  0  0
 25 45  1  0  0  0
 25 46  1  0  0  0
M  END
$$$$
