4q6f_ligand
  -I-interpret- 

 90 89  0  0  0  0  0  0  0  0999 V2000
    2.2520  -13.8430  -16.8000 N   0  3  0  0  0
    1.0590  -14.7180  -16.5790 C   0  0  0  0  0
    1.0350  -15.1760  -15.1410 C   0  0  0  0  0
    2.0560  -15.1840  -14.4690 O   0  0  0  0  0
    1.0680  -15.9200  -17.5180 C   0  0  0  0  0
   -0.1380  -15.5360  -14.6520 N   0  0  0  0  0
   -0.2370  -16.0110  -13.2790 C   0  0  0  0  0
   -0.8550  -17.3930  -13.1940 C   0  0  0  0  0
   -1.3410  -17.9440  -14.1840 O   0  0  0  0  0
   -0.9730  -14.9950  -12.3860 C   0  0  0  0  0
   -2.4120  -14.7140  -12.7440 C   0  0  0  0  0
   -2.5930  -13.5320  -13.6970 C   0  0  0  0  0
   -4.0320  -13.2570  -13.8700 N   0  0  0  0  0
   -4.8540  -13.8850  -14.7250 C   0  0  0  0  0
   -6.1380  -13.5690  -14.7590 N   0  0  0  0  0
   -4.4170  -14.8250  -15.5560 N   0  0  0  0  0
   -0.7650  -17.9580  -11.9910 N   0  0  0  0  0
   -1.2380  -19.2890  -11.6800 C   0  0  0  0  0
   -2.4450  -19.1920  -10.7390 C   0  0  0  0  0
   -2.7370  -18.1280  -10.1590 O   0  0  0  0  0
   -0.1180  -20.1460  -11.0350 C   0  0  0  0  0
    0.1810  -19.6570   -9.7010 O   0  0  0  0  0
    1.1330  -20.0840  -11.8840 C   0  0  0  0  0
   -3.1400  -20.3130  -10.6050 N   0  0  0  0  0
   -4.2640  -20.4380   -9.6920 C   0  0  0  0  0
   -3.8140  -20.2180   -8.2390 C   0  0  0  0  0
   -4.5900  -19.7530   -7.4440 O   0  0  0  0  0
   -4.8800  -21.8200   -9.8340 C   0  0  0  0  0
   -6.0310  -22.1230   -8.8910 C   0  0  0  0  0
   -6.5170  -23.5290   -9.1710 C   0  0  0  0  0
   -7.7910  -23.8540   -8.4180 C   0  0  0  0  0
   -8.3500  -25.1060   -8.9880 N   0  3  0  0  0
   -2.5610  -20.5250   -7.9050 N   0  0  0  0  0
   -2.0560  -20.2220   -6.5670 C   0  0  0  0  0
   -2.0420  -18.7090   -6.2480 C   0  0  0  0  0
   -1.4360  -17.8970   -6.9770 O   0  0  0  0  0
   -0.6650  -20.7950   -6.4080 C   0  0  0  0  0
   -0.1570  -20.7710   -4.9770 C   0  0  0  0  0
    1.3510  -20.8920   -4.9240 C   0  0  0  0  0
    2.0690  -20.2550   -5.7020 O   0  0  0  0  0
    1.8440  -21.7120   -4.0150 N   0  0  0  0  0
   -2.6360  -18.2500   -5.2510 O   0  0  0  0  0
    2.2150  -13.0512  -16.1580 H   0  0  0  0  0
    3.1023  -14.3803  -16.6305 H   0  0  0  0  0
    2.2493  -13.5030  -17.7617 H   0  0  0  0  0
    0.1605  -14.1400  -16.7951 H   0  0  0  0  0
    1.9528  -16.5257  -17.3223 H   0  0  0  0  0
    0.1723  -16.5178  -17.3495 H   0  0  0  0  0
    1.0853  -15.5724  -18.5509 H   0  0  0  0  0
   -0.9731  -15.4814  -15.2351 H   0  0  0  0  0
    0.7798  -16.1037  -12.8973 H   0  0  0  0  0
   -0.4412  -14.0501  -12.4974 H   0  0  0  0  0
   -0.9865  -15.4237  -11.3839 H   0  0  0  0  0
   -2.9344  -14.4683  -11.8194 H   0  0  0  0  0
   -2.7999  -15.5993  -13.2478 H   0  0  0  0  0
   -2.1500  -13.7728  -14.6634 H   0  0  0  0  0
   -2.1018  -12.6518  -13.2822 H   0  0  0  0  0
   -4.4383  -12.5244  -13.2881 H   0  0  0  0  0
   -6.5026  -12.8486  -14.1357 H   0  0  0  0  0
   -5.0664  -15.2813  -16.1968 H   0  0  0  0  0
   -3.4321  -15.0904  -15.5532 H   0  0  0  0  0
   -0.3348  -17.4171  -11.2408 H   0  0  0  0  0
   -1.5363  -19.7792  -12.6067 H   0  0  0  0  0
   -0.4624  -21.1781  -10.9704 H   0  0  0  0  0
    0.8749  -20.1947   -9.3124 H   0  0  0  0  0
    0.9140  -20.4688  -12.8800 H   0  0  0  0  0
    1.4691  -19.0498  -11.9585 H   0  0  0  0  0
    1.9138  -20.6889  -11.4229 H   0  0  0  0  0
   -2.8746  -21.1221  -11.1665 H   0  0  0  0  0
   -5.0032  -19.6771   -9.9424 H   0  0  0  0  0
   -4.0919  -22.5363   -9.6019 H   0  0  0  0  0
   -5.2837  -21.8774  -10.8449 H   0  0  0  0  0
   -6.8402  -21.4096   -9.0472 H   0  0  0  0  0
   -5.6981  -22.0415   -7.8563 H   0  0  0  0  0
   -5.7441  -24.2261   -8.8471 H   0  0  0  0  0
   -6.7233  -23.6106  -10.2382 H   0  0  0  0  0
   -8.5082  -23.0394   -8.5194 H   0  0  0  0  0
   -7.5800  -23.9833   -7.3565 H   0  0  0  0  0
   -9.2108  -25.3472   -8.4968 H   0  0  0  0  0
   -8.5498  -24.9676   -9.9786 H   0  0  0  0  0
   -7.6721  -25.8602   -8.8788 H   0  0  0  0  0
   -1.9503  -20.9743   -8.5873 H   0  0  0  0  0
   -2.7419  -20.6836   -5.8567 H   0  0  0  0  0
   -1.0230  -18.3681   -7.7044 H   0  0  0  0  0
    0.0108  -20.1825   -7.0049 H   0  0  0  0  0
   -0.7031  -21.8376   -6.7236 H   0  0  0  0  0
   -0.5910  -21.6154   -4.4415 H   0  0  0  0  0
   -0.4442  -19.8223   -4.5236 H   0  0  0  0  0
    2.8530  -21.8384   -3.9358 H   0  0  0  0  0
    1.2160  -22.2194   -3.3916 H   0  0  0  0  0
  1  2  1  0  0  0
  2  3  1  0  0  0
  2  5  1  0  0  0
  3  4  2  0  0  0
  3  6  1  0  0  0
  6  7  1  0  0  0
  7  8  1  0  0  0
  7 10  1  0  0  0
  8  9  2  0  0  0
  8 17  1  0  0  0
 10 11  1  0  0  0
 11 12  1  0  0  0
 12 13  1  0  0  0
 13 14  1  0  0  0
 14 15  2  0  0  0
 14 16  1  0  0  0
 17 18  1  0  0  0
 18 19  1  0  0  0
 18 21  1  0  0  0
 19 20  2  0  0  0
 19 24  1  0  0  0
 21 22  1  0  0  0
 21 23  1  0  0  0
 24 25  1  0  0  0
 25 26  1  0  0  0
 25 28  1  0  0  0
 26 27  2  0  0  0
 26 33  1  0  0  0
 28 29  1  0  0  0
 29 30  1  0  0  0
 30 31  1  0  0  0
 31 32  1  0  0  0
 33 34  1  0  0  0
 34 35  1  0  0  0
 34 37  1  0  0  0
 35 36  1  0  0  0
 35 42  2  0  0  0
 37 38  1  0  0  0
 38 39  1  0  0  0
 39 40  2  0  0  0
 39 41  1  0  0  0
  1 43  1  0  0  0
  1 44  1  0  0  0
  1 45  1  0  0  0
  2 46  1  0  0  0
  5 47  1  0  0  0
  5 48  1  0  0  0
  5 49  1  0  0  0
  6 50  1  0  0  0
  7 51  1  0  0  0
 10 52  1  0  0  0
 10 53  1  0  0  0
 11 54  1  0  0  0
 11 55  1  0  0  0
 12 56  1  0  0  0
 12 57  1  0  0  0
 13 58  1  0  0  0
 15 59  1  0  0  0
 16 60  1  0  0  0
 16 61  1  0  0  0
 17 62  1  0  0  0
 18 63  1  0  0  0
 21 64  1  0  0  0
 22 65  1  0  0  0
 23 66  1  0  0  0
 23 67  1  0  0  0
 23 68  1  0  0  0
 24 69  1  0  0  0
 25 70  1  0  0  0
 28 71  1  0  0  0
 28 72  1  0  0  0
 29 73  1  0  0  0
 29 74  1  0  0  0
 30 75  1  0  0  0
 30 76  1  0  0  0
 31 77  1  0  0  0
 31 78  1  0  0  0
 32 79  1  0  0  0
 32 80  1  0  0  0
 32 81  1  0  0  0
 33 82  1  0  0  0
 34 83  1  0  0  0
 36 84  1  0  0  0
 37 85  1  0  0  0
 37 86  1  0  0  0
 38 87  1  0  0  0
 38 88  1  0  0  0
 41 89  1  0  0  0
 41 90  1  0  0  0
M  END
$$$$
