### 
### Created by X-TOOL on Mon Sep 10 21:13:18 2018
### 

@<TRIPOS>MOLECULE
4q6f_ligand
   90    89     1     0     0
SMALL
GAST_HUCK


@<TRIPOS>ATOM
      1 N           2.2520  -13.8430  -16.8000 N.4       1 ALA         0.2377
      2 CA          1.0590  -14.7180  -16.5790 C.3       1 ALA         0.0621
      3 C           1.0350  -15.1760  -15.1410 C.2       1 ALA         0.2264
      4 O           2.0560  -15.1840  -14.4690 O.2       1 ALA        -0.3907
      5 CB          1.0680  -15.9200  -17.5180 C.3       1 ALA        -0.0040
      6 N          -0.1380  -15.5360  -14.6520 N.am      1 ARG        -0.2610
      7 CA         -0.2370  -16.0110  -13.2790 C.3       1 ARG         0.1312
      8 C          -0.8550  -17.3930  -13.1940 C.2       1 ARG         0.2040
      9 O          -1.3410  -17.9440  -14.1840 O.2       1 ARG        -0.3944
     10 CB         -0.9730  -14.9950  -12.3860 C.3       1 ARG        -0.0092
     11 CG         -2.4120  -14.7140  -12.7440 C.3       1 ARG        -0.0156
     12 CD         -2.5930  -13.5320  -13.6970 C.3       1 ARG         0.0627
     13 NE         -4.0320  -13.2570  -13.8700 N.pl3     1 ARG        -0.2723
     14 CZ         -4.8540  -13.8850  -14.7250 C.cat     1 ARG         0.2882
     15 NH1        -6.1380  -13.5690  -14.7590 N.pl3     1 ARG        -0.2849
     16 NH2        -4.4170  -14.8250  -15.5560 N.pl3     1 ARG        -0.2849
     17 N          -0.7650  -17.9580  -11.9910 N.am      1 THR        -0.2613
     18 CA         -1.2380  -19.2890  -11.6800 C.3       1 THR         0.1565
     19 C          -2.4450  -19.1920  -10.7390 C.2       1 THR         0.2065
     20 O          -2.7370  -18.1280  -10.1590 O.2       1 THR        -0.3943
     21 CB         -0.1180  -20.1460  -11.0350 C.3       1 THR         0.0924
     22 OG1         0.1810  -19.6570   -9.7010 O.3       1 THR        -0.3874
     23 CG2         1.1330  -20.0840  -11.8840 C.3       1 THR        -0.0346
     24 N          -3.1400  -20.3130  -10.6050 N.am      1 LYS        -0.2637
     25 CA         -4.2640  -20.4380   -9.6920 C.3       1 LYS         0.1309
     26 C          -3.8140  -20.2180   -8.2390 C.2       1 LYS         0.2033
     27 O          -4.5900  -19.7530   -7.4440 O.2       1 LYS        -0.3944
     28 CB         -4.8800  -21.8200   -9.8340 C.3       1 LYS        -0.0122
     29 CG         -6.0310  -22.1230   -8.8910 C.3       1 LYS        -0.0440
     30 CD         -6.5170  -23.5290   -9.1710 C.3       1 LYS        -0.0124
     31 CE         -7.7910  -23.8540   -8.4180 C.3       1 LYS        -0.0354
     32 NZ         -8.3500  -25.1060   -8.9880 N.4       1 LYS         0.2185
     33 N          -2.5610  -20.5250   -7.9050 N.am      1 GLN        -0.2693
     34 CA         -2.0560  -20.2220   -6.5670 C.3       1 GLN         0.0964
     35 C          -2.0420  -18.7090   -6.2480 C.2       1 GLN         0.0602
     36 O          -1.4360  -17.8970   -6.9770 O.co2     1 GLN        -0.5666
     37 CB         -0.6650  -20.7950   -6.4080 C.3       1 GLN        -0.0010
     38 CG         -0.1570  -20.7710   -4.9770 C.3       1 GLN         0.0407
     39 CD          1.3510  -20.8920   -4.9240 C.2       1 GLN         0.1737
     40 OE1         2.0690  -20.2550   -5.7020 O.2       1 GLN        -0.3973
     41 NE2         1.8440  -21.7120   -4.0150 N.am      1 GLN        -0.3009
     42 OXT        -2.6360  -18.2500   -5.2510 O.co2     1 GLN        -0.5666
     43 H1          2.2702  -13.5358  -17.7599 H         1 ALA         0.2015
     44 H2          3.0918  -14.3624  -16.5975 H         1 ALA         0.2015
     45 H3          2.1979  -13.0411  -16.1916 H         1 ALA         0.2015
     46 H4          0.1514  -14.1294  -16.7784 H         1 ALA         0.1095
     47 H5          0.1793  -16.5399  -17.3286 H         1 ALA         0.0310
     48 H6          1.9753  -16.5163  -17.3416 H         1 ALA         0.0310
     49 H7          1.0558  -15.5707  -18.5610 H         1 ALA         0.0310
     50 H8         -0.9567  -15.4825  -15.2237 H         1 ARG         0.1884
     51 H9          0.7895  -16.0957  -12.8929 H         1 ARG         0.0800
     52 H10        -0.4228  -14.0438  -12.4357 H         1 ARG         0.0313
     53 H11        -0.9521  -15.3773  -11.3548 H         1 ARG         0.0313
     54 H12        -2.9641  -14.4994  -11.8171 H         1 ARG         0.0301
     55 H13        -2.8319  -15.6115  -13.2216 H         1 ARG         0.0301
     56 H14        -2.1462  -13.7753  -14.6723 H         1 ARG         0.0689
     57 H15        -2.0976  -12.6437  -13.2780 H         1 ARG         0.0689
     58 H16        -4.4423  -12.5173  -13.2824 H         1 ARG         0.2642
     59 H17        -6.7697  -14.0504  -15.4149 H         1 ARG         0.2615
     60 H18        -6.5062  -12.8415  -14.1296 H         1 ARG         0.2615
     61 H19        -3.4225  -15.0930  -15.5532 H         1 ARG         0.2615
     62 H20        -5.0727  -15.2857  -16.2030 H         1 ARG         0.2615
     63 H21        -0.3432  -17.4277  -11.2555 H         1 THR         0.1884
     64 H22        -1.5547  -19.7766  -12.6138 H         1 THR         0.0826
     65 H23        -0.4584  -21.1899  -10.9686 H         1 THR         0.0639
     66 H24         0.8677  -20.1891   -9.3164 H         1 THR         0.2101
     67 H25         1.9218  -20.6941  -11.4197 H         1 THR         0.0257
     68 H26         1.4733  -19.0407  -11.9599 H         1 THR         0.0257
     69 H27         0.9134  -20.4722  -12.8895 H         1 THR         0.0257
     70 H28        -2.8798  -21.1063  -11.1555 H         1 LYS         0.1883
     71 H29        -5.0180  -19.6795   -9.9492 H         1 LYS         0.0800
     72 H30        -4.0896  -22.5635   -9.6537 H         1 LYS         0.0312
     73 H31        -5.2507  -21.9215  -10.8647 H         1 LYS         0.0312
     74 H32        -6.8484  -21.4065   -9.0594 H         1 LYS         0.0269
     75 H33        -5.6874  -22.0489   -7.8487 H         1 LYS         0.0269
     76 H34        -5.7351  -24.2411   -8.8684 H         1 LYS         0.0317
     77 H35        -6.7074  -23.6299  -10.2497 H         1 LYS         0.0317
     78 H36        -8.5146  -23.0339   -8.5358 H         1 LYS         0.0813
     79 H37        -7.5684  -23.9961   -7.3502 H         1 LYS         0.0813
     80 H38        -9.2008  -25.3453   -8.5032 H         1 LYS         0.1994
     81 H39        -7.6809  -25.8522   -8.8806 H         1 LYS         0.1994
     82 H40        -8.5479  -24.9704   -9.9670 H         1 LYS         0.1994
     83 H41        -1.9623  -20.9655   -8.5740 H         1 GLN         0.1875
     84 H42        -2.7193  -20.7115   -5.8388 H         1 GLN         0.0727
     85 H43         0.0258  -20.2090   -7.0320 H         1 GLN         0.0330
     86 H44        -0.6771  -21.8387   -6.7551 H         1 GLN         0.0330
     87 H45        -0.6030  -21.6113   -4.4248 H         1 GLN         0.0504
     88 H46        -0.4566  -19.8228   -4.5067 H         1 GLN         0.0504
     89 H47         2.8335  -21.8319   -3.9339 H         1 GLN         0.1814
     90 H48         1.2281  -22.2134   -3.4073 H         1 GLN         0.1814
@<TRIPOS>BOND
     1    1    2 1  
     2    2    3 1  
     3    2    5 1  
     4    3    4 2  
     5    3    6 am 
     6    6    7 1  
     7    7    8 1  
     8    7   10 1  
     9    8    9 2  
    10    8   17 am 
    11   10   11 1  
    12   11   12 1  
    13   12   13 1  
    14   13   14 ar 
    15   14   15 ar 
    16   14   16 ar 
    17   17   18 1  
    18   18   19 1  
    19   18   21 1  
    20   19   20 2  
    21   19   24 am 
    22   21   22 1  
    23   21   23 1  
    24   24   25 1  
    25   25   26 1  
    26   25   28 1  
    27   26   27 2  
    28   26   33 am 
    29   28   29 1  
    30   29   30 1  
    31   30   31 1  
    32   31   32 1  
    33   33   34 1  
    34   34   35 1  
    35   34   37 1  
    36   35   36 ar 
    37   35   42 ar 
    38   37   38 1  
    39   38   39 1  
    40   39   40 2  
    41   39   41 am 
    42    1   43 1  
    43    1   44 1  
    44    1   45 1  
    45    2   46 1  
    46    5   47 1  
    47    5   48 1  
    48    5   49 1  
    49    6   50 1  
    50    7   51 1  
    51   10   52 1  
    52   10   53 1  
    53   11   54 1  
    54   11   55 1  
    55   12   56 1  
    56   12   57 1  
    57   13   58 1  
    58   15   59 1  
    59   15   60 1  
    60   16   61 1  
    61   16   62 1  
    62   17   63 1  
    63   18   64 1  
    64   21   65 1  
    65   22   66 1  
    66   23   67 1  
    67   23   68 1  
    68   23   69 1  
    69   24   70 1  
    70   25   71 1  
    71   28   72 1  
    72   28   73 1  
    73   29   74 1  
    74   29   75 1  
    75   30   76 1  
    76   30   77 1  
    77   31   78 1  
    78   31   79 1  
    79   32   80 1  
    80   32   81 1  
    81   32   82 1  
    82   33   83 1  
    83   34   84 1  
    84   37   85 1  
    85   37   86 1  
    86   38   87 1  
    87   38   88 1  
    88   41   89 1  
    89   41   90 1  
@<TRIPOS>SUBSTRUCTURE
     1 ALA         1

