6dh4_ligand
  -I-interpret- 

 78 81  0  0  0  0  0  0  0  0999 V2000
   65.4330   51.7440   12.7420 N   0  0  0  0  0
   66.3690   52.4110   13.6120 C   0  0  0  0  0
   66.1340   53.8650   13.9950 C   0  0  0  0  0
   67.1170   54.5770   14.9090 C   0  0  0  0  0
   68.3280   53.8230   15.4450 C   0  0  0  0  0
   68.5700   52.3720   15.0620 C   0  0  0  0  0
   67.5860   51.6610   14.1430 C   0  0  0  0  0
   69.5000   54.6780   16.5240 S   0  0  0  0  0
   68.8460   55.7620   17.2610 O   0  0  0  0  0
   70.0000   53.8100   17.5870 O   0  0  0  0  0
   70.7720   55.2430   15.5300 N   0  0  0  0  0
   71.5330   54.1960   14.8600 C   0  0  0  0  0
   73.0000   54.5820   14.6880 C   0  0  0  0  0
   73.6880   54.6140   16.0530 C   0  0  0  0  0
   73.6930   53.5700   13.7730 C   0  0  0  0  0
   70.5200   56.4740   14.8020 C   0  0  0  0  0
   71.4160   57.5960   15.3300 C   0  0  0  0  0
   73.6680   52.1560   14.3580 C   0  0  0  0  0
   71.2620   58.7340   14.5300 O   0  0  0  0  0
   71.0620   57.9650   16.7650 C   0  0  0  0  0
   72.0550   58.9190   17.2110 N   0  0  0  0  0
   73.0500   58.5980   18.2070 C   0  0  0  0  0
   73.0540   57.5520   18.7680 O   0  0  0  0  0
   74.0020   59.5910   18.4540 O   0  0  0  0  0
   74.8220   59.5080   19.7080 C   0  0  0  0  0
   75.9910   59.9140   19.4310 C   0  0  0  0  0
   75.8540   61.5490   19.4060 O   0  0  0  0  0
   74.9820   61.8600   20.3040 C   0  0  0  0  0
   73.8080   62.7230   19.7010 O   0  0  0  0  0
   72.7560   61.9330   19.6480 C   0  0  0  0  0
   73.0110   60.7490   20.7310 C   0  0  0  0  0
   74.3380   60.5420   20.7640 C   0  0  0  0  0
   69.7040   58.6600   16.8420 C   0  0  0  0  0
   69.1150   58.1020   19.3560 C   0  0  0  0  0
   68.8840   58.5590   20.7970 C   0  0  0  0  0
   69.0020   60.0390   21.1550 C   0  0  0  0  0
   69.3550   61.0610   20.0760 C   0  0  0  0  0
   69.5880   60.6030   18.6360 C   0  0  0  0  0
   69.4680   59.1240   18.2770 C   0  0  0  0  0
   64.6193   52.2465   12.3872 H   0  0  0  0  0
   65.5843   50.7696   12.4812 H   0  0  0  0  0
   65.2612   54.3952   13.6139 H   0  0  0  0  0
   66.9570   55.6207   15.1796 H   0  0  0  0  0
   69.4435   51.8432   15.4433 H   0  0  0  0  0
   67.7508   50.6198   13.8657 H   0  0  0  0  0
   71.1021   54.0391   13.8712 H   0  0  0  0  0
   71.4856   53.2943   15.4706 H   0  0  0  0  0
   73.0643   55.5719   14.2364 H   0  0  0  0  0
   73.1934   55.3467   16.6907 H   0  0  0  0  0
   73.6248   53.6281   16.5135 H   0  0  0  0  0
   74.7346   54.8900   15.9245 H   0  0  0  0  0
   74.7338   53.8724   13.6573 H   0  0  0  0  0
   73.1636   53.5539   12.8203 H   0  0  0  0  0
   69.4765   56.7592   14.9356 H   0  0  0  0  0
   70.7360   56.3134   13.7458 H   0  0  0  0  0
   72.4455   57.2389   15.3020 H   0  0  0  0  0
   74.1810   52.1530   15.3197 H   0  0  0  0  0
   72.6341   51.8392   14.4952 H   0  0  0  0  0
   74.1711   51.4723   13.6742 H   0  0  0  0  0
   71.8251   59.4366   14.8631 H   0  0  0  0  0
   71.0315   57.0595   17.3710 H   0  0  0  0  0
   72.0518   59.8550   16.8057 H   0  0  0  0  0
   74.7589   58.4843   20.0771 H   0  0  0  0  0
   76.3501   59.5168   18.4816 H   0  0  0  0  0
   76.7277   59.5741   20.1589 H   0  0  0  0  0
   75.4776   62.4205   21.0967 H   0  0  0  0  0
   72.6263   61.5235   18.6462 H   0  0  0  0  0
   71.8437   62.4829   19.8793 H   0  0  0  0  0
   72.4810   59.8397   20.4474 H   0  0  0  0  0
   72.6354   61.0319   21.7144 H   0  0  0  0  0
   74.5952   60.1961   21.7651 H   0  0  0  0  0
   68.9174   57.9666   16.5444 H   0  0  0  0  0
   69.6901   59.5180   16.1699 H   0  0  0  0  0
   69.0277   57.0464   19.0987 H   0  0  0  0  0
   68.6354   57.8293   21.5676 H   0  0  0  0  0
   68.8342   60.3662   22.1811 H   0  0  0  0  0
   69.4408   62.1169   20.3327 H   0  0  0  0  0
   69.8397   61.3322   17.8660 H   0  0  0  0  0
  2  1  1  0  0  0
  3  2  4  0  0  0
  7  2  4  0  0  0
  4  3  4  0  0  0
  5  4  4  0  0  0
  5  6  4  0  0  0
  8  5  1  0  0  0
  6  7  4  0  0  0
  8  9  2  0  0  0
  8 10  2  0  0  0
 11  8  1  0  0  0
 11 12  1  0  0  0
 16 11  1  0  0  0
 12 13  1  0  0  0
 13 14  1  0  0  0
 13 15  1  0  0  0
 15 18  1  0  0  0
 17 16  1  0  0  0
 17 19  1  0  0  0
 20 17  1  0  0  0
 20 21  1  0  0  0
 33 20  1  0  0  0
 21 22  1  0  0  0
 22 23  2  0  0  0
 22 24  1  0  0  0
 24 25  1  0  0  0
 25 26  1  0  0  0
 25 32  1  0  0  0
 26 27  1  0  0  0
 28 27  1  0  0  0
 28 29  1  0  0  0
 32 28  1  0  0  0
 30 29  1  0  0  0
 31 30  1  0  0  0
 32 31  1  0  0  0
 39 33  1  0  0  0
 34 35  4  0  0  0
 34 39  4  0  0  0
 35 36  4  0  0  0
 36 37  4  0  0  0
 37 38  4  0  0  0
 38 39  4  0  0  0
  1 40  1  0  0  0
  1 41  1  0  0  0
  3 42  1  0  0  0
  4 43  1  0  0  0
  6 44  1  0  0  0
  7 45  1  0  0  0
 12 46  1  0  0  0
 12 47  1  0  0  0
 13 48  1  0  0  0
 14 49  1  0  0  0
 14 50  1  0  0  0
 14 51  1  0  0  0
 15 52  1  0  0  0
 15 53  1  0  0  0
 16 54  1  0  0  0
 16 55  1  0  0  0
 17 56  1  0  0  0
 18 57  1  0  0  0
 18 58  1  0  0  0
 18 59  1  0  0  0
 19 60  1  0  0  0
 20 61  1  0  0  0
 21 62  1  0  0  0
 25 63  1  0  0  0
 26 64  1  0  0  0
 26 65  1  0  0  0
 28 66  1  0  0  0
 30 67  1  0  0  0
 30 68  1  0  0  0
 31 69  1  0  0  0
 31 70  1  0  0  0
 32 71  1  0  0  0
 33 72  1  0  0  0
 33 73  1  0  0  0
 34 74  1  0  0  0
 35 75  1  0  0  0
 36 76  1  0  0  0
 37 77  1  0  0  0
 38 78  1  0  0  0
M  END
$$$$
