4fcb_ligand
  -I-interpret- 

 54 58  0  0  0  0  0  0  0  0999 V2000
   17.2610   -9.6020  -36.2400 C   0  0  0  0  0
   17.6580  -10.2310  -34.9150 C   0  0  0  0  0
   19.1130   -9.9130  -34.5660 C   0  0  0  0  0
   19.7040  -11.0500  -33.8050 C   0  0  0  0  0
   19.6640  -11.0670  -32.4880 N   0  0  0  0  0
   20.2700  -12.2240  -32.0810 C   0  0  0  0  0
   20.6970  -12.9540  -33.1750 C   0  0  0  0  0
   20.3290  -12.1910  -34.2940 N   0  0  0  0  0
   20.6270  -12.6660  -35.6070 C   0  0  0  0  0
   20.3140  -12.0020  -36.7960 C   0  0  0  0  0
   20.6630  -12.5640  -38.0340 C   0  0  0  0  0
   21.3250  -13.7990  -38.1050 C   0  0  0  0  0
   21.6360  -14.4640  -36.9170 C   0  0  0  0  0
   21.2980  -13.9090  -35.6710 C   0  0  0  0  0
   21.6670  -14.6620  -34.5320 N   0  0  0  0  0
   21.3890  -14.2230  -33.3460 C   0  0  0  0  0
   21.8260  -15.1040  -32.2090 C   0  0  0  0  0
   21.6040  -14.2540  -39.3680 O   0  0  0  0  0
   22.6720  -15.2010  -39.4860 C   0  0  0  0  0
   22.4320  -16.0350  -40.7110 C   0  0  0  0  0
   22.8950  -15.5890  -41.9450 C   0  0  0  0  0
   22.6580  -16.3800  -43.0680 C   0  0  0  0  0
   21.9670  -17.5950  -42.9380 C   0  0  0  0  0
   21.7130  -18.4200  -44.0520 C   0  0  0  0  0
   21.0250  -19.6240  -43.8890 C   0  0  0  0  0
   20.5920  -20.0080  -42.6240 C   0  0  0  0  0
   20.8490  -19.1880  -41.5160 C   0  0  0  0  0
   21.5300  -17.9790  -41.6420 C   0  0  0  0  0
   21.7590  -17.2090  -40.5530 N   0  0  0  0  0
   20.3680  -12.4840  -30.6310 C   0  0  0  0  0
   17.3755   -8.5199  -36.1758 H   0  0  0  0  0
   17.9020   -9.9901  -37.0315 H   0  0  0  0  0
   16.2217   -9.8463  -36.4598 H   0  0  0  0  0
   17.5479  -11.3124  -34.9962 H   0  0  0  0  0
   17.0161   -9.8274  -34.1320 H   0  0  0  0  0
   19.1504   -9.0104  -33.9561 H   0  0  0  0  0
   19.6801   -9.7575  -35.4838 H   0  0  0  0  0
   19.7965  -11.0433  -36.7620 H   0  0  0  0  0
   20.4161  -12.0333  -38.9535 H   0  0  0  0  0
   22.1474  -15.4258  -36.9567 H   0  0  0  0  0
   22.5201  -14.5556  -31.5722 H   0  0  0  0  0
   20.9544  -15.4021  -31.6263 H   0  0  0  0  0
   22.3192  -15.9908  -32.6070 H   0  0  0  0  0
   22.7056  -15.8376  -38.6019 H   0  0  0  0  0
   23.6254  -14.6796  -39.5705 H   0  0  0  0  0
   23.4303  -14.6435  -42.0315 H   0  0  0  0  0
   23.0093  -16.0550  -44.0473 H   0  0  0  0  0
   22.0541  -18.1178  -45.0422 H   0  0  0  0  0
   20.8277  -20.2615  -44.7508 H   0  0  0  0  0
   20.0529  -20.9464  -42.4941 H   0  0  0  0  0
   20.5072  -19.5046  -40.5306 H   0  0  0  0  0
   20.9374  -11.6843  -30.1574 H   0  0  0  0  0
   19.3669  -12.5224  -30.2016 H   0  0  0  0  0
   20.8718  -13.4366  -30.4672 H   0  0  0  0  0
  1  2  1  0  0  0
  2  3  1  0  0  0
  3  4  1  0  0  0
  4  5  4  0  0  0
  4  8  4  0  0  0
  5  6  4  0  0  0
  6  7  4  0  0  0
  6 30  1  0  0  0
  7  8  4  0  0  0
  7 16  4  0  0  0
  8  9  4  0  0  0
  9 10  4  0  0  0
  9 14  4  0  0  0
 10 11  4  0  0  0
 11 12  4  0  0  0
 12 13  4  0  0  0
 12 18  1  0  0  0
 13 14  4  0  0  0
 14 15  4  0  0  0
 15 16  4  0  0  0
 16 17  1  0  0  0
 18 19  1  0  0  0
 19 20  1  0  0  0
 20 21  4  0  0  0
 20 29  4  0  0  0
 21 22  4  0  0  0
 22 23  4  0  0  0
 23 24  4  0  0  0
 23 28  4  0  0  0
 24 25  4  0  0  0
 25 26  4  0  0  0
 26 27  4  0  0  0
 27 28  4  0  0  0
 28 29  4  0  0  0
  1 31  1  0  0  0
  1 32  1  0  0  0
  1 33  1  0  0  0
  2 34  1  0  0  0
  2 35  1  0  0  0
  3 36  1  0  0  0
  3 37  1  0  0  0
 10 38  1  0  0  0
 11 39  1  0  0  0
 13 40  1  0  0  0
 17 41  1  0  0  0
 17 42  1  0  0  0
 17 43  1  0  0  0
 19 44  1  0  0  0
 19 45  1  0  0  0
 21 46  1  0  0  0
 22 47  1  0  0  0
 24 48  1  0  0  0
 25 49  1  0  0  0
 26 50  1  0  0  0
 27 51  1  0  0  0
 30 52  1  0  0  0
 30 53  1  0  0  0
 30 54  1  0  0  0
M  END
$$$$
