5cau_ligand
  -I-interpret- 

 59 62  0  0  0  0  0  0  0  0999 V2000
  -49.6030   -1.0120  -21.9970 C   0  0  0  0  0
  -52.7440    1.0990  -19.7160 C   0  0  0  0  0
  -53.7210    2.0750  -19.8810 C   0  0  0  0  0
  -53.9950    1.4740  -22.1210 C   0  0  0  0  0
  -53.0030    0.4930  -22.0470 C   0  0  0  0  0
  -52.3640    0.2850  -20.8170 C   0  0  0  0  0
  -50.6690   -1.6110  -21.0870 C   0  0  0  0  0
  -51.5250   -2.7360  -21.6940 C   0  0  0  0  0
  -51.1770   -0.2280  -19.0130 C   0  0  0  0  0
  -50.1140   -0.1730  -16.7040 C   0  0  0  0  0
  -50.1770   -0.8640  -18.0690 C   0  0  0  0  0
  -51.9920    0.7190  -18.6640 N   0  0  0  0  0
  -54.2970    2.2230  -21.0590 N   0  0  0  0  0
  -51.3960   -0.5730  -20.3300 N   0  0  0  0  0
  -50.1770   -0.3040  -23.0390 F   0  0  0  0  0
  -48.8080   -0.1400  -21.2550 F   0  0  0  0  0
  -48.8150   -2.0260  -22.5250 F   0  0  0  0  0
  -54.6860    1.7850  -23.2900 N   0  0  0  0  0
  -54.8980    1.0050  -24.4110 C   0  0  0  0  0
  -56.1110    1.1230  -25.1090 C   0  0  0  0  0
  -56.2620    0.3410  -26.2460 C   0  0  0  0  0
  -55.2910   -0.4890  -26.6260 N   0  0  0  0  0
  -54.1490   -0.5950  -25.9380 C   0  0  0  0  0
  -53.9610    0.1750  -24.8650 N   0  0  0  0  0
  -53.0950   -1.4080  -26.3760 N   0  0  0  0  0
  -53.1940   -2.1540  -27.6530 C   0  0  0  0  0
  -51.8190   -2.2230  -28.3440 C   0  0  0  0  0
  -50.7440   -2.7320  -27.3600 C   0  0  0  0  0
  -50.6940   -1.8630  -26.0800 C   0  0  0  0  0
  -52.0740   -1.8560  -25.3980 C   0  0  0  0  0
  -50.3550   -0.5590  -26.4610 F   0  0  0  0  0
  -49.4770   -2.6730  -28.0180 O   0  0  0  0  0
  -48.5890   -3.7410  -27.6710 C   0  0  0  0  0
  -50.5880   -2.2060  -17.8730 O   0  0  0  0  0
  -54.0084    2.7121  -19.0446 H   0  0  0  0  0
  -52.7328   -0.0957  -22.9237 H   0  0  0  0  0
  -50.1217   -2.1824  -20.3373 H   0  0  0  0  0
  -52.0530   -3.2594  -20.8969 H   0  0  0  0  0
  -52.2468   -2.3069  -22.3890 H   0  0  0  0  0
  -50.8795   -3.4359  -22.2246 H   0  0  0  0  0
  -49.8244    0.8692  -16.8388 H   0  0  0  0  0
  -51.0937   -0.2207  -16.2285 H   0  0  0  0  0
  -49.3792   -0.6773  -16.0765 H   0  0  0  0  0
  -49.1849   -0.7811  -18.5129 H   0  0  0  0  0
  -55.0926    2.7198  -23.3232 H   0  0  0  0  0
  -56.8982    1.7980  -24.7732 H   0  0  0  0  0
  -57.1794    0.4062  -26.8310 H   0  0  0  0  0
  -53.8957   -1.6404  -28.3102 H   0  0  0  0  0
  -53.5380   -3.1673  -27.4459 H   0  0  0  0  0
  -51.5433   -1.2248  -28.6842 H   0  0  0  0  0
  -51.8808   -2.9106  -29.1875 H   0  0  0  0  0
  -50.9876   -3.7522  -27.0635 H   0  0  0  0  0
  -49.9608   -2.2628  -25.3796 H   0  0  0  0  0
  -52.3159   -2.8597  -25.0485 H   0  0  0  0  0
  -52.0589   -1.1766  -24.5458 H   0  0  0  0  0
  -48.3961   -3.7174  -26.5985 H   0  0  0  0  0
  -49.0465   -4.6936  -27.9383 H   0  0  0  0  0
  -47.6507   -3.6223  -28.2129 H   0  0  0  0  0
  -49.9753   -2.6434  -17.2772 H   0  0  0  0  0
  7  1  1  0  0  0
  1 15  1  0  0  0
  1 16  1  0  0  0
  1 17  1  0  0  0
  2  3  4  0  0  0
  2  6  4  0  0  0
 12  2  4  0  0  0
  3 13  4  0  0  0
  5  4  4  0  0  0
 13  4  4  0  0  0
  4 18  1  0  0  0
  6  5  4  0  0  0
  6 14  4  0  0  0
  7  8  1  0  0  0
 14  7  1  0  0  0
  9 11  1  0  0  0
  9 12  4  0  0  0
  9 14  4  0  0  0
 11 10  1  0  0  0
 11 34  1  0  0  0
 18 19  1  0  0  0
 19 20  4  0  0  0
 19 24  4  0  0  0
 20 21  4  0  0  0
 21 22  4  0  0  0
 22 23  4  0  0  0
 23 24  4  0  0  0
 23 25  1  0  0  0
 25 26  1  0  0  0
 25 30  1  0  0  0
 26 27  1  0  0  0
 27 28  1  0  0  0
 28 29  1  0  0  0
 28 32  1  0  0  0
 29 30  1  0  0  0
 29 31  1  0  0  0
 32 33  1  0  0  0
  3 35  1  0  0  0
  5 36  1  0  0  0
  7 37  1  0  0  0
  8 38  1  0  0  0
  8 39  1  0  0  0
  8 40  1  0  0  0
 10 41  1  0  0  0
 10 42  1  0  0  0
 10 43  1  0  0  0
 11 44  1  0  0  0
 18 45  1  0  0  0
 20 46  1  0  0  0
 21 47  1  0  0  0
 26 48  1  0  0  0
 26 49  1  0  0  0
 27 50  1  0  0  0
 27 51  1  0  0  0
 28 52  1  0  0  0
 29 53  1  0  0  0
 30 54  1  0  0  0
 30 55  1  0  0  0
 33 56  1  0  0  0
 33 57  1  0  0  0
 33 58  1  0  0  0
 34 59  1  0  0  0
M  END
$$$$
