5n7v_ligand
  -I-interpret- 

 58 62  0  0  0  0  0  0  0  0999 V2000
   36.2030   43.2240   37.9060 C   0  0  0  0  0
   36.6270   42.3890   38.9060 C   0  0  0  0  0
   36.2810   42.6830   40.1790 C   0  0  0  0  0
   37.3430   41.6700   36.9960 C   0  0  0  0  0
   35.1080   44.5340   39.4800 C   0  0  0  0  0
   38.4230   41.4770   42.7350 C   0  0  0  0  0
   38.0290   41.3730   44.2210 C   0  0  0  0  0
   36.8060   40.4660   44.5450 C   0  0  0  0  0
   35.8020   40.3210   43.3930 C   0  0  0  0  0
   36.6200   39.8240   42.2620 C   0  0  0  0  0
   37.4100   40.9790   41.6560 C   0  0  0  0  0
   36.5380   42.0460   41.3310 N   0  0  0  0  0
   35.5400   43.7360   40.4250 N   0  0  0  0  0
   37.3310   41.4320   38.3370 N   0  0  0  0  0
   36.6390   42.7670   36.7220 N   0  0  0  0  0
   35.4360   44.3030   38.1850 N   0  0  0  0  0
   34.3740   45.5380   39.9560 N   0  0  0  0  0
   34.1920   45.6190   41.3170 C   0  0  0  0  0
   34.2640   46.8980   41.8980 C   0  0  0  0  0
   34.5260   48.0390   41.1560 C   0  0  0  0  0
   34.0790   47.0390   43.2580 C   0  0  0  0  0
   33.9390   44.5030   42.1390 C   0  0  0  0  0
   33.7480   44.6650   43.5020 C   0  0  0  0  0
   33.8200   45.9440   44.0630 C   0  0  0  0  0
   33.6290   46.1490   45.3740 N   0  0  0  0  0
   32.6370   47.1600   45.7840 C   0  0  0  0  0
   32.6840   47.2030   47.3090 C   0  0  0  0  0
   32.4510   45.8650   47.8090 O   0  0  0  0  0
   33.5630   44.9930   47.6190 C   0  0  0  0  0
   34.3960   45.3910   46.3920 C   0  0  0  0  0
   37.8535   41.0536   36.2561 H   0  0  0  0  0
   39.2941   40.8309   42.6263 H   0  0  0  0  0
   38.5377   42.5443   42.5457 H   0  0  0  0  0
   37.7531   42.3799   44.5343 H   0  0  0  0  0
   38.8825   40.9276   44.7321 H   0  0  0  0  0
   36.2748   40.9299   45.3761 H   0  0  0  0  0
   37.1939   39.4700   44.7588 H   0  0  0  0  0
   35.3038   41.2619   43.1594 H   0  0  0  0  0
   34.9855   39.6427   43.6406 H   0  0  0  0  0
   35.9659   39.3948   41.5030 H   0  0  0  0  0
   37.3111   39.0620   42.6222 H   0  0  0  0  0
   37.9208   40.6473   40.7520 H   0  0  0  0  0
   36.0028   42.3976   42.1249 H   0  0  0  0  0
   33.9586   46.2273   39.3293 H   0  0  0  0  0
   35.4978   47.9410   40.6722 H   0  0  0  0  0
   33.7524   48.1637   40.3983 H   0  0  0  0  0
   34.5331   48.9064   41.8160 H   0  0  0  0  0
   34.1380   48.0308   43.7062 H   0  0  0  0  0
   33.8932   43.5063   41.7002 H   0  0  0  0  0
   33.5428   43.8004   44.1332 H   0  0  0  0  0
   31.6400   46.9015   45.4273 H   0  0  0  0  0
   32.8672   48.1351   45.3547 H   0  0  0  0  0
   31.9198   47.8818   47.6875 H   0  0  0  0  0
   33.6573   47.5626   47.6430 H   0  0  0  0  0
   33.1839   43.9830   47.4630 H   0  0  0  0  0
   34.2009   45.0538   48.5008 H   0  0  0  0  0
   35.2030   46.0358   46.7401 H   0  0  0  0  0
   34.7441   44.4716   45.9212 H   0  0  0  0  0
  2  1  4  0  0  0
  1 15  4  0  0  0
  1 16  4  0  0  0
  3  2  4  0  0  0
  2 14  4  0  0  0
 12  3  1  0  0  0
  3 13  4  0  0  0
 14  4  4  0  0  0
  4 15  4  0  0  0
 13  5  4  0  0  0
  5 16  4  0  0  0
  5 17  1  0  0  0
  6  7  1  0  0  0
 11  6  1  0  0  0
  7  8  1  0  0  0
  9  8  1  0  0  0
 10  9  1  0  0  0
 11 10  1  0  0  0
 11 12  1  0  0  0
 17 18  1  0  0  0
 18 19  4  0  0  0
 18 22  4  0  0  0
 19 20  1  0  0  0
 19 21  4  0  0  0
 21 24  4  0  0  0
 22 23  4  0  0  0
 23 24  4  0  0  0
 24 25  1  0  0  0
 25 26  1  0  0  0
 25 30  1  0  0  0
 26 27  1  0  0  0
 27 28  1  0  0  0
 28 29  1  0  0  0
 29 30  1  0  0  0
  4 31  1  0  0  0
  6 32  1  0  0  0
  6 33  1  0  0  0
  7 34  1  0  0  0
  7 35  1  0  0  0
  8 36  1  0  0  0
  8 37  1  0  0  0
  9 38  1  0  0  0
  9 39  1  0  0  0
 10 40  1  0  0  0
 10 41  1  0  0  0
 11 42  1  0  0  0
 12 43  1  0  0  0
 17 44  1  0  0  0
 20 45  1  0  0  0
 20 46  1  0  0  0
 20 47  1  0  0  0
 21 48  1  0  0  0
 22 49  1  0  0  0
 23 50  1  0  0  0
 26 51  1  0  0  0
 26 52  1  0  0  0
 27 53  1  0  0  0
 27 54  1  0  0  0
 29 55  1  0  0  0
 29 56  1  0  0  0
 30 57  1  0  0  0
 30 58  1  0  0  0
M  END
$$$$
