2y82_ligand
  -I-interpret- 

 57 61  0  0  0  0  0  0  0  0999 V2000
    7.7360    5.5870   19.5210 F   0  0  0  0  0
    7.6020    4.3080   19.8650 C   0  0  0  0  0
    6.8360    3.9470   20.9780 C   0  0  0  0  0
    6.7570    2.5790   21.2810 C   0  0  0  0  0
    7.4110    1.6370   20.4870 C   0  0  0  0  0
    8.1680    2.0200   19.3810 C   0  0  0  0  0
    8.8430    0.9750   18.5220 C   0  0  0  0  0
   10.1000    1.4860   17.8060 C   0  0  0  0  0
    9.6210    1.8670   16.4020 C   0  0  0  0  0
    8.1870    1.3290   16.2860 C   0  0  0  0  0
    7.9630    0.4720   17.4550 N   0  3  0  0  0
    8.2510    3.3830   19.0720 C   0  0  0  0  0
    6.1580    4.8930   21.8160 N   0  0  0  0  0
    6.7280    6.0210   22.3140 C   0  0  0  0  0
    7.8450    6.4440   22.0590 O   0  0  0  0  0
    5.7370    6.6930   23.2730 C   0  0  0  0  0
    4.4100    6.0840   22.8520 C   0  0  0  0  0
    4.7750    4.7340   22.2470 C   0  0  0  0  0
    5.7660    8.1440   23.1460 N   0  0  0  0  0
    6.2570    9.1120   24.3470 S   0  0  0  0  0
    6.2370   10.3900   23.7210 O   0  0  0  0  0
    5.5100    8.8960   25.5530 O   0  0  0  0  0
    7.9560    8.7830   24.7060 C   0  0  0  0  0
    8.8890    9.2380   23.7590 C   0  0  0  0  0
   10.2460    9.0280   23.9970 C   0  0  0  0  0
   10.6470    8.3690   25.1760 C   0  0  0  0  0
    9.6940    7.9120   26.1250 C   0  0  0  0  0
    8.3180    8.1390   25.8670 C   0  0  0  0  0
   12.0040    8.1520   25.4120 C   0  0  0  0  0
   12.3950    7.5090   26.5810 C   0  0  0  0  0
   14.1010    7.2880   26.7970 Cl  0  0  0  0  0
   11.4610    7.0520   27.5330 C   0  0  0  0  0
   10.1230    7.2560   27.3090 C   0  0  0  0  0
    6.1793    2.2496   22.1447 H   0  0  0  0  0
    7.3284    0.5792   20.7366 H   0  0  0  0  0
    9.1009    0.1931   19.2363 H   0  0  0  0  0
   10.8859    0.7313   17.7763 H   0  0  0  0  0
   10.5481    2.3326   18.3262 H   0  0  0  0  0
   10.2668    1.4406   15.6344 H   0  0  0  0  0
    9.6519    2.9463   16.2528 H   0  0  0  0  0
    8.0565    0.7668   15.3613 H   0  0  0  0  0
    7.4663    2.1463   16.2596 H   0  0  0  0  0
    6.9857    0.5013   17.7455 H   0  0  0  0  0
    8.1746   -0.5019   17.2379 H   0  0  0  0  0
    8.8267    3.7130   18.2073 H   0  0  0  0  0
    5.9580    6.5255   24.3272 H   0  0  0  0  0
    3.8807    6.7175   22.1403 H   0  0  0  0  0
    3.7264    5.9793   23.6945 H   0  0  0  0  0
    4.6598    3.9197   22.9624 H   0  0  0  0  0
    4.1169    4.4636   21.4212 H   0  0  0  0  0
    5.4656    8.5659   22.2672 H   0  0  0  0  0
    8.5571    9.7465   22.8538 H   0  0  0  0  0
   10.9901    9.3703   23.2778 H   0  0  0  0  0
    7.5596    7.8087   26.5768 H   0  0  0  0  0
   12.7494    8.4825   24.6886 H   0  0  0  0  0
   11.7978    6.5428   28.4360 H   0  0  0  0  0
    9.3896    6.9147   28.0396 H   0  0  0  0  0
  1  2  1  0  0  0
  2  3  4  0  0  0
  2 12  4  0  0  0
  3  4  4  0  0  0
  3 13  1  0  0  0
  4  5  4  0  0  0
  5  6  4  0  0  0
  6  7  1  0  0  0
  6 12  4  0  0  0
  7  8  1  0  0  0
  7 11  1  0  0  0
  8  9  1  0  0  0
  9 10  1  0  0  0
 10 11  1  0  0  0
 13 14  1  0  0  0
 13 18  1  0  0  0
 14 15  2  0  0  0
 14 16  1  0  0  0
 16 17  1  0  0  0
 16 19  1  0  0  0
 17 18  1  0  0  0
 19 20  1  0  0  0
 20 21  2  0  0  0
 20 22  2  0  0  0
 20 23  1  0  0  0
 23 24  4  0  0  0
 23 28  4  0  0  0
 24 25  4  0  0  0
 25 26  4  0  0  0
 26 27  4  0  0  0
 26 29  4  0  0  0
 27 28  4  0  0  0
 27 33  4  0  0  0
 29 30  4  0  0  0
 30 31  1  0  0  0
 30 32  4  0  0  0
 32 33  4  0  0  0
  4 34  1  0  0  0
  5 35  1  0  0  0
  7 36  1  0  0  0
  8 37  1  0  0  0
  8 38  1  0  0  0
  9 39  1  0  0  0
  9 40  1  0  0  0
 10 41  1  0  0  0
 10 42  1  0  0  0
 11 43  1  0  0  0
 11 44  1  0  0  0
 12 45  1  0  0  0
 16 46  1  0  0  0
 17 47  1  0  0  0
 17 48  1  0  0  0
 18 49  1  0  0  0
 18 50  1  0  0  0
 19 51  1  0  0  0
 24 52  1  0  0  0
 25 53  1  0  0  0
 28 54  1  0  0  0
 29 55  1  0  0  0
 32 56  1  0  0  0
 33 57  1  0  0  0
M  END
$$$$
