### 
### Created by X-TOOL on Mon Sep 10 21:12:46 2018
### 

@<TRIPOS>MOLECULE
3bls_ligand
   18    18     1     0     0
SMALL
GAST_HUCK


@<TRIPOS>ATOM
      1 B          25.9850    5.0530   17.2460 B         1 APB         0.7278
      2 O1         24.8500    4.0710   16.6920 O.3       1 APB        -0.4941
      3 O2         25.8890    6.5390   16.4900 O.3       1 APB        -0.4941
      4 C1         25.6670    5.3220   18.8640 C.ar      1 APB        -0.0652
      5 C2         24.5100    4.7770   19.4230 C.ar      1 APB        -0.0542
      6 C3         24.1640    5.0260   20.7530 C.ar      1 APB         0.0341
      7 C4         24.9780    5.8940   21.4860 C.ar      1 APB        -0.0448
      8 C5         26.1200    6.4690   20.9190 C.ar      1 APB        -0.0748
      9 C6         26.4510    6.2120   19.5910 C.ar      1 APB        -0.0846
     10 N1         23.0300    4.4630   21.2920 N.pl3     1 APB        -0.3370
     11 H1         23.9953    4.4498   16.8605 H         1 APB         0.1669
     12 H2         26.5683    7.1101   16.8291 H         1 APB         0.1669
     13 H3         23.8689    4.1496   18.8143 H         1 APB         0.0503
     14 H4         24.7195    6.1259   22.5129 H         1 APB         0.0515
     15 H5         26.7505    7.1178   21.5162 H         1 APB         0.0582
     16 H6         27.3047    6.6970   19.1317 H         1 APB         0.0493
     17 H7         22.4514    3.8269   20.7250 H         1 APB         0.1719
     18 H8         22.7598    4.6776   22.2625 H         1 APB         0.1719
@<TRIPOS>BOND
     1    4    5 ar 
     2    4    9 ar 
     3    5    6 ar 
     4    6   10 1  
     5    6    7 ar 
     6    7    8 ar 
     7    8    9 ar 
     8    4    1 1  
     9    1    2 1  
    10    1    3 1  
    11    2   11 1  
    12    3   12 1  
    13    5   13 1  
    14    7   14 1  
    15    8   15 1  
    16    9   16 1  
    17   10   17 1  
    18   10   18 1  
@<TRIPOS>SUBSTRUCTURE
     1 APB         1

