3bls_ligand
  -I-interpret- 

 18 18  0  0  0  0  0  0  0  0999 V2000
   25.9850    5.0530   17.2460 B   0  0  0  0  0
   24.8500    4.0710   16.6920 O   0  0  0  0  0
   25.8890    6.5390   16.4900 O   0  0  0  0  0
   25.6670    5.3220   18.8640 C   0  0  0  0  0
   24.5100    4.7770   19.4230 C   0  0  0  0  0
   24.1640    5.0260   20.7530 C   0  0  0  0  0
   24.9780    5.8940   21.4860 C   0  0  0  0  0
   26.1200    6.4690   20.9190 C   0  0  0  0  0
   26.4510    6.2120   19.5910 C   0  0  0  0  0
   23.0300    4.4630   21.2920 N   0  0  0  0  0
   24.9183    3.2224   17.1356 H   0  0  0  0  0
   26.5754    7.1160   16.8327 H   0  0  0  0  0
   23.8654    4.1462   18.8110 H   0  0  0  0  0
   24.7181    6.1271   22.5186 H   0  0  0  0  0
   26.7539    7.1214   21.5195 H   0  0  0  0  0
   27.3095    6.6997   19.1292 H   0  0  0  0  0
   22.4380    3.8609   20.7197 H   0  0  0  0  0
   22.7814    4.6477   22.2638 H   0  0  0  0  0
  4  5  4  0  0  0
  4  9  4  0  0  0
  5  6  4  0  0  0
  6 10  1  0  0  0
  6  7  4  0  0  0
  7  8  4  0  0  0
  8  9  4  0  0  0
  4  1  1  0  0  0
  1  2  1  0  0  0
  1  3  1  0  0  0
  2 11  1  0  0  0
  3 12  1  0  0  0
  5 13  1  0  0  0
  7 14  1  0  0  0
  8 15  1  0  0  0
  9 16  1  0  0  0
 10 17  1  0  0  0
 10 18  1  0  0  0
M  END
$$$$
