1mfa_ligand
  -I-interpret- 

 67 69  0  0  0  0  0  0  0  0999 V2000
   10.7060   -8.9050   64.6760 C   0  0  0  0  0
   11.5500   -8.1390   65.6610 C   0  0  0  0  0
   11.6750   -8.8030   67.0060 C   0  0  0  0  0
   10.2940   -9.2450   67.4840 C   0  0  0  0  0
    9.6710  -10.2030   66.4400 C   0  0  0  0  0
    8.3200  -10.7980   66.8990 C   0  0  0  0  0
   12.8480   -8.0600   65.1630 O   0  0  0  0  0
   12.2400   -7.8490   67.8820 O   0  0  0  0  0
    9.4940   -8.0750   67.6350 O   0  0  0  0  0
    9.4960   -9.4460   65.2230 O   0  0  0  0  0
    8.0070  -11.9680   66.1500 O   0  0  0  0  0
   10.1940  -11.6420   63.1380 C   0  0  0  0  0
   11.0770  -10.4460   62.8910 C   0  0  0  0  0
   12.2940  -10.8070   62.0500 C   0  0  0  0  0
   13.0420  -12.0170   62.6330 C   0  0  0  0  0
   12.0610  -13.1800   62.8670 C   0  0  0  0  0
   12.6430  -14.4110   63.5740 C   0  0  0  0  0
    8.4880  -12.8950   61.9170 C   0  0  0  0  0
    9.6110  -12.0020   61.8990 O   0  0  0  0  0
   11.5170   -9.9660   64.1460 O   0  0  0  0  0
   13.1770   -9.6680   62.0310 O   0  0  0  0  0
   14.0830  -12.4220   61.7600 O   0  0  0  0  0
   10.9850  -12.7090   63.6700 O   0  0  0  0  0
   13.1760  -14.0250   64.8430 O   0  0  0  0  0
   13.7270   -9.3240   60.7320 C   0  0  0  0  0
   14.8940   -8.3880   60.9610 C   0  0  0  0  0
   14.3860   -7.0230   61.4200 C   0  0  0  0  0
   13.3880   -6.5130   60.3760 C   0  0  0  0  0
   12.2170   -7.4920   60.2770 C   0  0  0  0  0
   11.1940   -7.0300   59.2240 C   0  0  0  0  0
   15.7160   -8.9730   61.9510 O   0  0  0  0  0
   14.0260   -6.3780   59.1000 O   0  0  0  0  0
   12.7360   -8.7700   59.8900 O   0  0  0  0  0
   10.3818   -8.2041   63.9068 H   0  0  0  0  0
   11.0586   -7.1744   65.7884 H   0  0  0  0  0
   12.3061   -9.6907   66.9637 H   0  0  0  0  0
   10.3578   -9.7748   68.4345 H   0  0  0  0  0
   10.3363  -11.0543   66.2957 H   0  0  0  0  0
    7.5361  -10.0573   66.7409 H   0  0  0  0  0
    8.3910  -11.0626   67.9540 H   0  0  0  0  0
   12.8332   -7.6416   64.2991 H   0  0  0  0  0
   13.1055   -7.5906   67.5567 H   0  0  0  0  0
    9.8968   -7.4951   68.2854 H   0  0  0  0  0
    7.1663  -12.3224   66.4487 H   0  0  0  0  0
    9.4079  -11.4188   63.8594 H   0  0  0  0  0
   10.5059   -9.6934   62.3474 H   0  0  0  0  0
   11.9656  -11.0701   61.0445 H   0  0  0  0  0
   13.4830  -11.7293   63.5874 H   0  0  0  0  0
   11.7637  -13.5045   61.8698 H   0  0  0  0  0
   13.4367  -14.8397   62.9621 H   0  0  0  0  0
   11.8564  -15.1512   63.7206 H   0  0  0  0  0
    8.7829  -13.8383   62.3767 H   0  0  0  0  0
    7.6780  -12.4465   62.4922 H   0  0  0  0  0
    8.1531  -13.0761   60.8957 H   0  0  0  0  0
   14.5399  -13.1773   62.1374 H   0  0  0  0  0
   13.5397  -14.7962   65.2840 H   0  0  0  0  0
   14.0825  -10.2145   60.2136 H   0  0  0  0  0
   15.4593   -8.2381   60.0412 H   0  0  0  0  0
   15.2178   -6.3253   61.5178 H   0  0  0  0  0
   13.9019   -7.1093   62.3928 H   0  0  0  0  0
   13.0189   -5.5337   60.6808 H   0  0  0  0  0
   11.7142   -7.5443   61.2427 H   0  0  0  0  0
   10.8064   -6.0497   59.5014 H   0  0  0  0  0
   11.6797   -6.9678   58.2502 H   0  0  0  0  0
   10.3739   -7.7464   59.1772 H   0  0  0  0  0
   16.4684   -8.4010   62.1196 H   0  0  0  0  0
   13.3888   -6.0580   58.4572 H   0  0  0  0  0
  1 10  1  0  0  0
  1  2  1  0  0  0
  2  7  1  0  0  0
  2  3  1  0  0  0
  3  8  1  0  0  0
  3  4  1  0  0  0
  4  9  1  0  0  0
  5  4  1  0  0  0
 10  5  1  0  0  0
  5  6  1  0  0  0
  6 11  1  0  0  0
 12 23  1  0  0  0
 12 19  1  0  0  0
 13 12  1  0  0  0
 13 20  1  0  0  0
 14 13  1  0  0  0
 21 14  1  0  0  0
 14 15  1  0  0  0
 15 22  1  0  0  0
 15 16  1  0  0  0
 16 23  1  0  0  0
 16 17  1  0  0  0
 17 24  1  0  0  0
 19 18  1  0  0  0
 25 33  1  0  0  0
 25 26  1  0  0  0
 26 31  1  0  0  0
 26 27  1  0  0  0
 27 28  1  0  0  0
 28 32  1  0  0  0
 29 28  1  0  0  0
 33 29  1  0  0  0
 29 30  1  0  0  0
 20  1  1  0  0  0
 21 25  1  0  0  0
  1 34  1  0  0  0
  2 35  1  0  0  0
  3 36  1  0  0  0
  4 37  1  0  0  0
  5 38  1  0  0  0
  6 39  1  0  0  0
  6 40  1  0  0  0
  7 41  1  0  0  0
  8 42  1  0  0  0
  9 43  1  0  0  0
 11 44  1  0  0  0
 12 45  1  0  0  0
 13 46  1  0  0  0
 14 47  1  0  0  0
 15 48  1  0  0  0
 16 49  1  0  0  0
 17 50  1  0  0  0
 17 51  1  0  0  0
 18 52  1  0  0  0
 18 53  1  0  0  0
 18 54  1  0  0  0
 22 55  1  0  0  0
 24 56  1  0  0  0
 25 57  1  0  0  0
 26 58  1  0  0  0
 27 59  1  0  0  0
 27 60  1  0  0  0
 28 61  1  0  0  0
 29 62  1  0  0  0
 30 63  1  0  0  0
 30 64  1  0  0  0
 30 65  1  0  0  0
 31 66  1  0  0  0
 32 67  1  0  0  0
M  END
$$$$
