4bxu_ligand
  -I-interpret- 

231231  0  0  0  0  0  0  0  0999 V2000
   14.2610  -14.7700   -0.1330 N   0  3  0  0  0
   15.3050  -13.7760    0.0310 C   0  0  0  0  0
   14.8220  -12.6470    0.9300 C   0  0  0  0  0
   13.6210  -12.3770    1.0080 O   0  0  0  0  0
   15.7320  -13.2340   -1.3230 C   0  0  0  0  0
   15.7510  -12.0010    1.6110 N   0  0  0  0  0
   15.4160  -10.8920    2.4830 C   0  0  0  0  0
   15.7840   -9.5690    1.8180 C   0  0  0  0  0
   16.5670   -9.5360    0.8660 O   0  0  0  0  0
   16.1300  -11.0450    3.8270 C   0  0  0  0  0
   15.7760  -12.2680    4.4520 O   0  0  0  0  0
   15.2110   -8.4850    2.3110 N   0  0  0  0  0
   15.4140   -7.1700    1.7140 C   0  0  0  0  0
   16.7130   -6.5360    2.2080 C   0  0  0  0  0
   17.1330   -5.4940    1.7050 O   0  0  0  0  0
   14.2290   -6.2590    2.0330 C   0  0  0  0  0
   12.8740   -6.9110    1.7900 C   0  0  0  0  0
   12.6850   -7.4000    0.3650 C   0  0  0  0  0
   12.2350   -6.6110   -0.4860 O   0  0  0  0  0
   12.9670   -8.5880    0.0940 O   0  0  0  0  0
   17.3430   -7.1760    3.1910 N   0  0  0  0  0
   18.5590   -6.6510    3.8170 C   0  0  0  0  0
   19.6660   -6.4240    2.7920 C   0  0  0  0  0
   20.3080   -5.3740    2.7840 O   0  0  0  0  0
   19.0550   -7.6040    4.9060 C   0  0  0  0  0
   20.3540   -7.1420    5.5400 C   0  0  0  0  0
   20.3040   -6.3170    6.4780 O   0  0  0  0  0
   21.4320   -7.6160    5.1160 O   0  0  0  0  0
   19.8840   -7.4050    1.9260 N   0  0  0  0  0
   20.9080   -7.2950    0.8920 C   0  0  0  0  0
   20.6530   -6.0810    0.0000 C   0  0  0  0  0
   21.5860   -5.3710   -0.3800 O   0  0  0  0  0
   20.9560   -8.5710    0.0500 C   0  0  0  0  0
   21.2680   -9.8160    0.8640 C   0  0  0  0  0
   21.2870  -11.0750    0.0280 C   0  0  0  0  0
   20.2270  -11.4480   -0.5220 O   0  0  0  0  0
   22.3560  -11.7090   -0.0730 O   0  0  0  0  0
   19.3840   -5.8320   -0.3050 N   0  0  0  0  0
   19.0130   -4.7050   -1.1490 C   0  0  0  0  0
   19.1890   -3.3850   -0.4260 C   0  0  0  0  0
   19.8430   -2.4860   -0.9410 O   0  0  0  0  0
   17.5800   -4.8260   -1.6480 C   0  0  0  0  0
   17.4200   -5.6800   -2.8980 C   0  0  0  0  0
   17.3990   -7.1560   -2.5450 C   0  0  0  0  0
   16.1760   -5.2670   -3.6580 C   0  0  0  0  0
   18.6130   -3.2660    0.7670 N   0  0  0  0  0
   18.7010   -2.0220    1.5200 C   0  0  0  0  0
   20.1670   -1.6270    1.7080 C   0  0  0  0  0
   20.5610   -0.4900    1.4450 O   0  0  0  0  0
   17.9800   -2.1140    2.8930 C   0  0  0  0  0
   18.6930   -3.0480    3.8650 C   0  0  0  0  0
   17.8040   -0.7310    3.4990 C   0  0  0  0  0
   20.9780   -2.5960    2.0950 N   0  0  0  0  0
   22.3810   -2.3630    2.3410 C   0  0  0  0  0
   23.0980   -1.9620    1.0570 C   0  0  0  0  0
   23.8580   -0.9980    1.0460 O   0  0  0  0  0
   22.9950   -3.5960    2.9680 C   0  0  0  0  0
   22.8320   -2.6880   -0.0280 N   0  0  0  0  0
   23.3710   -2.3340   -1.3380 C   0  0  0  0  0
   22.9730   -0.9040   -1.6960 C   0  0  0  0  0
   23.7810   -0.1220   -2.1960 O   0  0  0  0  0
   22.8430   -3.3110   -2.3930 C   0  0  0  0  0
   23.3500   -3.0550   -3.8030 C   0  0  0  0  0
   22.8530   -4.0950   -4.7870 C   0  0  0  0  0
   23.4820   -5.1710   -4.8900 O   0  0  0  0  0
   21.8310   -3.8560   -5.4580 O   0  0  0  0  0
   21.7240   -0.5790   -1.3950 N   0  0  0  0  0
   21.1500    0.7280   -1.6740 C   0  0  0  0  0
   21.9810    1.8590   -1.0690 C   0  0  0  0  0
   22.6410    2.6060   -1.7970 O   0  0  0  0  0
   19.7080    0.7620   -1.1490 C   0  0  0  0  0
   19.0300    2.0990   -1.2270 C   0  0  0  0  0
   18.4220    2.5200   -2.3930 C   0  0  0  0  0
   18.9870    2.9240   -0.1210 C   0  0  0  0  0
   17.7850    3.7390   -2.4550 C   0  0  0  0  0
   18.3520    4.1390   -0.1740 C   0  0  0  0  0
   17.7480    4.5500   -1.3420 C   0  0  0  0  0
   21.9740    1.9870    0.2570 N   0  0  0  0  0
   22.6370    3.1330    0.8810 C   0  0  0  0  0
   24.1600    3.0250    0.8690 C   0  0  0  0  0
   24.8410    4.0370    0.9760 O   0  0  0  0  0
   22.1200    3.4860    2.2960 C   0  0  0  0  0
   21.6230    2.3610    3.2070 C   0  0  0  0  0
   20.2110    1.9650    2.8200 C   0  0  0  0  0
   22.5590    1.1600    3.1990 C   0  0  0  0  0
   24.7090    1.8170    0.7520 N   0  0  0  0  0
   26.1610    1.6780    0.6530 C   0  0  0  0  0
   26.6570    2.1630   -0.7030 C   0  0  0  0  0
   27.7180    2.7800   -0.8000 O   0  0  0  0  0
   26.6180    0.2360    0.8810 C   0  0  0  0  0
   26.4930   -0.2290    2.3210 C   0  0  0  0  0
   27.0590   -1.6190    2.5260 C   0  0  0  0  0
   28.2380   -1.7820    2.8440 O   0  0  0  0  0
   26.2310   -2.6280    2.3290 N   0  0  0  0  0
   25.8900    1.8830   -1.7500 N   0  0  0  0  0
   26.2560    2.3090   -3.0980 C   0  0  0  0  0
   25.9760    3.7940   -3.2960 C   0  0  0  0  0
   26.7240    4.4960   -3.9780 O   0  0  0  0  0
   25.4930    1.4880   -4.1400 C   0  0  0  0  0
   25.7570    1.9490   -5.5580 C   0  0  0  0  0
   26.8480    1.6580   -6.0910 O   0  0  0  0  0
   24.8650    2.5880   -6.1540 O   0  0  0  0  0
   24.9020    4.2740   -2.6850 N   0  0  0  0  0
   24.5100    5.6720   -2.8170 C   0  0  0  0  0
   25.0510    6.5040   -1.6470 C   0  0  0  0  0
   24.6290    7.6390   -1.4200 O   0  0  0  0  0
   22.9810    5.7680   -2.9020 C   0  0  0  0  0
   22.4550    7.1610   -3.2220 C   0  0  0  0  0
   23.0590    7.7450   -4.4830 C   0  0  0  0  0
   22.5330    7.5630   -5.5820 O   0  0  0  0  0
   24.1610    8.4630   -4.3280 N   0  0  0  0  0
   26.0100    5.9470   -0.9240 N   0  0  0  0  0
   26.5840    6.6290    0.2320 C   0  0  0  0  0
   27.3920    7.8450   -0.2080 C   0  0  0  0  0
   27.1879    8.9708    0.3197 O   0  0  0  0  0
   27.4640    5.6700    1.0420 C   0  0  0  0  0
   28.0270    6.3090    2.2980 C   0  0  0  0  0
   27.3700    6.3410    3.3390 O   0  0  0  0  0
   29.2540    6.7970    2.2180 N   0  0  0  0  0
   28.2689    7.7233   -1.1046 O   0  0  0  0  0
   13.9843  -15.1249    0.7824 H   0  0  0  0  0
   13.4558  -14.3432   -0.5912 H   0  0  0  0  0
   14.6115  -15.5383   -0.7051 H   0  0  0  0  0
   16.1673  -14.2475    0.5024 H   0  0  0  0  0
   14.8848  -12.7400   -1.7988 H   0  0  0  0  0
   16.5424  -12.5179   -1.1871 H   0  0  0  0  0
   16.0739  -14.0568   -1.9509 H   0  0  0  0  0
   16.7256  -12.2885    1.5216 H   0  0  0  0  0
   14.3412  -10.8946    2.6645 H   0  0  0  0  0
   15.8346  -10.2211    4.4766 H   0  0  0  0  0
   17.2063  -11.0381    3.6549 H   0  0  0  0  0
   16.2353  -12.3416    5.2918 H   0  0  0  0  0
   14.6106   -8.5704    3.1311 H   0  0  0  0  0
   15.4876   -7.2955    0.6338 H   0  0  0  0  0
   14.2970   -5.3927    1.3750 H   0  0  0  0  0
   14.2855   -6.0090    3.0924 H   0  0  0  0  0
   12.1089   -6.1590    1.9828 H   0  0  0  0  0
   12.8051   -7.7786    2.4463 H   0  0  0  0  0
   13.2971   -9.0252    0.8824 H   0  0  0  0  0
   16.9651   -8.0644    3.5203 H   0  0  0  0  0
   18.3053   -5.6898    4.2641 H   0  0  0  0  0
   19.2341   -8.5753    4.4450 H   0  0  0  0  0
   18.2963   -7.6436    5.6876 H   0  0  0  0  0
   21.2512   -8.2267    4.3977 H   0  0  0  0  0
   19.3234   -8.2551    1.9841 H   0  0  0  0  0
   21.8723   -7.1625    1.3825 H   0  0  0  0  0
   21.7508   -8.4506   -0.6861 H   0  0  0  0  0
   19.9716   -8.7079   -0.3977 H   0  0  0  0  0
   20.4866   -9.9270    1.6158 H   0  0  0  0  0
   22.2595   -9.6899    1.2989 H   0  0  0  0  0
   19.5263  -10.8236   -0.3203 H   0  0  0  0  0
   18.6539   -6.4436    0.0600 H   0  0  0  0  0
   19.6846   -4.7257   -2.0073 H   0  0  0  0  0
   17.2435   -3.8208   -1.9019 H   0  0  0  0  0
   17.0049   -5.3064   -0.8564 H   0  0  0  0  0
   18.2794   -5.5164   -3.5482 H   0  0  0  0  0
   18.3343   -7.4241   -2.0535 H   0  0  0  0  0
   16.5639   -7.3558   -1.8735 H   0  0  0  0  0
   17.2838   -7.7444   -3.4553 H   0  0  0  0  0
   15.3017   -5.3991   -3.0206 H   0  0  0  0  0
   16.2603   -4.2199   -3.9489 H   0  0  0  0  0
   16.0741   -5.8860   -4.5494 H   0  0  0  0  0
   18.1026   -4.0568    1.1601 H   0  0  0  0  0
   18.1903   -1.2508    0.9433 H   0  0  0  0  0
   16.9955   -2.5442    2.7093 H   0  0  0  0  0
   18.7348   -4.0505    3.4391 H   0  0  0  0  0
   19.7053   -2.6839    4.0403 H   0  0  0  0  0
   18.1468   -3.0749    4.8079 H   0  0  0  0  0
   18.7820   -0.2718    3.6432 H   0  0  0  0  0
   17.2072   -0.1144    2.8268 H   0  0  0  0  0
   17.2971   -0.8186    4.4600 H   0  0  0  0  0
   20.6017   -3.5353    2.2235 H   0  0  0  0  0
   22.4928   -1.5325    3.0380 H   0  0  0  0  0
   22.4913   -3.8121    3.9102 H   0  0  0  0  0
   22.8799   -4.4422    2.2906 H   0  0  0  0  0
   24.0544   -3.4187    3.1532 H   0  0  0  0  0
   22.2369   -3.5118    0.0587 H   0  0  0  0  0
   24.4588   -2.3968   -1.3090 H   0  0  0  0  0
   21.7594   -3.1960   -2.4189 H   0  0  0  0  0
   23.1873   -4.3048   -2.1068 H   0  0  0  0  0
   24.4390   -3.0978   -3.7851 H   0  0  0  0  0
   22.9820   -2.0806   -4.1243 H   0  0  0  0  0
   24.2334   -5.1595   -4.2927 H   0  0  0  0  0
   21.1358   -1.2805   -0.9452 H   0  0  0  0  0
   21.1512    0.8862   -2.7525 H   0  0  0  0  0
   19.7533    0.4955   -0.0930 H   0  0  0  0  0
   19.1310    0.0818   -1.7755 H   0  0  0  0  0
   18.4466    1.8797   -3.2748 H   0  0  0  0  0
   19.4636    2.6060    0.8063 H   0  0  0  0  0
   17.3113    4.0615   -3.3822 H   0  0  0  0  0
   18.3254    4.7790    0.7079 H   0  0  0  0  0
   17.2421    5.5145   -1.3854 H   0  0  0  0  0
   21.5079    1.2883    0.8358 H   0  0  0  0  0
   22.3561    3.9684    0.2396 H   0  0  0  0  0
   21.2470    4.1163    2.1266 H   0  0  0  0  0
   22.9828    3.9056    2.8134 H   0  0  0  0  0
   21.6129    2.7373    4.2299 H   0  0  0  0  0
   19.5522    2.8273    2.9223 H   0  0  0  0  0
   20.2022    1.6201    1.7860 H   0  0  0  0  0
   19.8674    1.1640    3.4745 H   0  0  0  0  0
   22.6354    0.7673    2.1851 H   0  0  0  0  0
   23.5454    1.4674    3.5462 H   0  0  0  0  0
   22.1639    0.3886    3.8600 H   0  0  0  0  0
   24.1155    0.9877    0.7314 H   0  0  0  0  0
   26.5921    2.2965    1.4402 H   0  0  0  0  0
   27.6736    0.1846    0.6144 H   0  0  0  0  0
   25.9777   -0.4063    0.2763 H   0  0  0  0  0
   25.4341   -0.2532    2.5784 H   0  0  0  0  0
   27.0549    0.4616    2.9499 H   0  0  0  0  0
   26.5604   -3.5870    2.4392 H   0  0  0  0  0
   25.2618   -2.4486    2.0665 H   0  0  0  0  0
   25.0263    1.3589   -1.6097 H   0  0  0  0  0
   27.3253    2.1415   -3.2267 H   0  0  0  0  0
   24.4274    1.6063   -3.9434 H   0  0  0  0  0
   25.8251    0.4531   -4.0581 H   0  0  0  0  0
   24.1121    2.7048   -5.5700 H   0  0  0  0  0
   24.3365    3.6505   -2.1089 H   0  0  0  0  0
   24.9403    6.0782   -3.7324 H   0  0  0  0  0
   22.5884    5.4950   -1.9225 H   0  0  0  0  0
   22.6639    5.1122   -3.7129 H   0  0  0  0  0
   22.7206    7.8156   -2.3919 H   0  0  0  0  0
   21.3785    7.0832   -3.3740 H   0  0  0  0  0
   24.6086    8.8916   -5.1382 H   0  0  0  0  0
   24.5621    8.5874   -3.3985 H   0  0  0  0  0
   26.3550    5.0219   -1.1801 H   0  0  0  0  0
   25.7661    6.9688    0.8674 H   0  0  0  0  0
   28.3033    5.3743    0.4125 H   0  0  0  0  0
   26.8460    4.8249    1.3452 H   0  0  0  0  0
   29.6893    7.2194    3.0380 H   0  0  0  0  0
   29.7647    6.7508    1.3363 H   0  0  0  0  0
   28.2989    6.8102   -1.3995 H   0  0  0  0  0
  1  2  1  0  0  0
  2  3  1  0  0  0
  2  5  1  0  0  0
  3  4  2  0  0  0
  3  6  1  0  0  0
  6  7  1  0  0  0
  7  8  1  0  0  0
  7 10  1  0  0  0
  8  9  2  0  0  0
  8 12  1  0  0  0
 10 11  1  0  0  0
 12 13  1  0  0  0
 13 14  1  0  0  0
 13 16  1  0  0  0
 14 15  2  0  0  0
 14 21  1  0  0  0
 16 17  1  0  0  0
 17 18  1  0  0  0
 18 19  2  0  0  0
 18 20  1  0  0  0
 21 22  1  0  0  0
 22 23  1  0  0  0
 22 25  1  0  0  0
 23 24  2  0  0  0
 23 29  1  0  0  0
 25 26  1  0  0  0
 26 27  2  0  0  0
 26 28  1  0  0  0
 29 30  1  0  0  0
 30 31  1  0  0  0
 30 33  1  0  0  0
 31 32  2  0  0  0
 31 38  1  0  0  0
 33 34  1  0  0  0
 34 35  1  0  0  0
 35 36  1  0  0  0
 35 37  2  0  0  0
 38 39  1  0  0  0
 39 40  1  0  0  0
 39 42  1  0  0  0
 40 41  2  0  0  0
 40 46  1  0  0  0
 42 43  1  0  0  0
 43 44  1  0  0  0
 43 45  1  0  0  0
 46 47  1  0  0  0
 47 48  1  0  0  0
 47 50  1  0  0  0
 48 49  2  0  0  0
 48 53  1  0  0  0
 50 51  1  0  0  0
 50 52  1  0  0  0
 53 54  1  0  0  0
 54 55  1  0  0  0
 54 57  1  0  0  0
 55 56  2  0  0  0
 55 58  1  0  0  0
 58 59  1  0  0  0
 59 60  1  0  0  0
 59 62  1  0  0  0
 60 61  2  0  0  0
 60 67  1  0  0  0
 62 63  1  0  0  0
 63 64  1  0  0  0
 64 65  1  0  0  0
 64 66  2  0  0  0
 67 68  1  0  0  0
 68 69  1  0  0  0
 68 71  1  0  0  0
 69 70  2  0  0  0
 69 78  1  0  0  0
 71 72  1  0  0  0
 72 73  4  0  0  0
 72 74  4  0  0  0
 73 75  4  0  0  0
 74 76  4  0  0  0
 75 77  4  0  0  0
 76 77  4  0  0  0
 78 79  1  0  0  0
 79 80  1  0  0  0
 79 82  1  0  0  0
 80 81  2  0  0  0
 80 86  1  0  0  0
 82 83  1  0  0  0
 83 84  1  0  0  0
 83 85  1  0  0  0
 86 87  1  0  0  0
 87 88  1  0  0  0
 87 90  1  0  0  0
 88 89  2  0  0  0
 88 95  1  0  0  0
 90 91  1  0  0  0
 91 92  1  0  0  0
 92 93  2  0  0  0
 92 94  1  0  0  0
 95 96  1  0  0  0
 96 97  1  0  0  0
 96 99  1  0  0  0
 97 98  2  0  0  0
 97103  1  0  0  0
 99100  1  0  0  0
100101  2  0  0  0
100102  1  0  0  0
103104  1  0  0  0
104105  1  0  0  0
104107  1  0  0  0
105106  2  0  0  0
105112  1  0  0  0
107108  1  0  0  0
108109  1  0  0  0
109110  2  0  0  0
109111  1  0  0  0
112113  1  0  0  0
113114  1  0  0  0
113116  1  0  0  0
114115  2  0  0  0
116117  1  0  0  0
117118  2  0  0  0
117119  1  0  0  0
114120  1  0  0  0
  1121  1  0  0  0
  1122  1  0  0  0
  1123  1  0  0  0
  2124  1  0  0  0
  5125  1  0  0  0
  5126  1  0  0  0
  5127  1  0  0  0
  6128  1  0  0  0
  7129  1  0  0  0
 10130  1  0  0  0
 10131  1  0  0  0
 11132  1  0  0  0
 12133  1  0  0  0
 13134  1  0  0  0
 16135  1  0  0  0
 16136  1  0  0  0
 17137  1  0  0  0
 17138  1  0  0  0
 20139  1  0  0  0
 21140  1  0  0  0
 22141  1  0  0  0
 25142  1  0  0  0
 25143  1  0  0  0
 28144  1  0  0  0
 29145  1  0  0  0
 30146  1  0  0  0
 33147  1  0  0  0
 33148  1  0  0  0
 34149  1  0  0  0
 34150  1  0  0  0
 36151  1  0  0  0
 38152  1  0  0  0
 39153  1  0  0  0
 42154  1  0  0  0
 42155  1  0  0  0
 43156  1  0  0  0
 44157  1  0  0  0
 44158  1  0  0  0
 44159  1  0  0  0
 45160  1  0  0  0
 45161  1  0  0  0
 45162  1  0  0  0
 46163  1  0  0  0
 47164  1  0  0  0
 50165  1  0  0  0
 51166  1  0  0  0
 51167  1  0  0  0
 51168  1  0  0  0
 52169  1  0  0  0
 52170  1  0  0  0
 52171  1  0  0  0
 53172  1  0  0  0
 54173  1  0  0  0
 57174  1  0  0  0
 57175  1  0  0  0
 57176  1  0  0  0
 58177  1  0  0  0
 59178  1  0  0  0
 62179  1  0  0  0
 62180  1  0  0  0
 63181  1  0  0  0
 63182  1  0  0  0
 65183  1  0  0  0
 67184  1  0  0  0
 68185  1  0  0  0
 71186  1  0  0  0
 71187  1  0  0  0
 73188  1  0  0  0
 74189  1  0  0  0
 75190  1  0  0  0
 76191  1  0  0  0
 77192  1  0  0  0
 78193  1  0  0  0
 79194  1  0  0  0
 82195  1  0  0  0
 82196  1  0  0  0
 83197  1  0  0  0
 84198  1  0  0  0
 84199  1  0  0  0
 84200  1  0  0  0
 85201  1  0  0  0
 85202  1  0  0  0
 85203  1  0  0  0
 86204  1  0  0  0
 87205  1  0  0  0
 90206  1  0  0  0
 90207  1  0  0  0
 91208  1  0  0  0
 91209  1  0  0  0
 94210  1  0  0  0
 94211  1  0  0  0
 95212  1  0  0  0
 96213  1  0  0  0
 99214  1  0  0  0
 99215  1  0  0  0
102216  1  0  0  0
103217  1  0  0  0
104218  1  0  0  0
107219  1  0  0  0
107220  1  0  0  0
108221  1  0  0  0
108222  1  0  0  0
111223  1  0  0  0
111224  1  0  0  0
112225  1  0  0  0
113226  1  0  0  0
116227  1  0  0  0
116228  1  0  0  0
119229  1  0  0  0
119230  1  0  0  0
120231  1  0  0  0
M  END
$$$$
