### 
### Created by X-TOOL on Mon Sep 10 21:13:16 2018
### 

@<TRIPOS>MOLECULE
4bxu_ligand
  225   225     1     0     0
SMALL
GAST_HUCK


@<TRIPOS>ATOM
      1 N          14.2610  -14.7700   -0.1330 N.4       1 ALA         0.2377
      2 CA         15.3050  -13.7760    0.0310 C.3       1 ALA         0.0621
      3 C          14.8220  -12.6470    0.9300 C.2       1 ALA         0.2265
      4 O          13.6210  -12.3770    1.0080 O.2       1 ALA        -0.3907
      5 CB         15.7320  -13.2340   -1.3230 C.3       1 ALA        -0.0040
      6 N          15.7510  -12.0010    1.6110 N.am      1 SER        -0.2589
      7 CA         15.4160  -10.8920    2.4830 C.3       1 SER         0.1540
      8 C          15.7840   -9.5690    1.8180 C.2       1 SER         0.2062
      9 O          16.5670   -9.5360    0.8660 O.2       1 SER        -0.3943
     10 CB         16.1300  -11.0450    3.8270 C.3       1 SER         0.0843
     11 OG         15.7760  -12.2680    4.4520 O.3       1 SER        -0.3903
     12 N          15.2110   -8.4850    2.3110 N.am      1 GLU        -0.2636
     13 CA         15.4140   -7.1700    1.7140 C.3       1 GLU         0.1325
     14 C          16.7130   -6.5360    2.2080 C.2       1 GLU         0.2041
     15 O          17.1330   -5.4940    1.7050 O.2       1 GLU        -0.3944
     16 CB         14.2290   -6.2590    2.0330 C.3       1 GLU        -0.0008
     17 CG         12.8740   -6.9110    1.7900 C.3       1 GLU         0.0044
     18 CD         12.6850   -7.4000    0.3650 C.2       1 GLU         0.0350
     19 OE1        12.2350   -6.6110   -0.4860 O.co2     1 GLU        -0.5690
     20 OE2        12.9670   -8.5880    0.0940 O.co2     1 GLU        -0.5690
     21 N          17.3430   -7.1760    3.1910 N.am      1 ASP        -0.2622
     22 CA         18.5590   -6.6510    3.8170 C.3       1 ASP         0.1423
     23 C          19.6660   -6.4240    2.7920 C.2       1 ASP         0.2056
     24 O          20.3080   -5.3740    2.7840 O.2       1 ASP        -0.3943
     25 CB         19.0550   -7.6040    4.9060 C.3       1 ASP         0.0406
     26 CG         20.3540   -7.1420    5.5400 C.2       1 ASP         0.0393
     27 OD1        20.3040   -6.3170    6.4780 O.co2     1 ASP        -0.5688
     28 OD2        21.4320   -7.6160    5.1160 O.co2     1 ASP        -0.5688
     29 N          19.8840   -7.4050    1.9260 N.am      1 GLU        -0.2635
     30 CA         20.9080   -7.2950    0.8920 C.3       1 GLU         0.1325
     31 C          20.6530   -6.0810    0.0000 C.2       1 GLU         0.2040
     32 O          21.5860   -5.3710   -0.3800 O.2       1 GLU        -0.3944
     33 CB         20.9560   -8.5710    0.0500 C.3       1 GLU        -0.0008
     34 CG         21.2680   -9.8160    0.8640 C.3       1 GLU         0.0044
     35 CD         21.2870  -11.0750    0.0280 C.2       1 GLU         0.0350
     36 OE1        20.2270  -11.4480   -0.5220 O.co2     1 GLU        -0.5690
     37 OE2        22.3560  -11.7090   -0.0730 O.co2     1 GLU        -0.5690
     38 N          19.3840   -5.8320   -0.3050 N.am      1 LEU        -0.2637
     39 CA         19.0130   -4.7050   -1.1490 C.3       1 LEU         0.1312
     40 C          19.1890   -3.3850   -0.4260 C.2       1 LEU         0.2039
     41 O          19.8430   -2.4860   -0.9410 O.2       1 LEU        -0.3944
     42 CB         17.5800   -4.8260   -1.6480 C.3       1 LEU        -0.0101
     43 CG         17.4200   -5.6800   -2.8980 C.3       1 LEU        -0.0425
     44 CD1        17.3990   -7.1560   -2.5450 C.3       1 LEU        -0.0625
     45 CD2        16.1760   -5.2670   -3.6580 C.3       1 LEU        -0.0625
     46 N          18.6130   -3.2660    0.7670 N.am      1 VAL        -0.2635
     47 CA         18.7010   -2.0220    1.5200 C.3       1 VAL         0.1332
     48 C          20.1670   -1.6270    1.7080 C.2       1 VAL         0.2041
     49 O          20.5610   -0.4900    1.4450 O.2       1 VAL        -0.3944
     50 CB         17.9800   -2.1140    2.8930 C.3       1 VAL        -0.0063
     51 CG1        18.6930   -3.0480    3.8650 C.3       1 VAL        -0.0584
     52 CG2        17.8040   -0.7310    3.4990 C.3       1 VAL        -0.0584
     53 N          20.9780   -2.5960    2.0950 N.am      1 ALA        -0.2640
     54 CA         22.3810   -2.3630    2.3410 C.3       1 ALA         0.1282
     55 C          23.0980   -1.9620    1.0570 C.2       1 ALA         0.2036
     56 O          23.8580   -0.9980    1.0460 O.2       1 ALA        -0.3944
     57 CB         22.9950   -3.5960    2.9680 C.3       1 ALA        -0.0244
     58 N          22.8320   -2.6880   -0.0280 N.am      1 GLU        -0.2636
     59 CA         23.3710   -2.3340   -1.3380 C.3       1 GLU         0.1325
     60 C          22.9730   -0.9040   -1.6960 C.2       1 GLU         0.2041
     61 O          23.7810   -0.1220   -2.1960 O.2       1 GLU        -0.3944
     62 CB         22.8430   -3.3110   -2.3930 C.3       1 GLU        -0.0008
     63 CG         23.3500   -3.0550   -3.8030 C.3       1 GLU         0.0044
     64 CD         22.8530   -4.0950   -4.7870 C.2       1 GLU         0.0350
     65 OE1        23.4820   -5.1710   -4.8900 O.co2     1 GLU        -0.5690
     66 OE2        21.8310   -3.8560   -5.4580 O.co2     1 GLU        -0.5690
     67 N          21.7240   -0.5790   -1.3950 N.am      1 PHE        -0.2619
     68 CA         21.1500    0.7280   -1.6740 C.3       1 PHE         0.1404
     69 C          21.9810    1.8590   -1.0690 C.2       1 PHE         0.2060
     70 O          22.6410    2.6060   -1.7970 O.2       1 PHE        -0.3942
     71 CB         19.7080    0.7620   -1.1490 C.3       1 PHE         0.0214
     72 CG         19.0300    2.0990   -1.2270 C.ar      1 PHE        -0.0386
     73 CD1        18.4220    2.5200   -2.3930 C.ar      1 PHE        -0.0601
     74 CD2        18.9870    2.9240   -0.1210 C.ar      1 PHE        -0.0601
     75 CE1        17.7850    3.7390   -2.4550 C.ar      1 PHE        -0.0686
     76 CE2        18.3520    4.1390   -0.1740 C.ar      1 PHE        -0.0686
     77 CZ         17.7480    4.5500   -1.3420 C.ar      1 PHE        -0.0687
     78 N          21.9740    1.9870    0.2570 N.am      1 LEU        -0.2636
     79 CA         22.6370    3.1330    0.8810 C.3       1 LEU         0.1312
     80 C          24.1600    3.0250    0.8690 C.2       1 LEU         0.2039
     81 O          24.8410    4.0370    0.9760 O.2       1 LEU        -0.3944
     82 CB         22.1200    3.4860    2.2960 C.3       1 LEU        -0.0101
     83 CG         21.6230    2.3610    3.2070 C.3       1 LEU        -0.0425
     84 CD1        20.2110    1.9650    2.8200 C.3       1 LEU        -0.0625
     85 CD2        22.5590    1.1600    3.1990 C.3       1 LEU        -0.0625
     86 N          24.7090    1.8170    0.7520 N.am      1 GLN        -0.2636
     87 CA         26.1610    1.6780    0.6530 C.3       1 GLN         0.1330
     88 C          26.6570    2.1630   -0.7030 C.2       1 GLN         0.2041
     89 O          27.7180    2.7800   -0.8000 O.2       1 GLN        -0.3944
     90 CB         26.6180    0.2360    0.8810 C.3       1 GLN         0.0045
     91 CG         26.4930   -0.2290    2.3210 C.3       1 GLN         0.0412
     92 CD         27.0590   -1.6190    2.5260 C.2       1 GLN         0.1737
     93 OE1        28.2380   -1.7820    2.8440 O.2       1 GLN        -0.3973
     94 NE2        26.2310   -2.6280    2.3290 N.am      1 GLN        -0.3009
     95 N          25.8900    1.8830   -1.7500 N.am      1 ASP        -0.2622
     96 CA         26.2560    2.3090   -3.0980 C.3       1 ASP         0.1423
     97 C          25.9760    3.7940   -3.2960 C.2       1 ASP         0.2056
     98 O          26.7240    4.4960   -3.9780 O.2       1 ASP        -0.3943
     99 CB         25.4930    1.4880   -4.1400 C.3       1 ASP         0.0406
    100 CG         25.7570    1.9490   -5.5580 C.2       1 ASP         0.0393
    101 OD1        26.8480    1.6580   -6.0910 O.co2     1 ASP        -0.5688
    102 OD2        24.8650    2.5880   -6.1540 O.co2     1 ASP        -0.5688
    103 N          24.9020    4.2740   -2.6850 N.am      1 GLN        -0.2635
    104 CA         24.5100    5.6720   -2.8170 C.3       1 GLN         0.1330
    105 C          25.0510    6.5040   -1.6470 C.2       1 GLN         0.2036
    106 O          24.6290    7.6390   -1.4200 O.2       1 GLN        -0.3944
    107 CB         22.9810    5.7680   -2.9020 C.3       1 GLN         0.0045
    108 CG         22.4550    7.1610   -3.2220 C.3       1 GLN         0.0412
    109 CD         23.0590    7.7450   -4.4830 C.2       1 GLN         0.1737
    110 OE1        22.5330    7.5630   -5.5820 O.2       1 GLN        -0.3973
    111 NE2        24.1610    8.4630   -4.3280 N.am      1 GLN        -0.3009
    112 N          26.0100    5.9470   -0.9240 N.am      1 ASN        -0.2674
    113 CA         26.5840    6.6290    0.2320 C.3       1 ASN         0.1110
    114 C          27.3920    7.8450   -0.2080 C.2       1 ASN         0.0624
    115 O          27.1879    8.9708    0.3197 O.co2     1 ASN        -0.5665
    116 CB         27.4640    5.6700    1.0420 C.3       1 ASN         0.0718
    117 CG         28.0270    6.3090    2.2980 C.2       1 ASN         0.1774
    118 OD1        27.3700    6.3410    3.3390 O.2       1 ASN        -0.3971
    119 ND2        29.2540    6.7970    2.2180 N.am      1 ASN        -0.3007
    120 O          28.2689    7.7233   -1.1046 O.co2     1 ASN        -0.5665
    121 H1         14.5935  -15.5112   -0.7298 H         1 ALA         0.2015
    122 H2         13.4505  -14.3403   -0.5508 H         1 ALA         0.2015
    123 H3         14.0136  -15.1492    0.7676 H         1 ALA         0.2015
    124 H4         16.1739  -14.2546    0.5064 H         1 ALA         0.1095
    125 H5         16.5230  -12.4823   -1.1841 H         1 ALA         0.0310
    126 H6         14.8682  -12.7695   -1.8211 H         1 ALA         0.0310
    127 H7         16.1140  -14.0578   -1.9438 H         1 ALA         0.0310
    128 H8         16.7064  -12.2829    1.5234 H         1 SER         0.1885
    129 H9         14.3307  -10.9016    2.6620 H         1 SER         0.0823
    130 H10        15.8451  -10.2095    4.4833 H         1 SER         0.0606
    131 H11        17.2173  -11.0268    3.6613 H         1 SER         0.0606
    132 H12        16.2305  -12.3408    5.2830 H         1 SER         0.2097
    133 H13        14.6224   -8.5687    3.1151 H         1 GLU         0.1883
    134 H14        15.4797   -7.2906    0.6226 H         1 GLU         0.0801
    135 H15        14.3009   -5.3613    1.4014 H         1 GLU         0.0330
    136 H16        14.2896   -5.9680    3.0921 H         1 GLU         0.0330
    137 H17        12.0880   -6.1743    2.0126 H         1 GLU         0.0433
    138 H18        12.7741   -7.7704    2.4693 H         1 GLU         0.0433
    139 H19        16.9725   -8.0470    3.5138 H         1 ASP         0.1884
    140 H20        18.3151   -5.6846    4.2823 H         1 ASP         0.0819
    141 H21        19.2147   -8.5965    4.4594 H         1 ASP         0.0478
    142 H22        18.2862   -7.6739    5.6896 H         1 ASP         0.0478
    143 H23        19.3344   -8.2385    1.9830 H         1 GLU         0.1883
    144 H24        21.8835   -7.1653    1.3834 H         1 GLU         0.0801
    145 H25        21.7333   -8.4528   -0.7193 H         1 GLU         0.0330
    146 H26        19.9779   -8.7067   -0.4347 H         1 GLU         0.0330
    147 H27        20.5021   -9.9253    1.6459 H         1 GLU         0.0433
    148 H28        22.2553   -9.6908    1.3326 H         1 GLU         0.0433
    149 H29        18.6682   -6.4316    0.0529 H         1 LEU         0.1883
    150 H30        19.6807   -4.7077   -2.0232 H         1 LEU         0.0800
    151 H31        17.2069   -3.8156   -1.8715 H         1 LEU         0.0315
    152 H32        16.9730   -5.2721   -0.8465 H         1 LEU         0.0315
    153 H33        18.2893   -5.5016   -3.5480 H         1 LEU         0.0298
    154 H34        17.2827   -7.7509   -3.4629 H         1 LEU         0.0232
    155 H35        16.5566   -7.3590   -1.8674 H         1 LEU         0.0232
    156 H36        18.3424   -7.4279   -2.0489 H         1 LEU         0.0232
    157 H37        16.2300   -4.1940   -3.8942 H         1 LEU         0.0232
    158 H38        15.2871   -5.4622   -3.0401 H         1 LEU         0.0232
    159 H39        16.1078   -5.8449   -4.5915 H         1 LEU         0.0232
    160 H40        18.1126   -4.0413    1.1524 H         1 VAL         0.1883
    161 H41        18.2053   -1.2353    0.9323 H         1 VAL         0.0802
    162 H42        16.9782   -2.5307    2.7120 H         1 VAL         0.0343
    163 H43        18.1427   -3.0760    4.8170 H         1 VAL         0.0234
    164 H44        19.7148   -2.6816    4.0429 H         1 VAL         0.0234
    165 H45        18.7358   -4.0601    3.4364 H         1 VAL         0.0234
    166 H46        17.2883   -0.0783    2.7793 H         1 VAL         0.0234
    167 H47        18.7905   -0.3068    3.7372 H         1 VAL         0.0234
    168 H48        17.2057   -0.8072    4.4189 H         1 VAL         0.0234
    169 H49        20.6091   -3.5169    2.2210 H         1 ALA         0.1883
    170 H50        22.4749   -1.5316    3.0550 H         1 ALA         0.0797
    171 H51        24.0642   -3.4183    3.1554 H         1 ALA         0.0277
    172 H52        22.8796   -4.4507    2.2853 H         1 ALA         0.0277
    173 H53        22.4876   -3.8152    3.9190 H         1 ALA         0.0277
    174 H54        22.2485   -3.4957    0.0570 H         1 GLU         0.1883
    175 H55        24.4684   -2.4014   -1.3050 H         1 GLU         0.0801
    176 H56        21.7452   -3.2422   -2.4055 H         1 GLU         0.0330
    177 H57        23.1434   -4.3278   -2.0998 H         1 GLU         0.0330
    178 H58        24.4498   -3.0737   -3.7930 H         1 GLU         0.0433
    179 H59        23.0031   -2.0636   -4.1298 H         1 GLU         0.0433
    180 H60        21.1473   -1.2667   -0.9540 H         1 PHE         0.1885
    181 H61        21.1280    0.8703   -2.7645 H         1 PHE         0.0823
    182 H62        19.7224    0.4490   -0.0946 H         1 PHE         0.0474
    183 H63        19.1152    0.0453   -1.7362 H         1 PHE         0.0474
    184 H64        18.4465    1.8832   -3.2699 H         1 PHE         0.0557
    185 H65        19.4610    2.6078    0.8012 H         1 PHE         0.0557
    186 H66        17.3139    4.0597   -3.3771 H         1 PHE         0.0599
    187 H67        18.3255    4.7755    0.7030 H         1 PHE         0.0599
    188 H68        17.2449    5.5092   -1.3851 H         1 PHE         0.0559
    189 H69        21.5170    1.3020    0.8244 H         1 LEU         0.1883
    190 H70        22.3870    3.9960    0.2464 H         1 LEU         0.0800
    191 H71        21.2842    4.1895    2.1675 H         1 LEU         0.0315
    192 H72        22.9440    3.9880    2.8242 H         1 LEU         0.0315
    193 H73        21.5947    2.7504    4.2354 H         1 LEU         0.0298
    194 H74        19.8630    1.1566    3.4799 H         1 LEU         0.0232
    195 H75        20.2008    1.6166    1.7767 H         1 LEU         0.0232
    196 H76        19.5451    2.8345    2.9229 H         1 LEU         0.0232
    197 H77        23.5715    1.4824    3.4834 H         1 LEU         0.0232
    198 H78        22.5837    0.7211    2.1907 H         1 LEU         0.0232
    199 H79        22.1981    0.4090    3.9171 H         1 LEU         0.0232
    200 H80        24.1271    1.0040    0.7319 H         1 GLN         0.1883
    201 H81        26.6143    2.3072    1.4331 H         1 GLN         0.0801
    202 H82        27.6734    0.1558    0.5817 H         1 GLN         0.0337
    203 H83        26.0064   -0.4251    0.2494 H         1 GLN         0.0337
    204 H84        25.4290   -0.2354    2.5998 H         1 GLN         0.0504
    205 H85        27.0375    0.4739    2.9685 H         1 GLN         0.0504
    206 H86        26.5504   -3.5679    2.4499 H         1 GLN         0.1814
    207 H87        25.2843   -2.4525    2.0588 H         1 GLN         0.1814
    208 H88        25.0432    1.3692   -1.6125 H         1 ASP         0.1884
    209 H89        27.3335    2.1364   -3.2362 H         1 ASP         0.0819
    210 H90        24.4156    1.5760   -3.9367 H         1 ASP         0.0478
    211 H91        25.7983    0.4350   -4.0502 H         1 ASP         0.0478
    212 H92        24.3476    3.6628   -2.1202 H         1 GLN         0.1883
    213 H93        24.9377    6.0694   -3.7493 H         1 GLN         0.0801
    214 H94        22.5623    5.4562   -1.9338 H         1 GLN         0.0337
    215 H95        22.6363    5.0810   -3.6889 H         1 GLN         0.0337
    216 H96        22.6907    7.8272   -2.3791 H         1 GLN         0.0504
    217 H97        21.3640    7.1033   -3.3498 H         1 GLN         0.0504
    218 H98        24.6058    8.8743   -5.1236 H         1 GLN         0.1814
    219 H99        24.5483    8.5939   -3.4154 H         1 GLN         0.1814
    220 H100       26.3483    5.0401   -1.1750 H         1 ASN         0.1877
    221 H101       25.7608    6.9729    0.8755 H         1 ASN         0.0752
    222 H102       28.3014    5.3416    0.4089 H         1 ASN         0.0544
    223 H103       26.8595    4.7979    1.3319 H         1 ASN         0.0544
    224 H104       29.6733    7.2289    3.0165 H         1 ASN         0.1814
    225 H105       29.7622    6.7339    1.3590 H         1 ASN         0.1814
@<TRIPOS>BOND
     1    1    2 1  
     2    2    3 1  
     3    2    5 1  
     4    3    4 2  
     5    3    6 am 
     6    6    7 1  
     7    7    8 1  
     8    7   10 1  
     9    8    9 2  
    10    8   12 am 
    11   10   11 1  
    12   12   13 1  
    13   13   14 1  
    14   13   16 1  
    15   14   15 2  
    16   14   21 am 
    17   16   17 1  
    18   17   18 1  
    19   18   19 ar 
    20   18   20 ar 
    21   21   22 1  
    22   22   23 1  
    23   22   25 1  
    24   23   24 2  
    25   23   29 am 
    26   25   26 1  
    27   26   27 ar 
    28   26   28 ar 
    29   29   30 1  
    30   30   31 1  
    31   30   33 1  
    32   31   32 2  
    33   31   38 am 
    34   33   34 1  
    35   34   35 1  
    36   35   36 ar 
    37   35   37 ar 
    38   38   39 1  
    39   39   40 1  
    40   39   42 1  
    41   40   41 2  
    42   40   46 am 
    43   42   43 1  
    44   43   44 1  
    45   43   45 1  
    46   46   47 1  
    47   47   48 1  
    48   47   50 1  
    49   48   49 2  
    50   48   53 am 
    51   50   51 1  
    52   50   52 1  
    53   53   54 1  
    54   54   55 1  
    55   54   57 1  
    56   55   56 2  
    57   55   58 am 
    58   58   59 1  
    59   59   60 1  
    60   59   62 1  
    61   60   61 2  
    62   60   67 am 
    63   62   63 1  
    64   63   64 1  
    65   64   65 ar 
    66   64   66 ar 
    67   67   68 1  
    68   68   69 1  
    69   68   71 1  
    70   69   70 2  
    71   69   78 am 
    72   71   72 1  
    73   72   73 ar 
    74   72   74 ar 
    75   73   75 ar 
    76   74   76 ar 
    77   75   77 ar 
    78   76   77 ar 
    79   78   79 1  
    80   79   80 1  
    81   79   82 1  
    82   80   81 2  
    83   80   86 am 
    84   82   83 1  
    85   83   84 1  
    86   83   85 1  
    87   86   87 1  
    88   87   88 1  
    89   87   90 1  
    90   88   89 2  
    91   88   95 am 
    92   90   91 1  
    93   91   92 1  
    94   92   93 2  
    95   92   94 am 
    96   95   96 1  
    97   96   97 1  
    98   96   99 1  
    99   97   98 2  
   100   97  103 am 
   101   99  100 1  
   102  100  101 ar 
   103  100  102 ar 
   104  103  104 1  
   105  104  105 1  
   106  104  107 1  
   107  105  106 2  
   108  105  112 am 
   109  107  108 1  
   110  108  109 1  
   111  109  110 2  
   112  109  111 am 
   113  112  113 1  
   114  113  114 1  
   115  113  116 1  
   116  114  115 ar 
   117  116  117 1  
   118  117  118 2  
   119  117  119 am 
   120  114  120 ar 
   121    1  121 1  
   122    1  122 1  
   123    1  123 1  
   124    2  124 1  
   125    5  125 1  
   126    5  126 1  
   127    5  127 1  
   128    6  128 1  
   129    7  129 1  
   130   10  130 1  
   131   10  131 1  
   132   11  132 1  
   133   12  133 1  
   134   13  134 1  
   135   16  135 1  
   136   16  136 1  
   137   17  137 1  
   138   17  138 1  
   139   21  139 1  
   140   22  140 1  
   141   25  141 1  
   142   25  142 1  
   143   29  143 1  
   144   30  144 1  
   145   33  145 1  
   146   33  146 1  
   147   34  147 1  
   148   34  148 1  
   149   38  149 1  
   150   39  150 1  
   151   42  151 1  
   152   42  152 1  
   153   43  153 1  
   154   44  154 1  
   155   44  155 1  
   156   44  156 1  
   157   45  157 1  
   158   45  158 1  
   159   45  159 1  
   160   46  160 1  
   161   47  161 1  
   162   50  162 1  
   163   51  163 1  
   164   51  164 1  
   165   51  165 1  
   166   52  166 1  
   167   52  167 1  
   168   52  168 1  
   169   53  169 1  
   170   54  170 1  
   171   57  171 1  
   172   57  172 1  
   173   57  173 1  
   174   58  174 1  
   175   59  175 1  
   176   62  176 1  
   177   62  177 1  
   178   63  178 1  
   179   63  179 1  
   180   67  180 1  
   181   68  181 1  
   182   71  182 1  
   183   71  183 1  
   184   73  184 1  
   185   74  185 1  
   186   75  186 1  
   187   76  187 1  
   188   77  188 1  
   189   78  189 1  
   190   79  190 1  
   191   82  191 1  
   192   82  192 1  
   193   83  193 1  
   194   84  194 1  
   195   84  195 1  
   196   84  196 1  
   197   85  197 1  
   198   85  198 1  
   199   85  199 1  
   200   86  200 1  
   201   87  201 1  
   202   90  202 1  
   203   90  203 1  
   204   91  204 1  
   205   91  205 1  
   206   94  206 1  
   207   94  207 1  
   208   95  208 1  
   209   96  209 1  
   210   99  210 1  
   211   99  211 1  
   212  103  212 1  
   213  104  213 1  
   214  107  214 1  
   215  107  215 1  
   216  108  216 1  
   217  108  217 1  
   218  111  218 1  
   219  111  219 1  
   220  112  220 1  
   221  113  221 1  
   222  116  222 1  
   223  116  223 1  
   224  119  224 1  
   225  119  225 1  
@<TRIPOS>SUBSTRUCTURE
     1 ALA         1

