3rey_ligand
  -I-interpret- 

 59 61  0  0  0  0  0  0  0  0999 V2000
   48.9990   24.1270   30.3690 C   0  0  0  0  0
   47.4200   21.9500   31.2320 N   0  0  0  0  0
   49.7200   25.0800   30.0490 O   0  0  0  0  0
   47.2530   22.4800   29.9710 C   0  0  0  0  0
   48.0220   23.5680   29.5920 N   0  0  0  0  0
   46.4130   21.9920   29.2000 O   0  0  0  0  0
   49.7100   23.0270   33.7450 C   0  0  0  0  0
   48.7440   22.1450   33.4190 N   0  0  0  0  0
   52.1770   23.4190   38.8610 O   0  0  0  0  0
   48.3930   22.4870   32.1110 C   0  0  0  0  0
   49.9710   23.8670   32.7210 N   0  0  0  0  0
   53.4690   23.0250   41.5130 O   0  0  0  0  0
   49.1320   23.5200   31.6790 C   0  0  0  0  0
   51.5090   23.9920   42.0740 N   0  0  0  0  0
   47.7400   24.2150   28.2900 C   0  0  0  0  0
   51.1610   25.9650   45.2170 N   0  3  0  0  0
   46.6940   25.3380   28.4360 C   0  0  0  0  0
   46.5800   20.8480   31.7220 C   0  0  0  0  0
   47.2750   19.4840   31.5650 C   0  0  0  0  0
   46.4900   18.3500   32.2330 C   0  0  0  0  0
   46.2680   25.9340   27.0910 C   0  0  0  0  0
   51.5720   23.2420   37.6350 C   0  0  0  0  0
   50.5720   22.2760   37.3650 C   0  0  0  0  0
   49.9740   22.1990   36.0920 C   0  0  0  0  0
   50.3680   23.0770   35.0560 C   0  0  0  0  0
   51.3910   24.0170   35.3160 C   0  0  0  0  0
   51.9840   24.0960   36.5930 C   0  0  0  0  0
   51.6400   22.7210   39.9810 C   0  0  0  0  0
   52.2840   23.2610   41.2620 C   0  0  0  0  0
   51.9250   24.5800   43.3390 C   0  0  0  0  0
   50.7600   25.3700   43.9570 C   0  0  0  0  0
   50.5449   24.1501   41.7809 H   0  0  0  0  0
   47.3470   23.4621   27.6068 H   0  0  0  0  0
   48.6650   24.6501   27.9117 H   0  0  0  0  0
   50.3766   26.4841   45.6114 H   0  0  0  0  0
   51.4432   25.2292   45.8645 H   0  0  0  0  0
   51.9443   26.5988   45.0583 H   0  0  0  0  0
   47.1429   26.1365   29.0268 H   0  0  0  0  0
   45.8087   24.9094   28.9057 H   0  0  0  0  0
   45.6604   20.8327   31.1370 H   0  0  0  0  0
   46.3843   21.0122   32.7816 H   0  0  0  0  0
   48.2524   19.5458   32.0434 H   0  0  0  0  0
   47.3482   19.2627   30.5002 H   0  0  0  0  0
   46.3899   18.5576   33.2984 H   0  0  0  0  0
   45.5007   18.2792   31.7808 H   0  0  0  0  0
   47.0229   17.4095   32.0933 H   0  0  0  0  0
   47.1394   26.3542   26.5889 H   0  0  0  0  0
   45.8316   25.1515   26.4702 H   0  0  0  0  0
   45.5308   26.7189   27.2600 H   0  0  0  0  0
   50.2623   21.5857   38.1496 H   0  0  0  0  0
   49.1998   21.4552   35.9036 H   0  0  0  0  0
   51.7243   24.6864   34.5229 H   0  0  0  0  0
   52.7713   24.8272   36.7762 H   0  0  0  0  0
   51.8502   21.6558   39.8851 H   0  0  0  0  0
   50.5608   22.8680   40.0224 H   0  0  0  0  0
   52.7635   25.2541   43.1637 H   0  0  0  0  0
   52.2241   23.7861   44.0234 H   0  0  0  0  0
   50.4656   26.1626   43.2691 H   0  0  0  0  0
   49.9269   24.6902   44.1359 H   0  0  0  0  0
  1  3  2  0  0  0
  1  5  1  0  0  0
 13  1  1  0  0  0
  2  4  1  0  0  0
 10  2  1  0  0  0
  2 18  1  0  0  0
  5  4  1  0  0  0
  4  6  2  0  0  0
  5 15  1  0  0  0
  7  8  4  0  0  0
  7 11  4  0  0  0
 25  7  1  0  0  0
  8 10  4  0  0  0
  9 22  1  0  0  0
 28  9  1  0  0  0
 13 10  4  0  0  0
 11 13  4  0  0  0
 29 12  2  0  0  0
 14 29  1  0  0  0
 30 14  1  0  0  0
 15 17  1  0  0  0
 31 16  1  0  0  0
 17 21  1  0  0  0
 18 19  1  0  0  0
 19 20  1  0  0  0
 22 23  4  0  0  0
 22 27  4  0  0  0
 23 24  4  0  0  0
 24 25  4  0  0  0
 26 25  4  0  0  0
 27 26  4  0  0  0
 29 28  1  0  0  0
 30 31  1  0  0  0
 14 32  1  0  0  0
 15 33  1  0  0  0
 15 34  1  0  0  0
 16 35  1  0  0  0
 16 36  1  0  0  0
 16 37  1  0  0  0
 17 38  1  0  0  0
 17 39  1  0  0  0
 18 40  1  0  0  0
 18 41  1  0  0  0
 19 42  1  0  0  0
 19 43  1  0  0  0
 20 44  1  0  0  0
 20 45  1  0  0  0
 20 46  1  0  0  0
 21 47  1  0  0  0
 21 48  1  0  0  0
 21 49  1  0  0  0
 23 50  1  0  0  0
 24 51  1  0  0  0
 26 52  1  0  0  0
 27 53  1  0  0  0
 28 54  1  0  0  0
 28 55  1  0  0  0
 30 56  1  0  0  0
 30 57  1  0  0  0
 31 58  1  0  0  0
 31 59  1  0  0  0
M  END
$$$$
