1amn_ligand
  -I-interpret- 

 32 32  0  0  0  0  0  0  0  0999 V2000
    4.2960   67.6090   63.5630 C   0  0  0  0  0
    4.9600   66.8170   62.5800 C   0  0  0  0  0
    5.0040   65.3880   62.7360 C   0  0  0  0  0
    4.4600   64.7860   63.9260 C   0  0  0  0  0
    3.8390   65.5310   64.9080 C   0  0  0  0  0
    3.7140   66.9180   64.7460 C   0  0  0  0  0
    5.5830   64.5170   61.6060 C   0  0  0  0  0
    4.3880   64.4710   61.0300 O   0  0  0  0  0
    6.6010   65.1840   60.8300 O   0  0  0  0  0
    5.9730   63.0760   62.0100 C   0  0  0  0  0
    4.9480   62.3530   62.7050 F   0  0  0  0  0
    7.1910   63.1660   62.7590 F   0  0  0  0  0
    6.2580   62.2570   60.9110 F   0  0  0  0  0
    4.0930   68.9740   63.3730 N   0  3  0  0  0
    4.1310   69.5470   64.7080 C   0  0  0  0  0
    2.7870   69.3860   62.8310 C   0  0  0  0  0
    4.8130   69.6890   62.2570 C   0  0  0  0  0
    5.4300   67.2907   61.7181 H   0  0  0  0  0
    4.5414   63.7068   64.0553 H   0  0  0  0  0
    3.4489   65.0449   65.8022 H   0  0  0  0  0
    3.1819   67.4998   65.4986 H   0  0  0  0  0
    3.7728   64.0138   61.6080 H   0  0  0  0  0
    7.4295   65.1735   61.3148 H   0  0  0  0  0
    4.0429   70.6313   64.6393 H   0  0  0  0  0
    3.3032   69.1504   65.2959 H   0  0  0  0  0
    5.0753   69.2876   65.1866 H   0  0  0  0  0
    1.9918   68.9935   63.4649 H   0  0  0  0  0
    2.7315   70.4743   62.8082 H   0  0  0  0  0
    2.6745   68.9940   61.8202 H   0  0  0  0  0
    4.3973   70.6899   62.1408 H   0  0  0  0  0
    5.8737   69.7604   62.4977 H   0  0  0  0  0
    4.6864   69.1316   61.3289 H   0  0  0  0  0
  1  2  4  0  0  0
  1  6  4  0  0  0
  1 14  1  0  0  0
  2  3  4  0  0  0
  3  4  4  0  0  0
  3  7  1  0  0  0
  4  5  4  0  0  0
  5  6  4  0  0  0
  7  8  1  0  0  0
  7  9  1  0  0  0
  7 10  1  0  0  0
 10 11  1  0  0  0
 10 12  1  0  0  0
 10 13  1  0  0  0
 14 15  1  0  0  0
 14 16  1  0  0  0
 14 17  1  0  0  0
  2 18  1  0  0  0
  4 19  1  0  0  0
  5 20  1  0  0  0
  6 21  1  0  0  0
  8 22  1  0  0  0
  9 23  1  0  0  0
 15 24  1  0  0  0
 15 25  1  0  0  0
 15 26  1  0  0  0
 16 27  1  0  0  0
 16 28  1  0  0  0
 16 29  1  0  0  0
 17 30  1  0  0  0
 17 31  1  0  0  0
 17 32  1  0  0  0
M  END
$$$$
