6oi9_ligand
  -I-interpret- 

 45 48  0  0  0  0  0  0  0  0999 V2000
   38.5970  131.6370   24.4300 C   0  0  0  0  0
   39.2980  130.7520   25.2500 C   0  0  0  0  0
   40.4340  131.2190   25.9040 C   0  0  0  0  0
   40.8420  132.5550   25.7330 N   0  0  0  0  0
   39.0190  132.9190   24.2910 N   0  0  0  0  0
   35.2780  128.7210   26.5320 Cl  0  0  0  0  0
   36.1350  127.4190   25.7150 C   0  0  0  0  0
   35.6050  126.1380   25.9000 C   0  0  0  0  0
   36.1950  125.0360   25.3130 C   0  0  0  0  0
   37.3170  125.2250   24.5130 C   0  0  0  0  0
   37.8670  126.5020   24.3240 C   0  0  0  0  0
   39.2780  126.6000   23.3270 Cl  0  0  0  0  0
   37.2740  127.6410   24.9130 C   0  0  0  0  0
   37.7340  128.9700   24.7370 C   0  0  0  0  0
   38.8640  129.4280   25.4100 C   0  0  0  0  0
   40.1230  133.3790   24.9370 C   0  0  0  0  0
   40.5150  134.6430   24.7980 N   0  0  0  0  0
   37.4980  131.1900   23.7760 N   0  0  0  0  0
   37.0390  129.9160   23.9070 C   0  0  0  0  0
   35.9380  129.6380   23.1810 N   0  0  0  0  0
   35.1520  130.6400   22.3890 C   0  0  0  0  0
   35.3520  128.2980   22.8080 C   0  0  0  0  0
   34.3810  128.5650   21.6310 C   0  0  0  0  0
   33.8660  129.8850   21.9770 C   0  0  0  0  0
   32.8820  129.6900   23.1790 C   0  0  0  0  0
   31.4650  129.6920   22.7820 N   0  3  0  0  0
   41.0068  130.5513   26.5476 H   0  0  0  0  0
   34.7148  126.0078   26.5154 H   0  0  0  0  0
   35.7892  124.0372   25.4735 H   0  0  0  0  0
   37.7771  124.3661   24.0243 H   0  0  0  0  0
   39.4146  128.7531   26.0653 H   0  0  0  0  0
   41.3454  134.9762   25.2876 H   0  0  0  0  0
   39.9850  135.2787   24.2018 H   0  0  0  0  0
   35.7072  131.0036   21.5243 H   0  0  0  0  0
   34.9316  131.5366   22.9683 H   0  0  0  0  0
   34.8314  127.8473   23.6530 H   0  0  0  0  0
   36.1326  127.5931   22.5219 H   0  0  0  0  0
   33.6051  127.8070   21.5232 H   0  0  0  0  0
   34.8585  128.5244   20.6520 H   0  0  0  0  0
   33.3213  130.4157   21.1961 H   0  0  0  0  0
   33.0319  130.5241   23.8644 H   0  0  0  0  0
   33.0966  128.7186   23.6245 H   0  0  0  0  0
   30.8815  129.5613   23.6083 H   0  0  0  0  0
   31.2378  130.5835   22.3414 H   0  0  0  0  0
   31.2970  128.9326   22.1220 H   0  0  0  0  0
  2  1  4  0  0  0
  1  5  4  0  0  0
  1 18  4  0  0  0
  2  3  4  0  0  0
 15  2  4  0  0  0
  3  4  4  0  0  0
  4 16  4  0  0  0
  5 16  4  0  0  0
  7  6  1  0  0  0
  7  8  4  0  0  0
 13  7  4  0  0  0
  8  9  4  0  0  0
 10  9  4  0  0  0
 11 10  4  0  0  0
 11 12  1  0  0  0
 13 11  4  0  0  0
 14 13  1  0  0  0
 14 15  4  0  0  0
 14 19  4  0  0  0
 16 17  1  0  0  0
 18 19  4  0  0  0
 19 20  1  0  0  0
 20 21  1  0  0  0
 20 22  1  0  0  0
 21 24  1  0  0  0
 22 23  1  0  0  0
 23 24  1  0  0  0
 24 25  1  0  0  0
 25 26  1  0  0  0
  3 27  1  0  0  0
  8 28  1  0  0  0
  9 29  1  0  0  0
 10 30  1  0  0  0
 15 31  1  0  0  0
 17 32  1  0  0  0
 17 33  1  0  0  0
 21 34  1  0  0  0
 21 35  1  0  0  0
 22 36  1  0  0  0
 22 37  1  0  0  0
 23 38  1  0  0  0
 23 39  1  0  0  0
 24 40  1  0  0  0
 25 41  1  0  0  0
 25 42  1  0  0  0
 26 43  1  0  0  0
 26 44  1  0  0  0
 26 45  1  0  0  0
M  END
$$$$
