4dk7_ligand
  -I-interpret- 

 40 41  0  0  0  0  0  0  0  0999 V2000
   41.5400   68.0850   41.2280 C   0  0  0  0  0
   40.6920   67.3820   42.1320 C   0  0  0  0  0
   40.9840   68.4550   39.9750 C   0  0  0  0  0
   39.3670   67.0720   41.7960 C   0  0  0  0  0
   39.6690   68.1470   39.6380 C   0  0  0  0  0
   38.8240   67.4450   40.5480 C   0  0  0  0  0
   37.4590   67.0790   40.2750 N   0  0  0  0  0
   36.9630   65.4040   40.0170 S   0  0  0  0  0
   35.6080   65.4530   39.5150 O   0  0  0  0  0
   37.1310   64.7550   41.2970 O   0  0  0  0  0
   38.0180   64.5890   38.8050 C   0  0  0  0  0
   39.2110   63.9300   39.2230 C   0  0  0  0  0
   37.6440   64.6020   37.4290 C   0  0  0  0  0
   38.4550   63.9600   36.4670 C   0  0  0  0  0
   40.0210   63.2870   38.2650 C   0  0  0  0  0
   39.6330   63.3100   36.8980 C   0  0  0  0  0
   36.9780   67.9490   39.1720 C   0  0  0  0  0
   42.9970   68.4480   41.5400 C   0  0  0  0  0
   43.9500   67.2380   41.2270 C   0  0  0  0  0
   43.1470   69.0520   43.0080 C   0  0  0  0  0
   45.2500   67.5470   41.4750 F   0  0  0  0  0
   43.8540   66.8780   39.9130 F   0  0  0  0  0
   43.6550   66.1270   41.9650 F   0  0  0  0  0
   44.4370   69.4030   43.2610 F   0  0  0  0  0
   42.8110   68.1670   43.9780 F   0  0  0  0  0
   42.3410   70.1610   43.1720 F   0  0  0  0  0
   43.4470   69.5230   40.6980 O   0  0  0  0  0
   41.0814   67.0793   43.1040 H   0  0  0  0  0
   41.6031   68.9944   39.2582 H   0  0  0  0  0
   38.7452   66.5334   42.5111 H   0  0  0  0  0
   39.2795   68.4465   38.6650 H   0  0  0  0  0
   39.4947   63.9233   40.2754 H   0  0  0  0  0
   36.7301   65.1086   37.1188 H   0  0  0  0  0
   38.1774   63.9660   35.4130 H   0  0  0  0  0
   40.9352   62.7776   38.5695 H   0  0  0  0  0
   40.2625   62.8117   36.1607 H   0  0  0  0  0
   37.3957   67.6004   38.2275 H   0  0  0  0  0
   35.8897   67.9078   39.1267 H   0  0  0  0  0
   37.2968   68.9752   39.3550 H   0  0  0  0  0
   42.8975   70.2960   40.8467 H   0  0  0  0  0
  1  2  4  0  0  0
  1  3  4  0  0  0
  1 18  1  0  0  0
  2  4  4  0  0  0
  3  5  4  0  0  0
  4  6  4  0  0  0
  5  6  4  0  0  0
  6  7  1  0  0  0
  7  8  1  0  0  0
  7 17  1  0  0  0
  8  9  2  0  0  0
  8 10  2  0  0  0
  8 11  1  0  0  0
 11 12  4  0  0  0
 11 13  4  0  0  0
 12 15  4  0  0  0
 13 14  4  0  0  0
 14 16  4  0  0  0
 15 16  4  0  0  0
 18 19  1  0  0  0
 18 20  1  0  0  0
 18 27  1  0  0  0
 19 21  1  0  0  0
 19 22  1  0  0  0
 19 23  1  0  0  0
 20 24  1  0  0  0
 20 25  1  0  0  0
 20 26  1  0  0  0
  2 28  1  0  0  0
  3 29  1  0  0  0
  4 30  1  0  0  0
  5 31  1  0  0  0
 12 32  1  0  0  0
 13 33  1  0  0  0
 14 34  1  0  0  0
 15 35  1  0  0  0
 16 36  1  0  0  0
 17 37  1  0  0  0
 17 38  1  0  0  0
 17 39  1  0  0  0
 27 40  1  0  0  0
M  END
$$$$
