### 
### Created by X-TOOL on Mon Sep 10 21:13:29 2018
### 

@<TRIPOS>MOLECULE
5iy4_ligand
  228   231     1     0     0
SMALL
GAST_HUCK


@<TRIPOS>ATOM
      1 N         -15.6490  -71.2590  -37.0770 N.4       1 SER         0.2396
      2 CA        -15.9270  -70.2800  -38.1100 C.3       1 SER         0.0885
      3 C         -16.1110  -70.9300  -39.4790 C.2       1 SER         0.2291
      4 O         -15.4380  -71.9160  -39.7840 O.2       1 SER        -0.3906
      5 CB        -14.7610  -69.2950  -38.1860 C.3       1 SER         0.1041
      6 OG        -14.9330  -68.2130  -37.2910 O.3       1 SER        -0.3870
      7 N         -17.0140  -70.4010  -40.3050 N.am      1 HIS        -0.2597
      8 CA        -16.9920  -70.7550  -41.7290 C.3       1 HIS         0.1370
      9 C         -17.5780  -69.6180  -42.5700 C.2       1 HIS         0.2054
     10 O         -18.5990  -69.0320  -42.2100 O.2       1 HIS        -0.3942
     11 CB        -17.7470  -72.0590  -42.0110 C.3       1 HIS         0.0145
     12 CG        -17.8550  -72.3880  -43.4710 C.2       1 HIS        -0.0027
     13 ND1       -19.0560  -72.4480  -44.1430 N.2       1 HIS        -0.3252
     14 CD2       -16.8980  -72.6780  -44.3870 C.2       1 HIS         0.0291
     15 CE1       -18.8360  -72.7700  -45.4070 C.2       1 HIS         0.0907
     16 NE2       -17.5350  -72.9150  -45.5810 N.pl3     1 HIS        -0.2752
     17 N         -16.9210  -69.3060  -43.6820 N.am      1 GLN        -0.2635
     18 CA        -17.3500  -68.2060  -44.5370 C.3       1 GLN         0.1330
     19 C         -17.9840  -68.6970  -45.8340 C.2       1 GLN         0.2042
     20 O         -17.3660  -69.4400  -46.5960 O.2       1 GLN        -0.3944
     21 CB        -16.1720  -67.2800  -44.8480 C.3       1 GLN         0.0045
     22 CG        -16.2780  -65.9050  -44.2080 C.3       1 GLN         0.0412
     23 CD        -17.4860  -65.1280  -44.6930 C.2       1 GLN         0.1737
     24 OE1       -18.1140  -65.4910  -45.6880 O.2       1 GLN        -0.3973
     25 NE2       -17.8180  -64.0510  -43.9910 N.am      1 GLN        -0.3009
     26 N         -19.2200  -68.2730  -46.0780 N.am      1 ASN        -0.2616
     27 CA        -19.9230  -68.6250  -47.3040 C.3       1 ASN         0.1476
     28 C         -19.5620  -67.6710  -48.4360 C.2       1 ASN         0.2063
     29 O         -19.2790  -66.4960  -48.2010 O.2       1 ASN        -0.3942
     30 CB        -21.4350  -68.6230  -47.0760 C.3       1 ASN         0.0773
     31 CG        -21.9950  -70.0170  -46.8720 C.2       1 ASN         0.1780
     32 OD1       -21.3330  -71.0130  -47.1640 O.2       1 ASN        -0.3970
     33 ND2       -23.2220  -70.0950  -46.3690 N.am      1 ASN        -0.3007
     34 N         -19.5680  -68.1790  -49.6640 N.am      1 VAL        -0.2633
     35 CA        -19.2060  -67.3740  -50.8150 C.3       1 VAL         0.1333
     36 C         -20.4810  -66.9650  -51.5220 C.2       1 VAL         0.2041
     37 O         -21.5240  -67.5760  -51.3210 O.2       1 VAL        -0.3944
     38 CB        -18.2340  -68.1070  -51.7630 C.3       1 VAL        -0.0063
     39 CG1       -16.8890  -68.2640  -51.0810 C.3       1 VAL        -0.0584
     40 CG2       -18.7800  -69.4490  -52.1960 C.3       1 VAL        -0.0584
     41 N         -20.4110  -65.9220  -52.3330 N.am      1 LEU        -0.2637
     42 CA        -21.6030  -65.4280  -52.9990 C.3       1 LEU         0.1312
     43 C         -22.1500  -66.3940  -54.0410 C.2       1 LEU         0.2040
     44 O         -23.2500  -66.2100  -54.5470 O.2       1 LEU        -0.3944
     45 CB        -21.3170  -64.0860  -53.6540 C.3       1 LEU        -0.0101
     46 CG        -21.1280  -62.9490  -52.6720 C.3       1 LEU        -0.0425
     47 CD1       -20.7260  -61.7490  -53.4220 C.3       1 LEU        -0.0625
     48 CD2       -22.3910  -62.7050  -51.9120 C.3       1 LEU        -0.0625
     49 N         -21.3640  -67.4140  -54.3580 N.am      1 SER        -0.2616
     50 CA        -21.7740  -68.4770  -55.2600 C.3       1 SER         0.1539
     51 C         -22.9900  -69.2230  -54.7550 C.2       1 SER         0.2063
     52 O         -23.8110  -69.6710  -55.5470 O.2       1 SER        -0.3943
     53 CB        -20.6360  -69.4600  -55.4760 C.3       1 SER         0.0843
     54 OG        -19.4700  -68.7850  -55.8910 O.3       1 SER        -0.3903
     55 N         -23.1130  -69.3680  -53.4410 N.am      1 ASN        -0.2615
     56 CA        -24.2680  -70.0630  -52.9150 C.3       1 ASN         0.1476
     57 C         -25.5620  -69.3200  -53.1480 C.2       1 ASN         0.2064
     58 O         -26.6360  -69.9170  -53.0470 O.2       1 ASN        -0.3942
     59 CB        -24.1510  -70.2800  -51.4070 C.3       1 ASN         0.0773
     60 CG        -23.1140  -71.2810  -51.0270 C.2       1 ASN         0.1780
     61 OD1       -21.9170  -71.0310  -51.0940 O.2       1 ASN        -0.3970
     62 ND2       -23.5780  -72.4480  -50.6090 N.am      1 ASN        -0.3007
     63 N         -25.4830  -68.0260  -53.4400 N.am      1 TYR        -0.2620
     64 CA        -26.6900  -67.2090  -53.5160 C.3       1 TYR         0.1390
     65 C         -26.9610  -66.5710  -54.8770 C.2       1 TYR         0.2059
     66 O         -28.1170  -66.3810  -55.2540 O.2       1 TYR        -0.3942
     67 CB        -26.6620  -66.1240  -52.4340 C.3       1 TYR         0.0163
     68 CG        -26.2070  -66.6210  -51.0810 C.ar      1 TYR        -0.0493
     69 CD1       -27.1260  -67.0310  -50.1250 C.ar      1 TYR        -0.0685
     70 CD2       -24.8570  -66.6780  -50.7590 C.ar      1 TYR        -0.0685
     71 CE1       -26.7150  -67.4860  -48.8860 C.ar      1 TYR        -0.0398
     72 CE2       -24.4360  -67.1310  -49.5230 C.ar      1 TYR        -0.0398
     73 CZ        -25.3690  -67.5340  -48.5910 C.ar      1 TYR         0.0805
     74 OH        -24.9540  -67.9850  -47.3590 O.3       1 TYR        -0.3376
     75 N         -25.9060  -66.2280  -55.6090 N.am      1 PHE        -0.2618
     76 CA        -26.0790  -65.4850  -56.8420 C.3       1 PHE         0.1406
     77 C         -25.6200  -66.2950  -58.0310 C.2       1 PHE         0.2085
     78 O         -24.6170  -66.9820  -57.9530 O.2       1 PHE        -0.3940
     79 CB        -25.3000  -64.1700  -56.8190 C.3       1 PHE         0.0214
     80 CG        -25.8100  -63.1570  -55.8240 C.ar      1 PHE        -0.0386
     81 CD1       -27.1280  -63.1680  -55.4070 C.ar      1 PHE        -0.0601
     82 CD2       -24.9740  -62.1600  -55.3480 C.ar      1 PHE        -0.0601
     83 CE1       -27.5860  -62.2330  -54.5140 C.ar      1 PHE        -0.0686
     84 CE2       -25.4310  -61.2250  -54.4700 C.ar      1 PHE        -0.0686
     85 CZ        -26.7330  -61.2610  -54.0510 C.ar      1 PHE        -0.0687
     86 N         -26.3700  -66.2250  -59.1390 N.am      1 PRO        -0.2497
     87 CA        -25.9870  -66.9080  -60.3680 C.3       1 PRO         0.1338
     88 C         -24.8060  -66.2220  -61.0640 C.2       1 PRO         0.2041
     89 O         -24.5960  -65.0250  -60.9090 O.2       1 PRO        -0.3944
     90 CB        -27.2520  -66.8210  -61.2070 C.3       1 PRO        -0.0104
     91 CG        -27.9340  -65.6420  -60.7200 C.3       1 PRO        -0.0281
     92 CD        -27.6740  -65.5610  -59.2740 C.3       1 PRO         0.0369
     93 N         -23.9930  -66.9950  -61.7740 N.am      1 ARG        -0.2637
     94 CA        -22.9240  -66.4190  -62.5740 C.3       1 ARG         0.1311
     95 C         -23.4050  -65.9280  -63.9150 C.2       1 ARG         0.2039
     96 O         -23.4820  -66.7100  -64.8610 O.2       1 ARG        -0.3944
     97 CB        -21.7900  -67.4150  -62.7970 C.3       1 ARG        -0.0092
     98 CG        -20.4850  -66.7020  -63.1100 C.3       1 ARG        -0.0156
     99 CD        -19.2820  -67.5980  -63.0280 C.3       1 ARG         0.0627
    100 NE        -18.0750  -66.9390  -63.5150 N.pl3     1 ARG        -0.2723
    101 CZ        -17.8020  -66.7440  -64.7990 C.cat     1 ARG         0.2882
    102 NH1       -18.6630  -67.1500  -65.7230 N.pl3     1 ARG        -0.2849
    103 NH2       -16.6770  -66.1360  -65.1610 N.pl3     1 ARG        -0.2849
    104 N         -23.7850  -64.6630  -64.0090 N.am      1 VAL        -0.2635
    105 CA        -24.0680  -64.1330  -65.3270 C.3       1 VAL         0.1332
    106 C         -22.7610  -63.5740  -65.8310 C.2       1 VAL         0.2037
    107 O         -22.3610  -62.4980  -65.4000 O.2       1 VAL        -0.3944
    108 CB        -25.1380  -63.0200  -65.3240 C.3       1 VAL        -0.0063
    109 CG1       -25.3930  -62.5460  -66.7370 C.3       1 VAL        -0.0584
    110 CG2       -26.4380  -63.5100  -64.7020 C.3       1 VAL        -0.0584
    111 N         -22.0790  -64.2890  -66.7200 N.am      1 SER        -0.2672
    112 CA        -20.9010  -63.7190  -67.3650 C.3       1 SER         0.1173
    113 C         -21.2860  -63.5260  -68.8070 C.2       1 SER         0.0623
    114 O         -22.4680  -63.6390  -69.1360 O.co2     1 SER        -0.5665
    115 CB        -19.6530  -64.5930  -67.2250 C.3       1 SER         0.0789
    116 OG        -19.0740  -64.4500  -65.9450 O.3       1 SER        -0.3910
    117 OXT       -20.4130  -63.2580  -69.6340 O.co2     1 SER        -0.5665
    118 H1        -15.5346  -70.7903  -36.1920 H         1 SER         0.2016
    119 H2        -14.8029  -71.7572  -37.3051 H         1 SER         0.2016
    120 H3        -16.4162  -71.9100  -37.0158 H         1 SER         0.2016
    121 H4        -16.8477  -69.7385  -37.8471 H         1 SER         0.1122
    122 H5        -14.6918  -68.9024  -39.2112 H         1 SER         0.0640
    123 H6        -13.8303  -69.8235  -37.9321 H         1 SER         0.0640
    124 H7        -14.1926  -67.6222  -37.3642 H         1 SER         0.2099
    125 H8        -17.7031  -69.7660  -39.9558 H         1 HIS         0.1886
    126 H9        -15.9426  -70.8993  -42.0256 H         1 HIS         0.0817
    127 H10       -18.7629  -71.9685  -41.5991 H         1 HIS         0.0420
    128 H11       -17.2191  -72.8822  -41.5074 H         1 HIS         0.0420
    129 H12       -15.8243  -72.7160  -44.2092 H         1 HIS         0.0729
    130 H13       -19.5987  -72.8945  -46.1743 H         1 HIS         0.1199
    131 H14       -17.0732  -73.1649  -46.4671 H         1 HIS         0.2361
    132 H15       -16.1139  -69.8379  -43.9382 H         1 GLN         0.1883
    133 H16       -18.1075  -67.6278  -43.9876 H         1 GLN         0.0801
    134 H17       -16.1134  -67.1498  -45.9387 H         1 GLN         0.0337
    135 H18       -15.2506  -67.7595  -44.4859 H         1 GLN         0.0337
    136 H19       -15.3704  -65.3326  -44.4503 H         1 GLN         0.0504
    137 H20       -16.3533  -66.0287  -43.1176 H         1 GLN         0.0504
    138 H21       -18.6061  -63.4994  -44.2642 H         1 GLN         0.1814
    139 H22       -17.2799  -63.7914  -43.1891 H         1 GLN         0.1814
    140 H23       -19.6793  -67.6970  -45.4018 H         1 ASN         0.1885
    141 H24       -19.6171  -69.6402  -47.5967 H         1 ASN         0.0826
    142 H25       -21.9230  -68.1720  -47.9526 H         1 ASN         0.0551
    143 H26       -21.6559  -68.0203  -46.1827 H         1 ASN         0.0551
    144 H27       -23.6425  -70.9888  -46.2129 H         1 ASN         0.1814
    145 H28       -23.7252  -69.2600  -46.1464 H         1 ASN         0.1814
    146 H29       -19.8273  -69.1356  -49.7972 H         1 VAL         0.1883
    147 H30       -18.6996  -66.4656  -50.4567 H         1 VAL         0.0802
    148 H31       -18.0980  -67.4894  -52.6630 H         1 VAL         0.0343
    149 H32       -16.1947  -68.7865  -51.7555 H         1 VAL         0.0234
    150 H33       -17.0122  -68.8484  -50.1573 H         1 VAL         0.0234
    151 H34       -16.4842  -67.2711  -50.8355 H         1 VAL         0.0234
    152 H35       -19.7542  -69.3074  -52.6869 H         1 VAL         0.0234
    153 H36       -18.9039  -70.0960  -51.3151 H         1 VAL         0.0234
    154 H37       -18.0792  -69.9198  -52.9011 H         1 VAL         0.0234
    155 H38       -19.5320  -65.4712  -52.4882 H         1 LEU         0.1883
    156 H39       -22.3790  -65.2833  -52.2330 H         1 LEU         0.0800
    157 H40       -22.1609  -63.8363  -54.3139 H         1 LEU         0.0315
    158 H41       -20.3993  -64.1819  -54.2528 H         1 LEU         0.0315
    159 H42       -20.3320  -63.2128  -51.9601 H         1 LEU         0.0298
    160 H43       -20.5838  -60.9109  -52.7239 H         1 LEU         0.0232
    161 H44       -21.5100  -61.4914  -54.1493 H         1 LEU         0.0232
    162 H45       -19.7836  -61.9474  -53.9535 H         1 LEU         0.0232
    163 H46       -22.6692  -63.6156  -51.3611 H         1 LEU         0.0232
    164 H47       -23.1959  -62.4407  -52.6136 H         1 LEU         0.0232
    165 H48       -22.2378  -61.8792  -51.2017 H         1 LEU         0.0232
    166 H49       -20.4481  -67.4534  -53.9584 H         1 SER         0.1884
    167 H50       -22.0295  -68.0202  -56.2275 H         1 SER         0.0823
    168 H51       -20.9275  -70.1866  -56.2487 H         1 SER         0.0606
    169 H52       -20.4314  -69.9891  -54.5336 H         1 SER         0.0606
    170 H53       -18.7704  -69.4144  -56.0209 H         1 SER         0.2097
    171 H54       -22.4170  -69.0019  -52.8233 H         1 ASN         0.1885
    172 H55       -24.3279  -71.0412  -53.4146 H         1 ASN         0.0826
    173 H56       -25.1241  -70.6268  -51.0290 H         1 ASN         0.0551
    174 H57       -23.8959  -69.3192  -50.9361 H         1 ASN         0.0551
    175 H58       -22.9423  -73.1702  -50.3365 H         1 ASN         0.1814
    176 H59       -24.5643  -72.6074  -50.5657 H         1 ASN         0.1814
    177 H60       -24.5899  -67.6090  -53.6089 H         1 TYR         0.1885
    178 H61       -27.5381  -67.8762  -53.3025 H         1 TYR         0.0821
    179 H62       -27.6770  -65.7133  -52.3288 H         1 TYR         0.0453
    180 H63       -25.9761  -65.3279  -52.7592 H         1 TYR         0.0453
    181 H64       -28.1849  -66.9938  -50.3540 H         1 TYR         0.0530
    182 H65       -24.1212  -66.3618  -51.4895 H         1 TYR         0.0530
    183 H66       -27.4462  -67.8030  -48.1512 H         1 TYR         0.0525
    184 H67       -23.3786  -67.1693  -49.2876 H         1 TYR         0.0525
    185 H68       -25.7122  -68.2220  -46.8379 H         1 TYR         0.2458
    186 H69       -24.9875  -66.4839  -55.3076 H         1 PHE         0.1885
    187 H70       -27.1490  -65.2585  -56.9594 H         1 PHE         0.0823
    188 H71       -25.3524  -63.7222  -57.8224 H         1 PHE         0.0474
    189 H72       -24.2521  -64.3959  -56.5725 H         1 PHE         0.0474
    190 H73       -27.8059  -63.9226  -55.7893 H         1 PHE         0.0557
    191 H74       -23.9424  -62.1238  -55.6790 H         1 PHE         0.0557
    192 H75       -28.6154  -62.2610  -54.1755 H         1 PHE         0.0599
    193 H76       -24.7641  -60.4530  -54.1034 H         1 PHE         0.0599
    194 H77       -27.0937  -60.5177  -53.3492 H         1 PHE         0.0559
    195 H78       -25.7233  -67.9564  -60.1646 H         1 PRO         0.0802
    196 H79       -27.8748  -67.7164  -61.0641 H         1 PRO         0.0313
    197 H80       -27.0039  -66.7132  -62.2732 H         1 PRO         0.0313
    198 H81       -29.0149  -65.7273  -60.9052 H         1 PRO         0.0287
    199 H82       -27.5451  -64.7452  -61.2245 H         1 PRO         0.0287
    200 H83       -27.6222  -64.5146  -58.9390 H         1 PRO         0.0524
    201 H84       -28.4496  -66.0912  -58.7019 H         1 PRO         0.0524
    202 H85       -24.1175  -67.9871  -61.7584 H         1 ARG         0.1883
    203 H86       -22.5227  -65.5581  -62.0192 H         1 ARG         0.0800
    204 H87       -22.0505  -68.0724  -63.6396 H         1 ARG         0.0313
    205 H88       -21.6592  -68.0193  -61.8872 H         1 ARG         0.0313
    206 H89       -20.3563  -65.8787  -62.3919 H         1 ARG         0.0301
    207 H90       -20.5466  -66.2932  -64.1293 H         1 ARG         0.0301
    208 H91       -19.4660  -68.4961  -63.6359 H         1 ARG         0.0689
    209 H92       -19.1280  -67.8906  -61.9789 H         1 ARG         0.0689
    210 H93       -17.3928  -66.6045  -62.8196 H         1 ARG         0.2642
    211 H94       -18.4558  -67.0010  -66.7209 H         1 ARG         0.2615
    212 H95       -19.5387  -67.6142  -65.4425 H         1 ARG         0.2615
    213 H96       -16.0083  -65.8206  -64.4439 H         1 ARG         0.2615
    214 H97       -16.4738  -65.9802  -66.1587 H         1 ARG         0.2615
    215 H98       -23.8740  -64.0904  -63.1940 H         1 VAL         0.1883
    216 H99       -24.4101  -64.9476  -65.9822 H         1 VAL         0.0802
    217 H100      -24.7618  -62.1748  -64.7289 H         1 VAL         0.0343
    218 H101      -26.1560  -61.7537  -66.7259 H         1 VAL         0.0234
    219 H102      -25.7485  -63.3888  -67.3480 H         1 VAL         0.0234
    220 H103      -24.4601  -62.1506  -67.1651 H         1 VAL         0.0234
    221 H104      -26.2463  -63.8534  -63.6747 H         1 VAL         0.0234
    222 H105      -26.8387  -64.3430  -65.2982 H         1 VAL         0.0234
    223 H106      -27.1684  -62.6877  -64.6835 H         1 VAL         0.0234
    224 H107      -22.3733  -65.2175  -66.9467 H         1 SER         0.1876
    225 H108      -20.6807  -62.7412  -66.9117 H         1 SER         0.0749
    226 H109      -18.9181  -64.2948  -67.9872 H         1 SER         0.0599
    227 H110      -19.9326  -65.6459  -67.3773 H         1 SER         0.0599
    228 H111      -18.3029  -65.0016  -65.8840 H         1 SER         0.2096
@<TRIPOS>BOND
     1    1    2 1  
     2    2    3 1  
     3    2    5 1  
     4    3    4 2  
     5    3    7 am 
     6    5    6 1  
     7    7    8 1  
     8    8    9 1  
     9    8   11 1  
    10    9   10 2  
    11    9   17 am 
    12   11   12 1  
    13   12   13 1  
    14   12   14 2  
    15   13   15 2  
    16   14   16 1  
    17   15   16 1  
    18   17   18 1  
    19   18   19 1  
    20   18   21 1  
    21   19   20 2  
    22   19   26 am 
    23   21   22 1  
    24   22   23 1  
    25   23   24 2  
    26   23   25 am 
    27   26   27 1  
    28   27   28 1  
    29   27   30 1  
    30   28   29 2  
    31   28   34 am 
    32   30   31 1  
    33   31   32 2  
    34   31   33 am 
    35   34   35 1  
    36   35   36 1  
    37   35   38 1  
    38   36   37 2  
    39   36   41 am 
    40   38   39 1  
    41   38   40 1  
    42   41   42 1  
    43   42   43 1  
    44   42   45 1  
    45   43   44 2  
    46   43   49 am 
    47   45   46 1  
    48   46   47 1  
    49   46   48 1  
    50   49   50 1  
    51   50   51 1  
    52   50   53 1  
    53   51   52 2  
    54   51   55 am 
    55   53   54 1  
    56   55   56 1  
    57   56   57 1  
    58   56   59 1  
    59   57   58 2  
    60   57   63 am 
    61   59   60 1  
    62   60   61 2  
    63   60   62 am 
    64   63   64 1  
    65   64   65 1  
    66   64   67 1  
    67   65   66 2  
    68   65   75 am 
    69   67   68 1  
    70   68   69 ar 
    71   68   70 ar 
    72   69   71 ar 
    73   70   72 ar 
    74   71   73 ar 
    75   72   73 ar 
    76   73   74 1  
    77   75   76 1  
    78   76   77 1  
    79   76   79 1  
    80   77   78 2  
    81   77   86 am 
    82   79   80 1  
    83   80   81 ar 
    84   80   82 ar 
    85   81   83 ar 
    86   82   84 ar 
    87   83   85 ar 
    88   84   85 ar 
    89   86   87 1  
    90   86   92 1  
    91   87   88 1  
    92   87   90 1  
    93   88   89 2  
    94   88   93 am 
    95   90   91 1  
    96   91   92 1  
    97   93   94 1  
    98   94   95 1  
    99   94   97 1  
   100   95   96 2  
   101   95  104 am 
   102   97   98 1  
   103   98   99 1  
   104   99  100 1  
   105  100  101 ar 
   106  101  102 ar 
   107  101  103 ar 
   108  104  105 1  
   109  105  106 1  
   110  105  108 1  
   111  106  107 2  
   112  106  111 am 
   113  108  109 1  
   114  108  110 1  
   115  111  112 1  
   116  112  113 1  
   117  112  115 1  
   118  113  114 ar 
   119  113  117 ar 
   120  115  116 1  
   121    1  118 1  
   122    1  119 1  
   123    1  120 1  
   124    2  121 1  
   125    5  122 1  
   126    5  123 1  
   127    6  124 1  
   128    7  125 1  
   129    8  126 1  
   130   11  127 1  
   131   11  128 1  
   132   14  129 1  
   133   15  130 1  
   134   16  131 1  
   135   17  132 1  
   136   18  133 1  
   137   21  134 1  
   138   21  135 1  
   139   22  136 1  
   140   22  137 1  
   141   25  138 1  
   142   25  139 1  
   143   26  140 1  
   144   27  141 1  
   145   30  142 1  
   146   30  143 1  
   147   33  144 1  
   148   33  145 1  
   149   34  146 1  
   150   35  147 1  
   151   38  148 1  
   152   39  149 1  
   153   39  150 1  
   154   39  151 1  
   155   40  152 1  
   156   40  153 1  
   157   40  154 1  
   158   41  155 1  
   159   42  156 1  
   160   45  157 1  
   161   45  158 1  
   162   46  159 1  
   163   47  160 1  
   164   47  161 1  
   165   47  162 1  
   166   48  163 1  
   167   48  164 1  
   168   48  165 1  
   169   49  166 1  
   170   50  167 1  
   171   53  168 1  
   172   53  169 1  
   173   54  170 1  
   174   55  171 1  
   175   56  172 1  
   176   59  173 1  
   177   59  174 1  
   178   62  175 1  
   179   62  176 1  
   180   63  177 1  
   181   64  178 1  
   182   67  179 1  
   183   67  180 1  
   184   69  181 1  
   185   70  182 1  
   186   71  183 1  
   187   72  184 1  
   188   74  185 1  
   189   75  186 1  
   190   76  187 1  
   191   79  188 1  
   192   79  189 1  
   193   81  190 1  
   194   82  191 1  
   195   83  192 1  
   196   84  193 1  
   197   85  194 1  
   198   87  195 1  
   199   90  196 1  
   200   90  197 1  
   201   91  198 1  
   202   91  199 1  
   203   92  200 1  
   204   92  201 1  
   205   93  202 1  
   206   94  203 1  
   207   97  204 1  
   208   97  205 1  
   209   98  206 1  
   210   98  207 1  
   211   99  208 1  
   212   99  209 1  
   213  100  210 1  
   214  102  211 1  
   215  102  212 1  
   216  103  213 1  
   217  103  214 1  
   218  104  215 1  
   219  105  216 1  
   220  108  217 1  
   221  109  218 1  
   222  109  219 1  
   223  109  220 1  
   224  110  221 1  
   225  110  222 1  
   226  110  223 1  
   227  111  224 1  
   228  112  225 1  
   229  115  226 1  
   230  115  227 1  
   231  116  228 1  
@<TRIPOS>SUBSTRUCTURE
     1 SER         1

