5iy4_ligand
  -I-interpret- 

227230  0  0  0  0  0  0  0  0999 V2000
  -15.6490  -71.2590  -37.0770 N   0  3  0  0  0
  -15.9270  -70.2800  -38.1100 C   0  0  0  0  0
  -16.1110  -70.9300  -39.4790 C   0  0  0  0  0
  -15.4380  -71.9160  -39.7840 O   0  0  0  0  0
  -14.7610  -69.2950  -38.1860 C   0  0  0  0  0
  -14.9330  -68.2130  -37.2910 O   0  0  0  0  0
  -17.0140  -70.4010  -40.3050 N   0  0  0  0  0
  -16.9920  -70.7550  -41.7290 C   0  0  0  0  0
  -17.5780  -69.6180  -42.5700 C   0  0  0  0  0
  -18.5990  -69.0320  -42.2100 O   0  0  0  0  0
  -17.7470  -72.0590  -42.0110 C   0  0  0  0  0
  -17.8550  -72.3880  -43.4710 C   0  0  0  0  0
  -19.0560  -72.4480  -44.1430 N   0  0  0  0  0
  -16.8980  -72.6780  -44.3870 C   0  0  0  0  0
  -18.8360  -72.7700  -45.4070 C   0  0  0  0  0
  -17.5350  -72.9150  -45.5810 N   0  0  0  0  0
  -16.9210  -69.3060  -43.6820 N   0  0  0  0  0
  -17.3500  -68.2060  -44.5370 C   0  0  0  0  0
  -17.9840  -68.6970  -45.8340 C   0  0  0  0  0
  -17.3660  -69.4400  -46.5960 O   0  0  0  0  0
  -16.1720  -67.2800  -44.8480 C   0  0  0  0  0
  -16.2780  -65.9050  -44.2080 C   0  0  0  0  0
  -17.4860  -65.1280  -44.6930 C   0  0  0  0  0
  -18.1140  -65.4910  -45.6880 O   0  0  0  0  0
  -17.8180  -64.0510  -43.9910 N   0  0  0  0  0
  -19.2200  -68.2730  -46.0780 N   0  0  0  0  0
  -19.9230  -68.6250  -47.3040 C   0  0  0  0  0
  -19.5620  -67.6710  -48.4360 C   0  0  0  0  0
  -19.2790  -66.4960  -48.2010 O   0  0  0  0  0
  -21.4350  -68.6230  -47.0760 C   0  0  0  0  0
  -21.9950  -70.0170  -46.8720 C   0  0  0  0  0
  -21.3330  -71.0130  -47.1640 O   0  0  0  0  0
  -23.2220  -70.0950  -46.3690 N   0  0  0  0  0
  -19.5680  -68.1790  -49.6640 N   0  0  0  0  0
  -19.2060  -67.3740  -50.8150 C   0  0  0  0  0
  -20.4810  -66.9650  -51.5220 C   0  0  0  0  0
  -21.5240  -67.5760  -51.3210 O   0  0  0  0  0
  -18.2340  -68.1070  -51.7630 C   0  0  0  0  0
  -16.8890  -68.2640  -51.0810 C   0  0  0  0  0
  -18.7800  -69.4490  -52.1960 C   0  0  0  0  0
  -20.4110  -65.9220  -52.3330 N   0  0  0  0  0
  -21.6030  -65.4280  -52.9990 C   0  0  0  0  0
  -22.1500  -66.3940  -54.0410 C   0  0  0  0  0
  -23.2500  -66.2100  -54.5470 O   0  0  0  0  0
  -21.3170  -64.0860  -53.6540 C   0  0  0  0  0
  -21.1280  -62.9490  -52.6720 C   0  0  0  0  0
  -20.7260  -61.7490  -53.4220 C   0  0  0  0  0
  -22.3910  -62.7050  -51.9120 C   0  0  0  0  0
  -21.3640  -67.4140  -54.3580 N   0  0  0  0  0
  -21.7740  -68.4770  -55.2600 C   0  0  0  0  0
  -22.9900  -69.2230  -54.7550 C   0  0  0  0  0
  -23.8110  -69.6710  -55.5470 O   0  0  0  0  0
  -20.6360  -69.4600  -55.4760 C   0  0  0  0  0
  -19.4700  -68.7850  -55.8910 O   0  0  0  0  0
  -23.1130  -69.3680  -53.4410 N   0  0  0  0  0
  -24.2680  -70.0630  -52.9150 C   0  0  0  0  0
  -25.5620  -69.3200  -53.1480 C   0  0  0  0  0
  -26.6360  -69.9170  -53.0470 O   0  0  0  0  0
  -24.1510  -70.2800  -51.4070 C   0  0  0  0  0
  -23.1140  -71.2810  -51.0270 C   0  0  0  0  0
  -21.9170  -71.0310  -51.0940 O   0  0  0  0  0
  -23.5780  -72.4480  -50.6090 N   0  0  0  0  0
  -25.4830  -68.0260  -53.4400 N   0  0  0  0  0
  -26.6900  -67.2090  -53.5160 C   0  0  0  0  0
  -26.9610  -66.5710  -54.8770 C   0  0  0  0  0
  -28.1170  -66.3810  -55.2540 O   0  0  0  0  0
  -26.6620  -66.1240  -52.4340 C   0  0  0  0  0
  -26.2070  -66.6210  -51.0810 C   0  0  0  0  0
  -27.1260  -67.0310  -50.1250 C   0  0  0  0  0
  -24.8570  -66.6780  -50.7590 C   0  0  0  0  0
  -26.7150  -67.4860  -48.8860 C   0  0  0  0  0
  -24.4360  -67.1310  -49.5230 C   0  0  0  0  0
  -25.3690  -67.5340  -48.5910 C   0  0  0  0  0
  -24.9540  -67.9850  -47.3590 O   0  0  0  0  0
  -25.9060  -66.2280  -55.6090 N   0  0  0  0  0
  -26.0790  -65.4850  -56.8420 C   0  0  0  0  0
  -25.6200  -66.2950  -58.0310 C   0  0  0  0  0
  -24.6170  -66.9820  -57.9530 O   0  0  0  0  0
  -25.3000  -64.1700  -56.8190 C   0  0  0  0  0
  -25.8100  -63.1570  -55.8240 C   0  0  0  0  0
  -27.1280  -63.1680  -55.4070 C   0  0  0  0  0
  -24.9740  -62.1600  -55.3480 C   0  0  0  0  0
  -27.5860  -62.2330  -54.5140 C   0  0  0  0  0
  -25.4310  -61.2250  -54.4700 C   0  0  0  0  0
  -26.7330  -61.2610  -54.0510 C   0  0  0  0  0
  -26.3700  -66.2250  -59.1390 N   0  0  0  0  0
  -25.9870  -66.9080  -60.3680 C   0  0  0  0  0
  -24.8060  -66.2220  -61.0640 C   0  0  0  0  0
  -24.5960  -65.0250  -60.9090 O   0  0  0  0  0
  -27.2520  -66.8210  -61.2070 C   0  0  0  0  0
  -27.9340  -65.6420  -60.7200 C   0  0  0  0  0
  -27.6740  -65.5610  -59.2740 C   0  0  0  0  0
  -23.9930  -66.9950  -61.7740 N   0  0  0  0  0
  -22.9240  -66.4190  -62.5740 C   0  0  0  0  0
  -23.4050  -65.9280  -63.9150 C   0  0  0  0  0
  -23.4820  -66.7100  -64.8610 O   0  0  0  0  0
  -21.7900  -67.4150  -62.7970 C   0  0  0  0  0
  -20.4850  -66.7020  -63.1100 C   0  0  0  0  0
  -19.2820  -67.5980  -63.0280 C   0  0  0  0  0
  -18.0750  -66.9390  -63.5150 N   0  0  0  0  0
  -17.8020  -66.7440  -64.7990 C   0  0  0  0  0
  -18.6630  -67.1500  -65.7230 N   0  0  0  0  0
  -16.6770  -66.1360  -65.1610 N   0  0  0  0  0
  -23.7850  -64.6630  -64.0090 N   0  0  0  0  0
  -24.0680  -64.1330  -65.3270 C   0  0  0  0  0
  -22.7610  -63.5740  -65.8310 C   0  0  0  0  0
  -22.3610  -62.4980  -65.4000 O   0  0  0  0  0
  -25.1380  -63.0200  -65.3240 C   0  0  0  0  0
  -25.3930  -62.5460  -66.7370 C   0  0  0  0  0
  -26.4380  -63.5100  -64.7020 C   0  0  0  0  0
  -22.0790  -64.2890  -66.7200 N   0  0  0  0  0
  -20.9010  -63.7190  -67.3650 C   0  0  0  0  0
  -21.2860  -63.5260  -68.8070 C   0  0  0  0  0
  -22.4680  -63.6390  -69.1360 O   0  0  0  0  0
  -19.6530  -64.5930  -67.2250 C   0  0  0  0  0
  -19.0740  -64.4500  -65.9450 O   0  0  0  0  0
  -20.4130  -63.2580  -69.6340 O   0  0  0  0  0
  -16.4233  -71.9206  -37.0200 H   0  0  0  0  0
  -14.7896  -71.7584  -37.3060 H   0  0  0  0  0
  -15.5393  -70.7842  -36.1809 H   0  0  0  0  0
  -16.8555  -69.7720  -37.8494 H   0  0  0  0  0
  -14.7114  -68.8982  -39.2000 H   0  0  0  0  0
  -13.8465  -69.8229  -37.9158 H   0  0  0  0  0
  -14.1849  -67.6160  -37.3650 H   0  0  0  0  0
  -17.7168  -69.7533  -39.9488 H   0  0  0  0  0
  -15.9495  -70.9111  -42.0065 H   0  0  0  0  0
  -18.7602  -71.9391  -41.6275 H   0  0  0  0  0
  -17.1921  -72.8671  -41.5344 H   0  0  0  0  0
  -15.8233  -72.7160  -44.2091 H   0  0  0  0  0
  -19.5994  -72.8946  -46.1750 H   0  0  0  0  0
  -16.0977  -69.8485  -43.9433 H   0  0  0  0  0
  -18.1116  -67.6521  -43.9881 H   0  0  0  0  0
  -16.1538  -67.1327  -45.9278 H   0  0  0  0  0
  -15.2752  -67.7535  -44.4485 H   0  0  0  0  0
  -15.3855  -65.3400  -44.4771 H   0  0  0  0  0
  -16.3779  -66.0429  -43.1314 H   0  0  0  0  0
  -18.6216  -63.4881  -44.2700 H   0  0  0  0  0
  -17.2694  -63.7865  -43.1728 H   0  0  0  0  0
  -19.6885  -67.6855  -45.3883 H   0  0  0  0  0
  -19.6118  -69.6295  -47.5907 H   0  0  0  0  0
  -21.9074  -68.1977  -47.9615 H   0  0  0  0  0
  -21.6378  -68.0446  -46.1747 H   0  0  0  0  0
  -23.6513  -71.0066  -46.2106 H   0  0  0  0  0
  -23.7349  -69.2433  -46.1412 H   0  0  0  0  0
  -19.8325  -69.1547  -49.7999 H   0  0  0  0  0
  -18.6676  -66.4877  -50.4794 H   0  0  0  0  0
  -18.1134  -67.5082  -52.6658 H   0  0  0  0  0
  -16.4890  -67.2795  -50.8382 H   0  0  0  0  0
  -17.0125  -68.8432  -50.1659 H   0  0  0  0  0
  -16.2019  -68.7818  -51.7503 H   0  0  0  0  0
  -18.9410  -70.0747  -51.3181 H   0  0  0  0  0
  -19.7255  -69.3037  -52.7186 H   0  0  0  0  0
  -18.0657  -69.9326  -52.8623 H   0  0  0  0  0
  -19.5144  -65.4622  -52.4913 H   0  0  0  0  0
  -22.3660  -65.3199  -52.2281 H   0  0  0  0  0
  -22.1791  -63.8383  -54.2733 H   0  0  0  0  0
  -20.3859  -64.1901  -54.2111 H   0  0  0  0  0
  -20.3526  -63.2028  -51.9492 H   0  0  0  0  0
  -19.7922  -61.9469  -53.9482 H   0  0  0  0  0
  -21.5036  -61.4948  -54.1423 H   0  0  0  0  0
  -20.5854  -60.9193  -52.7292 H   0  0  0  0  0
  -23.1883  -62.4457  -52.6085 H   0  0  0  0  0
  -22.6642  -63.6071  -51.3646 H   0  0  0  0  0
  -22.2387  -61.8848  -51.2104 H   0  0  0  0  0
  -20.4298  -67.4542  -53.9504 H   0  0  0  0  0
  -22.0388  -68.0019  -56.2046 H   0  0  0  0  0
  -20.9260  -70.1721  -56.2486 H   0  0  0  0  0
  -20.4310  -69.9751  -54.5375 H   0  0  0  0  0
  -18.7630  -69.4210  -56.0223 H   0  0  0  0  0
  -22.4031  -68.9946  -52.8110 H   0  0  0  0  0
  -24.2885  -71.0118  -53.4511 H   0  0  0  0  0
  -25.1120  -70.6553  -51.0552 H   0  0  0  0  0
  -23.8649  -69.3275  -50.9609 H   0  0  0  0  0
  -22.9297  -73.1830  -50.3264 H   0  0  0  0  0
  -24.5839  -72.6123  -50.5695 H   0  0  0  0  0
  -24.5721  -67.6006  -53.6123 H   0  0  0  0  0
  -27.5122  -67.9057  -53.3523 H   0  0  0  0  0
  -27.6811  -65.7549  -52.3182 H   0  0  0  0  0
  -25.9512  -65.3630  -52.7560 H   0  0  0  0  0
  -28.1907  -66.9935  -50.3553 H   0  0  0  0  0
  -24.1171  -66.3601  -51.4936 H   0  0  0  0  0
  -27.4502  -67.8047  -48.1471 H   0  0  0  0  0
  -23.3727  -67.1695  -49.2863 H   0  0  0  0  0
  -23.9955  -67.9557  -47.3150 H   0  0  0  0  0
  -24.9691  -66.4890  -55.3015 H   0  0  0  0  0
  -27.1438  -65.2698  -56.9311 H   0  0  0  0  0
  -25.3997  -63.7232  -57.8082 H   0  0  0  0  0
  -24.2764  -64.4110  -56.5322 H   0  0  0  0  0
  -27.8096  -63.9268  -55.7914 H   0  0  0  0  0
  -23.9367  -62.1236  -55.6808 H   0  0  0  0  0
  -28.6211  -62.2612  -54.1737 H   0  0  0  0  0
  -24.7604  -60.4488  -54.1014 H   0  0  0  0  0
  -27.0957  -60.5136  -53.3453 H   0  0  0  0  0
  -25.6466  -67.9294  -60.1975 H   0  0  0  0  0
  -27.8668  -67.7159  -61.1105 H   0  0  0  0  0
  -27.0302  -66.7522  -62.2720 H   0  0  0  0  0
  -29.0042  -65.7068  -60.9163 H   0  0  0  0  0
  -27.5703  -64.7487  -61.2278 H   0  0  0  0  0
  -27.6688  -64.5368  -58.9009 H   0  0  0  0  0
  -28.4538  -66.0326  -58.6760 H   0  0  0  0  0
  -24.1200  -68.0069  -61.7581 H   0  0  0  0  0
  -22.5575  -65.5670  -62.0014 H   0  0  0  0  0
  -22.0489  -68.0531  -63.6419 H   0  0  0  0  0
  -21.6570  -67.9999  -61.8869 H   0  0  0  0  0
  -20.3569  -65.9111  -62.3710 H   0  0  0  0  0
  -20.5499  -66.3314  -64.1330 H   0  0  0  0  0
  -19.4665  -68.4739  -63.6500 H   0  0  0  0  0
  -19.1264  -67.8646  -61.9826 H   0  0  0  0  0
  -17.3994  -66.6078  -62.8263 H   0  0  0  0  0
  -19.5301  -67.6097  -65.4452 H   0  0  0  0  0
  -16.4758  -65.9817  -66.1490 H   0  0  0  0  0
  -16.0148  -65.8237  -64.4508 H   0  0  0  0  0
  -23.8758  -64.0790  -63.1777 H   0  0  0  0  0
  -24.4709  -64.9254  -65.9578 H   0  0  0  0  0
  -24.7632  -62.1908  -64.7239 H   0  0  0  0  0
  -24.4679  -62.1545  -67.1601 H   0  0  0  0  0
  -25.7452  -63.3820  -67.3413 H   0  0  0  0  0
  -26.1491  -61.7610  -66.7246 H   0  0  0  0  0
  -26.8168  -64.3566  -65.2746 H   0  0  0  0  0
  -26.2532  -63.8191  -63.6732 H   0  0  0  0  0
  -27.1717  -62.7040  -64.7143 H   0  0  0  0  0
  -22.3791  -65.2360  -66.9512 H   0  0  0  0  0
  -20.6222  -62.7800  -66.8868 H   0  0  0  0  0
  -22.9958  -63.8483  -68.3619 H   0  0  0  0  0
  -18.9243  -64.2836  -67.9743 H   0  0  0  0  0
  -19.9395  -65.6354  -67.3640 H   0  0  0  0  0
  -18.2948  -65.0074  -65.8834 H   0  0  0  0  0
  1  2  1  0  0  0
  2  3  1  0  0  0
  2  5  1  0  0  0
  3  4  2  0  0  0
  3  7  1  0  0  0
  5  6  1  0  0  0
  7  8  1  0  0  0
  8  9  1  0  0  0
  8 11  1  0  0  0
  9 10  2  0  0  0
  9 17  1  0  0  0
 11 12  1  0  0  0
 12 13  4  0  0  0
 12 14  4  0  0  0
 13 15  4  0  0  0
 14 16  4  0  0  0
 15 16  4  0  0  0
 17 18  1  0  0  0
 18 19  1  0  0  0
 18 21  1  0  0  0
 19 20  2  0  0  0
 19 26  1  0  0  0
 21 22  1  0  0  0
 22 23  1  0  0  0
 23 24  2  0  0  0
 23 25  1  0  0  0
 26 27  1  0  0  0
 27 28  1  0  0  0
 27 30  1  0  0  0
 28 29  2  0  0  0
 28 34  1  0  0  0
 30 31  1  0  0  0
 31 32  2  0  0  0
 31 33  1  0  0  0
 34 35  1  0  0  0
 35 36  1  0  0  0
 35 38  1  0  0  0
 36 37  2  0  0  0
 36 41  1  0  0  0
 38 39  1  0  0  0
 38 40  1  0  0  0
 41 42  1  0  0  0
 42 43  1  0  0  0
 42 45  1  0  0  0
 43 44  2  0  0  0
 43 49  1  0  0  0
 45 46  1  0  0  0
 46 47  1  0  0  0
 46 48  1  0  0  0
 49 50  1  0  0  0
 50 51  1  0  0  0
 50 53  1  0  0  0
 51 52  2  0  0  0
 51 55  1  0  0  0
 53 54  1  0  0  0
 55 56  1  0  0  0
 56 57  1  0  0  0
 56 59  1  0  0  0
 57 58  2  0  0  0
 57 63  1  0  0  0
 59 60  1  0  0  0
 60 61  2  0  0  0
 60 62  1  0  0  0
 63 64  1  0  0  0
 64 65  1  0  0  0
 64 67  1  0  0  0
 65 66  2  0  0  0
 65 75  1  0  0  0
 67 68  1  0  0  0
 68 69  4  0  0  0
 68 70  4  0  0  0
 69 71  4  0  0  0
 70 72  4  0  0  0
 71 73  4  0  0  0
 72 73  4  0  0  0
 73 74  1  0  0  0
 75 76  1  0  0  0
 76 77  1  0  0  0
 76 79  1  0  0  0
 77 78  2  0  0  0
 77 86  1  0  0  0
 79 80  1  0  0  0
 80 81  4  0  0  0
 80 82  4  0  0  0
 81 83  4  0  0  0
 82 84  4  0  0  0
 83 85  4  0  0  0
 84 85  4  0  0  0
 86 87  1  0  0  0
 86 92  1  0  0  0
 87 88  1  0  0  0
 87 90  1  0  0  0
 88 89  2  0  0  0
 88 93  1  0  0  0
 90 91  1  0  0  0
 91 92  1  0  0  0
 93 94  1  0  0  0
 94 95  1  0  0  0
 94 97  1  0  0  0
 95 96  2  0  0  0
 95104  1  0  0  0
 97 98  1  0  0  0
 98 99  1  0  0  0
 99100  1  0  0  0
100101  1  0  0  0
101102  2  0  0  0
101103  1  0  0  0
104105  1  0  0  0
105106  1  0  0  0
105108  1  0  0  0
106107  2  0  0  0
106111  1  0  0  0
108109  1  0  0  0
108110  1  0  0  0
111112  1  0  0  0
112113  1  0  0  0
112115  1  0  0  0
113114  1  0  0  0
113117  2  0  0  0
115116  1  0  0  0
  1118  1  0  0  0
  1119  1  0  0  0
  1120  1  0  0  0
  2121  1  0  0  0
  5122  1  0  0  0
  5123  1  0  0  0
  6124  1  0  0  0
  7125  1  0  0  0
  8126  1  0  0  0
 11127  1  0  0  0
 11128  1  0  0  0
 14129  1  0  0  0
 15130  1  0  0  0
 17131  1  0  0  0
 18132  1  0  0  0
 21133  1  0  0  0
 21134  1  0  0  0
 22135  1  0  0  0
 22136  1  0  0  0
 25137  1  0  0  0
 25138  1  0  0  0
 26139  1  0  0  0
 27140  1  0  0  0
 30141  1  0  0  0
 30142  1  0  0  0
 33143  1  0  0  0
 33144  1  0  0  0
 34145  1  0  0  0
 35146  1  0  0  0
 38147  1  0  0  0
 39148  1  0  0  0
 39149  1  0  0  0
 39150  1  0  0  0
 40151  1  0  0  0
 40152  1  0  0  0
 40153  1  0  0  0
 41154  1  0  0  0
 42155  1  0  0  0
 45156  1  0  0  0
 45157  1  0  0  0
 46158  1  0  0  0
 47159  1  0  0  0
 47160  1  0  0  0
 47161  1  0  0  0
 48162  1  0  0  0
 48163  1  0  0  0
 48164  1  0  0  0
 49165  1  0  0  0
 50166  1  0  0  0
 53167  1  0  0  0
 53168  1  0  0  0
 54169  1  0  0  0
 55170  1  0  0  0
 56171  1  0  0  0
 59172  1  0  0  0
 59173  1  0  0  0
 62174  1  0  0  0
 62175  1  0  0  0
 63176  1  0  0  0
 64177  1  0  0  0
 67178  1  0  0  0
 67179  1  0  0  0
 69180  1  0  0  0
 70181  1  0  0  0
 71182  1  0  0  0
 72183  1  0  0  0
 74184  1  0  0  0
 75185  1  0  0  0
 76186  1  0  0  0
 79187  1  0  0  0
 79188  1  0  0  0
 81189  1  0  0  0
 82190  1  0  0  0
 83191  1  0  0  0
 84192  1  0  0  0
 85193  1  0  0  0
 87194  1  0  0  0
 90195  1  0  0  0
 90196  1  0  0  0
 91197  1  0  0  0
 91198  1  0  0  0
 92199  1  0  0  0
 92200  1  0  0  0
 93201  1  0  0  0
 94202  1  0  0  0
 97203  1  0  0  0
 97204  1  0  0  0
 98205  1  0  0  0
 98206  1  0  0  0
 99207  1  0  0  0
 99208  1  0  0  0
100209  1  0  0  0
102210  1  0  0  0
103211  1  0  0  0
103212  1  0  0  0
104213  1  0  0  0
105214  1  0  0  0
108215  1  0  0  0
109216  1  0  0  0
109217  1  0  0  0
109218  1  0  0  0
110219  1  0  0  0
110220  1  0  0  0
110221  1  0  0  0
111222  1  0  0  0
112223  1  0  0  0
114224  1  0  0  0
115225  1  0  0  0
115226  1  0  0  0
116227  1  0  0  0
M  END
$$$$
