5jha_ligand
  -I-interpret- 

 53 56  0  0  0  0  0  0  0  0999 V2000
   22.2780   -3.4690   22.1950 C   0  0  0  0  0
   23.5460   -4.0070   21.8450 C   0  0  0  0  0
   24.4290   -3.2020   21.0820 C   0  0  0  0  0
   24.0240   -1.9610   20.7220 N   0  0  0  0  0
   21.9570   -2.2120   21.7850 N   0  0  0  0  0
   24.2070   -3.4840   18.2700 F   0  0  0  0  0
   25.4980   -3.1380   18.1970 C   0  0  0  0  0
   26.0070   -3.6160   17.0590 F   0  0  0  0  0
   25.6110   -1.8010   18.2000 F   0  0  0  0  0
   26.3020   -3.6980   19.3400 C   0  0  0  0  0
   27.6010   -4.2050   19.0850 C   0  0  0  0  0
   28.3480   -4.7170   20.1390 C   0  0  0  0  0
   29.6600   -5.2330   19.8880 N   0  0  0  0  0
   27.8670   -4.7330   21.3700 N   0  0  0  0  0
   26.6550   -4.2660   21.6580 C   0  0  0  0  0
   25.8270   -3.7300   20.6770 C   0  0  0  0  0
   22.8190   -1.4990   21.0720 C   0  0  0  0  0
   22.4500   -0.1480   20.6410 N   0  0  0  0  0
   23.0490    0.8630   19.7540 C   0  0  0  0  0
   21.4050    0.8250   20.9860 C   0  0  0  0  0
   21.8180    1.6520   19.8440 C   0  0  0  0  0
   20.9400    1.4890   18.5950 C   0  0  0  0  0
   19.2420    1.7320   18.9240 Cl  0  0  0  0  0
   22.0980    3.0840   20.2080 C   0  0  0  0  0
   20.8910    3.7130   20.5830 O   0  0  0  0  0
   21.3540   -4.2540   22.9710 N   0  0  0  0  0
   21.8110   -5.3550   23.7230 C   0  0  0  0  0
   20.9250   -5.6900   24.9040 C   0  0  0  0  0
   19.5460   -5.7280   24.5650 O   0  0  0  0  0
   19.1370   -4.5250   23.9250 C   0  0  0  0  0
   19.9720   -4.2490   22.6930 C   0  0  0  0  0
   23.8321   -5.0121   22.1550 H   0  0  0  0  0
   28.0090   -4.1934   18.0743 H   0  0  0  0  0
   30.0395   -5.2229   18.9413 H   0  0  0  0  0
   30.2150   -5.6107   20.6559 H   0  0  0  0  0
   26.3019   -4.3043   22.6885 H   0  0  0  0  0
   23.4474    0.5744   18.7813 H   0  0  0  0  0
   24.0100    1.3130   20.0031 H   0  0  0  0  0
   21.3604    1.2527   21.9876 H   0  0  0  0  0
   20.3678    0.5057   21.0877 H   0  0  0  0  0
   21.0664    0.4701   18.2291 H   0  0  0  0  0
   21.2500    2.2406   17.8689 H   0  0  0  0  0
   22.5289    3.6015   19.3509 H   0  0  0  0  0
   22.8020    3.1188   21.0394 H   0  0  0  0  0
   21.0670    4.6275   20.8159 H   0  0  0  0  0
   22.7952   -5.0981   24.1146 H   0  0  0  0  0
   21.8181   -6.2222   23.0627 H   0  0  0  0  0
   21.0625   -4.9124   25.6554 H   0  0  0  0  0
   21.2077   -6.6796   25.2630 H   0  0  0  0  0
   19.2645   -3.6984   24.6240 H   0  0  0  0  0
   18.0949   -4.6287   23.6228 H   0  0  0  0  0
   19.7707   -5.0350   21.9651 H   0  0  0  0  0
   19.7060   -3.2604   22.3188 H   0  0  0  0  0
  2  1  4  0  0  0
  1  5  4  0  0  0
  1 26  1  0  0  0
  3  2  4  0  0  0
  3  4  4  0  0  0
 16  3  1  0  0  0
  4 17  4  0  0  0
 17  5  4  0  0  0
  7  6  1  0  0  0
  7  8  1  0  0  0
  7  9  1  0  0  0
 10  7  1  0  0  0
 10 11  4  0  0  0
 10 16  4  0  0  0
 11 12  4  0  0  0
 12 13  1  0  0  0
 12 14  4  0  0  0
 14 15  4  0  0  0
 15 16  4  0  0  0
 17 18  1  0  0  0
 18 19  1  0  0  0
 18 20  1  0  0  0
 19 21  1  0  0  0
 20 21  1  0  0  0
 21 22  1  0  0  0
 21 24  1  0  0  0
 22 23  1  0  0  0
 24 25  1  0  0  0
 26 27  1  0  0  0
 26 31  1  0  0  0
 27 28  1  0  0  0
 28 29  1  0  0  0
 29 30  1  0  0  0
 30 31  1  0  0  0
  2 32  1  0  0  0
 11 33  1  0  0  0
 13 34  1  0  0  0
 13 35  1  0  0  0
 15 36  1  0  0  0
 19 37  1  0  0  0
 19 38  1  0  0  0
 20 39  1  0  0  0
 20 40  1  0  0  0
 22 41  1  0  0  0
 22 42  1  0  0  0
 24 43  1  0  0  0
 24 44  1  0  0  0
 25 45  1  0  0  0
 27 46  1  0  0  0
 27 47  1  0  0  0
 28 48  1  0  0  0
 28 49  1  0  0  0
 30 50  1  0  0  0
 30 51  1  0  0  0
 31 52  1  0  0  0
 31 53  1  0  0  0
M  END
$$$$
