3cic_ligand
  -I-interpret- 

 88 91  0  0  0  0  0  0  0  0999 V2000
   27.0460   15.5560   24.3080 C   0  0  0  0  0
   27.1800   14.3390   23.5830 C   0  0  0  0  0
   26.0170   13.5650   23.2740 C   0  0  0  0  0
   24.7300   14.0160   23.6840 C   0  0  0  0  0
   24.6010   15.2420   24.4030 C   0  0  0  0  0
   25.7630   16.0100   24.7160 C   0  0  0  0  0
   28.5150   13.8710   23.1840 C   0  0  0  0  0
   28.7560   13.6490   21.8540 N   0  0  0  0  0
   29.3930   13.6740   24.0200 O   0  0  0  0  0
   30.0870   13.1760   21.4970 C   0  0  0  0  0
   27.7740   13.8650   20.7890 C   0  0  0  0  0
   28.3220   14.8730   19.7840 C   0  0  0  0  0
   28.8950   16.1170   20.4720 C   0  0  0  0  0
   30.0430   11.7030   21.0340 C   0  0  0  0  0
   29.2200   10.7970   21.9560 C   0  0  0  0  0
   25.6360   17.2730   25.4620 C   0  0  0  0  0
   23.5370   13.2360   23.3490 C   0  0  0  0  0
   22.4670   13.7610   23.0780 O   0  0  0  0  0
   23.7070   11.8880   23.3540 N   0  0  0  0  0
   22.5680   11.0220   23.0040 C   0  0  0  0  0
   22.0430   10.1760   24.2040 C   0  0  0  0  0
   21.0350    9.2690   23.7360 O   0  0  0  0  0
   22.9740   10.0800   21.8660 C   0  0  0  0  0
   23.6680   10.8250   20.7470 C   0  0  0  0  0
   22.9770   11.8450   20.0280 C   0  0  0  0  0
   23.6380   12.5390   18.9740 C   0  0  0  0  0
   24.9800   12.2180   18.6350 C   0  0  0  0  0
   25.6690   11.2050   19.3470 C   0  0  0  0  0
   25.0180   10.5040   20.4060 C   0  0  0  0  0
   23.0060   13.4930   18.2950 F   0  0  0  0  0
   26.9270   10.9150   19.0190 F   0  0  0  0  0
   21.4450   10.9970   25.3540 C   0  0  0  0  0
   20.1430   11.7170   24.9360 C   0  0  0  0  0
   19.1010   11.6420   25.8120 N   0  0  0  0  0
   19.0910   10.9390   27.1040 C   0  0  0  0  0
   20.4610   10.5800   27.5990 C   0  0  0  0  0
   21.2780   10.1180   26.4990 N   0  3  0  0  0
   20.0780   12.3170   23.8700 O   0  0  0  0  0
   17.8420   12.3040   25.4630 C   0  0  0  0  0
   16.7860   11.2830   25.1040 C   0  0  0  0  0
   16.9470   10.4670   23.9470 C   0  0  0  0  0
   15.9540    9.5030   23.6120 C   0  0  0  0  0
   14.8000    9.3560   24.4340 C   0  0  0  0  0
   14.6380   10.1730   25.5940 C   0  0  0  0  0
   15.6320   11.1370   25.9270 C   0  0  0  0  0
   27.9318   16.1427   24.5515 H   0  0  0  0  0
   26.1162   12.6291   22.7242 H   0  0  0  0  0
   23.6162   15.5917   24.7129 H   0  0  0  0  0
   30.7315   13.2489   22.3730 H   0  0  0  0  0
   30.4693   13.7887   20.6806 H   0  0  0  0  0
   26.8503   14.2500   21.2209 H   0  0  0  0  0
   27.5753   12.9204   20.2827 H   0  0  0  0  0
   27.5035   15.1882   19.1368 H   0  0  0  0  0
   29.1246   14.3935   19.2237 H   0  0  0  0  0
   28.1103   16.6046   21.0504 H   0  0  0  0  0
   29.7074   15.8217   21.1360 H   0  0  0  0  0
   29.2734   16.8063   19.7171 H   0  0  0  0  0
   31.0666   11.3285   21.0351 H   0  0  0  0  0
   29.5737   11.6826   20.0504 H   0  0  0  0  0
   29.6506   10.8124   22.9572 H   0  0  0  0  0
   28.1924   11.1583   21.9955 H   0  0  0  0  0
   29.2337    9.7782   21.5688 H   0  0  0  0  0
   26.2011   17.2029   26.3914 H   0  0  0  0  0
   26.0278   18.0913   24.8579 H   0  0  0  0  0
   24.5854   17.4565   25.6870 H   0  0  0  0  0
   24.6105   11.4815   23.5967 H   0  0  0  0  0
   21.7558   11.6813   22.6979 H   0  0  0  0  0
   22.9165    9.6613   24.6043 H   0  0  0  0  0
   20.7095    8.7464   24.4726 H   0  0  0  0  0
   22.0728    9.6169   21.4643 H   0  0  0  0  0
   23.6641    9.3362   22.2643 H   0  0  0  0  0
   21.9468   12.0925   20.2841 H   0  0  0  0  0
   25.4799   12.7515   17.8265 H   0  0  0  0  0
   25.5494    9.7255   20.9535 H   0  0  0  0  0
   22.1240   11.8033   25.6315 H   0  0  0  0  0
   18.5375   10.0099   26.9677 H   0  0  0  0  0
   18.6418   11.6079   27.8380 H   0  0  0  0  0
   20.3777    9.7869   28.3421 H   0  0  0  0  0
   20.9238   11.4605   28.0447 H   0  0  0  0  0
   22.2136   10.0014   26.8883 H   0  0  0  0  0
   20.8015    9.2917   26.1375 H   0  0  0  0  0
   18.0109   12.9544   24.6048 H   0  0  0  0  0
   17.4974   12.8823   26.3203 H   0  0  0  0  0
   17.8302   10.5807   23.3184 H   0  0  0  0  0
   16.0768    8.8781   22.7274 H   0  0  0  0  0
   14.0394    8.6187   24.1772 H   0  0  0  0  0
   13.7553   10.0590   26.2233 H   0  0  0  0  0
   15.5101   11.7629   26.8110 H   0  0  0  0  0
  1  2  4  0  0  0
  1  6  4  0  0  0
  2  3  4  0  0  0
  2  7  1  0  0  0
  3  4  4  0  0  0
  4  5  4  0  0  0
  4 17  1  0  0  0
  5  6  4  0  0  0
  6 16  1  0  0  0
  7  8  1  0  0  0
  7  9  2  0  0  0
  8 10  1  0  0  0
  8 11  1  0  0  0
 10 14  1  0  0  0
 11 12  1  0  0  0
 12 13  1  0  0  0
 14 15  1  0  0  0
 17 18  2  0  0  0
 17 19  1  0  0  0
 19 20  1  0  0  0
 20 21  1  0  0  0
 20 23  1  0  0  0
 21 22  1  0  0  0
 21 32  1  0  0  0
 23 24  1  0  0  0
 24 25  4  0  0  0
 24 29  4  0  0  0
 25 26  4  0  0  0
 26 27  4  0  0  0
 26 30  1  0  0  0
 27 28  4  0  0  0
 28 29  4  0  0  0
 28 31  1  0  0  0
 32 33  1  0  0  0
 32 37  1  0  0  0
 33 34  1  0  0  0
 33 38  2  0  0  0
 34 35  1  0  0  0
 34 39  1  0  0  0
 35 36  1  0  0  0
 36 37  1  0  0  0
 39 40  1  0  0  0
 40 41  4  0  0  0
 40 45  4  0  0  0
 41 42  4  0  0  0
 42 43  4  0  0  0
 43 44  4  0  0  0
 44 45  4  0  0  0
  1 46  1  0  0  0
  3 47  1  0  0  0
  5 48  1  0  0  0
 10 49  1  0  0  0
 10 50  1  0  0  0
 11 51  1  0  0  0
 11 52  1  0  0  0
 12 53  1  0  0  0
 12 54  1  0  0  0
 13 55  1  0  0  0
 13 56  1  0  0  0
 13 57  1  0  0  0
 14 58  1  0  0  0
 14 59  1  0  0  0
 15 60  1  0  0  0
 15 61  1  0  0  0
 15 62  1  0  0  0
 16 63  1  0  0  0
 16 64  1  0  0  0
 16 65  1  0  0  0
 19 66  1  0  0  0
 20 67  1  0  0  0
 21 68  1  0  0  0
 22 69  1  0  0  0
 23 70  1  0  0  0
 23 71  1  0  0  0
 25 72  1  0  0  0
 27 73  1  0  0  0
 29 74  1  0  0  0
 32 75  1  0  0  0
 35 76  1  0  0  0
 35 77  1  0  0  0
 36 78  1  0  0  0
 36 79  1  0  0  0
 37 80  1  0  0  0
 37 81  1  0  0  0
 39 82  1  0  0  0
 39 83  1  0  0  0
 41 84  1  0  0  0
 42 85  1  0  0  0
 43 86  1  0  0  0
 44 87  1  0  0  0
 45 88  1  0  0  0
M  END
$$$$
