5qaj_ligand
  -I-interpret- 

 27 28  0  0  0  0  0  0  0  0999 V2000
    9.3580  -25.6950    3.8110 N   0  0  0  0  0
    8.8510  -24.5850    4.4500 C   0  0  0  0  0
    5.8850  -17.1090    4.7790 O   0  0  0  0  0
    9.6970  -23.5820    4.9260 C   0  0  0  0  0
    6.7180  -21.1260    7.6540 C   0  0  0  0  0
    6.9700  -23.3030    5.2570 C   0  0  0  0  0
    7.4750  -24.4270    4.6300 C   0  0  0  0  0
    9.1830  -22.4620    5.5510 C   0  0  0  0  0
    7.8110  -22.2970    5.7260 C   0  0  0  0  0
    7.2630  -21.0790    6.3710 C   0  0  0  0  0
    7.2860  -19.8540    5.7020 C   0  0  0  0  0
    6.7780  -18.7030    6.2970 C   0  0  0  0  0
    6.8330  -17.3880    5.5600 C   0  0  0  0  0
    6.2400  -18.7770    7.5760 C   0  0  0  0  0
    6.2120  -19.9840    8.2500 C   0  0  0  0  0
    7.8300  -16.6540    5.7650 O   0  0  0  0  0
   10.3648  -25.7926    3.6800 H   0  0  0  0  0
    8.7266  -26.4193    3.4688 H   0  0  0  0  0
    5.2421  -17.8218    4.7905 H   0  0  0  0  0
   10.7753  -23.6834    4.8033 H   0  0  0  0  0
    6.6903  -22.0728    8.1933 H   0  0  0  0  0
    5.8924  -23.2023    5.3868 H   0  0  0  0  0
    6.7922  -25.1978    4.2725 H   0  0  0  0  0
    9.8644  -21.6926    5.9142 H   0  0  0  0  0
    7.7081  -19.7981    4.6986 H   0  0  0  0  0
    5.8388  -17.8809    8.0494 H   0  0  0  0  0
    5.7902  -20.0362    9.2537 H   0  0  0  0  0
  2  1  1  0  0  0
  4  2  4  0  0  0
  7  2  4  0  0  0
 13  3  1  0  0  0
  8  4  4  0  0  0
 10  5  4  0  0  0
  5 15  4  0  0  0
  6  7  4  0  0  0
  9  6  4  0  0  0
  9  8  4  0  0  0
 10  9  1  0  0  0
 11 10  4  0  0  0
 12 11  4  0  0  0
 12 13  1  0  0  0
 12 14  4  0  0  0
 13 16  2  0  0  0
 14 15  4  0  0  0
  1 17  1  0  0  0
  1 18  1  0  0  0
  3 19  1  0  0  0
  4 20  1  0  0  0
  5 21  1  0  0  0
  6 22  1  0  0  0
  7 23  1  0  0  0
  8 24  1  0  0  0
 11 25  1  0  0  0
 14 26  1  0  0  0
 15 27  1  0  0  0
M  END
$$$$
