1tcw_ligand
  -I-interpret- 

 80 82  0  0  0  0  0  0  0  0999 V2000
   65.6370   22.3890   28.2640 C   0  0  0  0  0
   66.4690   22.3900   29.5510 C   0  0  0  0  0
   64.9440   23.7470   28.1780 C   0  0  0  0  0
   66.5690   22.2510   27.0450 C   0  0  0  0  0
   63.4510   21.2840   27.7980 C   0  0  0  0  0
   62.0830   21.3250   25.7240 C   0  0  0  0  0
   61.9880   22.4480   24.6670 C   0  0  0  0  0
   60.6020   23.0890   24.6590 C   0  0  0  0  0
   60.0290   23.5620   25.8610 C   0  0  0  0  0
   58.7370   24.1140   25.8670 C   0  0  0  0  0
   58.0150   24.1990   24.6770 C   0  0  0  0  0
   58.5790   23.7350   23.4860 C   0  0  0  0  0
   59.8660   23.1830   23.4720 C   0  0  0  0  0
   61.8830   19.9970   25.0350 C   0  0  0  0  0
   62.4620   19.7030   23.6640 C   0  0  0  0  0
   61.9020   18.3270   23.3700 C   0  0  0  0  0
   61.3720   18.1750   21.9860 C   0  0  0  0  0
   62.1540   18.5930   20.8150 C   0  0  0  0  0
   63.0280   17.6860   20.2520 C   0  0  0  0  0
   63.6660   18.0540   19.0690 C   0  0  0  0  0
   63.4180   19.3030   18.4860 C   0  0  0  0  0
   62.5310   20.2060   19.0850 C   0  0  0  0  0
   61.8930   19.8490   20.2640 C   0  0  0  0  0
   62.7460   17.1140   23.5930 C   0  0  0  0  0
   62.5800   14.9710   24.5610 C   0  0  0  0  0
   62.6790   14.9710   26.1200 C   0  0  0  0  0
   63.6280   13.8950   26.5310 C   0  0  0  0  0
   63.3690   16.2190   26.6700 C   0  0  0  0  0
   61.7940   13.8380   23.9510 C   0  0  0  0  0
   61.5510   12.2910   22.4790 C   0  0  0  0  0
   60.4080   12.4230   23.2800 C   0  0  0  0  0
   63.3410   21.3520   26.4480 N   0  0  0  0  0
   61.9740   16.2250   24.1970 N   0  0  0  0  0
   62.4300   13.2360   22.9460 N   0  0  0  0  0
   60.5870   13.4280   24.2190 N   0  0  0  0  0
   64.7250   21.3180   28.3790 O   0  0  0  0  0
   62.5170   21.1780   28.6050 O   0  0  0  0  0
   60.4760   19.7980   24.9850 O   0  0  0  0  0
   63.9440   16.9470   23.3270 O   0  0  0  0  0
   65.8099   22.5284   30.4081 H   0  0  0  0  0
   66.9932   21.4388   29.6440 H   0  0  0  0  0
   67.1936   23.2034   29.5131 H   0  0  0  0  0
   64.2932   23.7667   27.3038 H   0  0  0  0  0
   64.3506   23.9083   29.0780 H   0  0  0  0  0
   65.6952   24.5320   28.0910 H   0  0  0  0  0
   67.1453   21.3299   27.1323 H   0  0  0  0  0
   65.9715   22.2223   26.1338 H   0  0  0  0  0
   67.2473   23.1035   27.0095 H   0  0  0  0  0
   61.3026   21.4810   26.4688 H   0  0  0  0  0
   62.1752   22.0154   23.6842 H   0  0  0  0  0
   62.7231   23.2153   24.9098 H   0  0  0  0  0
   60.5939   23.4981   26.7910 H   0  0  0  0  0
   58.3006   24.4745   26.7985 H   0  0  0  0  0
   57.0124   24.6267   24.6760 H   0  0  0  0  0
   58.0114   23.8033   22.5580 H   0  0  0  0  0
   60.2951   22.8261   22.5357 H   0  0  0  0  0
   62.4786   19.3129   25.6394 H   0  0  0  0  0
   63.5512   19.7384   23.6402 H   0  0  0  0  0
   62.1919   20.4467   22.9143 H   0  0  0  0  0
   61.1358   18.3337   24.1453 H   0  0  0  0  0
   60.5025   18.8320   21.9665 H   0  0  0  0  0
   61.2734   17.0966   21.8619 H   0  0  0  0  0
   63.2127   16.7170   20.7156 H   0  0  0  0  0
   64.3635   17.3643   18.5937 H   0  0  0  0  0
   63.9200   19.5747   17.5574 H   0  0  0  0  0
   62.3439   21.1786   18.6299 H   0  0  0  0  0
   61.2010   20.5361   20.7510 H   0  0  0  0  0
   63.5883   14.8337   24.1703 H   0  0  0  0  0
   61.6555   14.8755   26.4826 H   0  0  0  0  0
   63.2574   12.9319   26.1800 H   0  0  0  0  0
   64.6075   14.0899   26.0943 H   0  0  0  0  0
   63.7098   13.8801   27.6178 H   0  0  0  0  0
   64.3818   16.2780   26.2715 H   0  0  0  0  0
   62.8076   17.1043   26.3715 H   0  0  0  0  0
   63.4079   16.1615   27.7578 H   0  0  0  0  0
   61.7080   11.5884   21.6606 H   0  0  0  0  0
   59.5053   11.8204   23.1790 H   0  0  0  0  0
   64.2007   21.4272   25.9043 H   0  0  0  0  0
   60.9927   16.4197   24.3959 H   0  0  0  0  0
   60.0972   19.9811   25.8479 H   0  0  0  0  0
  1 36  1  0  0  0
  1  4  1  0  0  0
  1  3  1  0  0  0
  1  2  1  0  0  0
 36  5  1  0  0  0
  5 37  2  0  0  0
  5 32  1  0  0  0
 32  6  1  0  0  0
  6 14  1  0  0  0
  6  7  1  0  0  0
  7  8  1  0  0  0
  8 13  4  0  0  0
  8  9  4  0  0  0
  9 10  4  0  0  0
 10 11  4  0  0  0
 11 12  4  0  0  0
 12 13  4  0  0  0
 14 38  1  0  0  0
 14 15  1  0  0  0
 15 16  1  0  0  0
 16 24  1  0  0  0
 16 17  1  0  0  0
 17 18  1  0  0  0
 18 23  4  0  0  0
 18 19  4  0  0  0
 19 20  4  0  0  0
 20 21  4  0  0  0
 21 22  4  0  0  0
 22 23  4  0  0  0
 24 39  2  0  0  0
 24 33  1  0  0  0
 33 25  1  0  0  0
 25 29  1  0  0  0
 25 26  1  0  0  0
 26 28  1  0  0  0
 26 27  1  0  0  0
 29 35  4  0  0  0
 29 34  4  0  0  0
 34 30  4  0  0  0
 30 31  4  0  0  0
 31 35  4  0  0  0
  2 40  1  0  0  0
  2 41  1  0  0  0
  2 42  1  0  0  0
  3 43  1  0  0  0
  3 44  1  0  0  0
  3 45  1  0  0  0
  4 46  1  0  0  0
  4 47  1  0  0  0
  4 48  1  0  0  0
  6 49  1  0  0  0
  7 50  1  0  0  0
  7 51  1  0  0  0
  9 52  1  0  0  0
 10 53  1  0  0  0
 11 54  1  0  0  0
 12 55  1  0  0  0
 13 56  1  0  0  0
 14 57  1  0  0  0
 15 58  1  0  0  0
 15 59  1  0  0  0
 16 60  1  0  0  0
 17 61  1  0  0  0
 17 62  1  0  0  0
 19 63  1  0  0  0
 20 64  1  0  0  0
 21 65  1  0  0  0
 22 66  1  0  0  0
 23 67  1  0  0  0
 25 68  1  0  0  0
 26 69  1  0  0  0
 27 70  1  0  0  0
 27 71  1  0  0  0
 27 72  1  0  0  0
 28 73  1  0  0  0
 28 74  1  0  0  0
 28 75  1  0  0  0
 30 76  1  0  0  0
 31 77  1  0  0  0
 32 78  1  0  0  0
 33 79  1  0  0  0
 38 80  1  0  0  0
M  END
$$$$
