6f3e_ligand
  -I-interpret- 

 58 62  0  0  0  0  0  0  0  0999 V2000
  -18.9060  -15.9640   10.1990 C   0  0  0  0  0
  -17.5020  -16.1180   10.0530 C   0  0  0  0  0
  -16.4100  -16.0420   10.9700 C   0  0  0  0  0
  -14.5970  -15.8000   12.5110 C   0  0  0  0  0
  -16.1620  -15.7840   12.4390 C   0  0  0  0  0
  -16.9140  -16.8700   13.2120 C   0  0  0  0  0
  -16.6750  -16.8140   14.7030 C   0  0  0  0  0
  -20.7740  -15.7120   11.7290 C   0  0  0  0  0
  -20.8070  -15.0200   13.0670 C   0  0  0  0  0
  -22.2440  -14.7610   13.4830 C   0  0  0  0  0
  -23.0830  -16.0350   13.5160 C   0  0  0  0  0
  -22.9460  -16.8810   12.2380 C   0  0  0  0  0
  -21.4800  -17.0510   11.8010 C   0  0  0  0  0
  -26.1890  -15.4590   15.6160 C   0  0  0  0  0
  -24.9320  -16.2100   15.2460 C   0  0  0  0  0
  -17.1590  -15.9080   15.3810 O   0  0  0  0  0
  -15.9340  -17.7850   15.2100 N   0  0  0  0  0
  -14.0950  -16.5300   11.2810 C   0  0  0  0  0
  -15.2470  -16.3910   10.3690 C   0  0  0  0  0
  -17.1040  -16.4950    8.7730 C   0  0  0  0  0
  -15.3970  -16.8200    8.6910 S   0  0  0  0  0
  -17.9100  -16.6390    7.7250 N   0  0  0  0  0
  -19.2010  -16.4140    8.0080 C   0  0  0  0  0
  -19.7520  -16.0860    9.1850 N   0  0  0  0  0
  -19.3510  -15.8880   11.4730 O   0  0  0  0  0
  -24.4610  -15.7350   13.9430 N   0  3  0  0  0
  -27.2100  -15.5970   14.6120 O   0  0  0  0  0
  -26.7450  -15.1480   13.3250 C   0  0  0  0  0
  -25.4790  -15.8610   12.8870 C   0  0  0  0  0
  -14.2611  -16.3029   13.4178 H   0  0  0  0  0
  -14.2051  -14.7833   12.5387 H   0  0  0  0  0
  -16.5210  -14.8534   12.8785 H   0  0  0  0  0
  -16.5560  -17.8362   12.8564 H   0  0  0  0  0
  -17.9799  -16.7177   13.0426 H   0  0  0  0  0
  -21.2793  -15.1490   10.9443 H   0  0  0  0  0
  -20.2787  -14.0695   12.9920 H   0  0  0  0  0
  -20.3275  -15.6558   13.8112 H   0  0  0  0  0
  -22.6884  -14.0851   12.7524 H   0  0  0  0  0
  -22.2319  -14.3408   14.4887 H   0  0  0  0  0
  -22.6802  -16.6994   14.2805 H   0  0  0  0  0
  -23.4796  -16.3700   11.4366 H   0  0  0  0  0
  -23.3535  -17.8708   12.4436 H   0  0  0  0  0
  -20.9681  -17.6766   12.5323 H   0  0  0  0  0
  -21.4615  -17.5089   10.8120 H   0  0  0  0  0
  -25.9411  -14.4016   15.7090 H   0  0  0  0  0
  -26.5705  -15.8698   16.5508 H   0  0  0  0  0
  -25.1429  -17.2781   15.1943 H   0  0  0  0  0
  -24.1644  -16.0374   16.0003 H   0  0  0  0  0
  -15.7384  -17.8078   16.2108 H   0  0  0  0  0
  -15.5581  -18.5111   14.6002 H   0  0  0  0  0
  -13.8109  -17.5648   11.4721 H   0  0  0  0  0
  -13.1673  -16.1228   10.8790 H   0  0  0  0  0
  -19.8931  -16.5104    7.1715 H   0  0  0  0  0
  -24.3348  -14.7409   14.1333 H   0  0  0  0  0
  -26.5243  -14.0831   13.3986 H   0  0  0  0  0
  -27.5231  -15.3609   12.5919 H   0  0  0  0  0
  -25.6952  -16.9149   12.7118 H   0  0  0  0  0
  -25.1072  -15.4125   11.9657 H   0  0  0  0  0
  1  2  4  0  0  0
  1 24  4  0  0  0
 25  1  1  0  0  0
  2  3  4  0  0  0
  2 20  4  0  0  0
  3  5  1  0  0  0
  3 19  4  0  0  0
  5  4  1  0  0  0
  4 18  1  0  0  0
  5  6  1  0  0  0
  6  7  1  0  0  0
  7 16  2  0  0  0
  7 17  1  0  0  0
  9  8  1  0  0  0
 13  8  1  0  0  0
  8 25  1  0  0  0
 10  9  1  0  0  0
 11 10  1  0  0  0
 11 12  1  0  0  0
 26 11  1  0  0  0
 12 13  1  0  0  0
 15 14  1  0  0  0
 14 27  1  0  0  0
 15 26  1  0  0  0
 18 19  1  0  0  0
 19 21  4  0  0  0
 20 21  4  0  0  0
 20 22  4  0  0  0
 22 23  4  0  0  0
 23 24  4  0  0  0
 26 29  1  0  0  0
 27 28  1  0  0  0
 28 29  1  0  0  0
  4 30  1  0  0  0
  4 31  1  0  0  0
  5 32  1  0  0  0
  6 33  1  0  0  0
  6 34  1  0  0  0
  8 35  1  0  0  0
  9 36  1  0  0  0
  9 37  1  0  0  0
 10 38  1  0  0  0
 10 39  1  0  0  0
 11 40  1  0  0  0
 12 41  1  0  0  0
 12 42  1  0  0  0
 13 43  1  0  0  0
 13 44  1  0  0  0
 14 45  1  0  0  0
 14 46  1  0  0  0
 15 47  1  0  0  0
 15 48  1  0  0  0
 17 49  1  0  0  0
 17 50  1  0  0  0
 18 51  1  0  0  0
 18 52  1  0  0  0
 23 53  1  0  0  0
 26 54  1  0  0  0
 28 55  1  0  0  0
 28 56  1  0  0  0
 29 57  1  0  0  0
 29 58  1  0  0  0
M  END
$$$$
