4bam_ligand
  -I-interpret- 

 70 72  0  0  0  0  0  0  0  0999 V2000
   18.7580  -14.4100   24.2350 C   0  0  0  0  0
   18.8850  -15.7670   24.9610 C   0  0  0  0  0
   19.4730  -15.5880   26.3700 C   0  0  0  0  0
   20.8280  -14.8600   26.3120 C   0  0  0  0  0
   20.6840  -13.4900   25.6230 C   0  0  0  0  0
   20.1280  -13.6970   24.2010 C   0  0  0  0  0
   16.9340  -15.3900   22.8200 N   0  3  0  0  0
   18.2000  -14.6130   22.8030 C   0  0  0  0  0
   17.9120  -13.2740   22.1670 C   0  0  0  0  0
   16.8690  -12.6920   22.4490 O   0  0  0  0  0
   18.7370  -12.6980   21.2700 N   0  0  0  0  0
   18.5550  -11.5070   20.4350 C   0  0  0  0  0
   17.1810  -11.6540   19.8010 C   0  0  0  0  0
   16.8790  -12.6960   19.2430 O   0  0  0  0  0
   16.2590  -10.6940   19.9950 N   0  0  0  0  0
   14.9020  -10.8410   19.4620 C   0  0  0  0  0
   13.9440  -10.8230   20.6240 C   0  0  0  0  0
   13.3340   -9.6230   20.9720 C   0  0  0  0  0
   12.4450   -9.5740   22.0260 C   0  0  0  0  0
   12.2150  -10.7340   22.7870 C   0  0  0  0  0
   12.8420  -11.9450   22.4370 C   0  0  0  0  0
   13.7010  -11.9780   21.3440 C   0  0  0  0  0
   11.2270  -10.6890   23.8950 C   0  0  0  0  0
   10.9340   -9.5600   24.4770 N   0  0  0  0  0
   10.5360  -11.8340   24.2760 N   0  0  0  0  0
   19.7440  -11.8950   19.5470 C   0  0  0  0  0
   19.9830  -13.0310   20.5500 C   0  0  0  0  0
   16.3400  -15.6770   21.4820 C   0  0  0  0  0
   14.6100  -15.5200   19.0600 C   0  0  0  0  0
   14.8200  -15.6910   21.5430 C   0  0  0  0  0
   14.2730  -15.7660   22.6390 O   0  0  0  0  0
   12.5630  -15.5960   20.5270 C   0  0  0  0  0
   14.0380  -15.6080   20.4160 N   0  0  0  0  0
   18.0572  -13.7794   24.7821 H   0  0  0  0  0
   19.5501  -16.4100   24.3846 H   0  0  0  0  0
   17.8926  -16.2087   25.0508 H   0  0  0  0  0
   19.6227  -16.5718   26.8147 H   0  0  0  0  0
   18.7807  -14.9928   26.9654 H   0  0  0  0  0
   21.5296  -15.4684   25.7413 H   0  0  0  0  0
   21.1878  -14.7056   27.3293 H   0  0  0  0  0
   21.6575  -13.0026   25.5688 H   0  0  0  0  0
   20.0020  -12.8614   26.1956 H   0  0  0  0  0
   20.0009  -12.7214   23.7318 H   0  0  0  0  0
   20.8285  -14.3159   23.6403 H   0  0  0  0  0
   16.2523  -14.8243   23.3256 H   0  0  0  0  0
   17.1526  -16.2930   23.2409 H   0  0  0  0  0
   18.9538  -15.1589   22.2357 H   0  0  0  0  0
   18.5589  -10.4837   20.8104 H   0  0  0  0  0
   16.5071   -9.8547   20.5188 H   0  0  0  0  0
   14.8116  -11.7781   18.9126 H   0  0  0  0  0
   14.6763  -10.0263   18.7739 H   0  0  0  0  0
   13.5591   -8.7169   20.4096 H   0  0  0  0  0
   11.9264   -8.6459   22.2663 H   0  0  0  0  0
   12.6558  -12.8485   23.0175 H   0  0  0  0  0
   14.1818  -12.9127   21.0554 H   0  0  0  0  0
   11.3846   -8.6971   24.1723 H   0  0  0  0  0
    9.8168  -11.7793   24.9972 H   0  0  0  0  0
   10.7484  -12.7285   23.8343 H   0  0  0  0  0
   20.5241  -11.1846   19.2734 H   0  0  0  0  0
   19.6390  -12.0740   18.4769 H   0  0  0  0  0
   20.1318  -14.0460   20.1816 H   0  0  0  0  0
   20.9235  -13.0688   21.0997 H   0  0  0  0  0
   16.6830  -16.6581   21.1535 H   0  0  0  0  0
   16.6521  -14.8956   20.7891 H   0  0  0  0  0
   15.2312  -14.6274   18.9863 H   0  0  0  0  0
   15.2173  -16.4039   18.8651 H   0  0  0  0  0
   13.8029  -15.4638   18.3295 H   0  0  0  0  0
   12.1757  -14.6684   20.1055 H   0  0  0  0  0
   12.1519  -16.4445   19.9802 H   0  0  0  0  0
   12.2783  -15.6663   21.5768 H   0  0  0  0  0
  1  2  1  0  0  0
  1  6  1  0  0  0
  8  1  1  0  0  0
  2  3  1  0  0  0
  3  4  1  0  0  0
  5  4  1  0  0  0
  6  5  1  0  0  0
  7  8  1  0  0  0
 28  7  1  0  0  0
  8  9  1  0  0  0
  9 10  2  0  0  0
  9 11  1  0  0  0
 11 12  1  0  0  0
 11 27  1  0  0  0
 12 13  1  0  0  0
 12 26  1  0  0  0
 13 14  2  0  0  0
 13 15  1  0  0  0
 15 16  1  0  0  0
 16 17  1  0  0  0
 17 18  4  0  0  0
 17 22  4  0  0  0
 18 19  4  0  0  0
 19 20  4  0  0  0
 21 20  4  0  0  0
 20 23  1  0  0  0
 22 21  4  0  0  0
 23 24  2  0  0  0
 23 25  1  0  0  0
 27 26  1  0  0  0
 30 28  1  0  0  0
 33 29  1  0  0  0
 30 31  2  0  0  0
 30 33  1  0  0  0
 33 32  1  0  0  0
  1 34  1  0  0  0
  2 35  1  0  0  0
  2 36  1  0  0  0
  3 37  1  0  0  0
  3 38  1  0  0  0
  4 39  1  0  0  0
  4 40  1  0  0  0
  5 41  1  0  0  0
  5 42  1  0  0  0
  6 43  1  0  0  0
  6 44  1  0  0  0
  7 45  1  0  0  0
  7 46  1  0  0  0
  8 47  1  0  0  0
 12 48  1  0  0  0
 15 49  1  0  0  0
 16 50  1  0  0  0
 16 51  1  0  0  0
 18 52  1  0  0  0
 19 53  1  0  0  0
 21 54  1  0  0  0
 22 55  1  0  0  0
 24 56  1  0  0  0
 25 57  1  0  0  0
 25 58  1  0  0  0
 26 59  1  0  0  0
 26 60  1  0  0  0
 27 61  1  0  0  0
 27 62  1  0  0  0
 28 63  1  0  0  0
 28 64  1  0  0  0
 29 65  1  0  0  0
 29 66  1  0  0  0
 29 67  1  0  0  0
 32 68  1  0  0  0
 32 69  1  0  0  0
 32 70  1  0  0  0
M  END
$$$$
