4og6_ligand
  -I-interpret- 

 66 69  0  0  0  0  0  0  0  0999 V2000
  -17.1830    8.9290  -11.2810 C   0  0  0  0  0
  -17.8400    8.1740  -12.2630 C   0  0  0  0  0
  -19.2020    7.9050  -12.2150 F   0  0  0  0  0
  -17.1360    7.6610  -13.3370 C   0  0  0  0  0
  -15.7800    7.9020  -13.4280 C   0  0  0  0  0
  -15.1160    8.6550  -12.4510 C   0  0  0  0  0
  -15.8070    9.1820  -11.3590 C   0  0  0  0  0
  -15.1520    9.9490  -10.3550 C   0  0  0  0  0
  -14.4510    9.0200   -9.2960 C   0  0  0  0  0
  -13.4000    7.9810   -9.7610 C   0  0  0  0  0
  -13.2310    6.9850   -8.5620 C   0  0  0  0  0
  -14.4930    7.1380   -7.7650 C   0  0  0  0  0
  -15.4150    8.0860   -8.5660 C   0  0  0  0  0
  -16.1300   10.7430   -9.6850 O   0  0  0  0  0
  -14.0800   10.9160  -10.9530 C   0  0  0  0  0
  -14.7170   12.0530  -11.7510 C   0  0  0  0  0
  -13.6260   12.9070  -12.4170 C   0  0  0  0  0
  -13.1600   11.5650   -9.9180 C   0  0  0  0  0
  -12.1010   12.4340  -10.6240 C   0  0  0  0  0
  -12.6880   13.5110  -11.4490 N   0  3  0  0  0
  -11.6230   14.2160  -12.1900 C   0  0  0  0  0
  -10.5330   14.7730  -11.2620 C   0  0  0  0  0
   -9.6950   15.8330  -11.9980 C   0  0  0  0  0
  -10.5610   16.8770  -12.4530 O   0  0  0  0  0
   -9.9400   17.9950  -12.9140 C   0  0  0  0  0
  -10.7230   19.0780  -13.2950 C   0  0  0  0  0
  -10.1300   20.2390  -13.7720 C   0  0  0  0  0
   -8.7480   20.3190  -13.8710 C   0  0  0  0  0
   -8.1490   21.5230  -14.3650 C   0  0  0  0  0
   -7.6840   22.4880  -14.7610 N   0  0  0  0  0
   -7.9600   19.2360  -13.4910 C   0  0  0  0  0
   -8.5550   18.0710  -13.0120 C   0  0  0  0  0
  -17.7532    9.3265  -10.4414 H   0  0  0  0  0
  -17.6451    7.0741  -14.1015 H   0  0  0  0  0
  -15.2181    7.5010  -14.2716 H   0  0  0  0  0
  -14.0445    8.8318  -12.5450 H   0  0  0  0  0
  -13.9890    9.8226   -8.7211 H   0  0  0  0  0
  -12.4546    8.4588  -10.0179 H   0  0  0  0  0
  -13.7235    7.4647  -10.6648 H   0  0  0  0  0
  -12.3439    7.2069   -7.9687 H   0  0  0  0  0
  -13.0838    5.9595   -8.9007 H   0  0  0  0  0
  -14.2804    7.5472   -6.7774 H   0  0  0  0  0
  -14.9724    6.1716   -7.6089 H   0  0  0  0  0
  -16.0628    7.5440   -9.2550 H   0  0  0  0  0
  -16.1049    8.6301   -7.9210 H   0  0  0  0  0
  -15.7028   11.2671   -9.0035 H   0  0  0  0  0
  -13.4845   10.2632  -11.5912 H   0  0  0  0  0
  -15.3003   12.6801  -11.0768 H   0  0  0  0  0
  -15.3616   11.6313  -12.5222 H   0  0  0  0  0
  -14.1212   13.7198  -12.9483 H   0  0  0  0  0
  -13.0495   12.2540  -13.0722 H   0  0  0  0  0
  -12.6591   10.7849   -9.3447 H   0  0  0  0  0
  -13.7542   12.1930   -9.2542 H   0  0  0  0  0
  -11.5290   11.7846  -11.2867 H   0  0  0  0  0
  -11.4912   12.9039   -9.8523 H   0  0  0  0  0
  -13.1742   14.1750  -10.8464 H   0  0  0  0  0
  -12.0778   15.0548  -12.7170 H   0  0  0  0  0
  -11.1555   13.5024  -12.8685 H   0  0  0  0  0
   -9.8806   13.9575  -10.9500 H   0  0  0  0  0
  -11.0056   15.2329  -10.3941 H   0  0  0  0  0
   -9.1902   15.3766  -12.8495 H   0  0  0  0  0
   -8.9464   16.2449  -11.3213 H   0  0  0  0  0
  -11.8085   19.0155  -13.2189 H   0  0  0  0  0
  -10.7486   21.0862  -14.0682 H   0  0  0  0  0
   -6.8746   19.2998  -13.5685 H   0  0  0  0  0
   -7.9378   17.2230  -12.7154 H   0  0  0  0  0
  1  2  4  0  0  0
  1  7  4  0  0  0
  2  3  1  0  0  0
  2  4  4  0  0  0
  4  5  4  0  0  0
  5  6  4  0  0  0
  6  7  4  0  0  0
  7  8  1  0  0  0
  8  9  1  0  0  0
  8 14  1  0  0  0
  8 15  1  0  0  0
  9 10  1  0  0  0
  9 13  1  0  0  0
 10 11  1  0  0  0
 11 12  1  0  0  0
 12 13  1  0  0  0
 15 16  1  0  0  0
 15 18  1  0  0  0
 16 17  1  0  0  0
 17 20  1  0  0  0
 18 19  1  0  0  0
 19 20  1  0  0  0
 20 21  1  0  0  0
 21 22  1  0  0  0
 22 23  1  0  0  0
 23 24  1  0  0  0
 24 25  1  0  0  0
 25 26  4  0  0  0
 25 32  4  0  0  0
 26 27  4  0  0  0
 27 28  4  0  0  0
 28 29  1  0  0  0
 28 31  4  0  0  0
 29 30  3  0  0  0
 31 32  4  0  0  0
  1 33  1  0  0  0
  4 34  1  0  0  0
  5 35  1  0  0  0
  6 36  1  0  0  0
  9 37  1  0  0  0
 10 38  1  0  0  0
 10 39  1  0  0  0
 11 40  1  0  0  0
 11 41  1  0  0  0
 12 42  1  0  0  0
 12 43  1  0  0  0
 13 44  1  0  0  0
 13 45  1  0  0  0
 14 46  1  0  0  0
 15 47  1  0  0  0
 16 48  1  0  0  0
 16 49  1  0  0  0
 17 50  1  0  0  0
 17 51  1  0  0  0
 18 52  1  0  0  0
 18 53  1  0  0  0
 19 54  1  0  0  0
 19 55  1  0  0  0
 20 56  1  0  0  0
 21 57  1  0  0  0
 21 58  1  0  0  0
 22 59  1  0  0  0
 22 60  1  0  0  0
 23 61  1  0  0  0
 23 62  1  0  0  0
 26 63  1  0  0  0
 27 64  1  0  0  0
 31 65  1  0  0  0
 32 66  1  0  0  0
M  END
$$$$
