2nmz_ligand
  -I-interpret- 

100104  0  0  0  0  0  0  0  0999 V2000
   18.8080   35.1930   19.1060 O   0  0  0  0  0
   19.4420   35.7070   18.0870 C   0  0  0  0  0
   20.5190   37.5130   16.8160 N   0  0  0  0  0
   20.3810   36.8550   18.0380 C   0  0  0  0  0
   21.0610   37.3250   19.1550 C   0  0  0  0  0
   21.9900   38.3620   19.0420 C   0  0  0  0  0
   22.0520   39.0840   17.8470 C   0  0  0  0  0
   22.8740   40.2130   17.7490 C   0  0  0  0  0
   22.8750   40.9410   16.5830 C   0  0  0  0  0
   22.2200   40.4090   15.5010 C   0  0  0  0  0
   21.5670   39.2210   15.4910 C   0  0  0  0  0
   21.3480   38.6040   16.7390 C   0  0  0  0  0
   19.1240   35.1770   16.9000 N   0  0  0  0  0
   18.3220   33.9500   16.7130 C   0  0  0  0  0
   19.1400   32.9980   15.8530 C   0  0  0  0  0
   19.1080   33.1340   14.6100 O   0  0  0  0  0
   16.9670   34.1710   16.1770 C   0  0  0  0  0
   16.2190   35.0510   17.1230 C   0  0  0  0  0
   15.9560   36.2410   16.8850 O   0  0  0  0  0
   15.8500   34.5260   18.1580 N   0  0  0  0  0
   20.1470   29.7160   16.0930 C   0  0  0  0  0
   20.3780   29.4140   17.4620 O   0  0  0  0  0
   20.6840   31.1000   15.7290 C   0  0  0  0  0
   19.8940   32.0840   16.4740 N   0  0  0  0  0
   22.1470   31.3120   16.0740 C   0  0  0  0  0
   22.5950   32.7250   16.1290 C   0  0  0  0  0
   22.8400   33.4010   14.9200 C   0  0  0  0  0
   22.7840   33.3930   17.3260 C   0  0  0  0  0
   23.2900   34.6910   14.9660 C   0  0  0  0  0
   23.1740   34.7100   17.3230 C   0  0  0  0  0
   23.4750   35.3600   16.1490 C   0  0  0  0  0
   19.8250   28.6180   13.9350 N   0  3  0  0  0
   20.5760   28.5920   15.1630 C   0  0  0  0  0
   20.5310   28.0220   12.7960 C   0  0  0  0  0
   21.8210   28.7490   12.3920 C   0  0  0  0  0
   21.7120   29.9440   12.1960 O   0  0  0  0  0
   19.7080   28.1670   11.5340 C   0  0  0  0  0
   18.3780   27.4230   11.6980 C   0  0  0  0  0
   17.4920   27.6600   10.4740 C   0  0  0  0  0
   17.0860   29.1530   10.3250 C   0  0  0  0  0
   16.1960   29.4130   11.5460 C   0  0  0  0  0
   17.1140   29.3220   12.7320 C   0  0  0  0  0
   17.6670   27.9340   12.9730 C   0  0  0  0  0
   18.5950   27.8430   14.1640 C   0  0  0  0  0
   22.8690   27.9140   12.2830 N   0  0  0  0  0
   24.2190   28.2970   11.8940 C   0  0  0  0  0
   25.0000   27.0040   11.7370 C   0  0  0  0  0
   24.4880   29.4030   12.7460 C   0  0  0  0  0
   24.1310   29.0940   10.5730 C   0  0  0  0  0
   20.8672   36.8793   20.1307 H   0  0  0  0  0
   22.6548   38.6038   19.8712 H   0  0  0  0  0
   23.5050   40.5109   18.5864 H   0  0  0  0  0
   23.3779   41.9060   16.5202 H   0  0  0  0  0
   22.2251   40.9870   14.5769 H   0  0  0  0  0
   21.2273   38.7644   14.5613 H   0  0  0  0  0
   19.4596   35.6547   16.0636 H   0  0  0  0  0
   18.1253   33.5166   17.6936 H   0  0  0  0  0
   16.4501   33.2174   16.0693 H   0  0  0  0  0
   17.0279   34.6455   15.1976 H   0  0  0  0  0
   15.3182   35.0646   18.8417 H   0  0  0  0  0
   16.0727   33.5476   18.3412 H   0  0  0  0  0
   19.0698   29.7786   15.9390 H   0  0  0  0  0
   20.0305   28.5411   17.6590 H   0  0  0  0  0
   20.6025   31.2048   14.6471 H   0  0  0  0  0
   19.9197   32.0717   17.4936 H   0  0  0  0  0
   22.7239   30.8353   15.2815 H   0  0  0  0  0
   22.2914   30.9026   17.0738 H   0  0  0  0  0
   22.6740   32.9051   13.9636 H   0  0  0  0  0
   22.6234   32.8742   18.2711 H   0  0  0  0  0
   23.5093   35.2056   14.0305 H   0  0  0  0  0
   23.2462   35.2493   18.2675 H   0  0  0  0  0
   23.8517   36.3828   16.1584 H   0  0  0  0  0
   19.6532   29.5948   13.6968 H   0  0  0  0  0
   20.3954   27.6396   15.6615 H   0  0  0  0  0
   21.6327   28.7190   14.9276 H   0  0  0  0  0
   20.7239   27.0027   13.1306 H   0  0  0  0  0
   20.2577   27.7444   10.6930 H   0  0  0  0  0
   19.5114   29.2231   11.3496 H   0  0  0  0  0
   18.5667   26.3534   11.7894 H   0  0  0  0  0
   16.5826   27.0711   10.5938 H   0  0  0  0  0
   18.0547   27.3708    9.5864 H   0  0  0  0  0
   16.5702   29.3512    9.3855 H   0  0  0  0  0
   17.9499   29.8169   10.2920 H   0  0  0  0  0
   15.3831   28.6898   11.6113 H   0  0  0  0  0
   15.7102   30.3871   11.4884 H   0  0  0  0  0
   16.5344   29.5979   13.6129 H   0  0  0  0  0
   17.9612   29.9797   12.5379 H   0  0  0  0  0
   16.8133   27.2989   13.2096 H   0  0  0  0  0
   18.0839   28.2484   15.0372 H   0  0  0  0  0
   18.8639   26.7981   14.3186 H   0  0  0  0  0
   22.7046   26.9289   12.4903 H   0  0  0  0  0
   25.0031   26.4656   12.6847 H   0  0  0  0  0
   24.5307   26.3885   10.9695 H   0  0  0  0  0
   26.0247   27.2332   11.4445 H   0  0  0  0  0
   23.7564   30.1894   12.5604 H   0  0  0  0  0
   24.4234   29.0830   13.7860 H   0  0  0  0  0
   25.4897   29.7815   12.5425 H   0  0  0  0  0
   23.6809   28.4685    9.8021 H   0  0  0  0  0
   23.5178   29.9820   10.7261 H   0  0  0  0  0
   25.1325   29.3916   10.2623 H   0  0  0  0  0
  2  1  2  0  0  0
  2  4  1  0  0  0
 13  2  1  0  0  0
  4  3  4  0  0  0
  3 12  4  0  0  0
  4  5  4  0  0  0
  5  6  4  0  0  0
  6  7  4  0  0  0
  7  8  4  0  0  0
 12  7  4  0  0  0
  8  9  4  0  0  0
 10  9  4  0  0  0
 11 10  4  0  0  0
 12 11  4  0  0  0
 14 13  1  0  0  0
 15 14  1  0  0  0
 14 17  1  0  0  0
 15 16  2  0  0  0
 24 15  1  0  0  0
 17 18  1  0  0  0
 18 19  2  0  0  0
 18 20  1  0  0  0
 21 22  1  0  0  0
 23 21  1  0  0  0
 21 33  1  0  0  0
 23 24  1  0  0  0
 23 25  1  0  0  0
 25 26  1  0  0  0
 26 27  4  0  0  0
 26 28  4  0  0  0
 27 29  4  0  0  0
 28 30  4  0  0  0
 29 31  4  0  0  0
 30 31  4  0  0  0
 33 32  1  0  0  0
 32 34  1  0  0  0
 32 44  1  0  0  0
 34 35  1  0  0  0
 34 37  1  0  0  0
 35 36  2  0  0  0
 35 45  1  0  0  0
 37 38  1  0  0  0
 38 39  1  0  0  0
 38 43  1  0  0  0
 39 40  1  0  0  0
 40 41  1  0  0  0
 41 42  1  0  0  0
 42 43  1  0  0  0
 43 44  1  0  0  0
 45 46  1  0  0  0
 46 47  1  0  0  0
 46 48  1  0  0  0
 46 49  1  0  0  0
  5 50  1  0  0  0
  6 51  1  0  0  0
  8 52  1  0  0  0
  9 53  1  0  0  0
 10 54  1  0  0  0
 11 55  1  0  0  0
 13 56  1  0  0  0
 14 57  1  0  0  0
 17 58  1  0  0  0
 17 59  1  0  0  0
 20 60  1  0  0  0
 20 61  1  0  0  0
 21 62  1  0  0  0
 22 63  1  0  0  0
 23 64  1  0  0  0
 24 65  1  0  0  0
 25 66  1  0  0  0
 25 67  1  0  0  0
 27 68  1  0  0  0
 28 69  1  0  0  0
 29 70  1  0  0  0
 30 71  1  0  0  0
 31 72  1  0  0  0
 32 73  1  0  0  0
 33 74  1  0  0  0
 33 75  1  0  0  0
 34 76  1  0  0  0
 37 77  1  0  0  0
 37 78  1  0  0  0
 38 79  1  0  0  0
 39 80  1  0  0  0
 39 81  1  0  0  0
 40 82  1  0  0  0
 40 83  1  0  0  0
 41 84  1  0  0  0
 41 85  1  0  0  0
 42 86  1  0  0  0
 42 87  1  0  0  0
 43 88  1  0  0  0
 44 89  1  0  0  0
 44 90  1  0  0  0
 45 91  1  0  0  0
 47 92  1  0  0  0
 47 93  1  0  0  0
 47 94  1  0  0  0
 48 95  1  0  0  0
 48 96  1  0  0  0
 48 97  1  0  0  0
 49 98  1  0  0  0
 49 99  1  0  0  0
 49100  1  0  0  0
M  END
$$$$
