4jk5_ligand
  -I-interpret- 

255258  0  0  0  0  0  0  0  0999 V2000
  -16.1170    9.1330  -39.3050 N   0  3  0  0  0
  -16.5060    8.2870  -38.1370 C   0  0  0  0  0
  -16.6000    9.1010  -36.8470 C   0  0  0  0  0
  -16.7370   10.3370  -36.8630 O   0  0  0  0  0
  -15.5280    7.1120  -37.9860 C   0  0  0  0  0
  -16.5030    8.4060  -35.7390 N   0  0  0  0  0
  -16.6410    9.0110  -34.4270 C   0  0  0  0  0
  -15.8900    8.0500  -33.5390 C   0  0  0  0  0
  -16.0010    6.8170  -33.7160 O   0  0  0  0  0
  -18.1130    9.2380  -34.1330 C   0  0  0  0  0
  -18.9630    8.2720  -32.8790 S   0  0  0  0  0
  -15.0500    8.6410  -32.6940 N   0  0  0  0  0
  -14.0330    7.9380  -31.9270 C   0  0  0  0  0
  -14.4450    7.9530  -30.4690 C   0  0  0  0  0
  -15.5140    8.4740  -30.1180 O   0  0  0  0  0
  -12.6640    8.6340  -32.0910 C   0  0  0  0  0
  -12.6610    9.9420  -31.5480 O   0  0  0  0  0
  -13.5800    7.4190  -29.6130 N   0  0  0  0  0
  -13.8600    7.3010  -28.1810 C   0  0  0  0  0
  -13.7490    8.6260  -27.4620 C   0  0  0  0  0
  -14.0980    8.6860  -26.2860 O   0  0  0  0  0
  -12.8640    6.3410  -27.5280 C   0  0  0  0  0
  -11.4290    6.8690  -27.4670 C   0  0  0  0  0
  -10.3780    5.7540  -27.6170 C   0  0  0  0  0
   -9.3890    6.0700  -28.6530 N   0  0  0  0  0
   -9.6150    6.0460  -29.9750 C   0  0  0  0  0
  -10.8070    5.7270  -30.4860 N   0  0  0  0  0
   -8.6350    6.3610  -30.8020 N   0  0  0  0  0
  -13.2220    9.6610  -28.1350 N   0  0  0  0  0
  -13.1060   11.0240  -27.5660 C   0  0  0  0  0
  -14.3210   11.8740  -27.8310 C   0  0  0  0  0
  -14.3360   13.0490  -27.4810 O   0  0  0  0  0
  -11.9190   11.7550  -28.1830 C   0  0  0  0  0
  -10.6470   10.9970  -27.9940 C   0  0  0  0  0
  -10.0360   10.9670  -26.7570 C   0  0  0  0  0
  -10.0690   10.2850  -29.0530 C   0  0  0  0  0
   -8.8720   10.2630  -26.5330 C   0  0  0  0  0
   -8.8930    9.5720  -28.8490 C   0  0  0  0  0
   -8.3000    9.5760  -27.5630 C   0  0  0  0  0
   -7.1390    8.8900  -27.3050 O   0  0  0  0  0
  -15.3150   11.2940  -28.4830 N   0  0  0  0  0
  -16.4600   12.0540  -28.8960 C   0  0  0  0  0
  -17.2360   12.5090  -27.6700 C   0  0  0  0  0
  -17.4480   11.7640  -26.6990 O   0  0  0  0  0
  -17.3960   11.2850  -29.8370 C   0  0  0  0  0
  -18.6690   12.0830  -30.0970 C   0  0  0  0  0
  -19.1730   12.0170  -31.4960 C   0  0  0  0  0
  -19.2880   10.8910  -32.0000 O   0  0  0  0  0
  -19.4960   13.0810  -32.0690 O   0  0  0  0  0
  -17.6300   13.7650  -27.7370 N   0  0  0  0  0
  -18.4990   14.3480  -26.7280 C   0  0  0  0  0
  -19.9110   13.8440  -26.9350 C   0  0  0  0  0
  -20.4060   13.8540  -28.0520 O   0  0  0  0  0
  -18.4680   15.8860  -26.8030 C   0  0  0  0  0
  -19.4620   16.5110  -25.8030 C   0  0  0  0  0
  -17.0800   16.3790  -26.4660 C   0  0  0  0  0
  -20.5680   13.4190  -25.8550 N   0  0  0  0  0
  -22.0010   13.1020  -25.8560 C   0  0  0  0  0
  -22.3640   12.3200  -27.1280 C   0  0  0  0  0
  -23.2060   12.7260  -27.9420 O   0  0  0  0  0
  -22.8090   14.4090  -25.7050 C   0  0  0  0  0
  -24.3160   14.1960  -25.5520 C   0  0  0  0  0
  -24.7520   13.0600  -25.1840 O   0  0  0  0  0
  -25.0740   15.1450  -25.7950 O   0  0  0  0  0
  -21.6930   11.1980  -27.3010 N   0  0  0  0  0
  -21.8030   10.4550  -28.5790 C   0  0  0  0  0
  -23.2270    9.9820  -28.9900 C   0  0  0  0  0
  -23.4880    9.6580  -30.1620 O   0  0  0  0  0
  -20.8510    9.2860  -28.4830 C   0  0  0  0  0
  -21.4020    7.9560  -27.3620 S   0  0  0  0  0
  -24.1310    9.8780  -28.0130 N   0  0  0  0  0
  -25.5120    9.4820  -28.2300 C   0  0  0  0  0
  -26.4840   10.6210  -28.0910 C   0  0  0  0  0
  -27.7040   10.4070  -28.0030 O   0  0  0  0  0
  -25.9320    8.3760  -27.2780 C   0  0  0  0  0
  -25.1650    7.1310  -27.5020 C   0  0  0  0  0
  -25.6660    5.9700  -26.6820 C   0  0  0  0  0
  -24.9490    4.7630  -27.0700 N   0  0  0  0  0
  -25.3010    3.8660  -28.0070 C   0  0  0  0  0
  -24.5100    2.8700  -28.1950 N   0  0  0  0  0
  -26.3620    3.9970  -28.8020 N   0  0  0  0  0
  -25.9610   11.8310  -28.0030 N   0  0  0  0  0
  -26.7770   13.0070  -27.9200 C   0  0  0  0  0
  -27.4400   13.3520  -29.2100 C   0  0  0  0  0
  -27.1320   12.7710  -30.2640 O   0  0  0  0  0
  -28.3690   14.2860  -29.1030 N   0  0  0  0  0
  -29.0840   14.8090  -30.2180 C   0  0  0  0  0
  -28.0930   15.5010  -31.1070 C   0  0  0  0  0
  -27.2610   16.2320  -30.6430 O   0  0  0  0  0
  -30.2420   15.7090  -29.7470 C   0  0  0  0  0
  -29.8420   17.0010  -29.1120 C   0  0  0  0  0
  -31.0720   17.7550  -28.6540 C   0  0  0  0  0
  -31.9790   18.0850  -29.7360 N   0  0  0  0  0
  -32.9480   18.9710  -29.6210 C   0  0  0  0  0
  -33.1790   19.5350  -28.4600 N   0  0  0  0  0
  -33.7420   19.2310  -30.6570 N   0  0  0  0  0
  -28.1760   15.2460  -32.3980 N   0  0  0  0  0
  -27.1940   15.7780  -33.2860 C   0  0  0  0  0
  -26.1500   14.7390  -33.6680 C   0  0  0  0  0
  -25.5070   14.8950  -34.6670 O   0  0  0  0  0
  -27.9210   16.3510  -34.5010 C   0  0  0  0  0
  -28.6210   15.2880  -35.1570 O   0  0  0  0  0
  -25.9400   13.6830  -32.8840 N   0  0  0  0  0
  -24.7780   12.8580  -33.1370 C   0  0  0  0  0
  -24.9720   11.8600  -34.2680 C   0  0  0  0  0
  -26.0800   11.3420  -34.5110 O   0  0  0  0  0
  -24.2830   12.1510  -31.8760 C   0  0  0  0  0
  -25.0610   11.0110  -31.5610 O   0  0  0  0  0
  -23.8560   11.5820  -34.9310 N   0  0  0  0  0
  -23.7730   10.5540  -35.9590 C   0  0  0  0  0
  -23.7710    9.1720  -35.3100 C   0  0  0  0  0
  -22.8300    8.4160  -35.4820 O   0  0  0  0  0
  -22.4990   10.7630  -36.7790 C   0  0  0  0  0
  -24.7980    8.8540  -34.5310 N   0  0  0  0  0
  -24.8510    7.5600  -33.8540 C   0  0  0  0  0
  -26.0970    6.8230  -34.2920 C   0  0  0  0  0
  -27.2060    7.3130  -34.1600 O   0  0  0  0  0
  -24.8000    7.7100  -32.3370 C   0  0  0  0  0
  -24.9950    6.1610  -31.4150 S   0  0  0  0  0
  -25.8810    5.6330  -34.8270 N   0  0  0  0  0
  -26.9290    4.8180  -35.4040 C   0  0  0  0  0
  -26.3480    4.0130  -36.5450 C   0  0  0  0  0
  -27.0400    3.2020  -37.1570 O   0  0  0  0  0
  -25.0590    4.2190  -36.8200 N   0  0  0  0  0
  -20.6800    6.2790  -29.4510 C   0  0  0  0  0
  -19.7610    6.5310  -30.4860 C   0  0  0  0  0
  -20.0770    6.2320  -31.8450 C   0  0  0  0  0
  -21.3580    5.7610  -32.1410 C   0  0  0  0  0
  -22.2890    5.5530  -31.1170 C   0  0  0  0  0
  -21.9630    5.8220  -29.7760 C   0  0  0  0  0
  -20.4000    6.5690  -28.0510 C   0  0  0  0  0
  -19.1520    6.4640  -32.9110 C   0  0  0  0  0
  -23.5290    5.0860  -31.5270 C   0  0  0  0  0
  -16.7730    9.9089  -39.3948 H   0  0  0  0  0
  -15.1753    9.4974  -39.1607 H   0  0  0  0  0
  -16.1380    8.5684  -40.1542 H   0  0  0  0  0
  -17.5024    7.8886  -38.3284 H   0  0  0  0  0
  -14.5366    7.4949  -37.7440 H   0  0  0  0  0
  -15.8708    6.4561  -37.1858 H   0  0  0  0  0
  -15.4851    6.5542  -38.9214 H   0  0  0  0  0
  -16.3241    7.4038  -35.8016 H   0  0  0  0  0
  -16.2250   10.0095  -34.2926 H   0  0  0  0  0
  -18.6140    8.9660  -35.0620 H   0  0  0  0  0
  -18.1532   10.2591  -33.7536 H   0  0  0  0  0
  -15.1235    9.6515  -32.5762 H   0  0  0  0  0
  -13.9411    6.9124  -32.2845 H   0  0  0  0  0
  -12.4466    8.7084  -33.1565 H   0  0  0  0  0
  -11.9175    8.0441  -31.5591 H   0  0  0  0  0
  -11.7944   10.3363  -31.6710 H   0  0  0  0  0
  -12.6864    7.0782  -29.9675 H   0  0  0  0  0
  -14.8825    6.9330  -28.0965 H   0  0  0  0  0
  -12.8472    5.4350  -28.1337 H   0  0  0  0  0
  -13.1933    6.1869  -26.5004 H   0  0  0  0  0
  -11.2853    7.3351  -26.4922 H   0  0  0  0  0
  -11.2946    7.5684  -28.2921 H   0  0  0  0  0
  -10.8918    4.8365  -27.9037 H   0  0  0  0  0
   -9.8551    5.6473  -26.6666 H   0  0  0  0  0
   -8.4526    6.3293  -28.3428 H   0  0  0  0  0
  -10.9460    5.7300  -31.4965 H   0  0  0  0  0
  -11.5783    5.4804  -29.8658 H   0  0  0  0  0
   -7.7195    6.6186  -30.4333 H   0  0  0  0  0
  -12.8850    9.5013  -29.0844 H   0  0  0  0  0
  -12.9876   10.8861  -26.4913 H   0  0  0  0  0
  -11.8186   12.7233  -27.6926 H   0  0  0  0  0
  -12.0995   11.8629  -29.2525 H   0  0  0  0  0
  -10.4877   11.5170  -25.9314 H   0  0  0  0  0
  -10.5407   10.2900  -30.0357 H   0  0  0  0  0
   -8.4140   10.2555  -25.5439 H   0  0  0  0  0
   -8.4338    9.0176  -29.6675 H   0  0  0  0  0
   -6.8421    8.4529  -28.1065 H   0  0  0  0  0
  -15.2672   10.2972  -28.6942 H   0  0  0  0  0
  -16.0831   12.9089  -29.4575 H   0  0  0  0  0
  -17.6627   10.3359  -29.3721 H   0  0  0  0  0
  -16.8844   11.1172  -30.7847 H   0  0  0  0  0
  -18.4341   13.1279  -29.8945 H   0  0  0  0  0
  -19.4448   11.6568  -29.4609 H   0  0  0  0  0
  -19.3175   13.8234  -31.4871 H   0  0  0  0  0
  -17.3170   14.3429  -28.5171 H   0  0  0  0  0
  -18.1454   14.0510  -25.7406 H   0  0  0  0  0
  -18.7473   16.1797  -27.8148 H   0  0  0  0  0
  -20.4711   16.1704  -26.0348 H   0  0  0  0  0
  -19.1975   16.2054  -24.7907 H   0  0  0  0  0
  -19.4174   17.5974  -25.8793 H   0  0  0  0  0
  -16.8167   16.0584  -25.4580 H   0  0  0  0  0
  -16.3660   15.9655  -27.1783 H   0  0  0  0  0
  -17.0595   17.4675  -26.5195 H   0  0  0  0  0
  -20.0483   13.3087  -24.9843 H   0  0  0  0  0
  -22.2522   12.4607  -25.0112 H   0  0  0  0  0
  -22.6557   14.9903  -26.6142 H   0  0  0  0  0
  -22.4589   14.9022  -24.7982 H   0  0  0  0  0
  -24.0122   12.4638  -25.0465 H   0  0  0  0  0
  -21.0972   10.8408  -26.5541 H   0  0  0  0  0
  -21.5483   11.1514  -29.3779 H   0  0  0  0  0
  -19.9114    9.6703  -28.0861 H   0  0  0  0  0
  -20.7746    8.8528  -29.4803 H   0  0  0  0  0
  -23.8352   10.0886  -27.0598 H   0  0  0  0  0
  -25.5446    9.1246  -29.2592 H   0  0  0  0  0
  -26.9870    8.1617  -27.4487 H   0  0  0  0  0
  -25.7436    8.7137  -26.2589 H   0  0  0  0  0
  -24.1326    7.3216  -27.2088 H   0  0  0  0  0
  -25.2699    6.8628  -28.5533 H   0  0  0  0  0
  -26.7332    5.8330  -26.8567 H   0  0  0  0  0
  -25.4978    6.1706  -25.6239 H   0  0  0  0  0
  -24.0782    4.5768  -26.5726 H   0  0  0  0  0
  -23.6562    2.7856  -27.6434 H   0  0  0  0  0
  -26.5329    3.3150  -29.5410 H   0  0  0  0  0
  -27.0035    4.7793  -28.6717 H   0  0  0  0  0
  -24.9460   11.9316  -27.9938 H   0  0  0  0  0
  -26.1296   13.8404  -27.6474 H   0  0  0  0  0
  -27.5600   12.8153  -27.1864 H   0  0  0  0  0
  -28.5847   14.6506  -28.1751 H   0  0  0  0  0
  -29.5627   14.0187  -30.7962 H   0  0  0  0  0
  -30.7811   15.1450  -28.9858 H   0  0  0  0  0
  -30.8141   15.9673  -30.6381 H   0  0  0  0  0
  -29.3007   17.6058  -29.8395 H   0  0  0  0  0
  -29.2058   16.7957  -28.2511 H   0  0  0  0  0
  -30.7370   18.6915  -28.2080 H   0  0  0  0  0
  -31.6109   17.1134  -27.9568 H   0  0  0  0  0
  -31.8614   17.6081  -30.6300 H   0  0  0  0  0
  -32.6098   19.2875  -27.6505 H   0  0  0  0  0
  -34.5303   19.8690  -30.5479 H   0  0  0  0  0
  -33.5622   18.7922  -31.5601 H   0  0  0  0  0
  -28.9376   14.6719  -32.7597 H   0  0  0  0  0
  -26.6358   16.5725  -32.7908 H   0  0  0  0  0
  -27.2021   16.8006  -35.1860 H   0  0  0  0  0
  -28.6258   17.1195  -34.1837 H   0  0  0  0  0
  -29.0828   15.6356  -35.9235 H   0  0  0  0  0
  -26.5826   13.4610  -32.1236 H   0  0  0  0  0
  -24.0068   13.5560  -33.4629 H   0  0  0  0  0
  -24.3558   12.8514  -31.0440 H   0  0  0  0  0
  -23.2580   11.8240  -32.0510 H   0  0  0  0  0
  -24.7161   10.5995  -30.7652 H   0  0  0  0  0
  -23.0150   12.1149  -34.7094 H   0  0  0  0  0
  -24.6368   10.6235  -36.6201 H   0  0  0  0  0
  -22.5269   11.7471  -37.2468 H   0  0  0  0  0
  -21.6311   10.6956  -36.1230 H   0  0  0  0  0
  -22.4342    9.9947  -37.5495 H   0  0  0  0  0
  -25.5592    9.5209  -34.4035 H   0  0  0  0  0
  -23.9716    6.9810  -34.1359 H   0  0  0  0  0
  -25.6322    8.3545  -32.0539 H   0  0  0  0  0
  -23.8141    8.1039  -32.0903 H   0  0  0  0  0
  -24.9274    5.2710  -34.8334 H   0  0  0  0  0
  -27.7320    5.4559  -35.7733 H   0  0  0  0  0
  -27.3339    4.1465  -34.6468 H   0  0  0  0  0
  -24.6063    3.6919  -37.5667 H   0  0  0  0  0
  -24.5262    4.9036  -36.2835 H   0  0  0  0  0
  -18.7895    6.9627  -30.2453 H   0  0  0  0  0
  -21.6341    5.5543  -33.1750 H   0  0  0  0  0
  -22.7063    5.6753  -28.9923 H   0  0  0  0  0
  -20.6465    5.6748  -27.4786 H   0  0  0  0  0
  -19.3519    6.8606  -27.9831 H   0  0  0  0  0
  -18.2088    5.9331  -32.7819 H   0  0  0  0  0
  -19.5036    6.0878  -33.8717 H   0  0  0  0  0
  -23.4095    4.9010  -32.5945 H   0  0  0  0  0
  -23.7456    4.2607  -30.8487 H   0  0  0  0  0
  2  1  1  0  0  0
  3  2  1  0  0  0
  2  5  1  0  0  0
  3  4  2  0  0  0
  6  3  1  0  0  0
  7  6  1  0  0  0
  8  7  1  0  0  0
  7 10  1  0  0  0
  8  9  2  0  0  0
 12  8  1  0  0  0
 10 11  1  0  0  0
 11132  1  0  0  0
 13 12  1  0  0  0
 14 13  1  0  0  0
 13 16  1  0  0  0
 14 15  2  0  0  0
 18 14  1  0  0  0
 16 17  1  0  0  0
 19 18  1  0  0  0
 20 19  1  0  0  0
 19 22  1  0  0  0
 20 21  2  0  0  0
 29 20  1  0  0  0
 22 23  1  0  0  0
 23 24  1  0  0  0
 24 25  1  0  0  0
 25 26  1  0  0  0
 26 27  1  0  0  0
 26 28  2  0  0  0
 30 29  1  0  0  0
 31 30  1  0  0  0
 30 33  1  0  0  0
 31 32  2  0  0  0
 41 31  1  0  0  0
 33 34  1  0  0  0
 34 35  4  0  0  0
 34 36  4  0  0  0
 35 37  4  0  0  0
 36 38  4  0  0  0
 37 39  4  0  0  0
 38 39  4  0  0  0
 39 40  1  0  0  0
 42 41  1  0  0  0
 43 42  1  0  0  0
 42 45  1  0  0  0
 43 44  2  0  0  0
 50 43  1  0  0  0
 45 46  1  0  0  0
 46 47  1  0  0  0
 47 48  2  0  0  0
 47 49  1  0  0  0
 51 50  1  0  0  0
 52 51  1  0  0  0
 51 54  1  0  0  0
 52 53  2  0  0  0
 57 52  1  0  0  0
 54 55  1  0  0  0
 54 56  1  0  0  0
 58 57  1  0  0  0
 59 58  1  0  0  0
 58 61  1  0  0  0
 59 60  2  0  0  0
 65 59  1  0  0  0
 61 62  1  0  0  0
 62 63  1  0  0  0
 62 64  2  0  0  0
 66 65  1  0  0  0
 66 67  1  0  0  0
 69 66  1  0  0  0
 67 68  2  0  0  0
 67 71  1  0  0  0
 70 69  1  0  0  0
131 70  1  0  0  0
 71 72  1  0  0  0
 72 73  1  0  0  0
 72 75  1  0  0  0
 73 74  2  0  0  0
 73 82  1  0  0  0
 75 76  1  0  0  0
 76 77  1  0  0  0
 77 78  1  0  0  0
 78 79  1  0  0  0
 79 80  2  0  0  0
 79 81  1  0  0  0
 82 83  1  0  0  0
 83 84  1  0  0  0
 84 85  2  0  0  0
 84 86  1  0  0  0
 86 87  1  0  0  0
 87 88  1  0  0  0
 87 90  1  0  0  0
 88 89  2  0  0  0
 88 97  1  0  0  0
 90 91  1  0  0  0
 91 92  1  0  0  0
 92 93  1  0  0  0
 93 94  1  0  0  0
 94 95  2  0  0  0
 94 96  1  0  0  0
 97 98  1  0  0  0
 98 99  1  0  0  0
 98101  1  0  0  0
 99100  2  0  0  0
 99103  1  0  0  0
101102  1  0  0  0
103104  1  0  0  0
104105  1  0  0  0
104107  1  0  0  0
105106  2  0  0  0
105109  1  0  0  0
107108  1  0  0  0
109110  1  0  0  0
110111  1  0  0  0
110113  1  0  0  0
111112  2  0  0  0
111114  1  0  0  0
114115  1  0  0  0
115116  1  0  0  0
115118  1  0  0  0
116117  2  0  0  0
116120  1  0  0  0
118119  1  0  0  0
119133  1  0  0  0
120121  1  0  0  0
121122  1  0  0  0
122123  2  0  0  0
122124  1  0  0  0
125126  4  0  0  0
125130  4  0  0  0
125131  1  0  0  0
126127  4  0  0  0
127128  4  0  0  0
127132  1  0  0  0
128129  4  0  0  0
129130  4  0  0  0
129133  1  0  0  0
  1134  1  0  0  0
  1135  1  0  0  0
  1136  1  0  0  0
  2137  1  0  0  0
  5138  1  0  0  0
  5139  1  0  0  0
  5140  1  0  0  0
  6141  1  0  0  0
  7142  1  0  0  0
 10143  1  0  0  0
 10144  1  0  0  0
 12145  1  0  0  0
 13146  1  0  0  0
 16147  1  0  0  0
 16148  1  0  0  0
 17149  1  0  0  0
 18150  1  0  0  0
 19151  1  0  0  0
 22152  1  0  0  0
 22153  1  0  0  0
 23154  1  0  0  0
 23155  1  0  0  0
 24156  1  0  0  0
 24157  1  0  0  0
 25158  1  0  0  0
 27159  1  0  0  0
 27160  1  0  0  0
 28161  1  0  0  0
 29162  1  0  0  0
 30163  1  0  0  0
 33164  1  0  0  0
 33165  1  0  0  0
 35166  1  0  0  0
 36167  1  0  0  0
 37168  1  0  0  0
 38169  1  0  0  0
 40170  1  0  0  0
 41171  1  0  0  0
 42172  1  0  0  0
 45173  1  0  0  0
 45174  1  0  0  0
 46175  1  0  0  0
 46176  1  0  0  0
 49177  1  0  0  0
 50178  1  0  0  0
 51179  1  0  0  0
 54180  1  0  0  0
 55181  1  0  0  0
 55182  1  0  0  0
 55183  1  0  0  0
 56184  1  0  0  0
 56185  1  0  0  0
 56186  1  0  0  0
 57187  1  0  0  0
 58188  1  0  0  0
 61189  1  0  0  0
 61190  1  0  0  0
 63191  1  0  0  0
 65192  1  0  0  0
 66193  1  0  0  0
 69194  1  0  0  0
 69195  1  0  0  0
 71196  1  0  0  0
 72197  1  0  0  0
 75198  1  0  0  0
 75199  1  0  0  0
 76200  1  0  0  0
 76201  1  0  0  0
 77202  1  0  0  0
 77203  1  0  0  0
 78204  1  0  0  0
 80205  1  0  0  0
 81206  1  0  0  0
 81207  1  0  0  0
 82208  1  0  0  0
 83209  1  0  0  0
 83210  1  0  0  0
 86211  1  0  0  0
 87212  1  0  0  0
 90213  1  0  0  0
 90214  1  0  0  0
 91215  1  0  0  0
 91216  1  0  0  0
 92217  1  0  0  0
 92218  1  0  0  0
 93219  1  0  0  0
 95220  1  0  0  0
 96221  1  0  0  0
 96222  1  0  0  0
 97223  1  0  0  0
 98224  1  0  0  0
101225  1  0  0  0
101226  1  0  0  0
102227  1  0  0  0
103228  1  0  0  0
104229  1  0  0  0
107230  1  0  0  0
107231  1  0  0  0
108232  1  0  0  0
109233  1  0  0  0
110234  1  0  0  0
113235  1  0  0  0
113236  1  0  0  0
113237  1  0  0  0
114238  1  0  0  0
115239  1  0  0  0
118240  1  0  0  0
118241  1  0  0  0
120242  1  0  0  0
121243  1  0  0  0
121244  1  0  0  0
124245  1  0  0  0
124246  1  0  0  0
126247  1  0  0  0
128248  1  0  0  0
130249  1  0  0  0
131250  1  0  0  0
131251  1  0  0  0
132252  1  0  0  0
132253  1  0  0  0
133254  1  0  0  0
133255  1  0  0  0
M  END
$$$$
