### 
### Created by X-TOOL on Mon Sep 10 21:13:12 2018
### 

@<TRIPOS>MOLECULE
4jk5_ligand
  256   259     1     0     0
SMALL
GAST_HUCK


@<TRIPOS>ATOM
      1 N         -16.1170    9.1330  -39.3050 N.4       1 ALA         0.2377
      2 CA        -16.5060    8.2870  -38.1370 C.3       1 ALA         0.0621
      3 C         -16.6000    9.1010  -36.8470 C.2       1 ALA         0.2264
      4 O         -16.7370   10.3370  -36.8630 O.2       1 ALA        -0.3907
      5 CB        -15.5280    7.1120  -37.9860 C.3       1 ALA        -0.0040
      6 N         -16.5030    8.4060  -35.7390 N.am      1 CYS        -0.2602
      7 CA        -16.6410    9.0110  -34.4270 C.3       1 CYS         0.1401
      8 C         -15.8900    8.0500  -33.5390 C.2       1 CYS         0.2048
      9 O         -16.0010    6.8170  -33.7160 O.2       1 CYS        -0.3944
     10 CB        -18.1130    9.2380  -34.1330 C.3       1 CYS         0.0361
     11 SG        -18.9630    8.2720  -32.8790 S.3       1 CYS        -0.1425
     12 N         -15.0500    8.6410  -32.6940 N.am      1 SER        -0.2615
     13 CA        -14.0330    7.9380  -31.9270 C.3       1 SER         0.1539
     14 C         -14.4450    7.9530  -30.4690 C.2       1 SER         0.2062
     15 O         -15.5140    8.4740  -30.1180 O.2       1 SER        -0.3943
     16 CB        -12.6640    8.6340  -32.0910 C.3       1 SER         0.0843
     17 OG        -12.6610    9.9420  -31.5480 O.3       1 SER        -0.3903
     18 N         -13.5800    7.4190  -29.6130 N.am      1 ARG        -0.2637
     19 CA        -13.8600    7.3010  -28.1810 C.3       1 ARG         0.1311
     20 C         -13.7490    8.6260  -27.4620 C.2       1 ARG         0.2040
     21 O         -14.0980    8.6860  -26.2860 O.2       1 ARG        -0.3944
     22 CB        -12.8640    6.3410  -27.5280 C.3       1 ARG        -0.0092
     23 CG        -11.4290    6.8690  -27.4670 C.3       1 ARG        -0.0156
     24 CD        -10.3780    5.7540  -27.6170 C.3       1 ARG         0.0627
     25 NE         -9.3890    6.0700  -28.6530 N.pl3     1 ARG        -0.2723
     26 CZ         -9.6150    6.0460  -29.9750 C.cat     1 ARG         0.2882
     27 NH1       -10.8070    5.7270  -30.4860 N.pl3     1 ARG        -0.2849
     28 NH2        -8.6350    6.3610  -30.8020 N.pl3     1 ARG        -0.2849
     29 N         -13.2220    9.6610  -28.1350 N.am      1 TYR        -0.2621
     30 CA        -13.1060   11.0240  -27.5660 C.3       1 TYR         0.1390
     31 C         -14.3210   11.8740  -27.8310 C.2       1 TYR         0.2057
     32 O         -14.3360   13.0490  -27.4810 O.2       1 TYR        -0.3942
     33 CB        -11.9190   11.7550  -28.1830 C.3       1 TYR         0.0163
     34 CG        -10.6470   10.9970  -27.9940 C.ar      1 TYR        -0.0493
     35 CD1       -10.0360   10.9670  -26.7570 C.ar      1 TYR        -0.0685
     36 CD2       -10.0690   10.2850  -29.0530 C.ar      1 TYR        -0.0685
     37 CE1        -8.8720   10.2630  -26.5330 C.ar      1 TYR        -0.0398
     38 CE2        -8.8930    9.5720  -28.8490 C.ar      1 TYR        -0.0398
     39 CZ         -8.3000    9.5760  -27.5630 C.ar      1 TYR         0.0805
     40 OH         -7.1390    8.8900  -27.3050 O.3       1 TYR        -0.3376
     41 N         -15.3150   11.2940  -28.4830 N.am      1 GLU        -0.2635
     42 CA        -16.4600   12.0540  -28.8960 C.3       1 GLU         0.1325
     43 C         -17.2360   12.5090  -27.6700 C.2       1 GLU         0.2040
     44 O         -17.4480   11.7640  -26.6990 O.2       1 GLU        -0.3944
     45 CB        -17.3960   11.2850  -29.8370 C.3       1 GLU        -0.0008
     46 CG        -18.6690   12.0830  -30.0970 C.3       1 GLU         0.0044
     47 CD        -19.1730   12.0170  -31.4960 C.2       1 GLU         0.0350
     48 OE1       -19.2880   10.8910  -32.0000 O.co2     1 GLU        -0.5690
     49 OE2       -19.4960   13.0810  -32.0690 O.co2     1 GLU        -0.5690
     50 N         -17.6300   13.7650  -27.7370 N.am      1 VAL        -0.2635
     51 CA        -18.4990   14.3480  -26.7280 C.3       1 VAL         0.1333
     52 C         -19.9110   13.8440  -26.9350 C.2       1 VAL         0.2042
     53 O         -20.4060   13.8540  -28.0520 O.2       1 VAL        -0.3944
     54 CB        -18.4680   15.8860  -26.8030 C.3       1 VAL        -0.0063
     55 CG1       -19.4620   16.5110  -25.8030 C.3       1 VAL        -0.0584
     56 CG2       -17.0800   16.3790  -26.4660 C.3       1 VAL        -0.0584
     57 N         -20.5680   13.4190  -25.8550 N.am      1 ASP        -0.2622
     58 CA        -22.0010   13.1020  -25.8560 C.3       1 ASP         0.1423
     59 C         -22.3640   12.3200  -27.1280 C.2       1 ASP         0.2056
     60 O         -23.2060   12.7260  -27.9420 O.2       1 ASP        -0.3943
     61 CB        -22.8090   14.4090  -25.7050 C.3       1 ASP         0.0406
     62 CG        -24.3160   14.1960  -25.5520 C.2       1 ASP         0.0393
     63 OD1       -24.7520   13.0600  -25.1840 O.co2     1 ASP        -0.5688
     64 OD2       -25.0740   15.1450  -25.7950 O.co2     1 ASP        -0.5688
     65 N         -21.6930   11.1980  -27.3010 N.am      1 CYS        -0.2628
     66 CA        -21.8030   10.4550  -28.5790 C.3       1 CYS         0.1400
     67 C         -23.2270    9.9820  -28.9900 C.2       1 CYS         0.2047
     68 O         -23.4880    9.6580  -30.1620 O.2       1 CYS        -0.3944
     69 CB        -20.8510    9.2860  -28.4830 C.3       1 CYS         0.0361
     70 SG        -21.4020    7.9560  -27.3620 S.3       1 CYS        -0.1425
     71 N         -24.1310    9.8780  -28.0130 N.am      1 ARG        -0.2637
     72 CA        -25.5120    9.4820  -28.2300 C.3       1 ARG         0.1311
     73 C         -26.4840   10.6210  -28.0910 C.2       1 ARG         0.2037
     74 O         -27.7040   10.4070  -28.0030 O.2       1 ARG        -0.3944
     75 CB        -25.9320    8.3760  -27.2780 C.3       1 ARG        -0.0092
     76 CG        -25.1650    7.1310  -27.5020 C.3       1 ARG        -0.0156
     77 CD        -25.6660    5.9700  -26.6820 C.3       1 ARG         0.0627
     78 NE        -24.9490    4.7630  -27.0700 N.pl3     1 ARG        -0.2723
     79 CZ        -25.3010    3.8660  -28.0070 C.cat     1 ARG         0.2882
     80 NH1       -24.5100    2.8700  -28.1950 N.pl3     1 ARG        -0.2849
     81 NH2       -26.3620    3.9970  -28.8020 N.pl3     1 ARG        -0.2849
     82 N         -25.9610   11.8310  -28.0030 N.am      1 GLY        -0.2664
     83 CA        -26.7770   13.0070  -27.9200 C.3       1 GLY         0.1201
     84 C         -27.4400   13.3520  -29.2100 C.2       1 GLY         0.2007
     85 O         -27.1320   12.7710  -30.2640 O.2       1 GLY        -0.3947
     86 N         -28.3690   14.2860  -29.1030 N.am      1 ARG        -0.2640
     87 CA        -29.0840   14.8090  -30.2180 C.3       1 ARG         0.1311
     88 C         -28.0930   15.5010  -31.1070 C.2       1 ARG         0.2040
     89 O         -27.2610   16.2320  -30.6430 O.2       1 ARG        -0.3944
     90 CB        -30.2420   15.7090  -29.7470 C.3       1 ARG        -0.0092
     91 CG        -29.8420   17.0010  -29.1120 C.3       1 ARG        -0.0156
     92 CD        -31.0720   17.7550  -28.6540 C.3       1 ARG         0.0627
     93 NE        -31.9790   18.0850  -29.7360 N.pl3     1 ARG        -0.2723
     94 CZ        -32.9480   18.9710  -29.6210 C.cat     1 ARG         0.2882
     95 NH1       -33.1790   19.5350  -28.4600 N.pl3     1 ARG        -0.2849
     96 NH2       -33.7420   19.2310  -30.6570 N.pl3     1 ARG        -0.2849
     97 N         -28.1760   15.2460  -32.3980 N.am      1 DSN        -0.2616
     98 CA        -27.1940   15.7780  -33.2860 C.3       1 DSN         0.1539
     99 C         -26.1500   14.7390  -33.6680 C.2       1 DSN         0.2062
    100 O         -25.5070   14.8950  -34.6670 O.2       1 DSN        -0.3943
    101 CB        -27.9210   16.3510  -34.5010 C.3       1 DSN         0.0843
    102 OG        -28.6210   15.2880  -35.1570 O.3       1 DSN        -0.3903
    103 N         -25.9400   13.6830  -32.8840 N.am      1 SER        -0.2615
    104 CA        -24.7780   12.8580  -33.1370 C.3       1 SER         0.1539
    105 C         -24.9720   11.8600  -34.2680 C.2       1 SER         0.2062
    106 O         -26.0800   11.3420  -34.5110 O.2       1 SER        -0.3943
    107 CB        -24.2830   12.1510  -31.8760 C.3       1 SER         0.0843
    108 OG        -25.0610   11.0110  -31.5610 O.3       1 SER        -0.3903
    109 N         -23.8560   11.5820  -34.9310 N.am      1 ALA        -0.2639
    110 CA        -23.7730   10.5540  -35.9590 C.3       1 ALA         0.1282
    111 C         -23.7710    9.1720  -35.3100 C.2       1 ALA         0.2036
    112 O         -22.8300    8.4160  -35.4820 O.2       1 ALA        -0.3944
    113 CB        -22.4990   10.7630  -36.7790 C.3       1 ALA        -0.0244
    114 N         -24.7980    8.8540  -34.5310 N.am      1 CYS        -0.2629
    115 CA        -24.8510    7.5600  -33.8540 C.3       1 CYS         0.1400
    116 C         -26.0970    6.8230  -34.2920 C.2       1 CYS         0.2045
    117 O         -27.2060    7.3130  -34.1600 O.2       1 CYS        -0.3944
    118 CB        -24.8000    7.7100  -32.3370 C.3       1 CYS         0.0361
    119 SG        -24.9950    6.1610  -31.4150 S.3       1 CYS        -0.1425
    120 N         -25.8810    5.6330  -34.8270 N.am      1 GLY        -0.2664
    121 CA        -26.9290    4.8180  -35.4040 C.3       1 GLY         0.1198
    122 C         -26.3480    4.0130  -36.5450 C.2       1 GLY         0.1960
    123 O         -27.0400    3.2020  -37.1570 O.2       1 GLY        -0.3951
    124 N         -25.0590    4.2190  -36.8200 N.am      1 NH2        -0.2992
    125 C1        -20.6800    6.2790  -29.4510 C.ar      1 ZBR        -0.0466
    126 C2        -19.7610    6.5310  -30.4860 C.ar      1 ZBR        -0.0645
    127 C3        -20.0770    6.2320  -31.8450 C.ar      1 ZBR        -0.0466
    128 C4        -21.3580    5.7610  -32.1410 C.ar      1 ZBR        -0.0645
    129 C5        -22.2890    5.5530  -31.1170 C.ar      1 ZBR        -0.0466
    130 C6        -21.9630    5.8220  -29.7760 C.ar      1 ZBR        -0.0645
    131 C7        -20.4000    6.5690  -28.0510 C.3       1 ZBR         0.0245
    132 C8        -19.1520    6.4640  -32.9110 C.3       1 ZBR         0.0245
    133 C9        -23.5290    5.0860  -31.5270 C.3       1 ZBR         0.0245
    134 H1        -16.0664    8.5601  -40.1328 H         1 ALA         0.2015
    135 H2        -15.2171    9.5525  -39.1312 H         1 ALA         0.2015
    136 H3        -16.8050    9.8573  -39.4393 H         1 ALA         0.2015
    137 H4        -17.5042    7.8720  -38.3406 H         1 ALA         0.1095
    138 H5        -15.8244    6.4968  -37.1236 H         1 ALA         0.0310
    139 H6        -14.5108    7.4996  -37.8276 H         1 ALA         0.0310
    140 H7        -15.5486    6.4982  -38.8986 H         1 ALA         0.0310
    141 H8        -16.3276    7.4234  -35.8004 H         1 CYS         0.1885
    142 H9        -16.1400    9.9898  -34.3965 H         1 CYS         0.0808
    143 H10       -18.6509    9.0680  -35.0773 H         1 CYS         0.0426
    144 H11       -18.2145   10.2928  -33.8380 H         1 CYS         0.0426
    145 H12       -15.1220    9.6317  -32.5785 H         1 SER         0.1884
    146 H13       -13.9569    6.8990  -32.2800 H         1 SER         0.0823
    147 H14       -12.4234    8.6947  -33.1626 H         1 SER         0.0606
    148 H15       -11.8981    8.0351  -31.5766 H         1 SER         0.0606
    149 H16       -11.8034   10.3323  -31.6698 H         1 SER         0.2097
    150 H17       -12.7039    7.0848  -29.9606 H         1 ARG         0.1883
    151 H18       -14.8808    6.9104  -28.0565 H         1 ARG         0.0800
    152 H19       -12.8619    5.4031  -28.1027 H         1 ARG         0.0313
    153 H20       -13.2014    6.1407  -26.5004 H         1 ARG         0.0313
    154 H21       -11.2781    7.3665  -26.4976 H         1 ARG         0.0301
    155 H22       -11.2873    7.5974  -28.2790 H         1 ARG         0.0301
    156 H23       -10.8887    4.8179  -27.8868 H         1 ARG         0.0689
    157 H24        -9.8577    5.6242  -26.6566 H         1 ARG         0.0689
    158 H25        -8.4434    6.3318  -28.3397 H         1 ARG         0.2642
    159 H26       -10.9443    5.7189  -31.5068 H         1 ARG         0.2615
    160 H27       -11.5890    5.4891  -29.8593 H         1 ARG         0.2615
    161 H28        -7.7074    6.6103  -30.4301 H         1 ARG         0.2615
    162 H29        -8.7981    6.3574  -31.8190 H         1 ARG         0.2615
    163 H30       -12.8916    9.5044  -29.0658 H         1 TYR         0.1885
    164 H31       -12.9599   10.9346  -26.4794 H         1 TYR         0.0821
    165 H32       -11.8206   12.7415  -27.7065 H         1 TYR         0.0453
    166 H33       -12.1004   11.8845  -29.2602 H         1 TYR         0.0453
    167 H34       -10.4852   11.5140  -25.9360 H         1 TYR         0.0530
    168 H35       -10.5381   10.2900  -30.0303 H         1 TYR         0.0530
    169 H36        -8.4166   10.2556  -25.5493 H         1 TYR         0.0525
    170 H37        -8.4364    9.0207  -29.6630 H         1 TYR         0.0525
    171 H38        -6.8972    9.0103  -26.3942 H         1 TYR         0.2458
    172 H39       -15.2681   10.3168  -28.6901 H         1 GLU         0.1883
    173 H40       -16.0984   12.9432  -29.4331 H         1 GLU         0.0801
    174 H41       -17.6608   10.3220  -29.3761 H         1 GLU         0.0330
    175 H42       -16.8807   11.1051  -30.7920 H         1 GLU         0.0330
    176 H43       -18.4674   13.1370  -29.8555 H         1 GLU         0.0433
    177 H44       -19.4558   11.6983  -29.4315 H         1 GLU         0.0433
    178 H45       -17.3232   14.3316  -28.5018 H         1 VAL         0.1883
    179 H46       -18.1491   14.0360  -25.7329 H         1 VAL         0.0802
    180 H47       -18.7334   16.2009  -27.8230 H         1 VAL         0.0343
    181 H48       -19.4179   17.6075  -25.8790 H         1 VAL         0.0234
    182 H49       -19.1962   16.2034  -24.7809 H         1 VAL         0.0234
    183 H50       -20.4809   16.1680  -26.0359 H         1 VAL         0.0234
    184 H51       -16.3553   15.9434  -27.1696 H         1 VAL         0.0234
    185 H52       -16.8224   16.0765  -25.4403 H         1 VAL         0.0234
    186 H53       -17.0518   17.4759  -26.5429 H         1 VAL         0.0234
    187 H54       -20.0585   13.3109  -25.0014 H         1 ASP         0.1884
    188 H55       -22.2213   12.4615  -24.9893 H         1 ASP         0.0819
    189 H56       -22.6363   15.0274  -26.5982 H         1 ASP         0.0478
    190 H57       -22.4429   14.9408  -24.8144 H         1 ASP         0.0478
    191 H58       -21.1089   10.8478  -26.5687 H         1 CYS         0.1884
    192 H59       -21.4533   11.1246  -29.3785 H         1 CYS         0.0808
    193 H60       -19.8816    9.6604  -28.1224 H         1 CYS         0.0426
    194 H61       -20.7279    8.8589  -29.4892 H         1 CYS         0.0426
    195 H62       -23.8410   10.0844  -27.0785 H         1 ARG         0.1883
    196 H63       -25.5848    9.0980  -29.2582 H         1 ARG         0.0800
    197 H64       -27.0014    8.1660  -27.4273 H         1 ARG         0.0313
    198 H65       -25.7655    8.7146  -26.2447 H         1 ARG         0.0313
    199 H66       -24.1130    7.3163  -27.2395 H         1 ARG         0.0301
    200 H67       -25.2357    6.8635  -28.5666 H         1 ARG         0.0301
    201 H68       -26.7426    5.8314  -26.8603 H         1 ARG         0.0689
    202 H69       -25.4942    6.1725  -25.6146 H         1 ARG         0.0689
    203 H70       -24.0696    4.5749  -26.5677 H         1 ARG         0.2642
    204 H71       -24.7385    2.1573  -28.9026 H         1 ARG         0.2615
    205 H72       -23.6478    2.7848  -27.6380 H         1 ARG         0.2615
    206 H73       -27.0098    4.7869  -28.6704 H         1 ARG         0.2615
    207 H74       -26.5345    3.3083  -29.5483 H         1 ARG         0.2615
    208 H75       -24.9659   11.9297  -27.9940 H         1 GLY         0.1881
    209 H76       -26.1425   13.8524  -27.6156 H         1 GLY         0.0763
    210 H77       -27.5549   12.8403  -27.1604 H         1 GLY         0.0763
    211 H78       -28.5805   14.6434  -28.1933 H         1 ARG         0.1883
    212 H79       -29.5231   13.9726  -30.7816 H         1 ARG         0.0800
    213 H80       -30.8344   15.1416  -29.0142 H         1 ARG         0.0313
    214 H81       -30.8665   15.9418  -30.6221 H         1 ARG         0.0313
    215 H82       -29.2918   17.6114  -29.8432 H         1 ARG         0.0301
    216 H83       -29.1963   16.7965  -28.2452 H         1 ARG         0.0301
    217 H84       -30.7492   18.6895  -28.1719 H         1 ARG         0.0689
    218 H85       -31.6110   17.1331  -27.9242 H         1 ARG         0.0689
    219 H86       -31.8603   17.6034  -30.6387 H         1 ARG         0.2642
    220 H87       -33.9352   20.2279  -28.3654 H         1 ARG         0.2615
    221 H88       -32.6043   19.2851  -27.6426 H         1 ARG         0.2615
    222 H89       -33.5605   18.7879  -31.5689 H         1 ARG         0.2615
    223 H90       -34.5380   19.8753  -30.5468 H         1 ARG         0.2615
    224 H91       -28.9227   14.6832  -32.7526 H         1 DSN         0.1884
    225 H92       -26.6719   16.6006  -32.7754 H         1 DSN         0.0823
    226 H93       -27.1916   16.7971  -35.1931 H         1 DSN         0.0606
    227 H94       -28.6364   17.1208  -34.1760 H         1 DSN         0.0606
    228 H95       -29.2481   14.9044  -34.5551 H         1 DSN         0.2097
    229 H96       -26.5700   13.4654  -32.1385 H         1 SER         0.1884
    230 H97       -23.9774   13.5421  -33.4549 H         1 SER         0.0823
    231 H98       -24.3304   12.8560  -31.0330 H         1 SER         0.0606
    232 H99       -23.2407   11.8361  -32.0325 H         1 SER         0.0606
    233 H100      -24.7197   10.6038  -30.7734 H         1 SER         0.2097
    234 H101      -23.0315   12.1044  -34.7137 H         1 ALA         0.1883
    235 H102      -24.6456   10.6354  -36.6237 H         1 ALA         0.0797
    236 H103      -22.4325    9.9882  -37.5570 H         1 ALA         0.0277
    237 H104      -21.6223   10.6952  -36.1181 H         1 ALA         0.0277
    238 H105      -22.5259   11.7559  -37.2517 H         1 ALA         0.0277
    239 H106      -25.5443    9.5078  -34.4060 H         1 CYS         0.1884
    240 H107      -23.9740    6.9728  -34.1638 H         1 CYS         0.0808
    241 H108      -25.6066    8.3934  -32.0330 H         1 CYS         0.0426
    242 H109      -23.8274    8.1482  -32.0686 H         1 CYS         0.0426
    243 H110      -24.9461    5.2781  -34.8333 H         1 GLY         0.1881
    244 H111      -27.7351    5.4647  -35.7807 H         1 GLY         0.0763
    245 H112      -27.3318    4.1377  -34.6392 H         1 GLY         0.0763
    246 H113      -24.6197    3.7153  -37.5638 H         1 NH2         0.1815
    247 H114      -24.5320    4.8772  -36.2823 H         1 NH2         0.1815
    248 H115      -18.7948    6.9603  -30.2466 H         1 CYS         0.0439
    249 H116      -21.6326    5.5554  -33.1693 H         1 CYS         0.0439
    250 H117      -22.7022    5.6761  -28.9966 H         1 CYS         0.0439
    251 H118      -20.6087    5.6643  -27.4612 H         1 CYS         0.0536
    252 H119      -19.3356    6.8304  -27.9574 H         1 CYS         0.0536
    253 H120      -18.1926    5.9603  -32.7218 H         1 CYS         0.0536
    254 H121      -19.5611    6.1238  -33.8737 H         1 CYS         0.0536
    255 H122      -23.4259    4.8001  -32.5842 H         1 CYS         0.0536
    256 H123      -23.7455    4.1914  -30.9246 H         1 CYS         0.0536
@<TRIPOS>BOND
     1    2    1 1  
     2    3    2 1  
     3    2    5 1  
     4    3    4 2  
     5    6    3 am 
     6    7    6 1  
     7    8    7 1  
     8    7   10 1  
     9    8    9 2  
    10   12    8 am 
    11   10   11 1  
    12   11  132 1  
    13   13   12 1  
    14   14   13 1  
    15   13   16 1  
    16   14   15 2  
    17   18   14 am 
    18   16   17 1  
    19   19   18 1  
    20   20   19 1  
    21   19   22 1  
    22   20   21 2  
    23   29   20 am 
    24   22   23 1  
    25   23   24 1  
    26   24   25 1  
    27   25   26 ar 
    28   26   27 ar 
    29   26   28 ar 
    30   30   29 1  
    31   31   30 1  
    32   30   33 1  
    33   31   32 2  
    34   41   31 am 
    35   33   34 1  
    36   34   35 ar 
    37   34   36 ar 
    38   35   37 ar 
    39   36   38 ar 
    40   37   39 ar 
    41   38   39 ar 
    42   39   40 1  
    43   42   41 1  
    44   43   42 1  
    45   42   45 1  
    46   43   44 2  
    47   50   43 am 
    48   45   46 1  
    49   46   47 1  
    50   47   48 ar 
    51   47   49 ar 
    52   51   50 1  
    53   52   51 1  
    54   51   54 1  
    55   52   53 2  
    56   57   52 am 
    57   54   55 1  
    58   54   56 1  
    59   58   57 1  
    60   59   58 1  
    61   58   61 1  
    62   59   60 2  
    63   65   59 am 
    64   61   62 1  
    65   62   63 ar 
    66   62   64 ar 
    67   66   65 1  
    68   66   67 1  
    69   69   66 1  
    70   67   68 2  
    71   67   71 am 
    72   70   69 1  
    73  131   70 1  
    74   71   72 1  
    75   72   73 1  
    76   72   75 1  
    77   73   74 2  
    78   73   82 am 
    79   75   76 1  
    80   76   77 1  
    81   77   78 1  
    82   78   79 ar 
    83   79   80 ar 
    84   79   81 ar 
    85   82   83 1  
    86   83   84 1  
    87   84   85 2  
    88   84   86 am 
    89   86   87 1  
    90   87   88 1  
    91   87   90 1  
    92   88   89 2  
    93   88   97 am 
    94   90   91 1  
    95   91   92 1  
    96   92   93 1  
    97   93   94 ar 
    98   94   95 ar 
    99   94   96 ar 
   100   97   98 1  
   101   98   99 1  
   102   98  101 1  
   103   99  100 2  
   104   99  103 am 
   105  101  102 1  
   106  103  104 1  
   107  104  105 1  
   108  104  107 1  
   109  105  106 2  
   110  105  109 am 
   111  107  108 1  
   112  109  110 1  
   113  110  111 1  
   114  110  113 1  
   115  111  112 2  
   116  111  114 am 
   117  114  115 1  
   118  115  116 1  
   119  115  118 1  
   120  116  117 2  
   121  116  120 am 
   122  118  119 1  
   123  119  133 1  
   124  120  121 1  
   125  121  122 1  
   126  122  123 2  
   127  122  124 am 
   128  125  126 ar 
   129  125  130 ar 
   130  125  131 1  
   131  126  127 ar 
   132  127  128 ar 
   133  127  132 1  
   134  128  129 ar 
   135  129  130 ar 
   136  129  133 1  
   137    1  134 1  
   138    1  135 1  
   139    1  136 1  
   140    2  137 1  
   141    5  138 1  
   142    5  139 1  
   143    5  140 1  
   144    6  141 1  
   145    7  142 1  
   146   10  143 1  
   147   10  144 1  
   148   12  145 1  
   149   13  146 1  
   150   16  147 1  
   151   16  148 1  
   152   17  149 1  
   153   18  150 1  
   154   19  151 1  
   155   22  152 1  
   156   22  153 1  
   157   23  154 1  
   158   23  155 1  
   159   24  156 1  
   160   24  157 1  
   161   25  158 1  
   162   27  159 1  
   163   27  160 1  
   164   28  161 1  
   165   28  162 1  
   166   29  163 1  
   167   30  164 1  
   168   33  165 1  
   169   33  166 1  
   170   35  167 1  
   171   36  168 1  
   172   37  169 1  
   173   38  170 1  
   174   40  171 1  
   175   41  172 1  
   176   42  173 1  
   177   45  174 1  
   178   45  175 1  
   179   46  176 1  
   180   46  177 1  
   181   50  178 1  
   182   51  179 1  
   183   54  180 1  
   184   55  181 1  
   185   55  182 1  
   186   55  183 1  
   187   56  184 1  
   188   56  185 1  
   189   56  186 1  
   190   57  187 1  
   191   58  188 1  
   192   61  189 1  
   193   61  190 1  
   194   65  191 1  
   195   66  192 1  
   196   69  193 1  
   197   69  194 1  
   198   71  195 1  
   199   72  196 1  
   200   75  197 1  
   201   75  198 1  
   202   76  199 1  
   203   76  200 1  
   204   77  201 1  
   205   77  202 1  
   206   78  203 1  
   207   80  204 1  
   208   80  205 1  
   209   81  206 1  
   210   81  207 1  
   211   82  208 1  
   212   83  209 1  
   213   83  210 1  
   214   86  211 1  
   215   87  212 1  
   216   90  213 1  
   217   90  214 1  
   218   91  215 1  
   219   91  216 1  
   220   92  217 1  
   221   92  218 1  
   222   93  219 1  
   223   95  220 1  
   224   95  221 1  
   225   96  222 1  
   226   96  223 1  
   227   97  224 1  
   228   98  225 1  
   229  101  226 1  
   230  101  227 1  
   231  102  228 1  
   232  103  229 1  
   233  104  230 1  
   234  107  231 1  
   235  107  232 1  
   236  108  233 1  
   237  109  234 1  
   238  110  235 1  
   239  113  236 1  
   240  113  237 1  
   241  113  238 1  
   242  114  239 1  
   243  115  240 1  
   244  118  241 1  
   245  118  242 1  
   246  120  243 1  
   247  121  244 1  
   248  121  245 1  
   249  124  246 1  
   250  124  247 1  
   251  126  248 1  
   252  128  249 1  
   253  130  250 1  
   254  131  251 1  
   255  131  252 1  
   256  132  253 1  
   257  132  254 1  
   258  133  255 1  
   259  133  256 1  
@<TRIPOS>SUBSTRUCTURE
     1 ALA         1

