1q1g_ligand
  -I-interpret- 

 36 38  0  0  0  0  0  0  0  0999 V2000
   10.0600    1.4930   95.8060 C   0  0  0  0  0
    9.1690    0.7520   94.4400 S   0  0  0  0  0
    8.4420    2.2270   93.6690 C   0  0  0  0  0
    8.2100    2.0730   92.1670 C   0  0  0  0  0
    7.2450    3.0960   91.7510 N   0  3  0  0  0
    9.3560    3.7780   90.8520 C   0  0  0  0  0
    9.7040    3.9350   89.4300 O   0  0  0  0  0
    9.4870    2.2590   91.3320 C   0  0  0  0  0
    9.4770    1.3230   90.1740 O   0  0  0  0  0
    7.8870    4.2530   91.1400 C   0  0  0  0  0
    7.7120    5.4680   92.1150 C   0  0  0  0  0
    6.4840    5.9820   92.5230 C   0  0  0  0  0
    6.5410    7.0010   93.3410 N   0  0  0  0  0
    7.8920    7.2270   93.5320 C   0  0  0  0  0
    8.5660    8.2330   94.3350 C   0  0  0  0  0
    8.0270    9.1020   95.0270 O   0  0  0  0  0
    9.9960    8.1590   94.2860 N   0  0  0  0  0
   10.7160    7.2090   93.5330 C   0  0  0  0  0
   10.0740    6.2510   92.7650 N   0  0  0  0  0
    8.6570    6.3040   92.7940 C   0  0  0  0  0
   10.7997    2.1935   95.4183 H   0  0  0  0  0
    9.3588    2.0229   96.4507 H   0  0  0  0  0
   10.5617    0.7119   96.3772 H   0  0  0  0  0
    9.1412    3.0510   93.8111 H   0  0  0  0  0
    7.4720    2.3981   94.1359 H   0  0  0  0  0
    7.8516    1.0582   91.9944 H   0  0  0  0  0
    6.7465    3.4149   92.5818 H   0  0  0  0  0
    6.6230    2.6789   91.0585 H   0  0  0  0  0
   10.0626    4.3978   91.4041 H   0  0  0  0  0
    9.6137    4.8573   89.1796 H   0  0  0  0  0
   10.4129    2.0569   91.8705 H   0  0  0  0  0
    9.5569    0.4209   90.4925 H   0  0  0  0  0
    7.4663    4.6057   90.1983 H   0  0  0  0  0
    5.5371    5.5626   92.1830 H   0  0  0  0  0
   10.5276    8.8376   94.8312 H   0  0  0  0  0
   11.8056    7.2287   93.5556 H   0  0  0  0  0
  2  1  1  0  0  0
  3  2  1  0  0  0
  4  3  1  0  0  0
  4  5  1  0  0  0
  8  4  1  0  0  0
  5 10  1  0  0  0
  6  7  1  0  0  0
  6  8  1  0  0  0
  6 10  1  0  0  0
  8  9  1  0  0  0
 10 11  1  0  0  0
 11 12  4  0  0  0
 11 20  4  0  0  0
 12 13  4  0  0  0
 13 14  4  0  0  0
 14 15  1  0  0  0
 14 20  4  0  0  0
 15 16  2  0  0  0
 15 17  1  0  0  0
 17 18  1  0  0  0
 18 19  2  0  0  0
 19 20  1  0  0  0
  1 21  1  0  0  0
  1 22  1  0  0  0
  1 23  1  0  0  0
  3 24  1  0  0  0
  3 25  1  0  0  0
  4 26  1  0  0  0
  5 27  1  0  0  0
  5 28  1  0  0  0
  6 29  1  0  0  0
  7 30  1  0  0  0
  8 31  1  0  0  0
  9 32  1  0  0  0
 10 33  1  0  0  0
 12 34  1  0  0  0
 17 35  1  0  0  0
 18 36  1  0  0  0
M  END
$$$$
