2wk2_ligand
  -I-interpret- 

 81 84  0  0  0  0  0  0  0  0999 V2000
   31.0410   70.9600   -8.3340 C   0  0  0  0  0
   31.0550   67.0220   -7.9370 S   0  0  0  0  0
   31.7290   69.7200   -8.8990 C   0  0  0  0  0
   32.7480   70.0580   -9.9580 C   0  0  0  0  0
   32.1040   70.9180  -11.0170 C   0  0  0  0  0
   31.4970   72.1640  -10.4140 C   0  0  0  0  0
   30.8210   72.9410  -11.5340 C   0  0  0  0  0
   32.1710   67.8890   -7.3400 C   0  0  0  0  0
   32.9790   67.3350   -6.1920 C   0  0  0  0  0
   32.4630   69.1100   -7.7970 N   0  0  0  0  0
   33.2780   68.9070  -10.5590 O   0  0  0  0  0
   32.9970   71.2470  -12.0700 O   0  0  0  0  0
   30.5900   71.7970   -9.3870 O   0  0  0  0  0
   30.3420   74.2460  -11.1680 O   0  0  0  0  0
   28.8050   73.2120   -4.0810 C   0  0  0  0  0
   29.5410   77.0140   -5.5100 S   0  0  0  0  0
   29.1670   74.0080   -5.3270 C   0  0  0  0  0
   29.3590   73.1390   -6.5640 C   0  0  0  0  0
   30.1420   71.8500   -6.2960 C   0  0  0  0  0
   29.5600   71.1660   -5.0790 C   0  0  0  0  0
   30.3510   69.9420   -4.6730 C   0  0  0  0  0
   28.2300   76.2320   -5.7060 C   0  0  0  0  0
   27.0090   77.0280   -6.0360 C   0  0  0  0  0
   28.0890   74.9190   -5.6160 N   0  0  0  0  0
   29.9890   73.9110   -7.5450 O   0  0  0  0  0
   30.2860   71.0480   -7.4630 O   0  0  0  0  0
   29.6440   72.0890   -4.0410 O   0  0  0  0  0
   29.8770   69.3970   -3.4990 O   0  0  0  0  0
   28.2890   74.3190    1.0010 C   0  0  0  0  0
   28.4460   72.8370    0.6480 C   0  0  0  0  0
   28.9850   72.7700   -0.7920 C   0  0  0  0  0
   28.2870   73.7220   -1.7880 C   0  0  0  0  0
   28.3990   75.1170   -1.2050 C   0  0  0  0  0
   27.7450   76.2120   -2.0320 C   0  0  0  0  0
   30.2080   73.3120    2.0510 C   0  0  0  0  0
   31.4220   72.9230    2.8430 C   0  0  0  0  0
   29.5650   72.4250    1.4440 N   0  0  0  0  0
   29.6760   74.8640    1.9240 S   0  0  0  0  0
   29.0960   71.4670   -1.3190 O   0  0  0  0  0
   28.8710   73.7140   -3.0960 O   0  0  0  0  0
   27.7560   75.1610    0.0260 O   0  0  0  0  0
   26.3750   76.2360   -1.7990 O   0  0  0  0  0
   31.9151   71.2057   -7.7310 H   0  0  0  0  0
   30.9692   69.0754   -9.3410 H   0  0  0  0  0
   33.5654   70.5935   -9.4750 H   0  0  0  0  0
   31.3032   70.3232  -11.4563 H   0  0  0  0  0
   32.2551   72.8002   -9.9572 H   0  0  0  0  0
   29.9496   72.3605  -11.8371 H   0  0  0  0  0
   31.5713   73.0886  -12.3108 H   0  0  0  0  0
   32.3163   67.1184   -5.3541 H   0  0  0  0  0
   33.4775   66.4189   -6.5089 H   0  0  0  0  0
   33.7248   68.0690   -5.8867 H   0  0  0  0  0
   33.2234   69.6318   -7.3612 H   0  0  0  0  0
   33.6888   68.3571   -9.8878 H   0  0  0  0  0
   33.3689   70.4413  -12.4362 H   0  0  0  0  0
   29.9328   74.6610  -11.9309 H   0  0  0  0  0
   27.7416   73.0038   -4.1990 H   0  0  0  0  0
   30.1094   74.5129   -5.1146 H   0  0  0  0  0
   28.3759   72.8086   -6.8994 H   0  0  0  0  0
   31.1788   72.0773   -6.0478 H   0  0  0  0  0
   28.5423   70.8438   -5.2994 H   0  0  0  0  0
   31.3889   70.2380   -4.5205 H   0  0  0  0  0
   30.2579   69.1950   -5.4613 H   0  0  0  0  0
   26.8110   77.7372   -5.2323 H   0  0  0  0  0
   27.1707   77.5692   -6.9682 H   0  0  0  0  0
   26.1579   76.3561   -6.1473 H   0  0  0  0  0
   27.1583   74.5274   -5.7604 H   0  0  0  0  0
   30.1190   73.3798   -8.3340 H   0  0  0  0  0
   30.4002   68.6248   -3.2719 H   0  0  0  0  0
   27.4359   74.4071    1.6737 H   0  0  0  0  0
   27.5264   72.2675    0.7821 H   0  0  0  0  0
   30.0029   73.1418   -0.6752 H   0  0  0  0  0
   27.2559   73.3926   -1.9165 H   0  0  0  0  0
   29.4719   75.3036   -1.1576 H   0  0  0  0  0
   27.9237   76.0156   -3.0892 H   0  0  0  0  0
   28.1717   77.1747   -1.7506 H   0  0  0  0  0
   31.1356   72.2143    3.6201 H   0  0  0  0  0
   32.1540   72.4613    2.1803 H   0  0  0  0  0
   31.8551   73.8118    3.3018 H   0  0  0  0  0
   29.4373   71.5135   -2.2151 H   0  0  0  0  0
   25.9740   76.9308   -2.3263 H   0  0  0  0  0
  1  3  1  0  0  0
  1 13  1  0  0  0
 26  1  1  0  0  0
  8  2  2  0  0  0
  3  4  1  0  0  0
  3 10  1  0  0  0
  4  5  1  0  0  0
  4 11  1  0  0  0
  6  5  1  0  0  0
  5 12  1  0  0  0
  6  7  1  0  0  0
 13  6  1  0  0  0
  7 14  1  0  0  0
  8  9  1  0  0  0
 10  8  1  0  0  0
 15 17  1  0  0  0
 15 27  1  0  0  0
 40 15  1  0  0  0
 22 16  2  0  0  0
 17 18  1  0  0  0
 17 24  1  0  0  0
 18 19  1  0  0  0
 18 25  1  0  0  0
 20 19  1  0  0  0
 19 26  1  0  0  0
 20 21  1  0  0  0
 27 20  1  0  0  0
 21 28  1  0  0  0
 22 23  1  0  0  0
 24 22  1  0  0  0
 30 29  1  0  0  0
 29 38  1  0  0  0
 29 41  1  0  0  0
 30 31  1  0  0  0
 37 30  1  0  0  0
 31 32  1  0  0  0
 31 39  1  0  0  0
 32 33  1  0  0  0
 32 40  1  0  0  0
 33 34  1  0  0  0
 41 33  1  0  0  0
 34 42  1  0  0  0
 35 36  1  0  0  0
 35 37  2  0  0  0
 35 38  1  0  0  0
  1 43  1  0  0  0
  3 44  1  0  0  0
  4 45  1  0  0  0
  5 46  1  0  0  0
  6 47  1  0  0  0
  7 48  1  0  0  0
  7 49  1  0  0  0
  9 50  1  0  0  0
  9 51  1  0  0  0
  9 52  1  0  0  0
 10 53  1  0  0  0
 11 54  1  0  0  0
 12 55  1  0  0  0
 14 56  1  0  0  0
 15 57  1  0  0  0
 17 58  1  0  0  0
 18 59  1  0  0  0
 19 60  1  0  0  0
 20 61  1  0  0  0
 21 62  1  0  0  0
 21 63  1  0  0  0
 23 64  1  0  0  0
 23 65  1  0  0  0
 23 66  1  0  0  0
 24 67  1  0  0  0
 25 68  1  0  0  0
 28 69  1  0  0  0
 29 70  1  0  0  0
 30 71  1  0  0  0
 31 72  1  0  0  0
 32 73  1  0  0  0
 33 74  1  0  0  0
 34 75  1  0  0  0
 34 76  1  0  0  0
 36 77  1  0  0  0
 36 78  1  0  0  0
 36 79  1  0  0  0
 39 80  1  0  0  0
 42 81  1  0  0  0
M  END
$$$$
