4ypf_ligand
  -I-interpret- 

 19 20  0  0  0  0  0  0  0  0999 V2000
   66.1260    8.2370   18.5500 C   0  0  0  0  0
   61.4130    7.7830   19.9370 C   0  0  0  0  0
   62.7440    7.1250   18.0580 C   0  0  0  0  0
   62.5000    8.3260   20.5560 C   0  0  0  0  0
   67.2690    9.3750   20.3340 N   0  0  0  0  0
   66.1180    8.8470   19.8080 C   0  0  0  0  0
   64.9220    8.8770   20.4990 C   0  0  0  0  0
   63.7680    8.3010   19.9330 C   0  0  0  0  0
   63.8890    7.6960   18.6590 C   0  0  0  0  0
   65.0800    7.6720   17.9770 N   0  0  0  0  0
   61.5360    7.1760   18.6930 C   0  0  0  0  0
   67.0675    8.2274   18.0009 H   0  0  0  0  0
   60.4381    7.8255   20.4227 H   0  0  0  0  0
   62.8256    6.6422   17.0842 H   0  0  0  0  0
   62.3898    8.7830   21.5394 H   0  0  0  0  0
   68.1407    9.3246   19.8067 H   0  0  0  0  0
   67.2535    9.8181   21.2526 H   0  0  0  0  0
   64.8715    9.3461   21.4816 H   0  0  0  0  0
   60.6588    6.7358   18.2189 H   0  0  0  0  0
  6  1  4  0  0  0
  1 10  4  0  0  0
  4  2  4  0  0  0
  2 11  4  0  0  0
  3  9  4  0  0  0
 11  3  4  0  0  0
  8  4  4  0  0  0
  6  5  1  0  0  0
  7  6  4  0  0  0
  7  8  4  0  0  0
  8  9  4  0  0  0
  9 10  4  0  0  0
  1 12  1  0  0  0
  2 13  1  0  0  0
  3 14  1  0  0  0
  4 15  1  0  0  0
  5 16  1  0  0  0
  5 17  1  0  0  0
  7 18  1  0  0  0
 11 19  1  0  0  0
M  END
$$$$
