5mno_ligand
  -I-interpret- 

 22 22  0  0  0  0  0  0  0  0999 V2000
   -1.6460  -13.5880  -14.6380 C   0  0  0  0  0
   -2.4590  -13.0450  -15.7860 C   0  0  0  0  0
   -1.7990  -13.3400  -17.1070 C   0  0  0  0  0
   -1.6190  -14.7890  -17.2510 N   0  0  0  0  0
   -0.7440  -15.2930  -16.1840 C   0  0  0  0  0
   -1.3560  -15.0510  -14.8390 C   0  0  0  0  0
   -2.0030  -15.5110  -18.3070 C   0  0  0  0  0
   -1.6490  -16.7710  -18.4400 N   0  0  0  0  0
   -2.7160  -14.9730  -19.2730 N   0  0  0  0  0
   -2.2120  -13.4639  -13.7148 H   0  0  0  0  0
   -0.7023  -13.0450  -14.5858 H   0  0  0  0  0
   -2.5433  -11.9642  -15.6725 H   0  0  0  0  0
   -3.4401  -13.5197  -15.7732 H   0  0  0  0  0
   -0.8274  -12.8475  -17.1457 H   0  0  0  0  0
   -2.4266  -12.9695  -17.9175 H   0  0  0  0  0
    0.2113  -14.7706  -16.2356 H   0  0  0  0  0
   -0.6046  -16.3655  -16.3198 H   0  0  0  0  0
   -2.2915  -15.6065  -14.7739 H   0  0  0  0  0
   -0.6559  -15.3789  -14.0706 H   0  0  0  0  0
   -1.9277  -17.2941  -19.2701 H   0  0  0  0  0
   -2.9744  -15.5303  -20.0873 H   0  0  0  0  0
   -3.0104  -13.9986  -19.2076 H   0  0  0  0  0
  1  2  1  0  0  0
  1  6  1  0  0  0
  2  3  1  0  0  0
  3  4  1  0  0  0
  4  5  1  0  0  0
  4  7  1  0  0  0
  5  6  1  0  0  0
  7  8  2  0  0  0
  7  9  1  0  0  0
  1 10  1  0  0  0
  1 11  1  0  0  0
  2 12  1  0  0  0
  2 13  1  0  0  0
  3 14  1  0  0  0
  3 15  1  0  0  0
  5 16  1  0  0  0
  5 17  1  0  0  0
  6 18  1  0  0  0
  6 19  1  0  0  0
  8 20  1  0  0  0
  9 21  1  0  0  0
  9 22  1  0  0  0
M  END
$$$$
