2qzl_ligand
  -I-interpret- 

 91 93  0  0  0  0  0  0  0  0999 V2000
   26.6530   45.2250    2.4670 O   0  0  0  0  0
   26.1400   44.9570    1.1600 S   0  0  0  0  0
   24.7310   44.7160    1.1860 O   0  0  0  0  0
   26.4340   46.3350    0.2570 C   0  0  0  0  0
   26.8700   43.7580    0.5120 N   0  0  0  0  0
   26.2110   43.0260   -0.5700 C   0  0  0  0  0
   28.1620   43.3310    0.9110 C   0  0  0  0  0
   29.1470   44.2500    1.3000 C   0  0  0  0  0
   30.4110   43.8110    1.6960 C   0  0  0  0  0
   31.4740   44.7740    2.1410 C   0  0  0  0  0
   31.6230   45.8520    1.5700 O   0  0  0  0  0
   32.2110   44.3900    3.1900 N   0  0  0  0  0
   33.2370   45.2040    3.8300 C   0  0  0  0  0
   34.5580   44.4320    3.8770 C   0  0  0  0  0
   32.8090   45.6510    5.1850 C   0  0  0  0  0
   32.4640   44.7360    6.1820 C   0  0  0  0  0
   32.0650   45.1850    7.4430 C   0  0  0  0  0
   32.7520   47.0220    5.4660 C   0  0  0  0  0
   32.3590   47.4720    6.7280 C   0  0  0  0  0
   32.0130   46.5520    7.7120 C   0  0  0  0  0
   31.6340   46.9780    8.9320 F   0  0  0  0  0
   28.4620   41.9590    0.9160 C   0  0  0  0  0
   29.7250   41.5140    1.3090 C   0  0  0  0  0
   30.6940   42.4420    1.6930 C   0  0  0  0  0
   30.0580   40.0520    1.3360 C   0  0  0  0  0
   29.6430   39.2960    0.4740 O   0  0  0  0  0
   30.8090   39.6210    2.3450 N   0  0  0  0  0
   31.4980   38.3480    2.3120 C   0  0  0  0  0
   32.9660   38.4960    2.7200 C   0  0  0  0  0
   33.7130   39.5920    1.9740 C   0  0  0  0  0
   33.4940   39.8480    0.6160 C   0  0  0  0  0
   34.1970   40.8670   -0.0380 C   0  0  0  0  0
   35.1280   41.6340    0.6590 C   0  0  0  0  0
   35.3500   41.3900    2.0140 C   0  0  0  0  0
   34.6450   40.3650    2.6640 C   0  0  0  0  0
   30.8160   37.4040    3.2960 C   0  0  0  0  0
   29.4180   37.2110    2.9330 N   0  3  0  0  0
   28.9300   35.8400    2.8050 C   0  0  0  0  0
   27.4130   35.8410    2.6540 C   0  0  0  0  0
   29.5730   35.1370    1.6370 C   0  0  0  0  0
   29.6580   35.7180    0.5620 O   0  0  0  0  0
   30.0330   33.8960    1.8120 N   0  0  0  0  0
   30.5110   33.1110    0.6710 C   0  0  0  0  0
   31.2770   31.8400    1.0420 C   0  0  0  0  0
   30.4680   30.9060    1.9350 C   0  0  0  0  0
   31.7490   31.0980   -0.2040 C   0  0  0  0  0
   25.9243   47.1831    0.7143 H   0  0  0  0  0
   27.5066   46.5267    0.2278 H   0  0  0  0  0
   26.0619   46.1895   -0.7571 H   0  0  0  0  0
   26.8215   43.0847   -1.4711 H   0  0  0  0  0
   26.0892   41.9825   -0.2795 H   0  0  0  0  0
   25.2332   43.4674   -0.7626 H   0  0  0  0  0
   28.9234   45.3168    1.2930 H   0  0  0  0  0
   32.0423   43.4586    3.5699 H   0  0  0  0  0
   33.3886   46.1060    3.2371 H   0  0  0  0  0
   34.4200   43.5126    4.4460 H   0  0  0  0  0
   34.8716   44.1889    2.8618 H   0  0  0  0  0
   35.3197   45.0467    4.3566 H   0  0  0  0  0
   32.5063   43.6666    5.9752 H   0  0  0  0  0
   31.7943   44.4666    8.2168 H   0  0  0  0  0
   33.0166   47.7436    4.6931 H   0  0  0  0  0
   32.3235   48.5404    6.9412 H   0  0  0  0  0
   27.7040   41.2375    0.6112 H   0  0  0  0  0
   31.6827   42.0955    1.9940 H   0  0  0  0  0
   30.9032   40.2090    3.1731 H   0  0  0  0  0
   31.4590   37.9596    1.2943 H   0  0  0  0  0
   33.4612   37.5533    2.4872 H   0  0  0  0  0
   32.9810   38.7590    3.7777 H   0  0  0  0  0
   32.7703   39.2494    0.0628 H   0  0  0  0  0
   34.0154   41.0607   -1.0952 H   0  0  0  0  0
   35.6808   42.4218    0.1472 H   0  0  0  0  0
   36.0694   41.9939    2.5671 H   0  0  0  0  0
   34.8286   40.1713    3.7208 H   0  0  0  0  0
   30.8658   37.8374    4.2949 H   0  0  0  0  0
   31.3243   36.4401    3.2721 H   0  0  0  0  0
   29.3185   37.6229    2.0052 H   0  0  0  0  0
   28.8797   37.6212    3.6961 H   0  0  0  0  0
   29.1998   35.2959    3.7101 H   0  0  0  0  0
   26.9621   36.3032    3.5321 H   0  0  0  0  0
   27.1382   36.4057    1.7631 H   0  0  0  0  0
   27.0579   34.8148    2.5592 H   0  0  0  0  0
   30.0518   33.4909    2.7479 H   0  0  0  0  0
   31.2021   33.7465    0.1172 H   0  0  0  0  0
   29.6297   32.7972    0.1116 H   0  0  0  0  0
   32.1472   32.1634    1.6131 H   0  0  0  0  0
   30.2092   31.4228    2.8592 H   0  0  0  0  0
   29.5567   30.6083    1.4162 H   0  0  0  0  0
   31.0617   30.0215    2.1658 H   0  0  0  0  0
   30.8858   30.8207   -0.8090 H   0  0  0  0  0
   32.4074   31.7453   -0.7832 H   0  0  0  0  0
   32.2899   30.1995    0.0928 H   0  0  0  0  0
  1  2  2  0  0  0
  2  3  2  0  0  0
  2  4  1  0  0  0
  2  5  1  0  0  0
  5  6  1  0  0  0
  5  7  1  0  0  0
  7  8  4  0  0  0
  7 22  4  0  0  0
  8  9  4  0  0  0
  9 10  1  0  0  0
  9 24  4  0  0  0
 10 11  2  0  0  0
 10 12  1  0  0  0
 12 13  1  0  0  0
 13 14  1  0  0  0
 13 15  1  0  0  0
 15 16  4  0  0  0
 15 18  4  0  0  0
 16 17  4  0  0  0
 17 20  4  0  0  0
 18 19  4  0  0  0
 19 20  4  0  0  0
 20 21  1  0  0  0
 22 23  4  0  0  0
 23 24  4  0  0  0
 23 25  1  0  0  0
 25 26  2  0  0  0
 25 27  1  0  0  0
 27 28  1  0  0  0
 28 29  1  0  0  0
 28 36  1  0  0  0
 29 30  1  0  0  0
 30 31  4  0  0  0
 30 35  4  0  0  0
 31 32  4  0  0  0
 32 33  4  0  0  0
 33 34  4  0  0  0
 34 35  4  0  0  0
 36 37  1  0  0  0
 37 38  1  0  0  0
 38 39  1  0  0  0
 38 40  1  0  0  0
 40 41  2  0  0  0
 40 42  1  0  0  0
 42 43  1  0  0  0
 43 44  1  0  0  0
 44 45  1  0  0  0
 44 46  1  0  0  0
  4 47  1  0  0  0
  4 48  1  0  0  0
  4 49  1  0  0  0
  6 50  1  0  0  0
  6 51  1  0  0  0
  6 52  1  0  0  0
  8 53  1  0  0  0
 12 54  1  0  0  0
 13 55  1  0  0  0
 14 56  1  0  0  0
 14 57  1  0  0  0
 14 58  1  0  0  0
 16 59  1  0  0  0
 17 60  1  0  0  0
 18 61  1  0  0  0
 19 62  1  0  0  0
 22 63  1  0  0  0
 24 64  1  0  0  0
 27 65  1  0  0  0
 28 66  1  0  0  0
 29 67  1  0  0  0
 29 68  1  0  0  0
 31 69  1  0  0  0
 32 70  1  0  0  0
 33 71  1  0  0  0
 34 72  1  0  0  0
 35 73  1  0  0  0
 36 74  1  0  0  0
 36 75  1  0  0  0
 37 76  1  0  0  0
 37 77  1  0  0  0
 38 78  1  0  0  0
 39 79  1  0  0  0
 39 80  1  0  0  0
 39 81  1  0  0  0
 42 82  1  0  0  0
 43 83  1  0  0  0
 43 84  1  0  0  0
 44 85  1  0  0  0
 45 86  1  0  0  0
 45 87  1  0  0  0
 45 88  1  0  0  0
 46 89  1  0  0  0
 46 90  1  0  0  0
 46 91  1  0  0  0
M  END
$$$$
