3o0j_ligand
  -I-interpret- 

 30 32  0  0  0  0  0  0  0  0999 V2000
  -43.7030   94.8530  111.8000 C   0  0  0  0  0
  -43.9560   94.1650  112.9850 C   0  0  0  0  0
  -42.4920   94.7060  111.1380 C   0  0  0  0  0
  -42.9780   93.3210  113.5050 C   0  0  0  0  0
  -41.5320   93.8660  111.6610 C   0  0  0  0  0
  -41.7750   93.1690  112.8340 C   0  0  0  0  0
  -45.1700   94.3460  113.6090 O   0  0  0  0  0
  -46.6980   92.2730  116.8170 C   0  0  0  0  0
  -47.1280   91.9700  115.5680 C   0  0  0  0  0
  -45.7630   93.2710  117.0310 C   0  0  0  0  0
  -46.6460   92.6440  114.4590 C   0  0  0  0  0
  -45.2630   93.9610  115.9370 C   0  0  0  0  0
  -45.7010   93.6510  114.6560 C   0  0  0  0  0
  -48.1360   90.8680  115.6240 C   0  0  0  0  0
  -48.3510   90.6780  117.0470 O   0  0  0  0  0
  -47.3620   91.3970  117.8230 B   0  0  0  0  0
  -46.3930   90.5160  118.4070 O   0  0  0  0  0
  -40.2840   93.6960  110.9930 C   0  0  0  0  0
  -40.7470   92.3170  113.3460 C   0  0  0  0  0
  -39.2670   93.5640  110.4700 N   0  0  0  0  0
  -39.9100   91.6200  113.7330 N   0  0  0  0  0
  -44.4651   95.5145  111.3880 H   0  0  0  0  0
  -42.3016   95.2499  110.2128 H   0  0  0  0  0
  -43.1578   92.7824  114.4354 H   0  0  0  0  0
  -45.4263   93.5099  118.0398 H   0  0  0  0  0
  -46.9960   92.3942  113.4574 H   0  0  0  0  0
  -44.5241   94.7489  116.0829 H   0  0  0  0  0
  -47.7910   89.9604  115.1286 H   0  0  0  0  0
  -49.0547   91.1145  115.0918 H   0  0  0  0  0
  -45.7578   91.0298  118.9112 H   0  0  0  0  0
  2  1  4  0  0  0
  1  3  4  0  0  0
  2  4  4  0  0  0
  7  2  1  0  0  0
  3  5  4  0  0  0
  4  6  4  0  0  0
  6  5  4  0  0  0
  5 18  1  0  0  0
  6 19  1  0  0  0
 13  7  1  0  0  0
  9  8  4  0  0  0
  8 10  4  0  0  0
  8 16  1  0  0  0
 11  9  4  0  0  0
  9 14  1  0  0  0
 10 12  4  0  0  0
 11 13  4  0  0  0
 12 13  4  0  0  0
 14 15  1  0  0  0
 15 16  1  0  0  0
 16 17  1  0  0  0
 18 20  3  0  0  0
 19 21  3  0  0  0
  1 22  1  0  0  0
  3 23  1  0  0  0
  4 24  1  0  0  0
 10 25  1  0  0  0
 11 26  1  0  0  0
 12 27  1  0  0  0
 14 28  1  0  0  0
 14 29  1  0  0  0
 17 30  1  0  0  0
M  END
$$$$
