### 
### Created by X-TOOL on Mon Sep 10 21:13:06 2018
### 

@<TRIPOS>MOLECULE
3o0j_ligand
   30    32     1     0     0
SMALL
GAST_HUCK


@<TRIPOS>ATOM
      1 C1        -43.7030   94.8530  111.8000 C.ar      1 3OJ        -0.0499
      2 C2        -43.9560   94.1650  112.9850 C.ar      1 3OJ         0.0908
      3 C3        -42.4920   94.7060  111.1380 C.ar      1 3OJ        -0.0752
      4 C4        -42.9780   93.3210  113.5050 C.ar      1 3OJ        -0.0445
      5 C5        -41.5320   93.8660  111.6610 C.ar      1 3OJ         0.0192
      6 C6        -41.7750   93.1690  112.8340 C.ar      1 3OJ         0.0117
      7 O7        -45.1700   94.3460  113.6090 O.3       1 3OJ        -0.2717
      8 C8        -46.6980   92.2730  116.8170 C.ar      1 3OJ        -0.0386
      9 C9        -47.1280   91.9700  115.5680 C.ar      1 3OJ        -0.0624
     10 C10       -45.7630   93.2710  117.0310 C.ar      1 3OJ        -0.0716
     11 C11       -46.6460   92.6440  114.4590 C.ar      1 3OJ        -0.0296
     12 C12       -45.2630   93.9610  115.9370 C.ar      1 3OJ        -0.0361
     13 C13       -45.7010   93.6510  114.6560 C.ar      1 3OJ         0.1055
     14 C14       -48.1360   90.8680  115.6240 C.3       1 3OJ        -0.1050
     15 O15       -48.3510   90.6780  117.0470 O.3       1 3OJ        -0.8446
     16 B16       -47.3620   91.3970  117.8230 B         1 3OJ         1.0000
     17 O17       -46.3930   90.5160  118.4070 O.3       1 3OJ        -0.8710
     18 C18       -40.2840   93.6960  110.9930 C.1       1 3OJ        -0.0205
     19 C19       -40.7470   92.3170  113.3460 C.1       1 3OJ        -0.0369
     20 N20       -39.2670   93.5640  110.4700 N.1       1 3OJ        -0.4367
     21 N21       -39.9100   91.6200  113.7330 N.1       1 3OJ        -0.4517
     22 H         -44.4651   95.5145  111.3880 H         1 3OJ         0.0398
     23 H         -42.3016   95.2499  110.2128 H         1 3OJ         0.0584
     24 H         -43.1578   92.7824  114.4354 H         1 3OJ         0.0464
     25 H         -45.4263   93.5099  118.0398 H         1 3OJ         0.0575
     26 H         -46.9960   92.3942  113.4574 H         1 3OJ         0.0483
     27 H         -44.5241   94.7489  116.0829 H         1 3OJ         0.0492
     28 H         -47.7910   89.9604  115.1286 H         1 3OJ         0.0240
     29 H         -49.0547   91.1145  115.0918 H         1 3OJ         0.0240
     30 H         -45.9379   90.0362  117.7110 H         1 3OJ        -0.1290
@<TRIPOS>BOND
     1    2    1 ar 
     2    1    3 ar 
     3    2    4 ar 
     4    7    2 1  
     5    3    5 ar 
     6    4    6 ar 
     7    6    5 ar 
     8    5   18 1  
     9    6   19 1  
    10   13    7 1  
    11    9    8 ar 
    12    8   10 ar 
    13    8   16 1  
    14   11    9 ar 
    15    9   14 1  
    16   10   12 ar 
    17   11   13 ar 
    18   12   13 ar 
    19   14   15 1  
    20   15   16 1  
    21   16   17 1  
    22   18   20 3  
    23   19   21 3  
    24    1   22 1  
    25    3   23 1  
    26    4   24 1  
    27   10   25 1  
    28   11   26 1  
    29   12   27 1  
    30   14   28 1  
    31   14   29 1  
    32   17   30 1  
@<TRIPOS>SUBSTRUCTURE
     1 3OJ         1

