2z4y_ligand
  -I-interpret- 

 40 39  0  0  0  0  0  0  0  0999 V2000
   26.0890   44.9480   15.5900 C   0  0  0  0  0
   26.8190   44.4810   14.3290 C   0  0  0  0  0
   26.7320   45.5600   13.2470 C   0  0  0  0  0
   27.5110   45.1530   11.9970 C   0  0  0  0  0
   27.4020   46.2360   10.9250 C   0  0  0  0  0
   28.2610   45.8480    9.7230 C   0  0  0  0  0
   28.0000   46.7440    8.5080 C   0  0  0  0  0
   28.6690   46.0820    7.3080 C   0  0  0  0  0
   28.3200   46.6540    5.9290 C   0  0  0  0  0
   28.7030   45.2520    4.7680 P   0  0  0  0  0
   30.2090   44.8190    5.1400 O   0  0  0  0  0
   27.7060   44.0880    5.2620 O   0  0  0  0  0
   28.5090   45.6350    3.3510 O   0  0  0  0  0
   26.5280   47.1190    5.7010 P   0  0  0  0  0
   26.2410   48.4200    6.6070 O   0  0  0  0  0
   26.4430   47.6270    4.1740 O   0  0  0  0  0
   25.5640   46.0320    5.9860 O   0  0  0  0  0
   29.1270   47.7980    5.6290 O   0  0  0  0  0
   26.5509   45.8644   15.9573 H   0  0  0  0  0
   25.0420   45.1370   15.3532 H   0  0  0  0  0
   26.1559   44.1741   16.3547 H   0  0  0  0  0
   26.3539   43.5659   13.9624 H   0  0  0  0  0
   27.8661   44.2950   14.5678 H   0  0  0  0  0
   27.1611   46.4819   13.6396 H   0  0  0  0  0
   25.6853   45.6969   12.9755 H   0  0  0  0  0
   27.0953   44.2241   11.6066 H   0  0  0  0  0
   28.5601   45.0189   12.2606 H   0  0  0  0  0
   27.7508   47.1858   11.3303 H   0  0  0  0  0
   26.3625   46.3357   10.6126 H   0  0  0  0  0
   28.0128   44.8232    9.4468 H   0  0  0  0  0
   29.3078   45.9585   10.0059 H   0  0  0  0  0
   28.4067   47.7418    8.6723 H   0  0  0  0  0
   26.9294   46.8568    8.3370 H   0  0  0  0  0
   28.3239   45.0481    7.3022 H   0  0  0  0  0
   29.7404   46.2361    7.4365 H   0  0  0  0  0
   30.2534   44.5865    6.0704 H   0  0  0  0  0
   27.8823   43.8872    6.1841 H   0  0  0  0  0
   26.8824   49.1027    6.3969 H   0  0  0  0  0
   27.0830   48.3290    4.0354 H   0  0  0  0  0
   30.0534   47.5733    5.7422 H   0  0  0  0  0
  1  2  1  0  0  0
  2  3  1  0  0  0
  3  4  1  0  0  0
  4  5  1  0  0  0
  5  6  1  0  0  0
  6  7  1  0  0  0
  7  8  1  0  0  0
  8  9  1  0  0  0
  9 10  1  0  0  0
  9 14  1  0  0  0
  9 18  1  0  0  0
 10 11  1  0  0  0
 10 12  1  0  0  0
 10 13  2  0  0  0
 14 15  1  0  0  0
 14 16  1  0  0  0
 14 17  2  0  0  0
  1 19  1  0  0  0
  1 20  1  0  0  0
  1 21  1  0  0  0
  2 22  1  0  0  0
  2 23  1  0  0  0
  3 24  1  0  0  0
  3 25  1  0  0  0
  4 26  1  0  0  0
  4 27  1  0  0  0
  5 28  1  0  0  0
  5 29  1  0  0  0
  6 30  1  0  0  0
  6 31  1  0  0  0
  7 32  1  0  0  0
  7 33  1  0  0  0
  8 34  1  0  0  0
  8 35  1  0  0  0
 11 36  1  0  0  0
 12 37  1  0  0  0
 15 38  1  0  0  0
 16 39  1  0  0  0
 18 40  1  0  0  0
M  END
$$$$
