### 
### Created by X-TOOL on Mon Sep 10 21:12:57 2018
### 

@<TRIPOS>MOLECULE
2z4y_ligand
   36    35     1     0     0
SMALL
GAST_HUCK


@<TRIPOS>ATOM
      1 CAA        26.0890   44.9480   15.5900 C.3       1 252        -0.0653
      2 CAI        26.8190   44.4810   14.3290 C.3       1 252        -0.0559
      3 CAJ        26.7320   45.5600   13.2470 C.3       1 252        -0.0533
      4 CAK        27.5110   45.1530   11.9970 C.3       1 252        -0.0531
      5 CAL        27.4020   46.2360   10.9250 C.3       1 252        -0.0531
      6 CAM        28.2610   45.8480    9.7230 C.3       1 252        -0.0529
      7 CAN        28.0000   46.7440    8.5080 C.3       1 252        -0.0477
      8 CAO        28.6690   46.0820    7.3080 C.3       1 252         0.0077
      9 CAP        28.3200   46.6540    5.9290 C.3       1 252         0.2047
     10 P1P        28.7030   45.2520    4.7680 P.3       1 252         0.1098
     11 OAE        30.2090   44.8190    5.1400 O.co2     1 252        -0.5594
     12 OAF        27.7060   44.0880    5.2620 O.co2     1 252        -0.5594
     13 OAB        28.5090   45.6350    3.3510 O.co2     1 252        -0.5594
     14 P1R        26.5280   47.1190    5.7010 P.3       1 252         0.1098
     15 OAG        26.2410   48.4200    6.6070 O.co2     1 252        -0.5594
     16 OAH        26.4430   47.6270    4.1740 O.co2     1 252        -0.5594
     17 OAC        25.5640   46.0320    5.9860 O.co2     1 252        -0.5594
     18 OAD        29.1270   47.7980    5.6290 O.3       1 252        -0.3594
     19 H1         26.1559   44.1678   16.3625 H         1 252         0.0230
     20 H2         25.0321   45.1390   15.3524 H         1 252         0.0230
     21 H3         26.5542   45.8728   15.9618 H         1 252         0.0230
     22 H4         26.3532   43.5556   13.9595 H         1 252         0.0263
     23 H5         27.8753   44.2894   14.5689 H         1 252         0.0263
     24 H6         27.1505   46.4979   13.6410 H         1 252         0.0265
     25 H7         25.6766   45.7139   12.9778 H         1 252         0.0265
     26 H8         27.0996   44.2116   11.6041 H         1 252         0.0265
     27 H9         28.5693   45.0091   12.2603 H         1 252         0.0265
     28 H10        27.7547   47.1942   11.3341 H         1 252         0.0265
     29 H11        26.3530   46.3359   10.6095 H         1 252         0.0265
     30 H12        28.0364   44.8066    9.4492 H         1 252         0.0265
     31 H13        29.3212   45.9329   10.0038 H         1 252         0.0265
     32 H14        28.4304   47.7422    8.6763 H         1 252         0.0267
     33 H15        26.9179   46.8360    8.3330 H         1 252         0.0267
     34 H16        28.3846   45.0194    7.3108 H         1 252         0.0322
     35 H17        29.7573   46.1707    7.4409 H         1 252         0.0322
     36 H18        30.0447   47.5687    5.7173 H         1 252         0.2133
@<TRIPOS>BOND
     1    1    2 1  
     2    2    3 1  
     3    3    4 1  
     4    4    5 1  
     5    5    6 1  
     6    6    7 1  
     7    7    8 1  
     8    8    9 1  
     9    9   10 1  
    10    9   14 1  
    11    9   18 1  
    12   10   11 ar 
    13   10   12 ar 
    14   10   13 ar 
    15   14   15 ar 
    16   14   16 ar 
    17   14   17 ar 
    18    1   19 1  
    19    1   20 1  
    20    1   21 1  
    21    2   22 1  
    22    2   23 1  
    23    3   24 1  
    24    3   25 1  
    25    4   26 1  
    26    4   27 1  
    27    5   28 1  
    28    5   29 1  
    29    6   30 1  
    30    6   31 1  
    31    7   32 1  
    32    7   33 1  
    33    8   34 1  
    34    8   35 1  
    35   18   36 1  
@<TRIPOS>SUBSTRUCTURE
     1 252         1

