5ea4_ligand
  -I-interpret- 

 60 64  0  0  0  0  0  0  0  0999 V2000
   19.9050   19.7670   18.3790 C   0  0  0  0  0
   19.2820   14.7200   18.1510 C   0  0  0  0  0
   17.9550   14.5420   17.4270 C   0  0  0  0  0
   20.7350   15.4860   20.9640 C   0  0  0  0  0
   21.1150   18.4290   21.1530 C   0  0  0  0  0
   16.2070   18.2800   19.1480 C   0  0  0  0  0
   15.5270   22.1100   22.2840 C   0  0  0  0  0
   19.4050   17.3020   17.8730 C   0  0  0  0  0
   19.9210   18.3670   18.7000 N   0  0  0  0  0
   19.6230   16.0550   18.5760 N   0  0  0  0  0
   19.0010   20.4270   19.4210 C   0  0  0  0  0
   19.3960   21.2270   20.4610 N   0  0  0  0  0
   20.4490   17.7900   19.9170 C   0  0  0  0  0
   20.2660   16.3640   19.8400 C   0  0  0  0  0
   17.6260   20.2920   19.4630 N   0  0  0  0  0
   18.2810   21.5990   21.1500 C   0  0  0  0  0
   17.1770   21.0130   20.5290 C   0  0  0  0  0
   14.2720   16.3750   18.9290 S   0  0  0  0  0
   19.2670   14.4210   16.6590 C   0  0  0  0  0
   18.0860   22.5010   22.4110 C   0  0  0  0  0
   18.8840   17.4580   16.7790 O   0  0  0  0  0
   15.7250   21.2500   21.0690 C   0  0  0  0  0
   13.7130   16.6980   20.2200 O   0  0  0  0  0
   15.2300   15.3490   19.2600 O   0  0  0  0  0
   21.5780   17.5740   22.2640 N   0  3  0  0  0
   16.7040   22.7280   22.9440 C   0  0  0  0  0
   16.8300   19.5340   18.5190 C   0  0  0  0  0
   15.0770   17.8010   18.2110 C   0  0  0  0  0
   13.0180   15.7880   17.7960 C   0  0  0  0  0
   16.4710   23.8240   24.4900 Br  0  0  0  0  0
   21.3950   16.1070   22.1900 C   0  0  0  0  0
   19.5327   19.9365   17.3687 H   0  0  0  0  0
   20.9095   20.1894   18.4030 H   0  0  0  0  0
   19.7627   14.2637   19.0163 H   0  0  0  0  0
   16.9977   15.0551   17.3354 H   0  0  0  0  0
   17.0243   13.9879   17.5490 H   0  0  0  0  0
   21.5135   14.8659   20.5195 H   0  0  0  0  0
   19.8251   15.0247   21.3480 H   0  0  0  0  0
   20.3351   19.0505   21.5931 H   0  0  0  0  0
   22.0236   18.8903   20.7661 H   0  0  0  0  0
   15.8101   18.5076   20.1373 H   0  0  0  0  0
   16.9591   17.5001   19.2667 H   0  0  0  0  0
   14.5252   22.2793   22.6787 H   0  0  0  0  0
   19.7438   13.7369   15.9570 H   0  0  0  0  0
   19.7172   14.8045   15.7434 H   0  0  0  0  0
   18.4310   23.4880   22.1030 H   0  0  0  0  0
   18.6102   21.9780   23.2109 H   0  0  0  0  0
   15.2112   21.7785   20.2660 H   0  0  0  0  0
   15.3726   20.2621   21.3657 H   0  0  0  0  0
   21.0127   17.8628   23.0624 H   0  0  0  0  0
   22.5893   17.7054   22.2842 H   0  0  0  0  0
   16.0190   20.1746   18.1727 H   0  0  0  0  0
   17.4846   19.2136   17.7085 H   0  0  0  0  0
   15.4979   17.5314   17.2424 H   0  0  0  0  0
   14.3492   18.6018   18.0805 H   0  0  0  0  0
   12.5526   14.8908   18.2042 H   0  0  0  0  0
   12.2620   16.5614   17.6604 H   0  0  0  0  0
   13.4781   15.5554   16.8356 H   0  0  0  0  0
   22.4079   15.7043   22.1893 H   0  0  0  0  0
   20.7192   15.8734   23.0127 H   0  0  0  0  0
  1  9  1  0  0  0
 11  1  1  0  0  0
  2  3  1  0  0  0
 10  2  1  0  0  0
  2 19  1  0  0  0
 19  3  1  0  0  0
 14  4  1  0  0  0
  4 31  1  0  0  0
 13  5  1  0  0  0
  5 25  1  0  0  0
  6 27  1  0  0  0
 28  6  1  0  0  0
 22  7  1  0  0  0
  7 26  2  0  0  0
  9  8  1  0  0  0
  8 10  1  0  0  0
  8 21  2  0  0  0
  9 13  1  0  0  0
 14 10  1  0  0  0
 11 12  4  0  0  0
 15 11  4  0  0  0
 16 12  4  0  0  0
 13 14  2  0  0  0
 15 17  4  0  0  0
 27 15  1  0  0  0
 17 16  4  0  0  0
 16 20  1  0  0  0
 17 22  1  0  0  0
 18 23  2  0  0  0
 18 24  2  0  0  0
 18 28  1  0  0  0
 18 29  1  0  0  0
 20 26  1  0  0  0
 25 31  1  0  0  0
 26 30  1  0  0  0
  1 32  1  0  0  0
  1 33  1  0  0  0
  2 34  1  0  0  0
  3 35  1  0  0  0
  3 36  1  0  0  0
  4 37  1  0  0  0
  4 38  1  0  0  0
  5 39  1  0  0  0
  5 40  1  0  0  0
  6 41  1  0  0  0
  6 42  1  0  0  0
  7 43  1  0  0  0
 19 44  1  0  0  0
 19 45  1  0  0  0
 20 46  1  0  0  0
 20 47  1  0  0  0
 22 48  1  0  0  0
 22 49  1  0  0  0
 25 50  1  0  0  0
 25 51  1  0  0  0
 27 52  1  0  0  0
 27 53  1  0  0  0
 28 54  1  0  0  0
 28 55  1  0  0  0
 29 56  1  0  0  0
 29 57  1  0  0  0
 29 58  1  0  0  0
 31 59  1  0  0  0
 31 60  1  0  0  0
M  END
$$$$
