5dbm_ligand
  -I-interpret- 

 44 46  0  0  0  0  0  0  0  0999 V2000
    6.5070   52.2960   49.2220 C   0  0  0  0  0
    6.7440   53.2690   48.0420 C   0  0  0  0  0
    6.0490   52.6640   46.8250 C   0  0  0  0  0
    8.1850   53.3810   47.8110 C   0  0  0  0  0
    6.1300   54.6140   48.3470 N   0  0  0  0  0
    5.3580   55.0030   49.3780 C   0  0  0  0  0
    6.1950   55.5960   47.3950 N   0  0  0  0  0
    5.4670   56.6490   47.8780 C   0  0  0  0  0
    4.9810   56.3140   49.1170 C   0  0  0  0  0
    4.1580   57.0270   49.9200 C   0  0  0  0  0
    4.2460   58.4270   50.1800 C   0  0  0  0  0
    5.3050   59.1040   49.5680 N   0  0  0  0  0
    5.1550   60.2880   48.6930 C   0  0  0  0  0
    6.3970   61.1000   48.7930 C   0  0  0  0  0
    3.8780   61.0300   48.9470 C   0  0  0  0  0
    3.8420   61.3580   50.3600 C   0  0  0  0  0
    4.1040   62.5230   50.8150 O   0  0  0  0  0
    3.4370   60.4160   51.2700 N   0  0  0  0  0
    3.3080   59.0410   50.9620 C   0  0  0  0  0
    2.2770   58.3680   51.5940 C   0  0  0  0  0
    2.1500   56.9720   51.3460 C   0  0  0  0  0
    3.0960   56.3790   50.5380 C   0  0  0  0  0
    6.9646   52.7025   50.1239 H   0  0  0  0  0
    5.4356   52.1731   49.3803 H   0  0  0  0  0
    6.9545   51.3296   48.9899 H   0  0  0  0  0
    4.9870   52.5421   47.0380 H   0  0  0  0  0
    6.1754   53.3270   45.9691 H   0  0  0  0  0
    6.4900   51.6925   46.6020 H   0  0  0  0  0
    8.3656   54.0446   46.9654 H   0  0  0  0  0
    8.6640   53.7870   48.7019 H   0  0  0  0  0
    8.5947   52.3944   47.5943 H   0  0  0  0  0
    5.0825   54.4063   50.2476 H   0  0  0  0  0
    5.3008   57.5959   47.3644 H   0  0  0  0  0
    6.2491   58.7568   49.7367 H   0  0  0  0  0
    5.0489   59.9848   47.6514 H   0  0  0  0  0
    6.5424   61.4134   49.8268 H   0  0  0  0  0
    7.2484   60.5006   48.4706 H   0  0  0  0  0
    6.3073   61.9790   48.1547 H   0  0  0  0  0
    3.0188   60.4171   48.6746 H   0  0  0  0  0
    3.8354   61.9362   48.3427 H   0  0  0  0  0
    3.2174   60.7221   52.2179 H   0  0  0  0  0
    1.5868   58.8883   52.2580 H   0  0  0  0  0
    1.3343   56.3932   51.7793 H   0  0  0  0  0
    3.0026   55.3063   50.3689 H   0  0  0  0  0
  1  2  1  0  0  0
  2  3  1  0  0  0
  2  4  1  0  0  0
  2  5  1  0  0  0
  5  6  4  0  0  0
  5  7  4  0  0  0
  6  9  4  0  0  0
  7  8  4  0  0  0
  8  9  4  0  0  0
  9 10  1  0  0  0
 10 11  4  0  0  0
 10 22  4  0  0  0
 11 12  1  0  0  0
 11 19  4  0  0  0
 12 13  1  0  0  0
 13 14  1  0  0  0
 13 15  1  0  0  0
 15 16  1  0  0  0
 16 17  2  0  0  0
 16 18  1  0  0  0
 18 19  1  0  0  0
 19 20  4  0  0  0
 20 21  4  0  0  0
 21 22  4  0  0  0
  1 23  1  0  0  0
  1 24  1  0  0  0
  1 25  1  0  0  0
  3 26  1  0  0  0
  3 27  1  0  0  0
  3 28  1  0  0  0
  4 29  1  0  0  0
  4 30  1  0  0  0
  4 31  1  0  0  0
  6 32  1  0  0  0
  8 33  1  0  0  0
 12 34  1  0  0  0
 13 35  1  0  0  0
 14 36  1  0  0  0
 14 37  1  0  0  0
 14 38  1  0  0  0
 15 39  1  0  0  0
 15 40  1  0  0  0
 18 41  1  0  0  0
 20 42  1  0  0  0
 21 43  1  0  0  0
 22 44  1  0  0  0
M  END
$$$$
