1ka7_ligand
  -I-interpret- 

215215  0  0  0  0  0  0  0  0999 V2000
   16.7400   12.4160    5.4490 N   0  3  0  0  0
   17.8870   11.4760    5.5300 C   0  0  0  0  0
   17.6770   10.4430    6.6330 C   0  0  0  0  0
   17.0270   10.7230    7.6410 O   0  0  0  0  0
   19.1600   12.2830    5.7960 C   0  0  0  0  0
   19.4910   13.2730    4.6920 C   0  0  0  0  0
   20.7320   14.0830    5.0260 C   0  0  0  0  0
   21.9600   13.3550    4.7180 N   0  0  0  0  0
   22.6070   13.4550    3.5600 C   0  0  0  0  0
   22.1460   14.2510    2.6040 N   0  0  0  0  0
   23.7170   12.7590    3.3580 N   0  0  0  0  0
   18.2300    9.2490    6.4330 N   0  0  0  0  0
   18.1050    8.1690    7.4060 C   0  0  0  0  0
   16.6390    7.8510    7.6850 C   0  0  0  0  0
   16.2960    7.3430    8.7540 O   0  0  0  0  0
   18.8170    8.5420    8.7090 C   0  0  0  0  0
   20.2970    8.1960    8.7150 C   0  0  0  0  0
   21.1610    9.4470    8.6690 C   0  0  0  0  0
   22.3770    9.3190    9.5730 C   0  0  0  0  0
   22.3640   10.3280   10.6670 N   0  3  0  0  0
   15.7780    8.1520    6.7170 N   0  0  0  0  0
   14.3490    7.8980    6.8550 C   0  0  0  0  0
   13.6640    7.9020    5.4930 C   0  0  0  0  0
   13.3910    8.9610    4.9270 O   0  0  0  0  0
   13.7060    8.9470    7.7640 C   0  0  0  0  0
   14.1760   10.2480    7.4550 O   0  0  0  0  0
   13.3880    6.7110    4.9710 N   0  0  0  0  0
   12.7360    6.5770    3.6740 C   0  0  0  0  0
   11.2860    6.1310    3.8390 C   0  0  0  0  0
   10.8500    5.1540    3.2290 O   0  0  0  0  0
   13.4960    5.5800    2.7930 C   0  0  0  0  0
   14.8160    5.0670    3.3740 C   0  0  0  0  0
   15.2040    3.7450    2.7290 C   0  0  0  0  0
   15.9190    6.0980    3.1850 C   0  0  0  0  0
   10.5420    6.8560    4.6720 N   0  0  0  0  0
    9.1400    6.5380    4.9210 C   0  0  0  0  0
    8.3570    7.7860    5.3220 C   0  0  0  0  0
    8.8270    8.5940    6.1230 O   0  0  0  0  0
    8.9920    5.4780    6.0270 C   0  0  0  0  0
   10.0930    4.5630    5.9820 O   0  0  0  0  0
    7.6860    4.7120    5.8720 C   0  0  0  0  0
    7.1620    7.9370    4.7580 N   0  0  0  0  0
    6.3150    9.0870    5.0560 C   0  0  0  0  0
    5.1280    8.6890    5.9270 C   0  0  0  0  0
    4.7090    9.4470    6.8010 O   0  0  0  0  0
    5.7920    9.7500    3.7640 C   0  0  0  0  0
    6.9570   10.1060    2.8330 C   0  0  0  0  0
    4.9700   10.9890    4.0960 C   0  0  0  0  0
    7.9230   11.1150    3.4180 C   0  0  0  0  0
    4.5910    7.4970    5.6790 N   0  0  0  0  0
    3.4490    6.9940    6.4390 C   0  0  0  0  0
    2.2570    7.9400    6.3240 C   0  0  0  0  0
    1.4090    7.9990    7.2160 O   0  0  0  0  0
    3.8260    6.8100    7.9100 C   0  0  0  0  0
    3.8750    5.3630    8.3480 C   0  0  0  0  0
    2.7520    4.7400    8.8810 C   0  0  0  0  0
    5.0430    4.6220    8.2320 C   0  0  0  0  0
    2.7950    3.4200    9.2850 C   0  0  0  0  0
    5.0930    3.3010    8.6330 C   0  0  0  0  0
    3.9660    2.7040    9.1590 C   0  0  0  0  0
    4.0110    1.3890    9.5600 O   0  0  0  0  0
    2.1980    8.6770    5.2200 N   0  0  0  0  0
    1.1110    9.6200    4.9870 C   0  0  0  0  0
   -0.1920    8.8920    4.6750 C   0  0  0  0  0
   -0.2810    7.6710    4.8120 O   0  0  0  0  0
    1.4680   10.5650    3.8510 C   0  0  0  0  0
   -1.1980    9.6500    4.2520 N   0  0  0  0  0
   -2.4970    9.0810    3.9160 C   0  0  0  0  0
   -2.8730    9.4030    2.4740 C   0  0  0  0  0
   -2.1660   10.1390    1.7860 O   0  0  0  0  0
   -3.5710    9.6090    4.8680 C   0  0  0  0  0
   -3.7790    8.7330    6.0930 C   0  0  0  0  0
   -4.0880    9.5380    7.3410 C   0  0  0  0  0
   -3.1820    9.9730    8.0540 O   0  0  0  0  0
   -5.3720    9.7380    7.6150 N   0  0  0  0  0
   -3.9930    8.8460    2.0230 N   0  0  0  0  0
   -4.4690    9.0710    0.6640 C   0  0  0  0  0
   -5.0390   10.4790    0.5100 C   0  0  0  0  0
   -6.0300   10.8310    1.1490 O   0  0  0  0  0
   -5.5480    8.0410    0.2740 C   0  0  0  0  0
   -6.0010    8.2510   -1.1630 C   0  0  0  0  0
   -5.0310    6.6240    0.4740 C   0  0  0  0  0
   -4.4020   11.2810   -0.3410 N   0  0  0  0  0
   -4.8420   12.6530   -0.5760 C   0  0  0  0  0
   -5.7640   12.7360   -1.7910 C   0  0  0  0  0
   -5.9530   13.8100   -2.3630 O   0  0  0  0  0
   -3.6340   13.5710   -0.7790 C   0  0  0  0  0
   -2.5610   13.4140    0.2860 C   0  0  0  0  0
   -1.1620   13.3700   -0.2980 C   0  0  0  0  0
   -0.9730   13.5340   -1.5040 O   0  0  0  0  0
   -0.1720   13.1470    0.5580 N   0  0  0  0  0
   -6.3340   11.6000   -2.1790 N   0  0  0  0  0
   -7.2350   11.5520   -3.3260 C   0  0  0  0  0
   -8.5190   10.8040   -2.9820 C   0  0  0  0  0
   -9.6060   11.3010   -3.3430 O   0  0  0  0  0
   -6.5440   10.8850   -4.5170 C   0  0  0  0  0
   -6.2950   11.8290   -5.6830 C   0  0  0  0  0
   -4.8170   11.9030   -6.0330 C   0  0  0  0  0
   -4.2820   13.3190   -5.8930 C   0  0  0  0  0
   -4.8180   14.2220   -6.9480 N   0  3  0  0  0
   -8.4260    9.7280   -2.3570 O   0  0  0  0  0
   15.8836   11.8910    5.2718 H   0  0  0  0  0
   16.6538   12.9220    6.3304 H   0  0  0  0  0
   16.8977   13.0782    4.6894 H   0  0  0  0  0
   17.9745   10.9354    4.5876 H   0  0  0  0  0
   19.9878   11.5770    5.8623 H   0  0  0  0  0
   19.0013   12.8535    6.7111 H   0  0  0  0  0
   18.6510   13.9583    4.5789 H   0  0  0  0  0
   19.6781   12.7168    3.7735 H   0  0  0  0  0
   20.7217   14.2971    6.0947 H   0  0  0  0  0
   20.7162   14.9934    4.4268 H   0  0  0  0  0
   22.3433   12.7347    5.4312 H   0  0  0  0  0
   22.6453   14.3257    1.7177 H   0  0  0  0  0
   21.2923   14.7883    2.7553 H   0  0  0  0  0
   24.0753   12.1465    4.0907 H   0  0  0  0  0
   18.7563    9.0843    5.5749 H   0  0  0  0  0
   18.5750    7.2801    6.9852 H   0  0  0  0  0
   18.3459    7.9755    9.5123 H   0  0  0  0  0
   18.7336    9.6222    8.8291 H   0  0  0  0  0
   20.5146    7.5930    7.8334 H   0  0  0  0  0
   20.5216    7.6544    9.6338 H   0  0  0  0  0
   20.5635   10.2917    9.0120 H   0  0  0  0  0
   21.5060    9.5905    7.6450 H   0  0  0  0  0
   23.2701    9.4808    8.9694 H   0  0  0  0  0
   22.3651    8.3265   10.0234 H   0  0  0  0  0
   23.1936   10.2082   11.2482 H   0  0  0  0  0
   22.3622   11.2649   10.2638 H   0  0  0  0  0
   21.5273   10.1999   11.2361 H   0  0  0  0  0
   16.1267    8.5717    5.8552 H   0  0  0  0  0
   14.2228    6.9131    7.3047 H   0  0  0  0  0
   13.9660    8.7189    8.7977 H   0  0  0  0  0
   12.6264    8.9221    7.6156 H   0  0  0  0  0
   13.7576   10.8852    8.0386 H   0  0  0  0  0
   13.6386    5.8700    5.4909 H   0  0  0  0  0
   12.7440    7.5531    3.1890 H   0  0  0  0  0
   13.7442    6.1049    1.8705 H   0  0  0  0  0
   12.8485    4.7112    2.6750 H   0  0  0  0  0
   14.6805    4.9015    4.4428 H   0  0  0  0  0
   14.4235    3.0077    2.9168 H   0  0  0  0  0
   15.3207    3.8868    1.6546 H   0  0  0  0  0
   16.1448    3.3966    3.1551 H   0  0  0  0  0
   16.0526    6.2944    2.1212 H   0  0  0  0  0
   15.6427    7.0213    3.6943 H   0  0  0  0  0
   16.8490    5.7143    3.6046 H   0  0  0  0  0
   10.9629    7.6539    5.1481 H   0  0  0  0  0
    8.7358    6.1400    3.9902 H   0  0  0  0  0
    8.9844    5.9901    6.9892 H   0  0  0  0  0
    9.9908    3.9068    6.6752 H   0  0  0  0  0
    6.8488    5.4069    5.9369 H   0  0  0  0  0
    7.6716    4.2132    4.9029 H   0  0  0  0  0
    7.6056    3.9692    6.6656 H   0  0  0  0  0
    6.8294    7.2313    4.1008 H   0  0  0  0  0
    6.9340    9.8017    5.5984 H   0  0  0  0  0
    5.1469    9.0394    3.2474 H   0  0  0  0  0
    6.5297   10.5496    1.9337 H   0  0  0  0  0
    7.5173    9.1892    2.6493 H   0  0  0  0  0
    4.1211   10.7044    4.7177 H   0  0  0  0  0
    5.5930   11.7032    4.6344 H   0  0  0  0  0
    4.6099   11.4427    3.1726 H   0  0  0  0  0
    7.3907   12.0403    3.6384 H   0  0  0  0  0
    8.3532   10.7144    4.3359 H   0  0  0  0  0
    8.7180   11.3140    2.6993 H   0  0  0  0  0
    4.9874    6.9187    4.9382 H   0  0  0  0  0
    3.1663    6.0283    6.0200 H   0  0  0  0  0
    3.0609    7.3059    8.5073 H   0  0  0  0  0
    4.8245    7.2257    8.0453 H   0  0  0  0  0
    1.8235    5.3020    8.9815 H   0  0  0  0  0
    5.9357    5.0903    7.8175 H   0  0  0  0  0
    1.9063    2.9463    9.7019 H   0  0  0  0  0
    6.0182    2.7332    8.5343 H   0  0  0  0  0
    4.8914    1.0386    9.4060 H   0  0  0  0  0
    2.9316    8.5805    4.5180 H   0  0  0  0  0
    0.9659   10.1989    5.8991 H   0  0  0  0  0
    2.3707   11.1181    4.1103 H   0  0  0  0  0
    1.6417    9.9891    2.9420 H   0  0  0  0  0
    0.6466   11.2630    3.6890 H   0  0  0  0  0
   -1.0575   10.6561    4.1601 H   0  0  0  0  0
   -2.4311    7.9982    4.0221 H   0  0  0  0  0
   -4.5123    9.6334    4.3189 H   0  0  0  0  0
   -3.2461   10.5891    5.2173 H   0  0  0  0  0
   -2.8564    8.1804    6.2705 H   0  0  0  0  0
   -4.6287    8.0791    5.8970 H   0  0  0  0  0
   -5.6399   10.2698    8.4431 H   0  0  0  0  0
   -6.0902    9.3598    6.9973 H   0  0  0  0  0
   -4.5337    8.2450    2.6450 H   0  0  0  0  0
   -3.6123    8.9565   -0.0001 H   0  0  0  0  0
   -6.4100    8.1865    0.9250 H   0  0  0  0  0
   -6.4164    9.2532   -1.2689 H   0  0  0  0  0
   -5.1479    8.1374   -1.8318 H   0  0  0  0  0
   -6.7622    7.5124   -1.4143 H   0  0  0  0  0
   -4.1508    6.4683   -0.1498 H   0  0  0  0  0
   -4.7658    6.4798    1.5214 H   0  0  0  0  0
   -5.8074    5.9123    0.1932 H   0  0  0  0  0
   -3.5862   10.9279   -0.8412 H   0  0  0  0  0
   -5.3993   12.9800    0.3018 H   0  0  0  0  0
   -3.9939   14.5987   -0.7298 H   0  0  0  0  0
   -3.1834   13.3096   -1.7365 H   0  0  0  0  0
   -2.7380   12.4716    0.8043 H   0  0  0  0  0
   -2.6199   14.2755    0.9512 H   0  0  0  0  0
    0.7911   13.1060    0.2245 H   0  0  0  0  0
   -0.3744   13.0167    1.5492 H   0  0  0  0  0
   -6.1373   10.7421   -1.6634 H   0  0  0  0  0
   -7.4955   12.5762   -3.5931 H   0  0  0  0  0
   -9.4414   12.1258   -3.8058 H   0  0  0  0  0
   -7.2006   10.0913   -4.8734 H   0  0  0  0  0
   -5.5736   10.5269   -4.1733 H   0  0  0  0  0
   -6.6333   12.8256   -5.3992 H   0  0  0  0  0
   -6.8376   11.4560   -6.5516 H   0  0  0  0  0
   -4.6910   11.5869   -7.0685 H   0  0  0  0  0
   -4.2672   11.2568   -5.3487 H   0  0  0  0  0
   -3.1969   13.2855   -5.9909 H   0  0  0  0  0
   -4.5910   13.7066   -4.9222 H   0  0  0  0  0
   -4.4358   15.1588   -6.8184 H   0  0  0  0  0
   -4.5491   13.8677   -7.8659 H   0  0  0  0  0
   -5.8352   14.2561   -6.8800 H   0  0  0  0  0
  1  2  1  0  0  0
  2  3  1  0  0  0
  2  5  1  0  0  0
  3  4  2  0  0  0
  3 12  1  0  0  0
  5  6  1  0  0  0
  6  7  1  0  0  0
  7  8  1  0  0  0
  8  9  1  0  0  0
  9 10  1  0  0  0
  9 11  2  0  0  0
 12 13  1  0  0  0
 13 14  1  0  0  0
 13 16  1  0  0  0
 14 15  2  0  0  0
 14 21  1  0  0  0
 16 17  1  0  0  0
 17 18  1  0  0  0
 18 19  1  0  0  0
 19 20  1  0  0  0
 21 22  1  0  0  0
 22 23  1  0  0  0
 22 25  1  0  0  0
 23 24  2  0  0  0
 23 27  1  0  0  0
 25 26  1  0  0  0
 27 28  1  0  0  0
 28 29  1  0  0  0
 28 31  1  0  0  0
 29 30  2  0  0  0
 29 35  1  0  0  0
 31 32  1  0  0  0
 32 33  1  0  0  0
 32 34  1  0  0  0
 35 36  1  0  0  0
 36 37  1  0  0  0
 36 39  1  0  0  0
 37 38  2  0  0  0
 37 42  1  0  0  0
 39 40  1  0  0  0
 39 41  1  0  0  0
 42 43  1  0  0  0
 43 44  1  0  0  0
 43 46  1  0  0  0
 44 45  2  0  0  0
 44 50  1  0  0  0
 46 47  1  0  0  0
 46 48  1  0  0  0
 47 49  1  0  0  0
 50 51  1  0  0  0
 51 52  1  0  0  0
 51 54  1  0  0  0
 52 53  2  0  0  0
 52 62  1  0  0  0
 54 55  1  0  0  0
 55 56  4  0  0  0
 55 57  4  0  0  0
 56 58  4  0  0  0
 57 59  4  0  0  0
 58 60  4  0  0  0
 59 60  4  0  0  0
 60 61  1  0  0  0
 62 63  1  0  0  0
 63 64  1  0  0  0
 63 66  1  0  0  0
 64 65  2  0  0  0
 64 67  1  0  0  0
 67 68  1  0  0  0
 68 69  1  0  0  0
 68 71  1  0  0  0
 69 70  2  0  0  0
 69 76  1  0  0  0
 71 72  1  0  0  0
 72 73  1  0  0  0
 73 74  2  0  0  0
 73 75  1  0  0  0
 76 77  1  0  0  0
 77 78  1  0  0  0
 77 80  1  0  0  0
 78 79  2  0  0  0
 78 83  1  0  0  0
 80 81  1  0  0  0
 80 82  1  0  0  0
 83 84  1  0  0  0
 84 85  1  0  0  0
 84 87  1  0  0  0
 85 86  2  0  0  0
 85 92  1  0  0  0
 87 88  1  0  0  0
 88 89  1  0  0  0
 89 90  2  0  0  0
 89 91  1  0  0  0
 92 93  1  0  0  0
 93 94  1  0  0  0
 93 96  1  0  0  0
 94 95  1  0  0  0
 94101  2  0  0  0
 96 97  1  0  0  0
 97 98  1  0  0  0
 98 99  1  0  0  0
 99100  1  0  0  0
  1102  1  0  0  0
  1103  1  0  0  0
  1104  1  0  0  0
  2105  1  0  0  0
  5106  1  0  0  0
  5107  1  0  0  0
  6108  1  0  0  0
  6109  1  0  0  0
  7110  1  0  0  0
  7111  1  0  0  0
  8112  1  0  0  0
 10113  1  0  0  0
 10114  1  0  0  0
 11115  1  0  0  0
 12116  1  0  0  0
 13117  1  0  0  0
 16118  1  0  0  0
 16119  1  0  0  0
 17120  1  0  0  0
 17121  1  0  0  0
 18122  1  0  0  0
 18123  1  0  0  0
 19124  1  0  0  0
 19125  1  0  0  0
 20126  1  0  0  0
 20127  1  0  0  0
 20128  1  0  0  0
 21129  1  0  0  0
 22130  1  0  0  0
 25131  1  0  0  0
 25132  1  0  0  0
 26133  1  0  0  0
 27134  1  0  0  0
 28135  1  0  0  0
 31136  1  0  0  0
 31137  1  0  0  0
 32138  1  0  0  0
 33139  1  0  0  0
 33140  1  0  0  0
 33141  1  0  0  0
 34142  1  0  0  0
 34143  1  0  0  0
 34144  1  0  0  0
 35145  1  0  0  0
 36146  1  0  0  0
 39147  1  0  0  0
 40148  1  0  0  0
 41149  1  0  0  0
 41150  1  0  0  0
 41151  1  0  0  0
 42152  1  0  0  0
 43153  1  0  0  0
 46154  1  0  0  0
 47155  1  0  0  0
 47156  1  0  0  0
 48157  1  0  0  0
 48158  1  0  0  0
 48159  1  0  0  0
 49160  1  0  0  0
 49161  1  0  0  0
 49162  1  0  0  0
 50163  1  0  0  0
 51164  1  0  0  0
 54165  1  0  0  0
 54166  1  0  0  0
 56167  1  0  0  0
 57168  1  0  0  0
 58169  1  0  0  0
 59170  1  0  0  0
 61171  1  0  0  0
 62172  1  0  0  0
 63173  1  0  0  0
 66174  1  0  0  0
 66175  1  0  0  0
 66176  1  0  0  0
 67177  1  0  0  0
 68178  1  0  0  0
 71179  1  0  0  0
 71180  1  0  0  0
 72181  1  0  0  0
 72182  1  0  0  0
 75183  1  0  0  0
 75184  1  0  0  0
 76185  1  0  0  0
 77186  1  0  0  0
 80187  1  0  0  0
 81188  1  0  0  0
 81189  1  0  0  0
 81190  1  0  0  0
 82191  1  0  0  0
 82192  1  0  0  0
 82193  1  0  0  0
 83194  1  0  0  0
 84195  1  0  0  0
 87196  1  0  0  0
 87197  1  0  0  0
 88198  1  0  0  0
 88199  1  0  0  0
 91200  1  0  0  0
 91201  1  0  0  0
 92202  1  0  0  0
 93203  1  0  0  0
 95204  1  0  0  0
 96205  1  0  0  0
 96206  1  0  0  0
 97207  1  0  0  0
 97208  1  0  0  0
 98209  1  0  0  0
 98210  1  0  0  0
 99211  1  0  0  0
 99212  1  0  0  0
100213  1  0  0  0
100214  1  0  0  0
100215  1  0  0  0
M  END
$$$$
