### 
### Created by X-TOOL on Mon Sep 10 21:12:48 2018
### 

@<TRIPOS>MOLECULE
1ka7_ligand
  215   215     1     0     0
SMALL
GAST_HUCK


@<TRIPOS>ATOM
      1 N          16.7400   12.4160    5.4490 N.4       1 ARG         0.2379
      2 CA         17.8870   11.4760    5.5300 C.3       1 ARG         0.0651
      3 C          17.6770   10.4430    6.6330 C.2       1 ARG         0.2267
      4 O          17.0270   10.7230    7.6410 O.2       1 ARG        -0.3907
      5 CB         19.1600   12.2830    5.7960 C.3       1 ARG         0.0110
      6 CG         19.4910   13.2730    4.6920 C.3       1 ARG        -0.0125
      7 CD         20.7320   14.0830    5.0260 C.3       1 ARG         0.0629
      8 NE         21.9600   13.3550    4.7180 N.pl3     1 ARG        -0.2723
      9 CZ         22.6070   13.4550    3.5600 C.cat     1 ARG         0.2882
     10 NH1        22.1460   14.2510    2.6040 N.pl3     1 ARG        -0.2849
     11 NH2        23.7170   12.7590    3.3580 N.pl3     1 ARG        -0.2849
     12 H1         16.9055   13.0855    4.7138 H         1 ARG         0.2015
     13 H2         16.6393   12.8998    6.3276 H         1 ARG         0.2015
     14 H3         15.8967   11.9008    5.2505 H         1 ARG         0.2015
     15 H4         17.9869   10.9496    4.5693 H         1 ARG         0.1098
     16 H5         20.0015   11.5822    5.8991 H         1 ARG         0.0347
     17 H6         19.0294   12.8399    6.7355 H         1 ARG         0.0347
     18 H7         18.6412   13.9588    4.5599 H         1 ARG         0.0302
     19 H8         19.6654   12.7208    3.7568 H         1 ARG         0.0302
     20 H9         20.7212   14.3229    6.0995 H         1 ARG         0.0689
     21 H10        20.7157   15.0149    4.4418 H         1 ARG         0.0689
     22 H11        22.3471   12.7286    5.4382 H         1 ARG         0.2642
     23 H12        22.6497   14.3258    1.7087 H         1 ARG         0.2615
     24 H13        21.2844   14.7942    2.7571 H         1 ARG         0.2615
     25 H14        24.0784   12.1398    4.0975 H         1 ARG         0.2615
     26 H15        24.2181   12.8374    2.4615 H         1 ARG         0.2615
     27 N          18.2300    9.2490    6.4330 N.am      1 LYS        -0.2610
     28 CA         18.1050    8.1690    7.4060 C.3       1 LYS         0.1311
     29 C          16.6390    7.8510    7.6850 C.2       1 LYS         0.2040
     30 O          16.2960    7.3430    8.7540 O.2       1 LYS        -0.3944
     31 CB         18.8170    8.5420    8.7090 C.3       1 LYS        -0.0122
     32 CG         20.2970    8.1960    8.7150 C.3       1 LYS        -0.0440
     33 CD         21.1610    9.4470    8.6690 C.3       1 LYS        -0.0124
     34 CE         22.3770    9.3190    9.5730 C.3       1 LYS        -0.0354
     35 NZ         22.3640   10.3280   10.6670 N.4       1 LYS         0.2185
     36 H16        18.7460    9.0875    5.5917 H         1 LYS         0.1884
     37 H17        18.5833    7.2700    6.9900 H         1 LYS         0.0800
     38 H18        18.3311    8.0048    9.5368 H         1 LYS         0.0312
     39 H19        18.7128    9.6260    8.8641 H         1 LYS         0.0312
     40 H20        20.5223    7.5733    7.8367 H         1 LYS         0.0269
     41 H21        20.5293    7.6345    9.6319 H         1 LYS         0.0269
     42 H22        20.5606   10.3081    8.9976 H         1 LYS         0.0317
     43 H23        21.4999    9.6093    7.6352 H         1 LYS         0.0317
     44 H24        23.2855    9.4608    8.9693 H         1 LYS         0.0813
     45 H25        22.3854    8.3128   10.0174 H         1 LYS         0.0813
     46 H26        23.1835   10.2106   11.2421 H         1 LYS         0.1994
     47 H27        21.5375   10.2024   11.2302 H         1 LYS         0.1994
     48 H28        22.3623   11.2544   10.2697 H         1 LYS         0.1994
     49 N          15.7780    8.1520    6.7170 N.am      1 SER        -0.2616
     50 CA         14.3490    7.8980    6.8550 C.3       1 SER         0.1539
     51 C          13.6640    7.9020    5.4930 C.2       1 SER         0.2062
     52 O          13.3910    8.9610    4.9270 O.2       1 SER        -0.3943
     53 CB         13.7060    8.9470    7.7640 C.3       1 SER         0.0843
     54 OG         14.1760   10.2480    7.4550 O.3       1 SER        -0.3903
     55 H29        16.1199    8.5635    5.8721 H         1 SER         0.1884
     56 H30        14.2140    6.9066    7.3120 H         1 SER         0.0823
     57 H31        13.9529    8.7152    8.8106 H         1 SER         0.0606
     58 H32        12.6146    8.9182    7.6297 H         1 SER         0.0606
     59 H33        15.1181   10.2795    7.5732 H         1 SER         0.2097
     60 N          13.3880    6.7110    4.9710 N.am      1 LEU        -0.2636
     61 CA         12.7360    6.5770    3.6740 C.3       1 LEU         0.1312
     62 C          11.2860    6.1310    3.8390 C.2       1 LEU         0.2040
     63 O          10.8500    5.1540    3.2290 O.2       1 LEU        -0.3944
     64 CB         13.4960    5.5800    2.7930 C.3       1 LEU        -0.0101
     65 CG         14.8160    5.0670    3.3740 C.3       1 LEU        -0.0425
     66 CD1        15.2040    3.7450    2.7290 C.3       1 LEU        -0.0625
     67 CD2        15.9190    6.0980    3.1850 C.3       1 LEU        -0.0625
     68 H34        13.6337    5.8865    5.4807 H         1 LEU         0.1883
     69 H35        12.7443    7.5589    3.1782 H         1 LEU         0.0800
     70 H36        13.7154    6.0724    1.8341 H         1 LEU         0.0315
     71 H37        12.8418    4.7130    2.6188 H         1 LEU         0.0315
     72 H38        14.6788    4.8998    4.4525 H         1 LEU         0.0298
     73 H39        16.1534    3.3923    3.1582 H         1 LEU         0.0232
     74 H40        15.3222    3.8868    1.6446 H         1 LEU         0.0232
     75 H41        14.4171    3.0000    2.9178 H         1 LEU         0.0232
     76 H42        15.6202    7.0454    3.6574 H         1 LEU         0.0232
     77 H43        16.0879    6.2615    2.1104 H         1 LEU         0.0232
     78 H44        16.8462    5.7326    3.6506 H         1 LEU         0.0232
     79 N          10.5420    6.8560    4.6720 N.am      1 THR        -0.2613
     80 CA          9.1400    6.5380    4.9210 C.3       1 THR         0.1565
     81 C           8.3570    7.7860    5.3220 C.2       1 THR         0.2065
     82 O           8.8270    8.5940    6.1230 O.2       1 THR        -0.3943
     83 CB          8.9920    5.4780    6.0270 C.3       1 THR         0.0924
     84 OG1        10.0930    4.5630    5.9820 O.3       1 THR        -0.3874
     85 CG2         7.6860    4.7120    5.8720 C.3       1 THR        -0.0346
     86 H45        10.9546    7.6382    5.1387 H         1 THR         0.1884
     87 H46         8.7095    6.1367    3.9917 H         1 THR         0.0826
     88 H47         8.9903    5.9857    7.0028 H         1 THR         0.0639
     89 H48        10.1102    4.1314    5.1359 H         1 THR         0.2101
     90 H49         7.6037    3.9620    6.6724 H         1 THR         0.0257
     91 H50         7.6702    4.2081    4.8943 H         1 THR         0.0257
     92 H51         6.8402    5.4122    5.9373 H         1 THR         0.0257
     93 N           7.1620    7.9370    4.7580 N.am      1 ILE        -0.2634
     94 CA          6.3150    9.0870    5.0560 C.3       1 ILE         0.1335
     95 C           5.1280    8.6890    5.9270 C.2       1 ILE         0.2043
     96 O           4.7090    9.4470    6.8010 O.2       1 ILE        -0.3944
     97 CB          5.7920    9.7500    3.7640 C.3       1 ILE        -0.0037
     98 CG1         6.9570   10.1060    2.8330 C.3       1 ILE        -0.0491
     99 CG2         4.9700   10.9890    4.0960 C.3       1 ILE        -0.0582
    100 CD1         7.9230   11.1150    3.4180 C.3       1 ILE        -0.0648
    101 H52         6.8360    7.2452    4.1137 H         1 ILE         0.1883
    102 H53         6.9202    9.8230    5.6055 H         1 ILE         0.0803
    103 H54         5.1409    9.0316    3.2445 H         1 ILE         0.0345
    104 H55         6.5426   10.5221    1.9029 H         1 ILE         0.0267
    105 H56         7.5135    9.1846    2.6065 H         1 ILE         0.0267
    106 H57         4.1412   10.7110    4.7637 H         1 ILE         0.0235
    107 H58         4.5649   11.4197    3.1684 H         1 ILE         0.0235
    108 H59         5.6103   11.7308    4.5956 H         1 ILE         0.0235
    109 H60         8.7258   11.3167    2.6936 H         1 ILE         0.0230
    110 H61         8.3580   10.7118    4.3444 H         1 ILE         0.0230
    111 H62         7.3870   12.0493    3.6409 H         1 ILE         0.0230
    112 N           4.5910    7.4970    5.6790 N.am      1 TYR        -0.2621
    113 CA          3.4490    6.9940    6.4390 C.3       1 TYR         0.1390
    114 C           2.2570    7.9400    6.3240 C.2       1 TYR         0.2057
    115 O           1.4090    7.9990    7.2160 O.2       1 TYR        -0.3942
    116 CB          3.8260    6.8100    7.9100 C.3       1 TYR         0.0163
    117 CG          3.8750    5.3630    8.3480 C.ar      1 TYR        -0.0493
    118 CD1         2.7520    4.7400    8.8810 C.ar      1 TYR        -0.0685
    119 CD2         5.0430    4.6220    8.2320 C.ar      1 TYR        -0.0685
    120 CE1         2.7950    3.4200    9.2850 C.ar      1 TYR        -0.0398
    121 CE2         5.0930    3.3010    8.6330 C.ar      1 TYR        -0.0398
    122 CZ          3.9660    2.7040    9.1590 C.ar      1 TYR         0.0805
    123 OH          4.0110    1.3890    9.5600 O.3       1 TYR        -0.3376
    124 H63         4.9796    6.9300    4.9527 H         1 TYR         0.1885
    125 H64         3.1602    6.0164    6.0256 H         1 TYR         0.0821
    126 H65         3.0823    7.3349    8.5275 H         1 TYR         0.0453
    127 H66         4.8183    7.2560    8.0728 H         1 TYR         0.0453
    128 H67         1.8286    5.2989    8.9810 H         1 TYR         0.0530
    129 H68         5.9308    5.0877    7.8198 H         1 TYR         0.0530
    130 H69         1.9112    2.9489    9.6996 H         1 TYR         0.0525
    131 H70         6.0131    2.7364    8.5349 H         1 TYR         0.0525
    132 H71         3.1603    1.1323    9.8959 H         1 TYR         0.2458
    133 N           2.1980    8.6770    5.2200 N.am      1 ALA        -0.2639
    134 CA          1.1110    9.6200    4.9870 C.3       1 ALA         0.1282
    135 C          -0.1920    8.8920    4.6750 C.2       1 ALA         0.2036
    136 O          -0.2810    7.6710    4.8120 O.2       1 ALA        -0.3944
    137 CB          1.4680   10.5650    3.8510 C.3       1 ALA        -0.0244
    138 H72         2.9173    8.5824    4.5317 H         1 ALA         0.1883
    139 H73         0.9656   10.2130    5.9020 H         1 ALA         0.0797
    140 H74         0.6398   11.2700    3.6865 H         1 ALA         0.0277
    141 H75         1.6435    9.9850    2.9330 H         1 ALA         0.0277
    142 H76         2.3789   11.1239    4.1115 H         1 ALA         0.0277
    143 N          -1.1980    9.6500    4.2520 N.am      1 GLN        -0.2636
    144 CA         -2.4970    9.0810    3.9160 C.3       1 GLN         0.1330
    145 C          -2.8730    9.4030    2.4740 C.2       1 GLN         0.2041
    146 O          -2.1660   10.1390    1.7860 O.2       1 GLN        -0.3944
    147 CB         -3.5710    9.6090    4.8680 C.3       1 GLN         0.0045
    148 CG         -3.7790    8.7330    6.0930 C.3       1 GLN         0.0412
    149 CD         -4.0880    9.5380    7.3410 C.2       1 GLN         0.1737
    150 OE1        -3.1820    9.9730    8.0540 O.2       1 GLN        -0.3973
    151 NE2        -5.3720    9.7380    7.6150 N.am      1 GLN        -0.3009
    152 H77        -1.0603   10.6364    4.1619 H         1 GLN         0.1883
    153 H78        -2.4373    7.9881    4.0257 H         1 GLN         0.0801
    154 H79        -4.5223    9.6718    4.3193 H         1 GLN         0.0337
    155 H80        -3.2747   10.6135    5.2045 H         1 GLN         0.0337
    156 H81        -2.8632    8.1494    6.2682 H         1 GLN         0.0504
    157 H82        -4.6182    8.0490    5.8984 H         1 GLN         0.0504
    158 H83        -5.6346   10.2619    8.4253 H         1 GLN         0.1814
    159 H84        -6.0762    9.3647    7.0110 H         1 GLN         0.1814
    160 N          -3.9930    8.8460    2.0230 N.am      1 VAL        -0.2635
    161 CA         -4.4690    9.0710    0.6640 C.3       1 VAL         0.1332
    162 C          -5.0390   10.4790    0.5100 C.2       1 VAL         0.2042
    163 O          -6.0300   10.8310    1.1490 O.2       1 VAL        -0.3944
    164 CB         -5.5480    8.0410    0.2740 C.3       1 VAL        -0.0063
    165 CG1        -6.0010    8.2510   -1.1630 C.3       1 VAL        -0.0584
    166 CG2        -5.0310    6.6240    0.4740 C.3       1 VAL        -0.0584
    167 H85        -4.5231    8.2568    2.6328 H         1 VAL         0.1883
    168 H86        -3.6159    8.9610   -0.0217 H         1 VAL         0.0802
    169 H87        -6.4168    8.1867    0.9327 H         1 VAL         0.0343
    170 H88        -6.7692    7.5061   -1.4178 H         1 VAL         0.0234
    171 H89        -5.1409    8.1366   -1.8391 H         1 VAL         0.0234
    172 H90        -6.4205    9.2621   -1.2712 H         1 VAL         0.0234
    173 H91        -4.7096    6.4949    1.5180 H         1 VAL         0.0234
    174 H92        -4.1775    6.4470   -0.1969 H         1 VAL         0.0234
    175 H93        -5.8322    5.9057    0.2456 H         1 VAL         0.0234
    176 N          -4.4020   11.2810   -0.3410 N.am      1 GLN        -0.2636
    177 CA         -4.8420   12.6530   -0.5760 C.3       1 GLN         0.1330
    178 C          -5.7640   12.7360   -1.7910 C.2       1 GLN         0.2035
    179 O          -5.9530   13.8100   -2.3630 O.2       1 GLN        -0.3944
    180 CB         -3.6340   13.5710   -0.7790 C.3       1 GLN         0.0045
    181 CG         -2.5610   13.4140    0.2860 C.3       1 GLN         0.0412
    182 CD         -1.1620   13.3700   -0.2980 C.2       1 GLN         0.1737
    183 OE1        -0.9730   13.5340   -1.5040 O.2       1 GLN        -0.3973
    184 NE2        -0.1720   13.1470    0.5580 N.am      1 GLN        -0.3009
    185 H94        -3.6022   10.9348   -0.8314 H         1 GLN         0.1883
    186 H95        -5.3991   12.9950    0.3087 H         1 GLN         0.0801
    187 H96        -3.9844   14.6136   -0.7677 H         1 GLN         0.0337
    188 H97        -3.1868   13.3450   -1.7583 H         1 GLN         0.0337
    189 H98        -2.7433   12.4782    0.8346 H         1 GLN         0.0504
    190 H99        -2.6264   14.2648    0.9802 H         1 GLN         0.0504
    191 H100        0.7722   13.1071    0.2311 H         1 GLN         0.1814
    192 H101       -0.3705   13.0189    1.5297 H         1 GLN         0.1814
    193 N          -6.3340   11.6000   -2.1790 N.am      1 LYS        -0.2695
    194 CA         -7.2350   11.5520   -3.3260 C.3       1 LYS         0.0944
    195 C          -8.5190   10.8040   -2.9820 C.2       1 LYS         0.0601
    196 O          -9.6060   11.3010   -3.3430 O.co2     1 LYS        -0.5666
    197 CB         -6.5440   10.8850   -4.5170 C.3       1 LYS        -0.0177
    198 CG         -6.2950   11.8290   -5.6830 C.3       1 LYS        -0.0446
    199 CD         -4.8170   11.9030   -6.0330 C.3       1 LYS        -0.0125
    200 CE         -4.2820   13.3190   -5.8930 C.3       1 LYS        -0.0354
    201 NZ         -4.8180   14.2220   -6.9480 N.4       1 LYS         0.2185
    202 OXT        -8.4260    9.7280   -2.3570 O.co2     1 LYS        -0.5666
    203 H102       -6.1412   10.7590   -1.6735 H         1 LYS         0.1875
    204 H103       -7.4969   12.5833   -3.6050 H         1 LYS         0.0726
    205 H104       -7.1782   10.0579   -4.8685 H         1 LYS         0.0305
    206 H105       -5.5759   10.4868   -4.1791 H         1 LYS         0.0305
    207 H106       -6.6488   12.8344   -5.4110 H         1 LYS         0.0269
    208 H107       -6.8526   11.4688   -6.5601 H         1 LYS         0.0269
    209 H108       -4.6785   11.5696   -7.0721 H         1 LYS         0.0317
    210 H109       -4.2560   11.2405   -5.3575 H         1 LYS         0.0317
    211 H110       -3.1850   13.2939   -5.9702 H         1 LYS         0.0813
    212 H111       -4.5714   13.7126   -4.9075 H         1 LYS         0.0813
    213 H112       -4.4409   15.1481   -6.8209 H         1 LYS         0.1994
    214 H113       -5.8232   14.2566   -6.8818 H         1 LYS         0.1994
    215 H114       -4.5528   13.8729   -7.8557 H         1 LYS         0.1994
@<TRIPOS>BOND
     1    1    2 1  
     2    1   12 1  
     3    1   13 1  
     4    1   14 1  
     5    2    3 1  
     6    2    5 1  
     7    2   15 1  
     8    3    4 2  
     9    3   27 am 
    10    5    6 1  
    11    5   16 1  
    12    5   17 1  
    13    6    7 1  
    14    6   18 1  
    15    6   19 1  
    16    7    8 1  
    17    7   20 1  
    18    7   21 1  
    19    8    9 ar 
    20    8   22 1  
    21    9   10 ar 
    22    9   11 ar 
    23   10   23 1  
    24   10   24 1  
    25   11   25 1  
    26   11   26 1  
    27   27   28 1  
    28   27   36 1  
    29   28   29 1  
    30   28   31 1  
    31   28   37 1  
    32   29   30 2  
    33   29   49 am 
    34   31   32 1  
    35   31   38 1  
    36   31   39 1  
    37   32   33 1  
    38   32   40 1  
    39   32   41 1  
    40   33   34 1  
    41   33   42 1  
    42   33   43 1  
    43   34   35 1  
    44   34   44 1  
    45   34   45 1  
    46   35   46 1  
    47   35   47 1  
    48   35   48 1  
    49   49   50 1  
    50   49   55 1  
    51   50   51 1  
    52   50   53 1  
    53   50   56 1  
    54   51   52 2  
    55   51   60 am 
    56   53   54 1  
    57   53   57 1  
    58   53   58 1  
    59   54   59 1  
    60   60   61 1  
    61   60   68 1  
    62   61   62 1  
    63   61   64 1  
    64   61   69 1  
    65   62   63 2  
    66   62   79 am 
    67   64   65 1  
    68   64   70 1  
    69   64   71 1  
    70   65   66 1  
    71   65   67 1  
    72   65   72 1  
    73   66   73 1  
    74   66   74 1  
    75   66   75 1  
    76   67   76 1  
    77   67   77 1  
    78   67   78 1  
    79   79   80 1  
    80   79   86 1  
    81   80   81 1  
    82   80   83 1  
    83   80   87 1  
    84   81   82 2  
    85   81   93 am 
    86   83   84 1  
    87   83   85 1  
    88   83   88 1  
    89   84   89 1  
    90   85   90 1  
    91   85   91 1  
    92   85   92 1  
    93   93   94 1  
    94   93  101 1  
    95   94   95 1  
    96   94   97 1  
    97   94  102 1  
    98   95   96 2  
    99   95  112 am 
   100   97   98 1  
   101   97   99 1  
   102   97  103 1  
   103   98  100 1  
   104   98  104 1  
   105   98  105 1  
   106   99  106 1  
   107   99  107 1  
   108   99  108 1  
   109  100  109 1  
   110  100  110 1  
   111  100  111 1  
   112  112  113 1  
   113  112  124 1  
   114  113  114 1  
   115  113  116 1  
   116  113  125 1  
   117  114  115 2  
   118  114  133 am 
   119  116  117 1  
   120  116  126 1  
   121  116  127 1  
   122  117  118 ar 
   123  117  119 ar 
   124  118  120 ar 
   125  118  128 1  
   126  119  121 ar 
   127  119  129 1  
   128  120  122 ar 
   129  120  130 1  
   130  121  122 ar 
   131  121  131 1  
   132  122  123 1  
   133  123  132 1  
   134  133  134 1  
   135  133  138 1  
   136  134  135 1  
   137  134  137 1  
   138  134  139 1  
   139  135  136 2  
   140  135  143 am 
   141  137  140 1  
   142  137  141 1  
   143  137  142 1  
   144  143  144 1  
   145  143  152 1  
   146  144  145 1  
   147  144  147 1  
   148  144  153 1  
   149  145  146 2  
   150  145  160 am 
   151  147  148 1  
   152  147  154 1  
   153  147  155 1  
   154  148  149 1  
   155  148  156 1  
   156  148  157 1  
   157  149  150 2  
   158  149  151 am 
   159  151  158 1  
   160  151  159 1  
   161  160  161 1  
   162  160  167 1  
   163  161  162 1  
   164  161  164 1  
   165  161  168 1  
   166  162  163 2  
   167  162  176 am 
   168  164  165 1  
   169  164  166 1  
   170  164  169 1  
   171  165  170 1  
   172  165  171 1  
   173  165  172 1  
   174  166  173 1  
   175  166  174 1  
   176  166  175 1  
   177  176  177 1  
   178  176  185 1  
   179  177  178 1  
   180  177  180 1  
   181  177  186 1  
   182  178  179 2  
   183  178  193 am 
   184  180  181 1  
   185  180  187 1  
   186  180  188 1  
   187  181  182 1  
   188  181  189 1  
   189  181  190 1  
   190  182  183 2  
   191  182  184 am 
   192  184  191 1  
   193  184  192 1  
   194  193  194 1  
   195  193  203 1  
   196  194  195 1  
   197  194  197 1  
   198  194  204 1  
   199  195  196 ar 
   200  195  202 ar 
   201  197  198 1  
   202  197  205 1  
   203  197  206 1  
   204  198  199 1  
   205  198  207 1  
   206  198  208 1  
   207  199  200 1  
   208  199  209 1  
   209  199  210 1  
   210  200  201 1  
   211  200  211 1  
   212  200  212 1  
   213  201  213 1  
   214  201  214 1  
   215  201  215 1  
@<TRIPOS>SUBSTRUCTURE
     1 ARG         1

