5x4o_ligand
  -I-interpret- 

 55 58  0  0  0  0  0  0  0  0999 V2000
   43.4720   -6.2120  -13.3140 C   0  0  0  0  0
   44.4390   -6.7110   -9.9880 C   0  0  0  0  0
   36.9720   -8.7080  -11.5480 N   0  0  0  0  0
   36.8100   -8.4340  -10.2430 C   0  0  0  0  0
   37.6880   -7.6780   -9.4890 C   0  0  0  0  0
   40.8930   -4.8660  -11.0940 C   0  0  0  0  0
   41.9200   -4.6950  -12.0160 C   0  0  0  0  0
   41.2270   -6.8480  -15.8780 C   0  0  0  0  0
   37.4330   -7.3930   -8.0340 C   0  0  0  0  0
   39.8370   -2.9590  -12.0270 C   0  0  0  0  0
   39.5600   -6.5540  -14.2360 C   0  0  0  0  0
   40.8970   -2.8670  -12.9060 C   0  0  0  0  0
   45.5640   -5.0760  -11.6570 O   0  0  0  0  0
   44.3170   -5.2000  -10.9270 S   0  0  0  0  0
   43.8590   -4.1440  -10.0380 O   0  0  0  0  0
   43.0440   -5.6330  -12.0090 N   0  0  0  0  0
   39.8340   -3.9790  -11.1000 C   0  0  0  0  0
   41.9420   -3.7070  -12.9260 N   0  0  0  0  0
   40.9700   -5.9880  -10.1150 C   0  0  0  0  0
   39.7580   -6.4180   -9.4500 N   0  0  0  0  0
   38.8070   -7.1990  -10.1500 C   0  0  0  0  0
   36.2530   -7.8530   -7.5420 F   0  0  0  0  0
   38.4480   -7.6810   -7.1880 F   0  0  0  0  0
   37.2890   -6.0540   -7.8370 F   0  0  0  0  0
   38.9840   -7.4560  -11.4570 N   0  0  0  0  0
   38.0650   -8.1810  -12.1210 C   0  0  0  0  0
   38.2480   -8.4110  -13.4960 N   0  0  0  0  0
   39.2590   -7.9070  -14.3130 C   0  0  0  0  0
   39.9450   -8.7310  -15.1870 C   0  0  0  0  0
   40.9360   -8.1820  -15.9690 C   0  0  0  0  0
   41.8240   -8.8250  -16.9870 C   0  0  0  0  0
   40.5560   -6.0100  -15.0200 C   0  0  0  0  0
   42.2450   -6.5330  -16.7600 N   0  0  0  0  0
   42.7150   -7.6660  -17.3940 C   0  0  0  0  0
   43.6850   -7.7460  -18.1330 O   0  0  0  0  0
   44.0918   -5.4894  -13.8448 H   0  0  0  0  0
   44.0446   -7.1222  -13.1359 H   0  0  0  0  0
   42.5915   -6.4463  -13.9123 H   0  0  0  0  0
   44.5805   -7.5501  -10.6691 H   0  0  0  0  0
   45.2879   -6.6467   -9.3073 H   0  0  0  0  0
   43.5229   -6.8565   -9.4156 H   0  0  0  0  0
   35.9270   -8.8347   -9.7452 H   0  0  0  0  0
   39.0189   -2.2397  -12.0651 H   0  0  0  0  0
   39.0040   -5.9155  -13.5495 H   0  0  0  0  0
   40.8838   -2.0558  -13.6340 H   0  0  0  0  0
   39.0151   -4.0833  -10.3882 H   0  0  0  0  0
   41.6157   -5.6223   -9.3166 H   0  0  0  0  0
   41.2931   -6.8502  -10.6984 H   0  0  0  0  0
   39.5894   -6.1585   -8.4781 H   0  0  0  0  0
   37.5623   -9.0161  -13.9476 H   0  0  0  0  0
   39.7060   -9.7923  -15.2550 H   0  0  0  0  0
   41.2794   -9.2680  -17.8208 H   0  0  0  0  0
   42.3756   -9.6829  -16.6025 H   0  0  0  0  0
   40.8028   -4.9500  -14.9609 H   0  0  0  0  0
   42.6006   -5.5906  -16.9204 H   0  0  0  0  0
 16  1  1  0  0  0
 14  2  1  0  0  0
  3  4  4  0  0  0
 26  3  4  0  0  0
  4  5  4  0  0  0
  5  9  1  0  0  0
 21  5  4  0  0  0
  6  7  4  0  0  0
  6 17  4  0  0  0
 19  6  1  0  0  0
  7 16  1  0  0  0
  7 18  4  0  0  0
  8 30  4  0  0  0
 32  8  4  0  0  0
  8 33  1  0  0  0
  9 22  1  0  0  0
  9 23  1  0  0  0
  9 24  1  0  0  0
 10 12  4  0  0  0
 17 10  4  0  0  0
 28 11  4  0  0  0
 11 32  4  0  0  0
 18 12  4  0  0  0
 14 13  2  0  0  0
 14 15  2  0  0  0
 16 14  1  0  0  0
 20 19  1  0  0  0
 21 20  1  0  0  0
 25 21  4  0  0  0
 26 25  4  0  0  0
 27 26  1  0  0  0
 27 28  1  0  0  0
 28 29  4  0  0  0
 29 30  4  0  0  0
 30 31  1  0  0  0
 31 34  1  0  0  0
 33 34  1  0  0  0
 34 35  2  0  0  0
  1 36  1  0  0  0
  1 37  1  0  0  0
  1 38  1  0  0  0
  2 39  1  0  0  0
  2 40  1  0  0  0
  2 41  1  0  0  0
  4 42  1  0  0  0
 10 43  1  0  0  0
 11 44  1  0  0  0
 12 45  1  0  0  0
 17 46  1  0  0  0
 19 47  1  0  0  0
 19 48  1  0  0  0
 20 49  1  0  0  0
 27 50  1  0  0  0
 29 51  1  0  0  0
 31 52  1  0  0  0
 31 53  1  0  0  0
 32 54  1  0  0  0
 33 55  1  0  0  0
M  END
$$$$
