2ra6_ligand
  -I-interpret- 

 19 19  0  0  0  0  0  0  0  0999 V2000
   27.3940   37.4130   43.5080 C   0  0  0  0  0
   26.7960   38.5060   42.6160 C   0  0  0  0  0
   25.3010   38.4270   42.4990 C   0  0  0  0  0
   24.4630   38.9120   43.5350 C   0  0  0  0  0
   23.0570   38.8380   43.4260 C   0  0  0  0  0
   24.6930   37.8600   41.3430 C   0  0  0  0  0
   23.2890   37.7820   41.2250 C   0  0  0  0  0
   22.4780   38.2730   42.2720 C   0  0  0  0  0
   21.1150   38.2010   42.1630 O   0  0  0  0  0
   26.9809   37.4995   44.5130 H   0  0  0  0  0
   27.1481   36.4344   43.0957 H   0  0  0  0  0
   28.4769   37.5303   43.5476 H   0  0  0  0  0
   27.2114   38.3787   41.6163 H   0  0  0  0  0
   27.0404   39.4682   43.0661 H   0  0  0  0  0
   24.9104   39.3481   44.4281 H   0  0  0  0  0
   22.4238   39.2153   44.2290 H   0  0  0  0  0
   25.3214   37.4806   40.5373 H   0  0  0  0  0
   22.8348   37.3471   40.3347 H   0  0  0  0  0
   20.8832   37.7935   41.3253 H   0  0  0  0  0
  1  2  1  0  0  0
  2  3  1  0  0  0
  3  4  4  0  0  0
  3  6  4  0  0  0
  4  5  4  0  0  0
  5  8  4  0  0  0
  6  7  4  0  0  0
  7  8  4  0  0  0
  8  9  1  0  0  0
  1 10  1  0  0  0
  1 11  1  0  0  0
  1 12  1  0  0  0
  2 13  1  0  0  0
  2 14  1  0  0  0
  4 15  1  0  0  0
  5 16  1  0  0  0
  6 17  1  0  0  0
  7 18  1  0  0  0
  9 19  1  0  0  0
M  END
$$$$
