2q9n_ligand
  -I-interpret- 

 49 50  0  0  0  0  0  0  0  0999 V2000
   23.0400   26.7730   22.1710 C   0  0  0  0  0
   23.4100   26.8730   23.5330 C   0  0  0  0  0
   22.1440   27.0040   24.3280 C   0  0  0  0  0
   21.8040   25.7580   25.1140 C   0  0  0  0  0
   20.8580   24.9690   24.3830 O   0  0  0  0  0
   21.2150   23.5570   24.2660 C   0  0  0  0  0
   21.8080   23.3350   22.8880 C   0  0  0  0  0
   20.7310   23.1830   21.8550 C   0  0  0  0  0
   19.9620   21.8930   22.0840 C   0  0  0  0  0
   19.1650   21.9470   23.3790 C   0  0  0  0  0
   19.9570   22.7280   24.4090 C   0  0  0  0  0
   19.2630   22.3590   25.6220 C   0  0  0  0  0
   19.5880   22.8470   26.9670 C   0  0  0  0  0
   19.8380   24.1190   27.1160 O   0  0  0  0  0
   19.6240   22.0050   27.9000 O   0  0  0  0  0
   18.7460   21.1110   25.5230 N   0  0  0  0  0
   18.7930   20.6500   24.1370 C   0  0  0  0  0
   19.7060   19.4530   23.9720 C   0  0  0  0  0
   20.5530   19.0390   25.0430 C   0  0  0  0  0
   21.9610   19.6090   25.4440 C   0  0  0  0  0
   19.4250   18.4390   22.9220 C   0  0  0  0  0
   19.2840   18.7480   21.7540 O   0  0  0  0  0
   22.4064   25.8972   22.0313 H   0  0  0  0  0
   22.4932   27.6691   21.8776 H   0  0  0  0  0
   23.9364   26.6759   21.5585 H   0  0  0  0  0
   24.0551   27.7369   23.6932 H   0  0  0  0  0
   23.9695   25.9910   23.8446 H   0  0  0  0  0
   21.3299   27.1847   23.6261 H   0  0  0  0  0
   22.2837   27.8168   25.0407 H   0  0  0  0  0
   21.3721   26.0427   26.0734 H   0  0  0  0  0
   22.7106   25.1754   25.2775 H   0  0  0  0  0
   21.9325   23.2717   25.0354 H   0  0  0  0  0
   22.4040   22.4226   22.9075 H   0  0  0  0  0
   22.4208   24.1983   22.6287 H   0  0  0  0  0
   21.1873   23.1553   20.8655 H   0  0  0  0  0
   20.0438   24.0258   21.9296 H   0  0  0  0  0
   20.6748   21.0710   22.1493 H   0  0  0  0  0
   19.2683   21.7508   21.2553 H   0  0  0  0  0
   18.2281   22.3636   23.0092 H   0  0  0  0  0
   20.6044   23.5695   24.1623 H   0  0  0  0  0
   19.7497   24.5627   26.2693 H   0  0  0  0  0
   17.8672   20.2355   23.7379 H   0  0  0  0  0
   20.4039   20.0934   23.4327 H   0  0  0  0  0
   20.8202   18.0329   24.7199 H   0  0  0  0  0
   19.9559   19.3334   25.9061 H   0  0  0  0  0
   22.6521   19.4864   24.6101 H   0  0  0  0  0
   21.8672   20.6674   25.6873 H   0  0  0  0  0
   22.3371   19.0673   26.3119 H   0  0  0  0  0
   19.3431   17.3900   23.2065 H   0  0  0  0  0
  1  2  1  0  0  0
  2  3  1  0  0  0
  3  4  1  0  0  0
  4  5  1  0  0  0
  5  6  1  0  0  0
  6  7  1  0  0  0
  6 11  1  0  0  0
  7  8  1  0  0  0
  8  9  1  0  0  0
  9 10  1  0  0  0
 10 11  1  0  0  0
 10 17  1  0  0  0
 11 12  1  0  0  0
 12 13  1  0  0  0
 12 16  2  0  0  0
 13 14  1  0  0  0
 13 15  2  0  0  0
 16 17  1  0  0  0
 17 18  1  0  0  0
 18 19  1  0  0  0
 18 21  1  0  0  0
 19 20  1  0  0  0
 21 22  2  0  0  0
  1 23  1  0  0  0
  1 24  1  0  0  0
  1 25  1  0  0  0
  2 26  1  0  0  0
  2 27  1  0  0  0
  3 28  1  0  0  0
  3 29  1  0  0  0
  4 30  1  0  0  0
  4 31  1  0  0  0
  6 32  1  0  0  0
  7 33  1  0  0  0
  7 34  1  0  0  0
  8 35  1  0  0  0
  8 36  1  0  0  0
  9 37  1  0  0  0
  9 38  1  0  0  0
 10 39  1  0  0  0
 11 40  1  0  0  0
 14 41  1  0  0  0
 17 42  1  0  0  0
 18 43  1  0  0  0
 19 44  1  0  0  0
 19 45  1  0  0  0
 20 46  1  0  0  0
 20 47  1  0  0  0
 20 48  1  0  0  0
 21 49  1  0  0  0
M  END
$$$$
