1i37_ligand
  -I-interpret- 

 49 52  0  0  0  0  0  0  0  0999 V2000
   27.6850    5.1990    4.5650 C   0  0  0  0  0
   26.8140    6.4850    4.6360 C   0  0  0  0  0
   25.4840    6.2800    3.9440 C   0  0  0  0  0
   24.9040    7.2490    3.4480 O   0  0  0  0  0
   24.8870    4.9640    3.8570 C   0  0  0  0  0
   25.4640    3.9030    4.3570 C   0  0  0  0  0
   24.7270    2.5600    4.2410 C   0  0  0  0  0
   25.6130    1.4540    3.6090 C   0  0  0  0  0
   26.9550    1.3030    4.3590 C   0  0  0  0  0
   27.7080    2.6560    4.2790 C   0  0  0  0  0
   26.9430    3.8760    4.9490 C   0  0  0  0  0
   29.1610    2.5250    4.8300 C   0  0  0  0  0
   29.9510    1.3440    4.1920 C   0  0  0  0  0
   29.1940   -0.0100    4.3390 C   0  0  0  0  0
   27.7840    0.2120    3.6800 C   0  0  0  0  0
   27.1780   -1.2320    3.6470 C   0  0  0  0  0
   28.4350   -2.1180    3.3100 C   0  0  0  0  0
   29.6790   -1.1890    3.4260 C   0  0  0  0  0
   30.9100   -1.9180    3.9810 O   0  0  0  0  0
   29.1070   -0.4500    5.8470 C   0  0  0  0  0
   26.7810    3.7700    6.5240 C   0  0  0  0  0
   28.4938    5.3265    5.2845 H   0  0  0  0  0
   28.0037    5.0916    3.5282 H   0  0  0  0  0
   27.3460    7.2950    4.1370 H   0  0  0  0  0
   26.6294    6.7243    5.6833 H   0  0  0  0  0
   23.9242    4.8542    3.3579 H   0  0  0  0  0
   23.8585    2.7055    3.5986 H   0  0  0  0  0
   24.4502    2.2386    5.2451 H   0  0  0  0  0
   25.8248    1.7306    2.5762 H   0  0  0  0  0
   25.0766    0.5070    3.6686 H   0  0  0  0  0
   26.7862    1.0302    5.4007 H   0  0  0  0  0
   27.7537    2.8981    3.2172 H   0  0  0  0  0
   29.0936    2.3383    5.9018 H   0  0  0  0  0
   29.6911    3.4467    4.5898 H   0  0  0  0  0
   30.9086    1.2571    4.7054 H   0  0  0  0  0
   30.0758    1.5516    3.1293 H   0  0  0  0  0
   27.8224    0.6297    2.6740 H   0  0  0  0  0
   26.3707   -1.3411    2.9228 H   0  0  0  0  0
   26.6933   -1.5144    4.5816 H   0  0  0  0  0
   28.3564   -2.5396    2.3079 H   0  0  0  0  0
   28.5129   -2.9602    3.9976 H   0  0  0  0  0
   30.0210   -0.8316    2.4547 H   0  0  0  0  0
   31.1586   -2.6257    3.3818 H   0  0  0  0  0
   30.1135   -0.5674    6.2485 H   0  0  0  0  0
   28.5739    0.3116    6.4162 H   0  0  0  0  0
   28.5735   -1.3979    5.9174 H   0  0  0  0  0
   26.2181    2.8697    6.7703 H   0  0  0  0  0
   27.7666    3.7218    6.9869 H   0  0  0  0  0
   26.2474    4.6460    6.8929 H   0  0  0  0  0
  1  2  1  0  0  0
  1 11  1  0  0  0
  2  3  1  0  0  0
  3  4  2  0  0  0
  3  5  1  0  0  0
  5  6  2  0  0  0
  6  7  1  0  0  0
  6 11  1  0  0  0
  7  8  1  0  0  0
  8  9  1  0  0  0
  9 10  1  0  0  0
  9 15  1  0  0  0
 10 11  1  0  0  0
 10 12  1  0  0  0
 11 21  1  0  0  0
 12 13  1  0  0  0
 13 14  1  0  0  0
 14 15  1  0  0  0
 14 18  1  0  0  0
 14 20  1  0  0  0
 15 16  1  0  0  0
 16 17  1  0  0  0
 17 18  1  0  0  0
 18 19  1  0  0  0
  1 22  1  0  0  0
  1 23  1  0  0  0
  2 24  1  0  0  0
  2 25  1  0  0  0
  5 26  1  0  0  0
  7 27  1  0  0  0
  7 28  1  0  0  0
  8 29  1  0  0  0
  8 30  1  0  0  0
  9 31  1  0  0  0
 10 32  1  0  0  0
 12 33  1  0  0  0
 12 34  1  0  0  0
 13 35  1  0  0  0
 13 36  1  0  0  0
 15 37  1  0  0  0
 16 38  1  0  0  0
 16 39  1  0  0  0
 17 40  1  0  0  0
 17 41  1  0  0  0
 18 42  1  0  0  0
 19 43  1  0  0  0
 20 44  1  0  0  0
 20 45  1  0  0  0
 20 46  1  0  0  0
 21 47  1  0  0  0
 21 48  1  0  0  0
 21 49  1  0  0  0
M  END
$$$$
