6hvj_ligand
  -I-interpret- 

 49 53  0  0  0  0  0  0  0  0999 V2000
   37.1740  -43.5290   13.0460 C   0  0  0  0  0
   36.2770  -42.9480   11.6300 S   0  0  0  0  0
   35.1670  -43.9500   11.3870 O   0  0  0  0  0
   35.5950  -41.5940   11.8110 O   0  0  0  0  0
   37.4310  -43.0200   10.2970 C   0  0  0  0  0
   37.2130  -43.9250    9.2610 C   0  0  0  0  0
   38.1010  -44.0370    8.2070 C   0  0  0  0  0
   39.2530  -43.2660    8.1810 N   0  0  0  0  0
   39.4870  -42.3730    9.2320 C   0  0  0  0  0
   38.5830  -42.2560   10.2800 C   0  0  0  0  0
   38.7780  -41.4280   11.2870 N   0  0  0  0  0
   40.0500  -41.2180   11.6770 C   0  0  0  0  0
   40.3420  -39.9830   12.2410 C   0  0  0  0  0
   41.0780  -42.1730   11.5220 C   0  0  0  0  0
   42.3610  -41.8520   11.9710 C   0  0  0  0  0
   43.3550  -42.7360   11.8430 N   0  0  0  0  0
   44.6560  -42.4540   12.2580 C   0  0  0  0  0
   44.9360  -41.2260   12.8370 C   0  0  0  0  0
   43.8960  -40.3140   12.9680 N   0  0  0  0  0
   42.6390  -40.6210   12.5380 C   0  0  0  0  0
   41.6170  -39.6740   12.6650 C   0  0  0  0  0
   41.8820  -38.4310   13.2860 C   0  0  0  0  0
   41.1570  -38.0150   14.4180 C   0  0  0  0  0
   41.4390  -36.8400   14.9930 C   0  0  0  0  0
   40.9360  -36.1810   16.0500 C   0  0  0  0  0
   39.7850  -36.6550   16.9390 C   0  0  0  0  0
   41.5440  -35.0160   16.2640 C   0  0  0  0  0
   42.4890  -34.8740   15.3460 O   0  0  0  0  0
   42.4170  -36.0560   14.5140 C   0  0  0  0  0
   43.1410  -36.4110   13.4640 C   0  0  0  0  0
   42.9060  -37.6180   12.8320 C   0  0  0  0  0
   36.5022  -43.5840   13.9026 H   0  0  0  0  0
   37.5795  -44.5188   12.8366 H   0  0  0  0  0
   37.9895  -42.8399   13.2658 H   0  0  0  0  0
   36.3253  -44.5572    9.2815 H   0  0  0  0  0
   37.8947  -44.7334    7.3943 H   0  0  0  0  0
   40.3895  -41.7617    9.2285 H   0  0  0  0  0
   37.9971  -40.9650   11.7521 H   0  0  0  0  0
   39.5482  -39.2440   12.3505 H   0  0  0  0  0
   40.8749  -43.1400   11.0619 H   0  0  0  0  0
   45.4465  -43.1932   12.1282 H   0  0  0  0  0
   45.9420  -40.9831   13.1793 H   0  0  0  0  0
   40.3683  -38.6477   14.8251 H   0  0  0  0  0
   38.8881  -36.7824   16.3328 H   0  0  0  0  0
   40.0516  -37.6060   17.4000 H   0  0  0  0  0
   39.5980  -35.9132   17.7154 H   0  0  0  0  0
   41.3063  -34.3045   17.0548 H   0  0  0  0  0
   43.9253  -35.7493   13.0964 H   0  0  0  0  0
   43.5202  -37.9258   11.9858 H   0  0  0  0  0
  1  2  1  0  0  0
  2  3  2  0  0  0
  2  4  2  0  0  0
  2  5  1  0  0  0
  5  6  4  0  0  0
  5 10  4  0  0  0
  6  7  4  0  0  0
  7  8  4  0  0  0
  8  9  4  0  0  0
  9 10  4  0  0  0
 10 11  1  0  0  0
 11 12  1  0  0  0
 12 13  4  0  0  0
 12 14  4  0  0  0
 13 21  4  0  0  0
 14 15  4  0  0  0
 15 16  4  0  0  0
 15 20  4  0  0  0
 16 17  4  0  0  0
 17 18  4  0  0  0
 18 19  4  0  0  0
 19 20  4  0  0  0
 20 21  4  0  0  0
 21 22  1  0  0  0
 22 23  4  0  0  0
 22 31  4  0  0  0
 23 24  4  0  0  0
 24 25  4  0  0  0
 24 29  4  0  0  0
 25 26  1  0  0  0
 25 27  4  0  0  0
 27 28  4  0  0  0
 28 29  4  0  0  0
 29 30  4  0  0  0
 30 31  4  0  0  0
  1 32  1  0  0  0
  1 33  1  0  0  0
  1 34  1  0  0  0
  6 35  1  0  0  0
  7 36  1  0  0  0
  9 37  1  0  0  0
 11 38  1  0  0  0
 13 39  1  0  0  0
 14 40  1  0  0  0
 17 41  1  0  0  0
 18 42  1  0  0  0
 23 43  1  0  0  0
 26 44  1  0  0  0
 26 45  1  0  0  0
 26 46  1  0  0  0
 27 47  1  0  0  0
 30 48  1  0  0  0
 31 49  1  0  0  0
M  END
$$$$
