3qw8_ligand
  -I-interpret- 

 57 56  0  0  0  0  0  0  0  0999 V2000
   27.5540   27.6480   53.0070 N   0  3  0  0  0
   27.5650   26.1600   53.1160 C   0  0  0  0  0
   26.5280   25.7090   54.1300 C   0  0  0  0  0
   26.3660   26.3350   55.1770 O   0  0  0  0  0
   28.9410   25.6650   53.5570 C   0  0  0  0  0
   30.2080   25.7940   52.2910 S   0  0  0  0  0
   25.8440   24.6130   53.8130 N   0  0  0  0  0
   24.7990   24.0540   54.6690 C   0  0  0  0  0
   25.3140   23.4530   55.9740 C   0  0  0  0  0
   24.6450   23.5280   57.0070 O   0  0  0  0  0
   24.0240   22.9850   53.8950 C   0  0  0  0  0
   22.8980   23.5200   53.0280 C   0  0  0  0  0
   21.6540   23.7800   53.8680 C   0  0  0  0  0
   21.3340   22.6250   54.7040 N   0  0  0  0  0
   20.2310   22.5010   55.4400 C   0  0  0  0  0
   19.3140   23.4570   55.4600 N   0  0  0  0  0
   20.0470   21.4130   56.1730 N   0  0  0  0  0
   26.4990   22.8550   55.9280 N   0  0  0  0  0
   27.0570   22.2410   57.1210 C   0  0  0  0  0
   26.5250   20.8360   57.3400 C   0  0  0  0  0
   25.8950   20.2650   56.4500 O   0  0  0  0  0
   26.7780   20.2840   58.5260 N   0  0  0  0  0
   26.3330   18.9340   58.8840 C   0  0  0  0  0
   24.8310   18.8810   59.1470 C   0  0  0  0  0
   24.2370   17.7940   58.9640 O   0  0  0  0  0
   27.0760   18.4310   60.1320 C   0  0  0  0  0
   28.8510   18.1220   59.9180 S   0  0  0  0  0
   24.1790   19.9700   59.6060 N   0  0  0  0  0
   26.6286   27.9593   52.7119 H   0  0  0  0  0
   27.7778   28.0559   53.9147 H   0  0  0  0  0
   28.2481   27.9425   52.3201 H   0  0  0  0  0
   27.3313   25.7427   52.1365 H   0  0  0  0  0
   28.8392   24.6084   53.8045 H   0  0  0  0  0
   29.2557   26.2901   54.3927 H   0  0  0  0  0
   31.3616   25.3399   52.7726 H   0  0  0  0  0
   26.0581   24.1419   52.9340 H   0  0  0  0  0
   24.1565   24.8895   54.9470 H   0  0  0  0  0
   23.5692   22.3255   54.6342 H   0  0  0  0  0
   24.7352   22.4991   53.2270 H   0  0  0  0  0
   22.6599   22.7818   52.2622 H   0  0  0  0  0
   23.2180   24.4562   52.5705 H   0  0  0  0  0
   20.8146   23.9702   53.1992 H   0  0  0  0  0
   21.8420   24.6374   54.5142 H   0  0  0  0  0
   22.0050   21.8570   54.7254 H   0  0  0  0  0
   18.4784   23.3503   56.0352 H   0  0  0  0  0
   19.4436   24.2998   54.9002 H   0  0  0  0  0
   20.7491   20.6731   56.1727 H   0  0  0  0  0
   27.0197   22.8266   55.0514 H   0  0  0  0  0
   26.7760   22.8495   57.9806 H   0  0  0  0  0
   28.1385   22.1806   56.9991 H   0  0  0  0  0
   27.3035   20.8236   59.2138 H   0  0  0  0  0
   26.5600   18.2914   58.0333 H   0  0  0  0  0
   26.6252   17.4742   60.3954 H   0  0  0  0  0
   26.9873   19.2168   60.8822 H   0  0  0  0  0
   29.3666   17.6939   61.0669 H   0  0  0  0  0
   23.1813   19.9181   59.8115 H   0  0  0  0  0
   24.6840   20.8449   59.7473 H   0  0  0  0  0
  1  2  1  0  0  0
  2  3  1  0  0  0
  2  5  1  0  0  0
  3  4  2  0  0  0
  3  7  1  0  0  0
  5  6  1  0  0  0
  7  8  1  0  0  0
  8  9  1  0  0  0
  8 11  1  0  0  0
  9 10  2  0  0  0
  9 18  1  0  0  0
 11 12  1  0  0  0
 12 13  1  0  0  0
 13 14  1  0  0  0
 14 15  1  0  0  0
 15 16  1  0  0  0
 15 17  2  0  0  0
 18 19  1  0  0  0
 19 20  1  0  0  0
 20 21  2  0  0  0
 20 22  1  0  0  0
 22 23  1  0  0  0
 23 24  1  0  0  0
 23 26  1  0  0  0
 24 25  2  0  0  0
 24 28  1  0  0  0
 26 27  1  0  0  0
  1 29  1  0  0  0
  1 30  1  0  0  0
  1 31  1  0  0  0
  2 32  1  0  0  0
  5 33  1  0  0  0
  5 34  1  0  0  0
  6 35  1  0  0  0
  7 36  1  0  0  0
  8 37  1  0  0  0
 11 38  1  0  0  0
 11 39  1  0  0  0
 12 40  1  0  0  0
 12 41  1  0  0  0
 13 42  1  0  0  0
 13 43  1  0  0  0
 14 44  1  0  0  0
 16 45  1  0  0  0
 16 46  1  0  0  0
 17 47  1  0  0  0
 18 48  1  0  0  0
 19 49  1  0  0  0
 19 50  1  0  0  0
 22 51  1  0  0  0
 23 52  1  0  0  0
 26 53  1  0  0  0
 26 54  1  0  0  0
 27 55  1  0  0  0
 28 56  1  0  0  0
 28 57  1  0  0  0
M  END
$$$$
