### 
### Created by X-TOOL on Mon Sep 10 21:12:46 2018
### 

@<TRIPOS>MOLECULE
1gbq_ligand
  183   187     1     0     0
SMALL
GAST_HUCK


@<TRIPOS>ATOM
      1 C          -7.2450  -14.6360   -9.7430 C.2       1 ACE         0.1751
      2 O          -7.8150  -13.8270  -10.4640 O.2       1 ACE        -0.3972
      3 CH3        -5.9170  -15.2760  -10.1470 C.3       1 ACE         0.0258
      4 H1         -5.5875  -15.9667   -9.3568 H         1 ACE         0.0467
      5 H2         -5.1593  -14.4910  -10.2872 H         1 ACE         0.0467
      6 H3         -6.0485  -15.8309  -11.0876 H         1 ACE         0.0467
      7 N          -7.6770  -15.0450   -8.5310 N.am      1 VAL        -0.2656
      8 CA         -8.8560  -14.4720   -7.8820 C.3       1 VAL         0.1334
      9 C          -8.3990  -13.8020   -6.5690 C.2       1 VAL         0.2066
     10 O          -8.2310  -14.4720   -5.5560 O.2       1 VAL        -0.3942
     11 CB         -9.8960  -15.5740   -7.5970 C.3       1 VAL        -0.0062
     12 CG1       -11.1400  -15.0200   -6.8780 C.3       1 VAL        -0.0584
     13 CG2       -10.3240  -16.2760   -8.8940 C.3       1 VAL        -0.0584
     14 H4         -7.1716  -15.7673   -8.0589 H         1 VAL         0.1883
     15 H5         -9.3073  -13.7157   -8.5410 H         1 VAL         0.0803
     16 H6         -9.4248  -16.3197   -6.9398 H         1 VAL         0.0343
     17 H7        -11.8526  -15.8379   -6.6954 H         1 VAL         0.0234
     18 H8        -11.6156  -14.2529   -7.5067 H         1 VAL         0.0234
     19 H9        -10.8405  -14.5736   -5.9183 H         1 VAL         0.0234
     20 H10        -9.4352  -16.6716   -9.4073 H         1 VAL         0.0234
     21 H11       -10.8355  -15.5556   -9.5493 H         1 VAL         0.0234
     22 H12       -11.0078  -17.1037   -8.6545 H         1 VAL         0.0234
     23 N          -8.1940  -12.4530   -6.6110 N.am      1 PRO        -0.2498
     24 CA         -7.7680  -11.7110   -5.4280 C.3       1 PRO         0.1340
     25 C          -8.6890  -11.8660   -4.1760 C.2       1 PRO         0.2066
     26 O          -9.8840  -12.1090   -4.2960 O.2       1 PRO        -0.3942
     27 CB         -7.7250  -10.2590   -5.9060 C.3       1 PRO        -0.0104
     28 CG         -7.5550  -10.3200   -7.4180 C.3       1 PRO        -0.0281
     29 CD         -8.2510  -11.6180   -7.8170 C.3       1 PRO         0.0369
     30 H13        -6.7585  -12.0409   -5.1416 H         1 PRO         0.0802
     31 H14        -6.8765   -9.7304   -5.4470 H         1 PRO         0.0313
     32 H15        -8.6616   -9.7435   -5.6472 H         1 PRO         0.0313
     33 H16        -6.4897  -10.3481   -7.6907 H         1 PRO         0.0287
     34 H17        -8.0343   -9.4554   -7.9003 H         1 PRO         0.0287
     35 H18        -9.2944  -11.4259   -8.1077 H         1 PRO         0.0524
     36 H19        -7.7214  -12.1025   -8.6505 H         1 PRO         0.0524
     37 N          -8.0590  -11.7200   -2.9720 N.am      1 PRO        -0.2498
     38 CA         -8.7090  -11.8160   -1.6590 C.3       1 PRO         0.1340
     39 C          -9.9960  -10.9920   -1.4230 C.2       1 PRO         0.2066
     40 O         -10.2860  -10.0380   -2.1280 O.2       1 PRO        -0.3942
     41 CB         -7.6430  -11.1990   -0.7280 C.3       1 PRO        -0.0104
     42 CG         -6.2990  -11.5090   -1.3750 C.3       1 PRO        -0.0281
     43 CD         -6.6100  -11.5380   -2.8640 C.3       1 PRO         0.0369
     44 H20        -8.9106  -12.8710   -1.4215 H         1 PRO         0.0802
     45 H21        -7.7000  -11.6517    0.2729 H         1 PRO         0.0313
     46 H22        -7.7877  -10.1116   -0.6474 H         1 PRO         0.0313
     47 H23        -5.9163  -12.4829   -1.0358 H         1 PRO         0.0287
     48 H24        -5.5629  -10.7250   -1.1438 H         1 PRO         0.0287
     49 H25        -6.3078  -10.5914   -3.3357 H         1 PRO         0.0524
     50 H26        -6.0830  -12.3735   -3.3479 H         1 PRO         0.0524
     51 N         -10.7610  -11.3920   -0.3640 N.am      1 PRO        -0.2498
     52 CA        -11.9490  -10.6540    0.0670 C.3       1 PRO         0.1338
     53 C         -11.4350   -9.4910    0.9210 C.2       1 PRO         0.2041
     54 O         -10.7100   -9.6530    1.8960 O.2       1 PRO        -0.3944
     55 CB        -12.7220  -11.6660    0.9150 C.3       1 PRO        -0.0104
     56 CG        -11.6450  -12.6060    1.4690 C.3       1 PRO        -0.0281
     57 CD        -10.5460  -12.6180    0.4030 C.3       1 PRO         0.0369
     58 H27       -12.5520  -10.2901   -0.7779 H         1 PRO         0.0802
     59 H28       -13.4422  -12.2218    0.2966 H         1 PRO         0.0313
     60 H29       -13.2551  -11.1604    1.7337 H         1 PRO         0.0313
     61 H30       -12.0523  -13.6171    1.6162 H         1 PRO         0.0287
     62 H31       -11.2535  -12.2258    2.4241 H         1 PRO         0.0287
     63 H32        -9.5508  -12.6132    0.8716 H         1 PRO         0.0524
     64 H33       -10.6425  -13.5024   -0.2439 H         1 PRO         0.0524
     65 N         -11.8380   -8.3100    0.4440 N.am      1 VAL        -0.2635
     66 CA        -11.4140   -7.0670    1.0490 C.3       1 VAL         0.1334
     67 C         -12.0320   -6.8580    2.4550 C.2       1 VAL         0.2066
     68 O         -13.2020   -7.1530    2.6620 O.2       1 VAL        -0.3942
     69 CB        -11.7480   -5.9130    0.1270 C.3       1 VAL        -0.0062
     70 CG1       -10.8210   -4.7230    0.3860 C.3       1 VAL        -0.0584
     71 CG2       -11.6620   -6.2090   -1.3580 C.3       1 VAL        -0.0584
     72 H34       -12.4465   -8.2850   -0.3492 H         1 VAL         0.1883
     73 H35       -10.3211   -7.1043    1.1682 H         1 VAL         0.0803
     74 H36       -12.7822   -5.6123    0.3507 H         1 VAL         0.0343
     75 H37       -11.0829   -3.8993   -0.2944 H         1 VAL         0.0234
     76 H38        -9.7781   -5.0257    0.2109 H         1 VAL         0.0234
     77 H39       -10.9358   -4.3886    1.4276 H         1 VAL         0.0234
     78 H40       -12.3135   -7.0616   -1.6002 H         1 VAL         0.0234
     79 H41       -10.6231   -6.4544   -1.6234 H         1 VAL         0.0234
     80 H42       -11.9871   -5.3258   -1.9274 H         1 VAL         0.0234
     81 N         -11.2150   -6.3370    3.4140 N.am      1 PRO        -0.2498
     82 CA        -11.7100   -6.0750    4.7690 C.3       1 PRO         0.1340
     83 C         -12.8360   -5.0120    4.8430 C.2       1 PRO         0.2066
     84 O         -12.9780   -4.1750    3.9620 O.2       1 PRO        -0.3942
     85 CB        -10.4850   -5.5110    5.5120 C.3       1 PRO        -0.0104
     86 CG         -9.2570   -5.8670    4.6760 C.3       1 PRO        -0.0281
     87 CD         -9.7780   -6.0750    3.2550 C.3       1 PRO         0.0369
     88 H43       -12.0621   -7.0104    5.2284 H         1 PRO         0.0802
     89 H44       -10.4068   -5.9642    6.5112 H         1 PRO         0.0313
     90 H45       -10.5720   -4.4189    5.6105 H         1 PRO         0.0313
     91 H46        -8.7892   -6.7885    5.0528 H         1 PRO         0.0287
     92 H47        -8.5241   -5.0471    4.7007 H         1 PRO         0.0287
     93 H48        -9.6139   -5.1733    2.6468 H         1 PRO         0.0524
     94 H49        -9.2782   -6.9328    2.7813 H         1 PRO         0.0524
     95 N         -13.6430   -5.0650    5.9390 N.am      1 PRO        -0.2498
     96 CA        -14.6900   -4.0650    6.1580 C.3       1 PRO         0.1338
     97 C         -14.0000   -2.7750    6.6570 C.2       1 PRO         0.2041
     98 O         -13.4280   -2.7480    7.7410 O.2       1 PRO        -0.3944
     99 CB        -15.5560   -4.6900    7.2580 C.3       1 PRO        -0.0104
    100 CG        -14.6150   -5.6400    8.0110 C.3       1 PRO        -0.0281
    101 CD        -13.6100   -6.1100    6.9580 C.3       1 PRO         0.0369
    102 H50       -15.2750   -3.8668    5.2478 H         1 PRO         0.0802
    103 H51       -16.3971   -5.2465    6.8188 H         1 PRO         0.0313
    104 H52       -15.9432   -3.9132    7.9337 H         1 PRO         0.0313
    105 H53       -15.1737   -6.4939    8.4217 H         1 PRO         0.0287
    106 H54       -14.1018   -5.1107    8.8274 H         1 PRO         0.0287
    107 H55       -12.6034   -6.1997    7.3923 H         1 PRO         0.0524
    108 H56       -13.9139   -7.0783    6.5337 H         1 PRO         0.0524
    109 N         -14.0840   -1.7240    5.8100 N.am      1 ARG        -0.2637
    110 CA        -13.4230   -0.4500    6.1130 C.3       1 ARG         0.1311
    111 C         -14.3060    0.5250    6.9150 C.2       1 ARG         0.2039
    112 O         -14.7280    1.5810    6.4640 O.2       1 ARG        -0.3944
    113 CB        -12.7700    0.0880    4.8280 C.3       1 ARG        -0.0092
    114 CG        -13.5880    0.9590    3.8640 C.3       1 ARG        -0.0156
    115 CD        -13.2320    2.4470    3.9710 C.3       1 ARG         0.0627
    116 NE        -14.0470    3.2580    3.0750 N.pl3     1 ARG        -0.2723
    117 CZ        -15.2720    3.7190    3.4040 C.cat     1 ARG         0.2882
    118 NH1       -15.8500    3.3820    4.5500 N.pl3     1 ARG        -0.2849
    119 NH2       -15.9060    4.5290    2.5690 N.pl3     1 ARG        -0.2849
    120 H57       -14.6060   -1.8170    4.9621 H         1 ARG         0.1883
    121 H58       -12.5888   -0.6892    6.7889 H         1 ARG         0.0800
    122 H59       -12.4272   -0.7860    4.2548 H         1 ARG         0.0313
    123 H60       -11.9010    0.6865    5.1387 H         1 ARG         0.0313
    124 H61       -14.6560    0.8343    4.0958 H         1 ARG         0.0301
    125 H62       -13.3945    0.6232    2.8346 H         1 ARG         0.0301
    126 H63       -12.1721    2.5805    3.7089 H         1 ARG         0.0689
    127 H64       -13.3987    2.7807    5.0058 H         1 ARG         0.0689
    128 H65       -13.6695    3.4906    2.1453 H         1 ARG         0.2642
    129 H66       -16.7856    3.7453    4.7813 H         1 ARG         0.2615
    130 H67       -15.3630    2.7571    5.2082 H         1 ARG         0.2615
    131 H68       -15.4658    4.7964    1.6771 H         1 ARG         0.2615
    132 H69       -16.8391    4.8913    2.8118 H         1 ARG         0.2615
    133 N         -14.5380    0.0630    8.1580 N.am      1 ARG        -0.2637
    134 CA        -15.3140    0.7880    9.1560 C.3       1 ARG         0.1311
    135 C         -14.9330    0.2110   10.5290 C.2       1 ARG         0.2039
    136 O         -15.2940   -0.9060   10.8760 O.2       1 ARG        -0.3944
    137 CB        -16.8350    0.6660    8.9400 C.3       1 ARG        -0.0092
    138 CG        -17.3870    1.5380    7.7980 C.3       1 ARG        -0.0156
    139 CD        -18.9130    1.6720    7.8590 C.3       1 ARG         0.0627
    140 NE        -19.2770    2.4610    9.0290 N.pl3     1 ARG        -0.2723
    141 CZ        -20.5070    2.4620    9.5790 C.cat     1 ARG         0.2882
    142 NH1       -21.5040    1.7790    9.0330 N.pl3     1 ARG        -0.2849
    143 NH2       -20.7120    3.1590   10.6880 N.pl3     1 ARG        -0.2849
    144 H70       -14.1570   -0.8265    8.4104 H         1 ARG         0.1883
    145 H71       -15.0420    1.8531    9.1154 H         1 ARG         0.0800
    146 H72       -17.3396    0.9601    9.8721 H         1 ARG         0.0313
    147 H73       -17.0671   -0.3850    8.7133 H         1 ARG         0.0313
    148 H74       -17.1095    1.0806    6.8369 H         1 ARG         0.0301
    149 H75       -16.9400    2.5405    7.8697 H         1 ARG         0.0301
    150 H76       -19.3677    0.6731    7.9326 H         1 ARG         0.0689
    151 H77       -19.2752    2.1736    6.9495 H         1 ARG         0.0689
    152 H78       -18.5521    3.0520    9.4604 H         1 ARG         0.2642
    153 H79       -22.4371    1.7927    9.4689 H         1 ARG         0.2615
    154 H80       -21.3453    1.2349    8.1730 H         1 ARG         0.2615
    155 H81       -19.9384    3.6899   11.1130 H         1 ARG         0.2615
    156 H82       -21.6448    3.1696   11.1246 H         1 ARG         0.2615
    157 N         -14.1890    1.0510   11.2750 N.am      1 ARG        -0.2637
    158 CA        -13.7370    0.6830   12.6140 C.3       1 ARG         0.1307
    159 C         -14.8390    0.9790   13.6600 C.2       1 ARG         0.1992
    160 O         -15.0270    0.2050   14.5880 O.2       1 ARG        -0.3947
    161 CB        -12.4450    1.4450   12.9490 C.3       1 ARG        -0.0092
    162 CG        -11.2810    1.1230   11.9960 C.3       1 ARG        -0.0156
    163 CD        -10.9040   -0.3710   11.9380 C.3       1 ARG         0.0627
    164 NE        -10.7740   -0.9340   13.2800 N.pl3     1 ARG        -0.2723
    165 CZ         -9.7340   -0.6400   14.0870 C.cat     1 ARG         0.2882
    166 NH1        -8.7530    0.1440   13.6730 N.pl3     1 ARG        -0.2849
    167 NH2        -9.6900   -1.1400   15.3130 N.pl3     1 ARG        -0.2849
    168 H83       -13.9410    1.9458   10.9037 H         1 ARG         0.1883
    169 H84       -13.5229   -0.3958   12.6299 H         1 ARG         0.0800
    170 H85       -12.1404    1.1818   13.9727 H         1 ARG         0.0313
    171 H86       -12.6523    2.5239   12.8940 H         1 ARG         0.0313
    172 H87       -10.3977    1.6887   12.3274 H         1 ARG         0.0301
    173 H88       -11.5649    1.4463   10.9836 H         1 ARG         0.0301
    174 H89        -9.9458   -0.4793   11.4088 H         1 ARG         0.0689
    175 H90       -11.6875   -0.9182   11.3934 H         1 ARG         0.0689
    176 H91       -11.5018   -1.5778   13.6217 H         1 ARG         0.2642
    177 H92        -7.9656    0.3591   14.3012 H         1 ARG         0.2615
    178 H93        -8.7762    0.5396   12.7223 H         1 ARG         0.2615
    179 H94       -10.4481   -1.7520   15.6471 H         1 ARG         0.2615
    180 H95        -8.8977   -0.9168   15.9321 H         1 ARG         0.2615
    181 N         -15.5770    2.0950   13.4620 N.am      1 NH2        -0.2990
    182 H96       -16.3028    2.3353   14.1065 H         1 NH2         0.1815
    183 H97       -15.3968    2.6798   12.6711 H         1 NH2         0.1815
@<TRIPOS>BOND
     1    1    2 2  
     2    1    3 1  
     3    1    7 am 
     4    3    4 1  
     5    3    5 1  
     6    3    6 1  
     7    7    8 1  
     8    7   14 1  
     9    8    9 1  
    10    8   11 1  
    11    8   15 1  
    12    9   10 2  
    13    9   23 am 
    14   11   12 1  
    15   11   13 1  
    16   11   16 1  
    17   12   17 1  
    18   12   18 1  
    19   12   19 1  
    20   13   20 1  
    21   13   21 1  
    22   13   22 1  
    23   23   24 1  
    24   23   29 1  
    25   24   25 1  
    26   24   27 1  
    27   24   30 1  
    28   25   26 2  
    29   25   37 am 
    30   27   28 1  
    31   27   31 1  
    32   27   32 1  
    33   28   29 1  
    34   28   33 1  
    35   28   34 1  
    36   29   35 1  
    37   29   36 1  
    38   37   38 1  
    39   37   43 1  
    40   38   39 1  
    41   38   41 1  
    42   38   44 1  
    43   39   40 2  
    44   39   51 am 
    45   41   42 1  
    46   41   45 1  
    47   41   46 1  
    48   42   43 1  
    49   42   47 1  
    50   42   48 1  
    51   43   49 1  
    52   43   50 1  
    53   51   52 1  
    54   51   57 1  
    55   52   53 1  
    56   52   55 1  
    57   52   58 1  
    58   53   54 2  
    59   53   65 am 
    60   55   56 1  
    61   55   59 1  
    62   55   60 1  
    63   56   57 1  
    64   56   61 1  
    65   56   62 1  
    66   57   63 1  
    67   57   64 1  
    68   65   66 1  
    69   65   72 1  
    70   66   67 1  
    71   66   69 1  
    72   66   73 1  
    73   67   68 2  
    74   67   81 am 
    75   69   70 1  
    76   69   71 1  
    77   69   74 1  
    78   70   75 1  
    79   70   76 1  
    80   70   77 1  
    81   71   78 1  
    82   71   79 1  
    83   71   80 1  
    84   81   82 1  
    85   81   87 1  
    86   82   83 1  
    87   82   85 1  
    88   82   88 1  
    89   83   84 2  
    90   83   95 am 
    91   85   86 1  
    92   85   89 1  
    93   85   90 1  
    94   86   87 1  
    95   86   91 1  
    96   86   92 1  
    97   87   93 1  
    98   87   94 1  
    99   95   96 1  
   100   95  101 1  
   101   96   97 1  
   102   96   99 1  
   103   96  102 1  
   104   97   98 2  
   105   97  109 am 
   106   99  100 1  
   107   99  103 1  
   108   99  104 1  
   109  100  101 1  
   110  100  105 1  
   111  100  106 1  
   112  101  107 1  
   113  101  108 1  
   114  109  110 1  
   115  109  120 1  
   116  110  111 1  
   117  110  113 1  
   118  110  121 1  
   119  111  112 2  
   120  111  133 am 
   121  113  114 1  
   122  113  122 1  
   123  113  123 1  
   124  114  115 1  
   125  114  124 1  
   126  114  125 1  
   127  115  116 1  
   128  115  126 1  
   129  115  127 1  
   130  116  117 ar 
   131  116  128 1  
   132  117  118 ar 
   133  117  119 ar 
   134  118  129 1  
   135  118  130 1  
   136  119  131 1  
   137  119  132 1  
   138  133  134 1  
   139  133  144 1  
   140  134  135 1  
   141  134  137 1  
   142  134  145 1  
   143  135  136 2  
   144  135  157 am 
   145  137  138 1  
   146  137  146 1  
   147  137  147 1  
   148  138  139 1  
   149  138  148 1  
   150  138  149 1  
   151  139  140 1  
   152  139  150 1  
   153  139  151 1  
   154  140  141 ar 
   155  140  152 1  
   156  141  142 ar 
   157  141  143 ar 
   158  142  153 1  
   159  142  154 1  
   160  143  155 1  
   161  143  156 1  
   162  157  158 1  
   163  157  168 1  
   164  158  159 1  
   165  158  161 1  
   166  158  169 1  
   167  159  160 2  
   168  159  181 am 
   169  161  162 1  
   170  161  170 1  
   171  161  171 1  
   172  162  163 1  
   173  162  172 1  
   174  162  173 1  
   175  163  164 1  
   176  163  174 1  
   177  163  175 1  
   178  164  165 ar 
   179  164  176 1  
   180  165  166 ar 
   181  165  167 ar 
   182  166  177 1  
   183  166  178 1  
   184  167  179 1  
   185  167  180 1  
   186  181  182 1  
   187  181  183 1  
@<TRIPOS>SUBSTRUCTURE
     1 ACE         1

