1gbq_ligand
  -I-interpret- 

180184  0  0  0  0  0  0  0  0999 V2000
   -7.2450  -14.6360   -9.7430 C   0  0  0  0  0
   -7.8150  -13.8270  -10.4640 O   0  0  0  0  0
   -5.9170  -15.2760  -10.1470 C   0  0  0  0  0
   -7.6770  -15.0450   -8.5310 N   0  0  0  0  0
   -8.8560  -14.4720   -7.8820 C   0  0  0  0  0
   -8.3990  -13.8020   -6.5690 C   0  0  0  0  0
   -8.2310  -14.4720   -5.5560 O   0  0  0  0  0
   -9.8960  -15.5740   -7.5970 C   0  0  0  0  0
  -11.1400  -15.0200   -6.8780 C   0  0  0  0  0
  -10.3240  -16.2760   -8.8940 C   0  0  0  0  0
   -8.1940  -12.4530   -6.6110 N   0  0  0  0  0
   -7.7680  -11.7110   -5.4280 C   0  0  0  0  0
   -8.6890  -11.8660   -4.1760 C   0  0  0  0  0
   -9.8840  -12.1090   -4.2960 O   0  0  0  0  0
   -7.7250  -10.2590   -5.9060 C   0  0  0  0  0
   -7.5550  -10.3200   -7.4180 C   0  0  0  0  0
   -8.2510  -11.6180   -7.8170 C   0  0  0  0  0
   -8.0590  -11.7200   -2.9720 N   0  0  0  0  0
   -8.7090  -11.8160   -1.6590 C   0  0  0  0  0
   -9.9960  -10.9920   -1.4230 C   0  0  0  0  0
  -10.2860  -10.0380   -2.1280 O   0  0  0  0  0
   -7.6430  -11.1990   -0.7280 C   0  0  0  0  0
   -6.2990  -11.5090   -1.3750 C   0  0  0  0  0
   -6.6100  -11.5380   -2.8640 C   0  0  0  0  0
  -10.7610  -11.3920   -0.3640 N   0  0  0  0  0
  -11.9490  -10.6540    0.0670 C   0  0  0  0  0
  -11.4350   -9.4910    0.9210 C   0  0  0  0  0
  -10.7100   -9.6530    1.8960 O   0  0  0  0  0
  -12.7220  -11.6660    0.9150 C   0  0  0  0  0
  -11.6450  -12.6060    1.4690 C   0  0  0  0  0
  -10.5460  -12.6180    0.4030 C   0  0  0  0  0
  -11.8380   -8.3100    0.4440 N   0  0  0  0  0
  -11.4140   -7.0670    1.0490 C   0  0  0  0  0
  -12.0320   -6.8580    2.4550 C   0  0  0  0  0
  -13.2020   -7.1530    2.6620 O   0  0  0  0  0
  -11.7480   -5.9130    0.1270 C   0  0  0  0  0
  -10.8210   -4.7230    0.3860 C   0  0  0  0  0
  -11.6620   -6.2090   -1.3580 C   0  0  0  0  0
  -11.2150   -6.3370    3.4140 N   0  0  0  0  0
  -11.7100   -6.0750    4.7690 C   0  0  0  0  0
  -12.8360   -5.0120    4.8430 C   0  0  0  0  0
  -12.9780   -4.1750    3.9620 O   0  0  0  0  0
  -10.4850   -5.5110    5.5120 C   0  0  0  0  0
   -9.2570   -5.8670    4.6760 C   0  0  0  0  0
   -9.7780   -6.0750    3.2550 C   0  0  0  0  0
  -13.6430   -5.0650    5.9390 N   0  0  0  0  0
  -14.6900   -4.0650    6.1580 C   0  0  0  0  0
  -14.0000   -2.7750    6.6570 C   0  0  0  0  0
  -13.4280   -2.7480    7.7410 O   0  0  0  0  0
  -15.5560   -4.6900    7.2580 C   0  0  0  0  0
  -14.6150   -5.6400    8.0110 C   0  0  0  0  0
  -13.6100   -6.1100    6.9580 C   0  0  0  0  0
  -14.0840   -1.7240    5.8100 N   0  0  0  0  0
  -13.4230   -0.4500    6.1130 C   0  0  0  0  0
  -14.3060    0.5250    6.9150 C   0  0  0  0  0
  -14.7280    1.5810    6.4640 O   0  0  0  0  0
  -12.7700    0.0880    4.8280 C   0  0  0  0  0
  -13.5880    0.9590    3.8640 C   0  0  0  0  0
  -13.2320    2.4470    3.9710 C   0  0  0  0  0
  -14.0470    3.2580    3.0750 N   0  0  0  0  0
  -15.2720    3.7190    3.4040 C   0  0  0  0  0
  -15.8500    3.3820    4.5500 N   0  0  0  0  0
  -15.9060    4.5290    2.5690 N   0  0  0  0  0
  -14.5380    0.0630    8.1580 N   0  0  0  0  0
  -15.3140    0.7880    9.1560 C   0  0  0  0  0
  -14.9330    0.2110   10.5290 C   0  0  0  0  0
  -15.2940   -0.9060   10.8760 O   0  0  0  0  0
  -16.8350    0.6660    8.9400 C   0  0  0  0  0
  -17.3870    1.5380    7.7980 C   0  0  0  0  0
  -18.9130    1.6720    7.8590 C   0  0  0  0  0
  -19.2770    2.4610    9.0290 N   0  0  0  0  0
  -20.5070    2.4620    9.5790 C   0  0  0  0  0
  -21.5040    1.7790    9.0330 N   0  0  0  0  0
  -20.7120    3.1590   10.6880 N   0  0  0  0  0
  -14.1890    1.0510   11.2750 N   0  0  0  0  0
  -13.7370    0.6830   12.6140 C   0  0  0  0  0
  -14.8390    0.9790   13.6600 C   0  0  0  0  0
  -15.0270    0.2050   14.5880 O   0  0  0  0  0
  -12.4450    1.4450   12.9490 C   0  0  0  0  0
  -11.2810    1.1230   11.9960 C   0  0  0  0  0
  -10.9040   -0.3710   11.9380 C   0  0  0  0  0
  -10.7740   -0.9340   13.2800 N   0  0  0  0  0
   -9.7340   -0.6400   14.0870 C   0  0  0  0  0
   -8.7530    0.1440   13.6730 N   0  0  0  0  0
   -9.6900   -1.1400   15.3130 N   0  0  0  0  0
  -15.5770    2.0950   13.4620 N   0  0  0  0  0
   -6.0486  -15.8255  -11.0791 H   0  0  0  0  0
   -5.1671  -14.4972  -10.2856 H   0  0  0  0  0
   -5.5916  -15.9601   -9.3633 H   0  0  0  0  0
   -7.1615  -15.7818   -8.0495 H   0  0  0  0  0
   -9.3256  -13.7337   -8.5320 H   0  0  0  0  0
   -9.4138  -16.2965   -6.9386 H   0  0  0  0  0
  -11.6460  -14.3063   -7.5281 H   0  0  0  0  0
  -11.8168  -15.8409   -6.6411 H   0  0  0  0  0
  -10.8346  -14.5221   -5.9577 H   0  0  0  0  0
  -11.0015  -17.0958   -8.6554 H   0  0  0  0  0
  -10.8307  -15.5612   -9.5423 H   0  0  0  0  0
   -9.4425  -16.6675   -9.4017 H   0  0  0  0  0
   -6.8129  -12.0938   -5.0684 H   0  0  0  0  0
   -6.9055   -9.7134   -5.4382 H   0  0  0  0  0
   -8.6355   -9.7260   -5.6322 H   0  0  0  0  0
   -6.5067  -10.3052   -7.7163 H   0  0  0  0  0
   -7.9844   -9.4512   -7.9169 H   0  0  0  0  0
   -9.2757  -11.4468   -8.1467 H   0  0  0  0  0
   -7.7658  -12.0963   -8.6678 H   0  0  0  0  0
   -9.0209  -12.8505   -1.5153 H   0  0  0  0  0
   -7.7050  -11.6155    0.2774 H   0  0  0  0  0
   -7.7900  -10.1251   -0.6132 H   0  0  0  0  0
   -5.8756  -12.4491   -1.0214 H   0  0  0  0  0
   -5.5380  -10.7699   -1.1247 H   0  0  0  0  0
   -6.2911  -10.6166   -3.3513 H   0  0  0  0  0
   -6.0732  -12.3447   -3.3631 H   0  0  0  0  0
  -12.5761  -10.2570   -0.7313 H   0  0  0  0  0
  -13.4700  -12.2017    0.3305 H   0  0  0  0  0
  -13.2904  -11.1830    1.7098 H   0  0  0  0  0
  -12.0377  -13.6053    1.6567 H   0  0  0  0  0
  -11.2690  -12.2664    2.4341 H   0  0  0  0  0
   -9.5503  -12.6521    0.8452 H   0  0  0  0  0
  -10.5990  -13.5064   -0.2263 H   0  0  0  0  0
  -12.4587   -8.2845   -0.3650 H   0  0  0  0  0
  -10.3342   -7.1111    1.1911 H   0  0  0  0  0
  -12.7905   -5.7009    0.3644 H   0  0  0  0  0
  -10.9357   -4.3927    1.4184 H   0  0  0  0  0
   -9.7880   -5.0242    0.2122 H   0  0  0  0  0
  -11.0815   -3.9076   -0.2888 H   0  0  0  0  0
  -10.6463   -6.5155   -1.6079 H   0  0  0  0  0
  -12.3567   -7.0108   -1.6082 H   0  0  0  0  0
  -11.9214   -5.3127   -1.9214 H   0  0  0  0  0
  -12.1361   -6.9895    5.1815 H   0  0  0  0  0
  -10.4090   -5.9375    6.5122 H   0  0  0  0  0
  -10.5700   -4.4312    5.6343 H   0  0  0  0  0
   -8.7611   -6.7607    5.0547 H   0  0  0  0  0
   -8.5050   -5.0789    4.7146 H   0  0  0  0  0
   -9.5923   -5.2055    2.6244 H   0  0  0  0  0
   -9.2694   -6.8985    2.7538 H   0  0  0  0  0
  -15.2800   -3.8118    5.2771 H   0  0  0  0  0
  -16.4165   -5.2165    6.8450 H   0  0  0  0  0
  -15.9796   -3.9331    7.9182 H   0  0  0  0  0
  -15.1542   -6.4749    8.4586 H   0  0  0  0  0
  -14.1236   -5.1450    8.8486 H   0  0  0  0  0
  -12.6120   -6.2468    7.3744 H   0  0  0  0  0
  -13.8672   -7.0883    6.5520 H   0  0  0  0  0
  -14.6164   -1.8189    4.9452 H   0  0  0  0  0
  -12.6089   -0.6049    6.8210 H   0  0  0  0  0
  -12.5245   -0.8036    4.2510 H   0  0  0  0  0
  -11.9721    0.7424    5.1790 H   0  0  0  0  0
  -14.6414    0.8460    4.1202 H   0  0  0  0  0
  -13.3683    0.6329    2.8474 H   0  0  0  0  0
  -12.1854    2.5721    3.6934 H   0  0  0  0  0
  -13.4162    2.7730    4.9947 H   0  0  0  0  0
  -13.6732    3.4883    2.1543 H   0  0  0  0  0
  -16.7743    3.7460    4.7814 H   0  0  0  0  0
  -15.3700    2.7590    5.1995 H   0  0  0  0  0
  -15.4679    4.7980    1.6880 H   0  0  0  0  0
  -14.1493   -0.8442    8.4154 H   0  0  0  0  0
  -15.0834    1.8506    9.0799 H   0  0  0  0  0
  -17.3164    1.0002    9.8590 H   0  0  0  0  0
  -17.0385   -0.3720    8.6769 H   0  0  0  0  0
  -17.1253    1.0641    6.8520 H   0  0  0  0  0
  -16.9546    2.5342    7.8920 H   0  0  0  0  0
  -19.3651    0.6827    7.9292 H   0  0  0  0  0
  -19.2736    2.1665    6.9571 H   0  0  0  0  0
  -18.5591    3.0463    9.4562 H   0  0  0  0  0
  -22.4273    1.7903    9.4662 H   0  0  0  0  0
  -21.3475    1.2424    8.1798 H   0  0  0  0  0
  -19.9453    3.6825   11.1104 H   0  0  0  0  0
  -13.9360    1.9637   10.8963 H   0  0  0  0  0
  -13.5310   -0.3870   12.6404 H   0  0  0  0  0
  -12.1396    1.1486   13.9525 H   0  0  0  0  0
  -12.6588    2.5100   12.8583 H   0  0  0  0  0
  -10.4070    1.6605   12.3638 H   0  0  0  0  0
  -11.5968    1.4135   10.9940 H   0  0  0  0  0
   -9.9475   -0.4694   11.4246 H   0  0  0  0  0
  -11.6910   -0.9087   11.4092 H   0  0  0  0  0
  -11.4948   -1.5715   13.6183 H   0  0  0  0  0
   -8.7760    0.5357   12.7315 H   0  0  0  0  0
   -8.9054   -0.9189   15.9261 H   0  0  0  0  0
  -10.4408   -1.7460   15.6439 H   0  0  0  0  0
  -16.3347    2.3260   14.1045 H   0  0  0  0  0
  -15.3758    2.7056   12.6701 H   0  0  0  0  0
  1  2  2  0  0  0
  1  3  1  0  0  0
  1  4  1  0  0  0
  4  5  1  0  0  0
  5  6  1  0  0  0
  5  8  1  0  0  0
  6  7  2  0  0  0
  6 11  1  0  0  0
  8  9  1  0  0  0
  8 10  1  0  0  0
 11 12  1  0  0  0
 11 17  1  0  0  0
 12 13  1  0  0  0
 12 15  1  0  0  0
 13 14  2  0  0  0
 13 18  1  0  0  0
 15 16  1  0  0  0
 16 17  1  0  0  0
 18 19  1  0  0  0
 18 24  1  0  0  0
 19 20  1  0  0  0
 19 22  1  0  0  0
 20 21  2  0  0  0
 20 25  1  0  0  0
 22 23  1  0  0  0
 23 24  1  0  0  0
 25 26  1  0  0  0
 25 31  1  0  0  0
 26 27  1  0  0  0
 26 29  1  0  0  0
 27 28  2  0  0  0
 27 32  1  0  0  0
 29 30  1  0  0  0
 30 31  1  0  0  0
 32 33  1  0  0  0
 33 34  1  0  0  0
 33 36  1  0  0  0
 34 35  2  0  0  0
 34 39  1  0  0  0
 36 37  1  0  0  0
 36 38  1  0  0  0
 39 40  1  0  0  0
 39 45  1  0  0  0
 40 41  1  0  0  0
 40 43  1  0  0  0
 41 42  2  0  0  0
 41 46  1  0  0  0
 43 44  1  0  0  0
 44 45  1  0  0  0
 46 47  1  0  0  0
 46 52  1  0  0  0
 47 48  1  0  0  0
 47 50  1  0  0  0
 48 49  2  0  0  0
 48 53  1  0  0  0
 50 51  1  0  0  0
 51 52  1  0  0  0
 53 54  1  0  0  0
 54 55  1  0  0  0
 54 57  1  0  0  0
 55 56  2  0  0  0
 55 64  1  0  0  0
 57 58  1  0  0  0
 58 59  1  0  0  0
 59 60  1  0  0  0
 60 61  1  0  0  0
 61 62  1  0  0  0
 61 63  2  0  0  0
 64 65  1  0  0  0
 65 66  1  0  0  0
 65 68  1  0  0  0
 66 67  2  0  0  0
 66 75  1  0  0  0
 68 69  1  0  0  0
 69 70  1  0  0  0
 70 71  1  0  0  0
 71 72  1  0  0  0
 72 73  1  0  0  0
 72 74  2  0  0  0
 75 76  1  0  0  0
 76 77  1  0  0  0
 76 79  1  0  0  0
 77 78  2  0  0  0
 77 86  1  0  0  0
 79 80  1  0  0  0
 80 81  1  0  0  0
 81 82  1  0  0  0
 82 83  1  0  0  0
 83 84  2  0  0  0
 83 85  1  0  0  0
  3 87  1  0  0  0
  3 88  1  0  0  0
  3 89  1  0  0  0
  4 90  1  0  0  0
  5 91  1  0  0  0
  8 92  1  0  0  0
  9 93  1  0  0  0
  9 94  1  0  0  0
  9 95  1  0  0  0
 10 96  1  0  0  0
 10 97  1  0  0  0
 10 98  1  0  0  0
 12 99  1  0  0  0
 15100  1  0  0  0
 15101  1  0  0  0
 16102  1  0  0  0
 16103  1  0  0  0
 17104  1  0  0  0
 17105  1  0  0  0
 19106  1  0  0  0
 22107  1  0  0  0
 22108  1  0  0  0
 23109  1  0  0  0
 23110  1  0  0  0
 24111  1  0  0  0
 24112  1  0  0  0
 26113  1  0  0  0
 29114  1  0  0  0
 29115  1  0  0  0
 30116  1  0  0  0
 30117  1  0  0  0
 31118  1  0  0  0
 31119  1  0  0  0
 32120  1  0  0  0
 33121  1  0  0  0
 36122  1  0  0  0
 37123  1  0  0  0
 37124  1  0  0  0
 37125  1  0  0  0
 38126  1  0  0  0
 38127  1  0  0  0
 38128  1  0  0  0
 40129  1  0  0  0
 43130  1  0  0  0
 43131  1  0  0  0
 44132  1  0  0  0
 44133  1  0  0  0
 45134  1  0  0  0
 45135  1  0  0  0
 47136  1  0  0  0
 50137  1  0  0  0
 50138  1  0  0  0
 51139  1  0  0  0
 51140  1  0  0  0
 52141  1  0  0  0
 52142  1  0  0  0
 53143  1  0  0  0
 54144  1  0  0  0
 57145  1  0  0  0
 57146  1  0  0  0
 58147  1  0  0  0
 58148  1  0  0  0
 59149  1  0  0  0
 59150  1  0  0  0
 60151  1  0  0  0
 62152  1  0  0  0
 62153  1  0  0  0
 63154  1  0  0  0
 64155  1  0  0  0
 65156  1  0  0  0
 68157  1  0  0  0
 68158  1  0  0  0
 69159  1  0  0  0
 69160  1  0  0  0
 70161  1  0  0  0
 70162  1  0  0  0
 71163  1  0  0  0
 73164  1  0  0  0
 73165  1  0  0  0
 74166  1  0  0  0
 75167  1  0  0  0
 76168  1  0  0  0
 79169  1  0  0  0
 79170  1  0  0  0
 80171  1  0  0  0
 80172  1  0  0  0
 81173  1  0  0  0
 81174  1  0  0  0
 82175  1  0  0  0
 84176  1  0  0  0
 85177  1  0  0  0
 85178  1  0  0  0
 86179  1  0  0  0
 86180  1  0  0  0
M  END
$$$$
