5qam_ligand
  -I-interpret- 

 33 34  0  0  0  0  0  0  0  0999 V2000
  100.4530  246.8540    5.2990 N   0  0  0  0  0
  102.7170  248.1300    6.0900 C   0  0  0  0  0
   95.4510  255.6310    4.9930 O   0  0  0  0  0
   99.5080  247.9230    5.3490 C   0  0  0  0  0
   94.6450  253.0560    5.4670 C   0  0  0  0  0
   95.9940  253.3760    5.3750 C   0  0  0  0  0
   96.4250  254.7800    5.1420 C   0  0  0  0  0
   96.9410  252.3580    5.4480 C   0  0  0  0  0
   98.3180  247.8170    4.6450 C   0  0  0  0  0
   97.3610  248.8090    4.7430 C   0  0  0  0  0
   99.7240  249.0380    6.1500 C   0  0  0  0  0
   98.7640  250.0300    6.2380 C   0  0  0  0  0
   97.5650  249.9380    5.5350 C   0  0  0  0  0
   96.5560  251.0240    5.5870 C   0  0  0  0  0
   95.1950  250.7340    5.6900 C   0  0  0  0  0
   94.2510  251.7420    5.6300 C   0  0  0  0  0
   97.6060  255.0970    5.1160 O   0  0  0  0  0
  101.4740  246.3270    7.4680 O   0  0  0  0  0
  102.5950  245.6440    5.3840 O   0  0  0  0  0
  101.8410  246.6140    6.1150 S   0  0  0  0  0
  100.2180  246.1132    4.6384 H   0  0  0  0  0
  102.0793  248.9231    6.4804 H   0  0  0  0  0
  103.6100  248.0424    6.7088 H   0  0  0  0  0
  103.0050  248.3649    5.0653 H   0  0  0  0  0
   94.6118  255.1680    5.0479 H   0  0  0  0  0
   93.8948  253.8447    5.4103 H   0  0  0  0  0
   98.0008  252.6072    5.3957 H   0  0  0  0  0
   98.1369  246.9482    4.0122 H   0  0  0  0  0
   96.4275  248.7067    4.1897 H   0  0  0  0  0
  100.6538  249.1312    6.7112 H   0  0  0  0  0
   98.9491  250.8994    6.8689 H   0  0  0  0  0
   94.8725  249.7008    5.8192 H   0  0  0  0  0
   93.1915  251.4991    5.7116 H   0  0  0  0  0
  4  1  1  0  0  0
  1 20  1  0  0  0
 20  2  1  0  0  0
  7  3  1  0  0  0
  9  4  4  0  0  0
 11  4  4  0  0  0
  6  5  4  0  0  0
  5 16  4  0  0  0
  6  7  1  0  0  0
  8  6  4  0  0  0
  7 17  2  0  0  0
 14  8  4  0  0  0
 10  9  4  0  0  0
 13 10  4  0  0  0
 12 11  4  0  0  0
 13 12  4  0  0  0
 13 14  1  0  0  0
 14 15  4  0  0  0
 15 16  4  0  0  0
 20 18  2  0  0  0
 20 19  2  0  0  0
  1 21  1  0  0  0
  2 22  1  0  0  0
  2 23  1  0  0  0
  2 24  1  0  0  0
  3 25  1  0  0  0
  5 26  1  0  0  0
  8 27  1  0  0  0
  9 28  1  0  0  0
 10 29  1  0  0  0
 11 30  1  0  0  0
 12 31  1  0  0  0
 15 32  1  0  0  0
 16 33  1  0  0  0
M  END
$$$$
