2z5o_ligand
  -I-interpret- 

104103  0  0  0  0  0  0  0  0999 V2000
   35.9310  -34.4600  -37.5320 N   0  3  0  0  0
   34.4870  -34.7120  -37.2310 C   0  0  0  0  0
   33.8050  -35.6090  -38.2750 C   0  0  0  0  0
   32.5790  -35.7400  -38.2710 O   0  0  0  0  0
   33.7310  -33.3830  -37.0730 C   0  0  0  0  0
   34.6100  -36.2300  -39.1440 N   0  0  0  0  0
   34.1350  -37.0960  -40.2380 C   0  0  0  0  0
   33.0770  -36.4190  -41.1230 C   0  0  0  0  0
   33.3170  -35.3300  -41.6460 O   0  0  0  0  0
   33.6490  -38.4590  -39.7040 C   0  0  0  0  0
   31.9180  -37.0610  -41.2790 N   0  0  0  0  0
   30.8170  -36.5260  -42.0840 C   0  0  0  0  0
   30.0910  -35.3950  -41.3490 C   0  0  0  0  0
   30.3530  -35.1690  -40.1750 O   0  0  0  0  0
   29.8500  -37.6420  -42.4530 C   0  0  0  0  0
   29.1920  -34.6850  -42.0340 N   0  0  0  0  0
   28.4540  -33.5630  -41.4270 C   0  0  0  0  0
   27.2700  -34.0390  -40.6020 C   0  0  0  0  0
   26.4380  -34.7920  -41.0900 O   0  0  0  0  0
   27.9790  -32.5770  -42.4880 C   0  0  0  0  0
   27.2020  -33.6100  -39.3470 N   0  0  0  0  0
   26.0370  -33.8830  -38.5100 C   0  0  0  0  0
   25.4550  -32.5530  -38.0320 C   0  0  0  0  0
   26.1860  -31.6840  -37.5550 O   0  0  0  0  0
   26.3970  -34.8030  -37.3360 C   0  0  0  0  0
   24.1400  -32.4010  -38.1840 N   0  0  0  0  0
   23.4470  -31.1310  -37.9540 C   0  0  0  0  0
   23.6770  -30.5230  -36.5390 C   0  0  0  0  0
   23.8150  -29.3060  -36.3750 O   0  0  0  0  0
   21.9650  -31.3080  -38.2630 C   0  0  0  0  0
   23.7300  -31.3930  -35.5350 N   0  0  0  0  0
   24.0230  -31.0400  -34.1480 C   0  0  0  0  0
   24.9040  -32.1780  -33.5780 C   0  0  0  0  0
   25.4440  -32.9700  -34.3540 O   0  0  0  0  0
   22.7240  -30.8910  -33.3720 C   0  0  0  0  0
   25.0710  -32.2630  -32.2570 N   0  0  0  0  0
   25.9210  -33.3130  -31.6590 C   0  0  0  0  0
   25.5130  -33.6470  -30.2260 C   0  0  0  0  0
   25.1730  -32.7480  -29.4510 O   0  0  0  0  0
   27.3980  -32.9170  -31.7040 C   0  0  0  0  0
   25.5500  -34.9340  -29.8670 N   0  0  0  0  0
   25.2330  -35.3350  -28.4930 C   0  0  0  0  0
   26.1720  -34.6220  -27.4820 C   0  0  0  0  0
   26.6530  -35.3010  -26.4090 O   0  0  0  0  0
   25.3410  -36.8680  -28.3460 C   0  0  0  0  0
   26.4280  -33.2500  -27.8520 N   0  0  0  0  0
   27.2890  -32.3510  -27.0560 C   0  0  0  0  0
   28.7640  -33.1660  -26.6160 C   0  0  0  0  0
   29.5780  -32.5150  -25.7860 O   0  0  0  0  0
   26.4270  -31.9710  -25.6060 C   0  0  0  0  0
   29.2090  -34.2610  -27.1850 O   0  0  0  0  0
   36.4165  -35.3513  -37.6335 H   0  0  0  0  0
   36.0086  -33.9285  -38.3991 H   0  0  0  0  0
   36.3487  -33.9290  -36.7678 H   0  0  0  0  0
   34.4516  -35.2566  -36.2875 H   0  0  0  0  0
   33.7150  -32.8597  -38.0290 H   0  0  0  0  0
   32.7095  -33.5837  -36.7501 H   0  0  0  0  0
   34.2343  -32.7665  -36.3283 H   0  0  0  0  0
   35.6161  -36.0958  -39.0433 H   0  0  0  0  0
   34.9939  -37.2781  -40.8840 H   0  0  0  0  0
   32.7469  -38.3142  -39.1096 H   0  0  0  0  0
   33.4306  -39.1196  -40.5431 H   0  0  0  0  0
   34.4273  -38.9030  -39.0833 H   0  0  0  0  0
   31.7931  -37.9624  -40.8183 H   0  0  0  0  0
   31.2335  -36.1069  -43.0000 H   0  0  0  0  0
   30.3778  -38.4031  -43.0277 H   0  0  0  0  0
   29.4462  -38.0867  -41.5434 H   0  0  0  0  0
   29.0359  -37.2326  -43.0512 H   0  0  0  0  0
   29.0101  -34.9265  -43.0081 H   0  0  0  0  0
   29.1515  -33.0574  -40.7591 H   0  0  0  0  0
   28.8407  -32.1781  -43.0232 H   0  0  0  0  0
   27.3196  -33.0890  -43.1888 H   0  0  0  0  0
   27.4383  -31.7613  -42.0080 H   0  0  0  0  0
   27.9810  -33.0779  -38.9591 H   0  0  0  0  0
   25.2835  -34.4120  -39.0935 H   0  0  0  0  0
   26.7775  -35.7491  -37.7209 H   0  0  0  0  0
   27.1610  -34.3252  -36.7227 H   0  0  0  0  0
   25.5074  -34.9859  -36.7333 H   0  0  0  0  0
   23.5888  -33.2085  -38.4748 H   0  0  0  0  0
   23.8820  -30.3978  -38.6332 H   0  0  0  0  0
   21.8455  -31.6082  -39.3040 H   0  0  0  0  0
   21.5487  -32.0766  -37.6118 H   0  0  0  0  0
   21.4447  -30.3654  -38.0933 H   0  0  0  0  0
   23.5539  -32.3749  -35.7479 H   0  0  0  0  0
   24.5490  -30.0884  -34.0713 H   0  0  0  0  0
   22.1194  -30.1056  -33.8255 H   0  0  0  0  0
   22.1767  -31.8333  -33.3979 H   0  0  0  0  0
   22.9480  -30.6277  -32.3383 H   0  0  0  0  0
   24.6033  -31.5908  -31.6489 H   0  0  0  0  0
   25.7742  -34.2096  -32.2612 H   0  0  0  0  0
   27.7019  -32.7695  -32.7403 H   0  0  0  0  0
   27.5418  -31.9914  -31.1466 H   0  0  0  0  0
   27.9989  -33.7089  -31.2570 H   0  0  0  0  0
   25.8011  -35.6436  -30.5553 H   0  0  0  0  0
   24.2083  -35.0355  -28.2732 H   0  0  0  0  0
   24.6396  -37.3475  -29.0289 H   0  0  0  0  0
   26.3564  -37.1840  -28.5850 H   0  0  0  0  0
   25.1029  -37.1511  -27.3207 H   0  0  0  0  0
   25.9953  -32.8852  -28.7006 H   0  0  0  0  0
   27.5332  -31.4583  -27.6318 H   0  0  0  0  0
   29.1294  -31.7386  -25.4432 H   0  0  0  0  0
   25.4888  -31.4783  -25.8611 H   0  0  0  0  0
   26.2190  -32.8895  -25.0572 H   0  0  0  0  0
   27.0317  -31.3065  -24.9889 H   0  0  0  0  0
  1  2  1  0  0  0
  2  3  1  0  0  0
  2  5  1  0  0  0
  3  4  2  0  0  0
  3  6  1  0  0  0
  6  7  1  0  0  0
  7  8  1  0  0  0
  7 10  1  0  0  0
  8  9  2  0  0  0
  8 11  1  0  0  0
 11 12  1  0  0  0
 12 13  1  0  0  0
 12 15  1  0  0  0
 13 14  2  0  0  0
 13 16  1  0  0  0
 16 17  1  0  0  0
 17 18  1  0  0  0
 17 20  1  0  0  0
 18 19  2  0  0  0
 18 21  1  0  0  0
 21 22  1  0  0  0
 22 23  1  0  0  0
 22 25  1  0  0  0
 23 24  2  0  0  0
 23 26  1  0  0  0
 26 27  1  0  0  0
 27 28  1  0  0  0
 27 30  1  0  0  0
 28 29  2  0  0  0
 28 31  1  0  0  0
 31 32  1  0  0  0
 32 33  1  0  0  0
 32 35  1  0  0  0
 33 34  2  0  0  0
 33 36  1  0  0  0
 36 37  1  0  0  0
 37 38  1  0  0  0
 37 40  1  0  0  0
 38 39  2  0  0  0
 38 41  1  0  0  0
 41 42  1  0  0  0
 42 43  1  0  0  0
 42 45  1  0  0  0
 43 44  2  0  0  0
 43 46  1  0  0  0
 46 47  1  0  0  0
 47 48  1  0  0  0
 47 50  1  0  0  0
 48 49  1  0  0  0
 48 51  2  0  0  0
  1 52  1  0  0  0
  1 53  1  0  0  0
  1 54  1  0  0  0
  2 55  1  0  0  0
  5 56  1  0  0  0
  5 57  1  0  0  0
  5 58  1  0  0  0
  6 59  1  0  0  0
  7 60  1  0  0  0
 10 61  1  0  0  0
 10 62  1  0  0  0
 10 63  1  0  0  0
 11 64  1  0  0  0
 12 65  1  0  0  0
 15 66  1  0  0  0
 15 67  1  0  0  0
 15 68  1  0  0  0
 16 69  1  0  0  0
 17 70  1  0  0  0
 20 71  1  0  0  0
 20 72  1  0  0  0
 20 73  1  0  0  0
 21 74  1  0  0  0
 22 75  1  0  0  0
 25 76  1  0  0  0
 25 77  1  0  0  0
 25 78  1  0  0  0
 26 79  1  0  0  0
 27 80  1  0  0  0
 30 81  1  0  0  0
 30 82  1  0  0  0
 30 83  1  0  0  0
 31 84  1  0  0  0
 32 85  1  0  0  0
 35 86  1  0  0  0
 35 87  1  0  0  0
 35 88  1  0  0  0
 36 89  1  0  0  0
 37 90  1  0  0  0
 40 91  1  0  0  0
 40 92  1  0  0  0
 40 93  1  0  0  0
 41 94  1  0  0  0
 42 95  1  0  0  0
 45 96  1  0  0  0
 45 97  1  0  0  0
 45 98  1  0  0  0
 46 99  1  0  0  0
 47100  1  0  0  0
 49101  1  0  0  0
 50102  1  0  0  0
 50103  1  0  0  0
 50104  1  0  0  0
M  END
$$$$
