2wtc_ligand
  -I-interpret- 

 42 44  0  0  0  0  0  0  0  0999 V2000
   -4.9630   50.0070   13.9560 C   0  0  0  0  0
   -5.7340   50.8490   13.0880 O   0  0  0  0  0
   -6.0490   50.4290   11.7420 C   0  0  0  0  0
   -7.4640   50.2720   11.2890 C   0  0  0  0  0
   -7.7480   49.8560    9.9510 C   0  0  0  0  0
   -9.1060   49.6620    9.5370 C   0  0  0  0  0
  -10.1580   49.8930   10.4530 C   0  0  0  0  0
  -11.5760   49.6160   10.0860 N   0  0  0  0  0
  -11.9050   49.1200    8.7710 C   0  0  0  0  0
  -13.2780   48.8780    8.4420 N   0  0  0  0  0
  -10.8480   48.8920    7.8210 C   0  0  0  0  0
  -11.1510   48.3710    6.5270 C   0  0  0  0  0
  -10.2580   47.3310    5.9770 C   0  0  0  0  0
  -10.5020   46.7630    4.6310 C   0  0  0  0  0
  -11.6340   47.2270    3.8300 C   0  0  0  0  0
  -11.8390   46.6160    2.4000 C   0  0  0  0  0
  -10.7310   45.9540    1.7730 N   0  0  0  0  0
  -12.8080   46.8330    1.7360 O   0  0  0  0  0
  -12.5340   48.2730    4.3860 C   0  0  0  0  0
  -12.2960   48.8450    5.7310 C   0  0  0  0  0
   -9.4440   49.1470    8.1940 C   0  0  0  0  0
   -6.6500   49.5470    9.0450 C   0  0  0  0  0
   -5.2390   49.7010    9.4990 C   0  0  0  0  0
   -4.9590   50.1390   10.8280 C   0  0  0  0  0
   -3.6290   50.3160   11.2620 O   0  0  0  0  0
   -5.4832   49.0596   14.0972 H   0  0  0  0  0
   -3.9862   49.8235   13.5085 H   0  0  0  0  0
   -4.8357   50.5002   14.9196 H   0  0  0  0  0
   -8.2819   50.4751   11.9803 H   0  0  0  0  0
   -9.9280   50.2806   11.4454 H   0  0  0  0  0
  -14.0070   49.0562    9.1328 H   0  0  0  0  0
  -13.5266   48.5275    7.5169 H   0  0  0  0  0
   -9.4119   46.9784    6.5669 H   0  0  0  0  0
   -9.8353   45.9964    4.2361 H   0  0  0  0  0
  -10.7872   45.6848    0.7908 H   0  0  0  0  0
   -9.8872   45.7526    2.3095 H   0  0  0  0  0
  -13.3804   48.6232    3.7951 H   0  0  0  0  0
  -12.9625   49.6103    6.1286 H   0  0  0  0  0
   -8.6495   48.9540    7.4732 H   0  0  0  0  0
   -6.8609   49.2023    8.0327 H   0  0  0  0  0
   -4.4198   49.4788    8.8151 H   0  0  0  0  0
   -3.0278   50.0849   10.5501 H   0  0  0  0  0
  1  2  1  0  0  0
  2  3  1  0  0  0
  3  4  4  0  0  0
  3 24  4  0  0  0
  4  5  4  0  0  0
  5  6  1  0  0  0
  5 22  4  0  0  0
  6  7  4  0  0  0
  6 21  4  0  0  0
  7  8  4  0  0  0
  8  9  4  0  0  0
  9 10  1  0  0  0
  9 11  4  0  0  0
 11 12  1  0  0  0
 11 21  4  0  0  0
 12 13  4  0  0  0
 12 20  4  0  0  0
 13 14  4  0  0  0
 14 15  4  0  0  0
 15 16  1  0  0  0
 15 19  4  0  0  0
 16 17  1  0  0  0
 16 18  2  0  0  0
 19 20  4  0  0  0
 22 23  4  0  0  0
 23 24  4  0  0  0
 24 25  1  0  0  0
  1 26  1  0  0  0
  1 27  1  0  0  0
  1 28  1  0  0  0
  4 29  1  0  0  0
  7 30  1  0  0  0
 10 31  1  0  0  0
 10 32  1  0  0  0
 13 33  1  0  0  0
 14 34  1  0  0  0
 17 35  1  0  0  0
 17 36  1  0  0  0
 19 37  1  0  0  0
 20 38  1  0  0  0
 21 39  1  0  0  0
 22 40  1  0  0  0
 23 41  1  0  0  0
 25 42  1  0  0  0
M  END
$$$$
