3gn7_ligand
  -I-interpret- 

 34 36  0  0  0  0  0  0  0  0999 V2000
   26.5090   65.4040    9.3900 C   0  0  0  0  0
   26.9340   66.1890   10.4440 C   0  0  0  0  0
   28.2340   66.0460   10.8660 C   0  0  0  0  0
   25.4300   64.4350    7.8210 C   0  0  0  0  0
   26.0620   67.1560   11.1150 C   0  0  0  0  0
   24.4130   63.9970    6.8530 C   0  0  0  0  0
   23.1140   65.8710    6.0270 C   0  0  0  0  0
   24.8540   64.2600    5.4360 C   0  0  0  0  0
   29.0900   65.1440   10.2740 C   0  0  0  0  0
   28.7020   64.3570    9.2150 C   0  0  0  0  0
   27.4010   64.5340    8.8050 C   0  0  0  0  0
   26.6920   63.9290    7.8070 N   0  0  0  0  0
   25.2860   65.3350    8.7730 N   0  0  0  0  0
   24.7270   66.9820   10.8570 N   0  0  0  0  0
   26.5500   68.0350   11.8080 O   0  0  0  0  0
   23.1610   64.7760    7.0210 N   0  3  0  0  0
   24.0620   65.4430    4.9320 C   0  0  0  0  0
   24.0960   62.5400    7.0200 C   0  0  0  0  0
   28.5965   66.6615   11.6893 H   0  0  0  0  0
   23.4048   66.8265    6.4635 H   0  0  0  0  0
   22.1044   66.0310    5.6486 H   0  0  0  0  0
   24.6758   63.3852    4.8107 H   0  0  0  0  0
   25.9227   64.4712    5.4003 H   0  0  0  0  0
   30.1064   65.0510   10.6566 H   0  0  0  0  0
   29.3753   63.6460    8.7362 H   0  0  0  0  0
   24.0421   67.6216   11.2598 H   0  0  0  0  0
   24.4185   66.2129   10.2622 H   0  0  0  0  0
   23.1342   65.1723    7.9605 H   0  0  0  0  0
   22.3598   64.1602    6.8822 H   0  0  0  0  0
   24.7327   66.2623    4.6731 H   0  0  0  0  0
   23.5039   65.1686    4.0368 H   0  0  0  0  0
   23.2958   62.2626    6.3338 H   0  0  0  0  0
   24.9851   61.9486    6.8013 H   0  0  0  0  0
   23.7776   62.3540    8.0457 H   0  0  0  0  0
  1  2  4  0  0  0
  1 11  4  0  0  0
 13  1  4  0  0  0
  2  3  4  0  0  0
  2  5  1  0  0  0
  3  9  4  0  0  0
  4  6  1  0  0  0
  4 12  4  0  0  0
  4 13  4  0  0  0
  5 14  1  0  0  0
  5 15  2  0  0  0
  6  8  1  0  0  0
  6 16  1  0  0  0
  6 18  1  0  0  0
 16  7  1  0  0  0
  7 17  1  0  0  0
  8 17  1  0  0  0
  9 10  4  0  0  0
 10 11  4  0  0  0
 11 12  4  0  0  0
  3 19  1  0  0  0
  7 20  1  0  0  0
  7 21  1  0  0  0
  8 22  1  0  0  0
  8 23  1  0  0  0
  9 24  1  0  0  0
 10 25  1  0  0  0
 14 26  1  0  0  0
 14 27  1  0  0  0
 16 28  1  0  0  0
 16 29  1  0  0  0
 17 30  1  0  0  0
 17 31  1  0  0  0
 18 32  1  0  0  0
 18 33  1  0  0  0
 18 34  1  0  0  0
M  END
$$$$
