3eid_ligand
  -I-interpret- 

 67 71  0  0  0  0  0  0  0  0999 V2000
  -15.0850  204.8870  113.8830 N   0  0  0  0  0
  -13.0640  205.6640  115.4820 C   0  0  0  0  0
  -13.0360  206.0050  114.1930 C   0  0  0  0  0
  -14.0690  205.6130  113.3380 C   0  0  0  0  0
  -14.3690  205.7680  112.0050 C   0  0  0  0  0
  -15.5990  205.0890  111.8460 C   0  0  0  0  0
  -13.5590  206.4510  111.0320 C   0  0  0  0  0
  -14.1460  206.8730  109.8670 C   0  0  0  0  0
   -9.5580  207.6650  111.8420 C   0  0  0  0  0
   -8.4210  208.0610  114.3300 C   0  0  0  0  0
   -7.6510  207.5770  113.2970 C   0  0  0  0  0
   -8.2260  207.3850  112.0600 C   0  0  0  0  0
   -6.5770  207.6490  115.5730 C   0  0  0  0  0
  -15.1920  204.4950  115.1580 N   0  0  0  0  0
  -14.2250  204.8660  115.9410 C   0  0  0  0  0
  -16.0300  204.5520  112.9900 N   0  0  0  0  0
  -12.2620  206.6290  111.3020 N   0  0  0  0  0
  -11.5280  207.2610  110.3770 C   0  0  0  0  0
  -12.0090  207.7070  109.2140 N   0  0  0  0  0
  -13.3060  207.5030  108.9860 C   0  0  0  0  0
  -10.1600  207.4830  110.5870 N   0  0  0  0  0
  -10.3100  208.1490  112.8870 C   0  0  0  0  0
   -9.7520  208.3440  114.1300 C   0  0  0  0  0
   -7.8670  208.2500  115.5810 O   0  0  0  0  0
   -5.7950  208.2190  116.7330 C   0  0  0  0  0
   -5.3740  209.5290  116.3640 O   0  0  0  0  0
   -6.6950  208.2700  117.9540 C   0  0  0  0  0
   -5.8870  208.5500  119.1700 N   0  3  0  0  0
   -6.6890  209.1390  120.2750 C   0  0  0  0  0
   -5.1000  207.3680  119.6020 C   0  0  0  0  0
  -14.2360  204.5130  117.2700 N   0  0  0  0  0
  -14.6560  205.4510  118.3030 C   0  0  0  0  0
  -15.2310  204.6720  119.4700 C   0  0  0  0  0
  -14.2910  203.6760  119.8860 O   0  0  0  0  0
  -14.1470  202.6900  118.8680 C   0  0  0  0  0
  -13.4640  203.3500  117.6940 C   0  0  0  0  0
  -12.2689  205.9590  116.1668 H   0  0  0  0  0
  -12.2036  206.5920  113.8049 H   0  0  0  0  0
  -16.1335  205.0128  110.8991 H   0  0  0  0  0
  -15.2043  206.7186  109.6566 H   0  0  0  0  0
   -6.5973  207.3480  113.4560 H   0  0  0  0  0
   -7.6172  207.0051  111.2395 H   0  0  0  0  0
   -6.0672  207.8597  114.6329 H   0  0  0  0  0
   -6.6631  206.5667  115.6700 H   0  0  0  0  0
  -13.7233  207.8579  108.0437 H   0  0  0  0  0
   -9.5561  207.5147  109.7656 H   0  0  0  0  0
  -11.3631  208.3815  112.7285 H   0  0  0  0  0
  -10.3616  208.7206  114.9514 H   0  0  0  0  0
   -4.9260  207.6052  116.9701 H   0  0  0  0  0
   -4.8727  209.9176  117.0846 H   0  0  0  0  0
   -7.1965  207.3092  118.0701 H   0  0  0  0  0
   -7.4323  209.0621  117.8232 H   0  0  0  0  0
   -5.2126  209.2683  118.9062 H   0  0  0  0  0
   -7.1269  210.0802  119.9427 H   0  0  0  0  0
   -7.4827  208.4465  120.5553 H   0  0  0  0  0
   -6.0432  209.3205  121.1341 H   0  0  0  0  0
   -5.7776  206.5442  119.8262 H   0  0  0  0  0
   -4.4202  207.0737  118.8024 H   0  0  0  0  0
   -4.5263  207.6212  120.4935 H   0  0  0  0  0
  -15.4123  206.1259  117.9022 H   0  0  0  0  0
  -13.8005  206.0377  118.6376 H   0  0  0  0  0
  -16.1598  204.1906  119.1640 H   0  0  0  0  0
  -15.4313  205.3519  120.2981 H   0  0  0  0  0
  -15.1212  202.2997  118.5734 H   0  0  0  0  0
  -13.5556  201.8494  119.2310 H   0  0  0  0  0
  -12.4634  203.6668  117.9881 H   0  0  0  0  0
  -13.3948  202.6406  116.8693 H   0  0  0  0  0
  4  1  4  0  0  0
  1 14  4  0  0  0
 16  1  4  0  0  0
  3  2  4  0  0  0
  2 15  4  0  0  0
  4  3  4  0  0  0
  5  4  4  0  0  0
  5  6  4  0  0  0
  7  5  1  0  0  0
  6 16  4  0  0  0
  7  8  4  0  0  0
 17  7  4  0  0  0
  8 20  4  0  0  0
  9 12  4  0  0  0
 21  9  1  0  0  0
  9 22  4  0  0  0
 11 10  4  0  0  0
 10 23  4  0  0  0
 10 24  1  0  0  0
 12 11  4  0  0  0
 24 13  1  0  0  0
 13 25  1  0  0  0
 14 15  4  0  0  0
 15 31  1  0  0  0
 18 17  4  0  0  0
 18 19  4  0  0  0
 18 21  1  0  0  0
 19 20  4  0  0  0
 22 23  4  0  0  0
 25 26  1  0  0  0
 25 27  1  0  0  0
 27 28  1  0  0  0
 28 29  1  0  0  0
 28 30  1  0  0  0
 31 32  1  0  0  0
 31 36  1  0  0  0
 32 33  1  0  0  0
 33 34  1  0  0  0
 34 35  1  0  0  0
 35 36  1  0  0  0
  2 37  1  0  0  0
  3 38  1  0  0  0
  6 39  1  0  0  0
  8 40  1  0  0  0
 11 41  1  0  0  0
 12 42  1  0  0  0
 13 43  1  0  0  0
 13 44  1  0  0  0
 20 45  1  0  0  0
 21 46  1  0  0  0
 22 47  1  0  0  0
 23 48  1  0  0  0
 25 49  1  0  0  0
 26 50  1  0  0  0
 27 51  1  0  0  0
 27 52  1  0  0  0
 28 53  1  0  0  0
 29 54  1  0  0  0
 29 55  1  0  0  0
 29 56  1  0  0  0
 30 57  1  0  0  0
 30 58  1  0  0  0
 30 59  1  0  0  0
 32 60  1  0  0  0
 32 61  1  0  0  0
 33 62  1  0  0  0
 33 63  1  0  0  0
 35 64  1  0  0  0
 35 65  1  0  0  0
 36 66  1  0  0  0
 36 67  1  0  0  0
M  END
$$$$
