4x6y_ligand
  -I-interpret- 

 49 52  0  0  0  0  0  0  0  0999 V2000
   -6.5160    8.8350   26.4230 C   0  0  0  0  0
   -2.4240    0.4990   38.6280 C   0  0  0  0  0
   -6.4460    8.7390   27.7950 C   0  0  0  0  0
   -5.5380    8.2480   25.6550 C   0  0  0  0  0
   -3.3010    0.0960   37.6430 C   0  0  0  0  0
   -1.4690    1.4480   38.3460 C   0  0  0  0  0
   -5.4050    8.0610   28.3920 C   0  0  0  0  0
   -4.5010    7.5780   26.2660 C   0  0  0  0  0
   -3.2300    0.6320   36.3750 C   0  0  0  0  0
   -1.3950    1.9880   37.0820 C   0  0  0  0  0
   -4.4150    7.4710   27.6370 C   0  0  0  0  0
   -2.2670    1.5810   36.0930 C   0  0  0  0  0
   -3.5810    4.7790   31.0810 C   0  0  0  0  0
   -4.0530    2.2080   33.4770 C   0  0  0  0  0
   -1.8340    1.9010   32.5310 C   0  0  0  0  0
   -2.2120    7.5000   28.8830 C   0  0  0  0  0
   -3.9510    3.7010   33.2580 C   0  0  0  0  0
   -1.8010    3.3710   32.1670 C   0  0  0  0  0
   -3.2810    6.7260   28.1980 C   0  0  0  0  0
   -3.1100    6.6180   29.6850 C   0  0  0  0  0
   -2.6970    1.5960   33.7300 C   0  0  0  0  0
   -3.1060    3.9970   32.1320 N   0  0  0  0  0
   -2.6720    5.3930   30.2670 N   0  0  0  0  0
   -4.7650    4.9550   30.8490 O   0  0  0  0  0
   -2.0830    2.2050   34.8580 O   0  0  0  0  0
   -7.3389    9.3712   25.9503 H   0  0  0  0  0
   -2.4874    0.0670   39.6267 H   0  0  0  0  0
   -7.2171    9.2011   28.4114 H   0  0  0  0  0
   -5.5831    8.3125   24.5678 H   0  0  0  0  0
   -4.0584   -0.6544   37.8695 H   0  0  0  0  0
   -0.7735    1.7712   39.1205 H   0  0  0  0  0
   -5.3643    7.9905   29.4790 H   0  0  0  0  0
   -3.7280    7.1204   25.6486 H   0  0  0  0  0
   -3.9276    0.3098   35.6019 H   0  0  0  0  0
   -0.6412    2.7435   36.8604 H   0  0  0  0  0
   -4.4763    1.7543   32.5808 H   0  0  0  0  0
   -4.6827    2.0277   34.3483 H   0  0  0  0  0
   -0.8151    1.6018   32.7767 H   0  0  0  0  0
   -2.2531    1.3628   31.6808 H   0  0  0  0  0
   -1.8405    8.5243   28.9116 H   0  0  0  0  0
   -1.1441    7.6872   28.7708 H   0  0  0  0  0
   -3.5209    4.1579   34.1493 H   0  0  0  0  0
   -4.9479    4.0959   33.0621 H   0  0  0  0  0
   -1.3783    3.4472   31.1652 H   0  0  0  0  0
   -1.2175    3.8813   32.9332 H   0  0  0  0  0
   -3.3269    6.0002   27.3861 H   0  0  0  0  0
   -3.7346    6.7725   30.5648 H   0  0  0  0  0
   -2.8060    0.5256   33.9045 H   0  0  0  0  0
   -1.7466    5.0029   30.0886 H   0  0  0  0  0
  3  1  4  0  0  0
  4  1  4  0  0  0
  5  2  4  0  0  0
  6  2  4  0  0  0
  7  3  4  0  0  0
  8  4  4  0  0  0
  9  5  4  0  0  0
 10  6  4  0  0  0
 11  7  4  0  0  0
 11  8  4  0  0  0
 12  9  4  0  0  0
 12 10  4  0  0  0
 19 11  1  0  0  0
 25 12  1  0  0  0
 22 13  1  0  0  0
 13 23  1  0  0  0
 13 24  2  0  0  0
 14 17  1  0  0  0
 21 14  1  0  0  0
 15 18  1  0  0  0
 21 15  1  0  0  0
 19 16  1  0  0  0
 20 16  1  0  0  0
 17 22  1  0  0  0
 18 22  1  0  0  0
 20 19  1  0  0  0
 23 20  1  0  0  0
 21 25  1  0  0  0
  1 26  1  0  0  0
  2 27  1  0  0  0
  3 28  1  0  0  0
  4 29  1  0  0  0
  5 30  1  0  0  0
  6 31  1  0  0  0
  7 32  1  0  0  0
  8 33  1  0  0  0
  9 34  1  0  0  0
 10 35  1  0  0  0
 14 36  1  0  0  0
 14 37  1  0  0  0
 15 38  1  0  0  0
 15 39  1  0  0  0
 16 40  1  0  0  0
 16 41  1  0  0  0
 17 42  1  0  0  0
 17 43  1  0  0  0
 18 44  1  0  0  0
 18 45  1  0  0  0
 19 46  1  0  0  0
 20 47  1  0  0  0
 21 48  1  0  0  0
 23 49  1  0  0  0
M  END
$$$$
