2qn1_ligand
  -I-interpret- 

 83 87  0  0  0  0  0  0  0  0999 V2000
   24.0630   -4.0930   54.4410 O   0  0  0  0  0
   25.2010   -3.2240   54.4770 C   0  0  0  0  0
   26.4510   -3.9890   54.0000 C   0  0  0  0  0
   26.6610   -5.1290   54.8330 O   0  0  0  0  0
   27.7130   -3.1050   54.0280 C   0  0  0  0  0
   27.5730   -1.8210   53.1800 C   0  0  0  0  0
   27.5740   -2.2000   51.6830 C   0  0  0  0  0
   28.7670   -0.8740   53.5280 C   0  0  0  0  0
   30.1520   -1.5300   53.2460 C   0  0  0  0  0
   31.2010   -0.6130   53.3080 C   0  0  0  0  0
   31.1340    0.7640   53.5550 C   0  0  0  0  0
   32.4780    1.5490   53.5500 C   0  0  0  0  0
   33.1830    1.4460   54.9430 C   0  0  0  0  0
   33.9140    0.0980   55.0530 C   0  0  0  0  0
   34.1700    2.5850   55.3180 C   0  0  0  0  0
   34.2930    2.7110   56.8430 C   0  0  0  0  0
   33.8380    3.9620   54.7100 C   0  0  0  0  0
   33.4940    3.8750   53.2140 C   0  0  0  0  0
   32.2690    2.9810   52.9600 C   0  0  0  0  0
   32.0460    2.8920   51.4300 C   0  0  0  0  0
   31.5370    3.8900   50.8700 O   0  0  0  0  0
   32.3830    1.8360   50.8440 O   0  0  0  0  0
   31.0340    3.6720   53.5870 C   0  0  0  0  0
   29.7290    2.9110   53.3090 C   0  0  0  0  0
   29.7490    1.4490   53.8050 C   0  0  0  0  0
   29.4620    1.4410   55.3240 C   0  0  0  0  0
   28.6720    0.6210   53.0330 C   0  0  0  0  0
   28.8850    0.7740   51.5080 C   0  0  0  0  0
   27.2630    1.2120   53.3430 C   0  0  0  0  0
   26.1010    0.2970   52.9260 C   0  0  0  0  0
   26.2570   -1.0760   53.6200 C   0  0  0  0  0
   24.9440   -1.9360   53.6580 C   0  0  0  0  0
   24.4220   -2.2820   52.2530 C   0  0  0  0  0
   23.8220   -1.1300   54.3430 C   0  0  0  0  0
   24.2150   -0.6630   55.6320 O   0  0  0  0  0
   24.2481   -4.8822   54.9552 H   0  0  0  0  0
   25.3786   -2.9021   55.5031 H   0  0  0  0  0
   26.2757   -4.2961   52.9689 H   0  0  0  0  0
   25.8771   -5.6830   54.8188 H   0  0  0  0  0
   28.5349   -3.6881   53.6127 H   0  0  0  0  0
   27.8824   -2.8025   55.0614 H   0  0  0  0  0
   27.4867   -1.2958   51.0805 H   0  0  0  0  0
   28.5051   -2.7118   51.4397 H   0  0  0  0  0
   26.7308   -2.8590   51.4758 H   0  0  0  0  0
   28.6695   -0.7548   54.6071 H   0  0  0  0  0
   30.2862   -2.5888   53.0247 H   0  0  0  0  0
   32.1990   -1.0193   53.1435 H   0  0  0  0  0
   30.5877    1.6137   53.9645 H   0  0  0  0  0
   33.1980    1.0931   52.8704 H   0  0  0  0  0
   32.3655    1.5421   55.6576 H   0  0  0  0  0
   33.1940   -0.7138   54.9500 H   0  0  0  0  0
   34.6608    0.0255   54.2623 H   0  0  0  0  0
   34.4037    0.0299   56.0244 H   0  0  0  0  0
   35.1210    2.2864   54.8769 H   0  0  0  0  0
   33.3147    2.9358   57.2678 H   0  0  0  0  0
   34.6625    1.7720   57.2552 H   0  0  0  0  0
   34.9889    3.5143   57.0850 H   0  0  0  0  0
   34.7162    4.5986   54.8175 H   0  0  0  0  0
   32.9689    4.3608   55.2331 H   0  0  0  0  0
   34.3473    3.4431   52.6911 H   0  0  0  0  0
   33.2652    4.8789   52.8564 H   0  0  0  0  0
   32.7477    1.2192   51.4829 H   0  0  0  0  0
   30.9445    4.6648   53.1461 H   0  0  0  0  0
   31.1799    3.7058   54.6667 H   0  0  0  0  0
   29.5878    2.8878   52.2284 H   0  0  0  0  0
   28.9300    3.4263   53.8421 H   0  0  0  0  0
   29.4378    0.4119   55.6825 H   0  0  0  0  0
   30.2474    1.9898   55.8437 H   0  0  0  0  0
   28.4992    1.9156   55.5130 H   0  0  0  0  0
   29.8738    0.4008   51.2413 H   0  0  0  0  0
   28.1240    0.2021   50.9770 H   0  0  0  0  0
   28.8067    1.8264   51.2353 H   0  0  0  0  0
   27.1671    2.1380   52.7760 H   0  0  0  0  0
   27.1981    1.3482   54.4225 H   0  0  0  0  0
   26.1126    0.1625   51.8444 H   0  0  0  0  0
   25.1552    0.7503   53.2226 H   0  0  0  0  0
   26.4100   -0.8758   54.6805 H   0  0  0  0  0
   24.2043   -1.3618   51.7109 H   0  0  0  0  0
   25.1801   -2.8514   51.7152 H   0  0  0  0  0
   23.5131   -2.8772   52.3409 H   0  0  0  0  0
   22.9572   -1.7823   54.4644 H   0  0  0  0  0
   23.5933   -0.2648   53.7207 H   0  0  0  0  0
   23.4930   -0.1675   56.0254 H   0  0  0  0  0
  1  2  1  0  0  0
  2  3  1  0  0  0
  2 32  1  0  0  0
  3  4  1  0  0  0
  3  5  1  0  0  0
  5  6  1  0  0  0
  6  7  1  0  0  0
  6  8  1  0  0  0
  6 31  1  0  0  0
  8  9  1  0  0  0
  8 27  1  0  0  0
  9 10  2  0  0  0
 10 11  1  0  0  0
 11 12  1  0  0  0
 11 25  1  0  0  0
 12 13  1  0  0  0
 12 19  1  0  0  0
 13 14  1  0  0  0
 13 15  1  0  0  0
 15 16  1  0  0  0
 15 17  1  0  0  0
 17 18  1  0  0  0
 18 19  1  0  0  0
 19 20  1  0  0  0
 19 23  1  0  0  0
 20 21  2  0  0  0
 20 22  1  0  0  0
 23 24  1  0  0  0
 24 25  1  0  0  0
 25 26  1  0  0  0
 25 27  1  0  0  0
 27 28  1  0  0  0
 27 29  1  0  0  0
 29 30  1  0  0  0
 30 31  1  0  0  0
 31 32  1  0  0  0
 32 33  1  0  0  0
 32 34  1  0  0  0
 34 35  1  0  0  0
  1 36  1  0  0  0
  2 37  1  0  0  0
  3 38  1  0  0  0
  4 39  1  0  0  0
  5 40  1  0  0  0
  5 41  1  0  0  0
  7 42  1  0  0  0
  7 43  1  0  0  0
  7 44  1  0  0  0
  8 45  1  0  0  0
  9 46  1  0  0  0
 10 47  1  0  0  0
 11 48  1  0  0  0
 12 49  1  0  0  0
 13 50  1  0  0  0
 14 51  1  0  0  0
 14 52  1  0  0  0
 14 53  1  0  0  0
 15 54  1  0  0  0
 16 55  1  0  0  0
 16 56  1  0  0  0
 16 57  1  0  0  0
 17 58  1  0  0  0
 17 59  1  0  0  0
 18 60  1  0  0  0
 18 61  1  0  0  0
 22 62  1  0  0  0
 23 63  1  0  0  0
 23 64  1  0  0  0
 24 65  1  0  0  0
 24 66  1  0  0  0
 26 67  1  0  0  0
 26 68  1  0  0  0
 26 69  1  0  0  0
 28 70  1  0  0  0
 28 71  1  0  0  0
 28 72  1  0  0  0
 29 73  1  0  0  0
 29 74  1  0  0  0
 30 75  1  0  0  0
 30 76  1  0  0  0
 31 77  1  0  0  0
 33 78  1  0  0  0
 33 79  1  0  0  0
 33 80  1  0  0  0
 34 81  1  0  0  0
 34 82  1  0  0  0
 35 83  1  0  0  0
M  END
$$$$
