6fbv_ligand
  -I-interpret- 

146149  0  0  0  0  0  0  0  0999 V2000
   75.5440   91.4340  103.9570 C   0  0  0  0  0
   78.2400   97.1930  103.6680 C   0  0  0  0  0
   79.0400   98.2050  104.4900 C   0  0  0  0  0
   79.8230   97.5060  105.5940 C   0  0  0  0  0
   78.8800   96.6760  106.4670 C   0  0  0  0  0
   79.3720   95.5270  106.9890 C   0  0  0  0  0
   78.5540   94.5890  107.8830 C   0  0  0  0  0
   79.1990   93.4840  108.3190 C   0  0  0  0  0
   78.4270   92.5170  109.2120 C   0  0  0  0  0
   77.7090   91.4300  108.3930 C   0  0  0  0  0
   77.1070   90.3820  109.3290 C   0  0  0  0  0
   76.2820   91.3790  106.4960 C   0  0  0  0  0
   78.1670   89.9010  110.3260 C   0  0  0  0  0
   77.4370   99.1750  102.3480 C   0  0  0  0  0
   79.9930   98.9130  103.5920 C   0  0  0  0  0
   80.6040  100.1310  104.2480 C   0  0  0  0  0
   77.4700   97.1960  106.6860 C   0  0  0  0  0
   77.1140   94.8590  108.2660 C   0  0  0  0  0
   73.5320   90.7460  102.9060 C   0  0  0  0  0
   72.4450   89.7220  103.2460 C   0  0  0  0  0
   71.6130   89.3590  102.0750 C   0  0  0  0  0
   71.1700   90.5260  101.2930 C   0  0  0  0  0
   75.9590   92.1660  105.2290 C   0  0  0  0  0
   72.2970   91.5260  101.0380 C   0  0  0  0  0
   71.7170   92.7540  100.4280 C   0  0  0  0  0
   71.2900   89.3580  105.3330 C   0  0  0  0  0
   69.3850   89.7570   99.8270 C   0  0  0  0  0
   68.6670   90.2260   98.5650 C   0  0  0  0  0
   68.2130   91.5460   98.4660 C   0  0  0  0  0
   67.5560   91.9740   97.3090 C   0  0  0  0  0
   67.3540   91.0890   96.2570 C   0  0  0  0  0
   67.8090   89.7670   96.3550 C   0  0  0  0  0
   68.4660   89.3390   97.5120 C   0  0  0  0  0
   76.0460   93.6050  105.2690 C   0  0  0  0  0
   68.9620   87.9030   97.6210 C   0  0  0  0  0
   70.4350   87.8280   98.0020 C   0  0  0  0  0
   81.2430   97.9500  107.4370 C   0  0  0  0  0
   82.6540   98.5340  107.3690 C   0  0  0  0  0
   83.4830   98.1350  108.5430 C   0  0  0  0  0
   82.7990   98.3860  109.8120 C   0  0  0  0  0
   81.3630   97.8260  109.8190 C   0  0  0  0  0
   80.6660   98.2920  111.0790 C   0  0  0  0  0
   81.4290   96.2980  109.8150 C   0  0  0  0  0
   83.3710   98.3150  112.1870 C   0  0  0  0  0
   75.7020   94.2840  103.9510 C   0  0  0  0  0
   83.8990   97.5770  113.3970 C   0  0  0  0  0
   85.3920   97.8590  113.6030 C   0  0  0  0  0
   83.6310   96.0770  113.2860 C   0  0  0  0  0
   75.7520   95.6290  103.8750 C   0  0  0  0  0
   75.4150   96.3390  102.5680 C   0  0  0  0  0
   76.6840   96.7370  101.8170 C   0  0  0  0  0
   77.4990   97.6900  102.6690 C   0  0  0  0  0
   76.6430   92.0530  107.6240 O   0  0  0  0  0
   70.6890   90.0610  100.0090 O   0  0  0  0  0
   68.7860   89.1110  100.6620 O   0  0  0  0  0
   66.7180   91.5050   95.1370 O   0  0  0  0  0
   68.4100   92.4090   99.4930 O   0  0  0  0  0
   80.5970   98.2630  108.6760 O   0  0  0  0  0
   82.5660   99.9570  107.3370 O   0  0  0  0  0
   84.6990   98.8880  108.5240 O   0  0  0  0  0
   83.5530   97.7520  110.8780 O   0  0  0  0  0
   82.8140   99.3530  112.3340 O   0  0  0  0  0
   76.2160   90.1870  106.4970 O   0  0  0  0  0
   77.4530   95.5730  101.5480 O   0  0  0  0  0
   80.4750   98.4740  106.3810 O   0  0  0  0  0
   76.0200   90.9540  110.0350 O   0  0  0  0  0
   74.1290   91.1460  104.0670 O   0  0  0  0  0
   72.9920   91.8880  102.2440 O   0  0  0  0  0
   70.4400   88.6540  102.5520 O   0  0  0  0  0
   71.5860   90.2750  104.2750 O   0  0  0  0  0
   66.9940   93.6050   97.1880 Cl  0  0  0  0  0
   67.5580   88.6650   95.0430 Cl  0  0  0  0  0
   76.1143   90.5122  103.8427 H   0  0  0  0  0
   75.7421   92.0494  103.0795 H   0  0  0  0  0
   78.2713   96.1250  103.8836 H   0  0  0  0  0
   78.3475   98.9124  104.9463 H   0  0  0  0  0
   80.5599   96.8390  105.1467 H   0  0  0  0  0
   80.4029   95.2556  106.7614 H   0  0  0  0  0
   80.2353   93.2903  108.0421 H   0  0  0  0  0
   77.6753   93.0842  109.7610 H   0  0  0  0  0
   79.1358   92.0291  109.8810 H   0  0  0  0  0
   78.4225   90.9445  107.7272 H   0  0  0  0  0
   76.7585   89.5327  108.7414 H   0  0  0  0  0
   79.0022   89.4600  109.7819 H   0  0  0  0  0
   78.5214   90.7475  110.9142 H   0  0  0  0  0
   77.7287   89.1546  110.9885 H   0  0  0  0  0
   77.0583   99.7172  103.2144 H   0  0  0  0  0
   78.4361   99.5341  102.1013 H   0  0  0  0  0
   76.7723   99.3344  101.4990 H   0  0  0  0  0
   79.4442   99.2437  102.7102 H   0  0  0  0  0
   80.7993   98.2229  103.3434 H   0  0  0  0  0
   79.8135  100.8303  104.5206 H   0  0  0  0  0
   81.1461   99.8264  105.1433 H   0  0  0  0  0
   81.2912  100.6111  103.5513 H   0  0  0  0  0
   76.7526   96.4658  106.3115 H   0  0  0  0  0
   77.3046   97.3564  107.7514 H   0  0  0  0  0
   77.3444   98.1377  106.1517 H   0  0  0  0  0
   76.4854   94.0429  107.9096 H   0  0  0  0  0
   77.0356   94.9327  109.3507 H   0  0  0  0  0
   76.7881   95.7951  107.8125 H   0  0  0  0  0
   74.2510   90.2766  102.2345 H   0  0  0  0  0
   72.9452   88.8155  103.5869 H   0  0  0  0  0
   72.2262   88.7432  101.4171 H   0  0  0  0  0
   70.3936   91.0308  101.8679 H   0  0  0  0  0
   73.0180   91.0533  100.3710 H   0  0  0  0  0
   71.2305   92.4959   99.4874 H   0  0  0  0  0
   70.9852   93.1863  101.1104 H   0  0  0  0  0
   72.5122   93.4757  100.2412 H   0  0  0  0  0
   70.7844   88.4836  104.9234 H   0  0  0  0  0
   72.2177   89.0501  105.8154 H   0  0  0  0  0
   70.6433   89.8443  106.0633 H   0  0  0  0  0
   76.3327   94.1574  106.1639 H   0  0  0  0  0
   68.8397   87.4280   96.6476 H   0  0  0  0  0
   68.3853   87.4040   98.3998 H   0  0  0  0  0
   71.0314   88.3353   97.2437 H   0  0  0  0  0
   70.5844   88.3118   98.9673 H   0  0  0  0  0
   70.7395   86.7834   98.0667 H   0  0  0  0  0
   81.3254   96.8659  107.3588 H   0  0  0  0  0
   83.1312   98.1466  106.4689 H   0  0  0  0  0
   83.6749   97.0646  108.4689 H   0  0  0  0  0
   82.7376   99.4649  109.9544 H   0  0  0  0  0
   81.2104   97.9271  111.9500 H   0  0  0  0  0
   80.6390   99.3815  111.0960 H   0  0  0  0  0
   79.6484   97.9018  111.0953 H   0  0  0  0  0
   81.9530   95.9606  108.9208 H   0  0  0  0  0
   81.9634   95.9564  110.7015 H   0  0  0  0  0
   80.4175   95.8919  109.8199 H   0  0  0  0  0
   75.4193   93.6913  103.0810 H   0  0  0  0  0
   83.3657   97.9450  114.2735 H   0  0  0  0  0
   85.9469   97.5324  112.7235 H   0  0  0  0  0
   85.5413   98.9284  113.7519 H   0  0  0  0  0
   85.7455   97.3160  114.4795 H   0  0  0  0  0
   82.5570   95.9055  113.2133 H   0  0  0  0  0
   84.1238   95.6861  112.3958 H   0  0  0  0  0
   84.0217   95.5730  114.1700 H   0  0  0  0  0
   76.0346   96.2118  104.7517 H   0  0  0  0  0
   74.8471   97.2408  102.7968 H   0  0  0  0  0
   74.8364   95.6606  101.9411 H   0  0  0  0  0
   76.4153   97.2259  100.8806 H   0  0  0  0  0
   66.6613   90.7772   94.5135 H   0  0  0  0  0
   68.0413   93.2655   99.2649 H   0  0  0  0  0
   83.4494  100.3302  107.2942 H   0  0  0  0  0
   85.2404   98.6384  109.2764 H   0  0  0  0  0
   78.2514   95.8204  101.0759 H   0  0  0  0  0
   75.6408   90.2970  110.6233 H   0  0  0  0  0
   69.8884   88.4107  101.8049 H   0  0  0  0  0
 23  1  1  0  0  0
  1 67  1  0  0  0
  3  2  1  0  0  0
  2 52  2  0  0  0
  4  3  1  0  0  0
  3 15  1  0  0  0
  4  5  1  0  0  0
 65  4  1  0  0  0
  5  6  2  0  0  0
  5 17  1  0  0  0
  6  7  1  0  0  0
  7  8  2  0  0  0
  7 18  1  0  0  0
  8  9  1  0  0  0
  9 10  1  0  0  0
 10 11  1  0  0  0
 10 53  1  0  0  0
 11 13  1  0  0  0
 11 66  1  0  0  0
 12 23  1  0  0  0
 53 12  1  0  0  0
 12 63  2  0  0  0
 52 14  1  0  0  0
 15 16  1  0  0  0
 19 20  1  0  0  0
 67 19  1  0  0  0
 19 68  1  0  0  0
 20 21  1  0  0  0
 20 70  1  0  0  0
 21 22  1  0  0  0
 21 69  1  0  0  0
 24 22  1  0  0  0
 22 54  1  0  0  0
 23 34  2  0  0  0
 24 25  1  0  0  0
 68 24  1  0  0  0
 70 26  1  0  0  0
 27 28  1  0  0  0
 54 27  1  0  0  0
 27 55  2  0  0  0
 28 29  4  0  0  0
 28 33  4  0  0  0
 29 30  4  0  0  0
 29 57  1  0  0  0
 30 31  4  0  0  0
 30 71  1  0  0  0
 32 31  4  0  0  0
 31 56  1  0  0  0
 33 32  4  0  0  0
 32 72  1  0  0  0
 33 35  1  0  0  0
 34 45  1  0  0  0
 35 36  1  0  0  0
 38 37  1  0  0  0
 58 37  1  0  0  0
 37 65  1  0  0  0
 39 38  1  0  0  0
 38 59  1  0  0  0
 40 39  1  0  0  0
 39 60  1  0  0  0
 40 41  1  0  0  0
 61 40  1  0  0  0
 41 42  1  0  0  0
 41 43  1  0  0  0
 41 58  1  0  0  0
 44 46  1  0  0  0
 44 61  1  0  0  0
 44 62  2  0  0  0
 45 49  2  0  0  0
 46 47  1  0  0  0
 46 48  1  0  0  0
 49 50  1  0  0  0
 50 51  1  0  0  0
 51 52  1  0  0  0
 51 64  1  0  0  0
  1 73  1  0  0  0
  1 74  1  0  0  0
  2 75  1  0  0  0
  3 76  1  0  0  0
  4 77  1  0  0  0
  6 78  1  0  0  0
  8 79  1  0  0  0
  9 80  1  0  0  0
  9 81  1  0  0  0
 10 82  1  0  0  0
 11 83  1  0  0  0
 13 84  1  0  0  0
 13 85  1  0  0  0
 13 86  1  0  0  0
 14 87  1  0  0  0
 14 88  1  0  0  0
 14 89  1  0  0  0
 15 90  1  0  0  0
 15 91  1  0  0  0
 16 92  1  0  0  0
 16 93  1  0  0  0
 16 94  1  0  0  0
 17 95  1  0  0  0
 17 96  1  0  0  0
 17 97  1  0  0  0
 18 98  1  0  0  0
 18 99  1  0  0  0
 18100  1  0  0  0
 19101  1  0  0  0
 20102  1  0  0  0
 21103  1  0  0  0
 22104  1  0  0  0
 24105  1  0  0  0
 25106  1  0  0  0
 25107  1  0  0  0
 25108  1  0  0  0
 26109  1  0  0  0
 26110  1  0  0  0
 26111  1  0  0  0
 34112  1  0  0  0
 35113  1  0  0  0
 35114  1  0  0  0
 36115  1  0  0  0
 36116  1  0  0  0
 36117  1  0  0  0
 37118  1  0  0  0
 38119  1  0  0  0
 39120  1  0  0  0
 40121  1  0  0  0
 42122  1  0  0  0
 42123  1  0  0  0
 42124  1  0  0  0
 43125  1  0  0  0
 43126  1  0  0  0
 43127  1  0  0  0
 45128  1  0  0  0
 46129  1  0  0  0
 47130  1  0  0  0
 47131  1  0  0  0
 47132  1  0  0  0
 48133  1  0  0  0
 48134  1  0  0  0
 48135  1  0  0  0
 49136  1  0  0  0
 50137  1  0  0  0
 50138  1  0  0  0
 51139  1  0  0  0
 56140  1  0  0  0
 57141  1  0  0  0
 59142  1  0  0  0
 60143  1  0  0  0
 64144  1  0  0  0
 66145  1  0  0  0
 69146  1  0  0  0
M  END
$$$$
