### 
### Created by X-TOOL on Wed Jan  1 15:39:38 2020
### 

@<TRIPOS>MOLECULE
6fbv_ligand
  146   149     1     0     0
SMALL
GAST_HUCK


@<TRIPOS>ATOM
      1 C1         75.5440   91.4340  103.9570 C.3       1 FI8         0.0890
      2 C10        78.2400   97.1930  103.6680 C.2       1 FI8        -0.0983
      3 C11        79.0400   98.2050  104.4900 C.3       1 FI8         0.0039
      4 C12        79.8230   97.5060  105.5940 C.3       1 FI8         0.1045
      5 C13        78.8800   96.6760  106.4670 C.2       1 FI8        -0.0331
      6 C14        79.3720   95.5270  106.9890 C.2       1 FI8        -0.0840
      7 C15        78.5540   94.5890  107.8830 C.2       1 FI8        -0.0930
      8 C16        79.1990   93.4840  108.3190 C.2       1 FI8        -0.1069
      9 C17        78.4270   92.5170  109.2120 C.3       1 FI8        -0.0111
     10 C18        77.7090   91.4300  108.3930 C.3       1 FI8         0.1156
     11 C19        77.1070   90.3820  109.3290 C.3       1 FI8         0.0841
     12 C2         76.2820   91.3790  106.4960 C.2       1 FI8         0.2541
     13 C20        78.1670   89.9010  110.3260 C.3       1 FI8        -0.0360
     14 C21        77.4370   99.1750  102.3480 C.3       1 FI8        -0.0377
     15 C22        79.9930   98.9130  103.5920 C.3       1 FI8        -0.0451
     16 C23        80.6040  100.1310  104.2480 C.3       1 FI8        -0.0636
     17 C24        77.4700   97.1960  106.6860 C.3       1 FI8        -0.0251
     18 C25        77.1140   94.8590  108.2660 C.3       1 FI8        -0.0471
     19 C26        73.5320   90.7460  102.9060 C.3       1 FI8         0.1902
     20 C27        72.4450   89.7220  103.2460 C.3       1 FI8         0.1377
     21 C28        71.6130   89.3590  102.0750 C.3       1 FI8         0.1187
     22 C29        71.1700   90.5260  101.2930 C.3       1 FI8         0.1400
     23 C3         75.9590   92.1660  105.2290 C.2       1 FI8         0.0561
     24 C30        72.2970   91.5260  101.0380 C.3       1 FI8         0.0918
     25 C31        71.7170   92.7540  100.4280 C.3       1 FI8        -0.0357
     26 C32        71.2900   89.3580  105.3330 C.3       1 FI8         0.0371
     27 C33        69.3850   89.7570   99.8270 C.2       1 FI8         0.2450
     28 C34        68.6670   90.2260   98.5650 C.ar      1 FI8         0.0822
     29 C35        68.2130   91.5460   98.4660 C.ar      1 FI8         0.1113
     30 C36        67.5560   91.9740   97.3090 C.ar      1 FI8         0.0945
     31 C37        67.3540   91.0890   96.2570 C.ar      1 FI8         0.1072
     32 C38        67.8090   89.7670   96.3550 C.ar      1 FI8         0.0640
     33 C39        68.4660   89.3390   97.5120 C.ar      1 FI8        -0.0229
     34 C4         76.0460   93.6050  105.2690 C.2       1 FI8        -0.0625
     35 C40        68.9620   87.9030   97.6210 C.3       1 FI8        -0.0219
     36 C41        70.4350   87.8280   98.0020 C.3       1 FI8        -0.0546
     37 C42        81.2430   97.9500  107.4370 C.3       1 FI8         0.1915
     38 C43        82.6540   98.5340  107.3690 C.3       1 FI8         0.1347
     39 C44        83.4830   98.1350  108.5430 C.3       1 FI8         0.1189
     40 C45        82.7990   98.3860  109.8120 C.3       1 FI8         0.1442
     41 C46        81.3630   97.8260  109.8190 C.3       1 FI8         0.1000
     42 C47        80.6660   98.2920  111.0790 C.3       1 FI8        -0.0331
     43 C48        81.4290   96.2980  109.8150 C.3       1 FI8        -0.0331
     44 C49        83.3710   98.3150  112.1870 C.2       1 FI8         0.2367
     45 C5         75.7020   94.2840  103.9510 C.2       1 FI8        -0.0747
     46 C50        83.8990   97.5770  113.3970 C.3       1 FI8         0.0544
     47 C51        85.3920   97.8590  113.6030 C.3       1 FI8        -0.0443
     48 C52        83.6310   96.0770  113.2860 C.3       1 FI8        -0.0443
     49 C6         75.7520   95.6290  103.8750 C.2       1 FI8        -0.0708
     50 C7         75.4150   96.3390  102.5680 C.3       1 FI8         0.0135
     51 C8         76.6840   96.7370  101.8170 C.3       1 FI8         0.0913
     52 C9         77.4990   97.6900  102.6690 C.2       1 FI8        -0.0529
     53 O1         76.6430   92.0530  107.6240 O.3       1 FI8        -0.2729
     54 O10        70.6890   90.0610  100.0090 O.3       1 FI8        -0.2733
     55 O11        68.7860   89.1110  100.6620 O.2       1 FI8        -0.3727
     56 O12        66.7180   91.5050   95.1370 O.3       1 FI8        -0.3321
     57 O13        68.4100   92.4090   99.4930 O.3       1 FI8        -0.3304
     58 O14        80.5970   98.2630  108.6760 O.3       1 FI8        -0.3395
     59 O15        82.5660   99.9570  107.3370 O.3       1 FI8        -0.3841
     60 O16        84.6990   98.8880  108.5240 O.3       1 FI8        -0.3860
     61 O17        83.5530   97.7520  110.8780 O.3       1 FI8        -0.2677
     62 O18        82.8140   99.3530  112.3340 O.2       1 FI8        -0.3701
     63 O2         76.2160   90.1870  106.4970 O.2       1 FI8        -0.3650
     64 O3         77.4530   95.5730  101.5480 O.3       1 FI8        -0.3781
     65 O4         80.4750   98.4740  106.3810 O.3       1 FI8        -0.3274
     66 O5A        76.0200   90.9540  110.0350 O.3       1 FI8        -0.3890
     67 O6         74.1290   91.1460  104.0670 O.3       1 FI8        -0.3366
     68 O7         72.9920   91.8880  102.2440 O.3       1 FI8        -0.3426
     69 O8         70.4400   88.6540  102.5520 O.3       1 FI8        -0.3860
     70 O9         71.5860   90.2750  104.2750 O.3       1 FI8        -0.3721
     71 CL1        66.9940   93.6050   97.1880 Cl        1 FI8        -0.0918
     72 CL2        67.5580   88.6650   95.0430 Cl        1 FI8        -0.0936
     73 H1         76.1122   90.4971  103.8596 H         1 FI8         0.0716
     74 H2         75.7314   92.0695  103.0790 H         1 FI8         0.0716
     75 H3         78.2712   96.1260  103.8834 H         1 FI8         0.0249
     76 H4         78.3491   98.9324  104.9411 H         1 FI8         0.0428
     77 H5         80.5727   96.8407  105.1409 H         1 FI8         0.0825
     78 H6         80.4019   95.2559  106.7616 H         1 FI8         0.0251
     79 H7         80.2344   93.2905  108.0424 H         1 FI8         0.0296
     80 H8         77.6783   93.0830  109.7856 H         1 FI8         0.0392
     81 H9         79.1311   92.0334  109.9050 H         1 FI8         0.0392
     82 H10        78.4254   90.9468  107.7124 H         1 FI8         0.0691
     83 H11        76.7496   89.5267  108.7368 H         1 FI8         0.0621
     84 H12        77.7258   89.1477  110.9952 H         1 FI8         0.0255
     85 H13        78.5255   90.7544  110.9203 H         1 FI8         0.0255
     86 H14        79.0105   89.4556  109.7781 H         1 FI8         0.0255
     87 H15        78.0777   99.7289  103.0499 H         1 FI8         0.0376
     88 H16        76.3993   99.5276  102.4424 H         1 FI8         0.0376
     89 H17        77.7892   99.3429  101.3195 H         1 FI8         0.0376
     90 H18        79.4557   99.2313  102.6865 H         1 FI8         0.0282
     91 H19        80.7998   98.2187  103.3146 H         1 FI8         0.0282
     92 H20        81.2978  100.6164  103.5458 H         1 FI8         0.0231
     93 H21        81.1514   99.8250  105.1517 H         1 FI8         0.0231
     94 H22        79.8073  100.8376  104.5235 H         1 FI8         0.0231
     95 H23        76.9169   96.4960  107.3295 H         1 FI8         0.0437
     96 H24        76.9577   97.2859  105.7168 H         1 FI8         0.0437
     97 H25        77.5141   98.1826  107.1704 H         1 FI8         0.0437
     98 H26        76.7840   95.8035  107.8089 H         1 FI8         0.0348
     99 H27        77.0335   94.9336  109.3605 H         1 FI8         0.0348
    100 H28        76.4785   94.0361  107.9068 H         1 FI8         0.0348
    101 H29        74.2786   90.2732  102.2511 H         1 FI8         0.0939
    102 H30        72.9296   88.8110  103.6269 H         1 FI8         0.0674
    103 H31        72.1988   88.6987  101.4187 H         1 FI8         0.0651
    104 H32        70.3579   91.0317  101.8358 H         1 FI8         0.0700
    105 H33        73.0168   91.0755  100.3387 H         1 FI8         0.0624
    106 H34        72.5186   93.4832  100.2390 H         1 FI8         0.0255
    107 H35        70.9783   93.1913  101.1158 H         1 FI8         0.0255
    108 H36        71.2257   92.4949   99.4785 H         1 FI8         0.0255
    109 H37        70.6373   89.8477  106.0707 H         1 FI8         0.0524
    110 H38        72.2255   89.0465  105.8207 H         1 FI8         0.0524
    111 H39        70.7796   88.4750  104.9209 H         1 FI8         0.0524
    112 H40        76.3325   94.1569  106.1630 H         1 FI8         0.0545
    113 H41        68.8220   87.4056   96.6499 H         1 FI8         0.0437
    114 H42        68.3711   87.3818   98.3886 H         1 FI8         0.0437
    115 H43        70.7435   86.7742   98.0676 H         1 FI8         0.0254
    116 H44        70.5871   88.3159   98.9761 H         1 FI8         0.0254
    117 H45        71.0380   88.3397   97.2374 H         1 FI8         0.0254
    118 H46        81.3066   96.8566  107.3351 H         1 FI8         0.0940
    119 H47        83.1420   98.1757  106.4506 H         1 FI8         0.0671
    120 H48        83.7127   97.0619  108.4681 H         1 FI8         0.0651
    121 H49        82.7579   99.4714  109.9855 H         1 FI8         0.0705
    122 H50        79.6388   97.8988  111.0966 H         1 FI8         0.0258
    123 H51        80.6381   99.3915  111.0974 H         1 FI8         0.0258
    124 H52        81.2144   97.9243  111.9588 H         1 FI8         0.0258
    125 H53        81.9351   95.9553  108.9004 H         1 FI8         0.0258
    126 H54        80.4092   95.8868  109.8457 H         1 FI8         0.0258
    127 H55        81.9902   95.9529  110.6959 H         1 FI8         0.0258
    128 H56        75.4195   93.6918  103.0818 H         1 FI8         0.0436
    129 H57        83.3608   97.9502  114.2808 H         1 FI8         0.0548
    130 H58        85.7499   97.3115  114.4874 H         1 FI8         0.0258
    131 H59        85.5440   98.9380  113.7535 H         1 FI8         0.0258
    132 H60        85.9532   97.5298  112.7160 H         1 FI8         0.0258
    133 H61        82.5542   95.9068  113.1391 H         1 FI8         0.0258
    134 H62        83.9587   95.5766  114.2092 H         1 FI8         0.0258
    135 H63        84.1870   95.6675  112.4298 H         1 FI8         0.0258
    136 H64        76.0343   96.2112  104.7509 H         1 FI8         0.0720
    137 H65        74.8304   97.2438  102.7907 H         1 FI8         0.0513
    138 H66        74.8196   95.6642  101.9354 H         1 FI8         0.0513
    139 H67        76.4137   97.2281  100.8706 H         1 FI8         0.0772
    140 H68        66.4771   92.4190   95.2320 H         1 FI8         0.2506
    141 H69        68.8671   91.9632  100.1965 H         1 FI8         0.2512
    142 H70        83.4381  100.3254  107.2580 H         1 FI8         0.2101
    143 H71        84.4987   99.8130  108.6069 H         1 FI8         0.2100
    144 H72        76.9436   94.9747  101.0141 H         1 FI8         0.2132
    145 H73        75.3635   91.2518  109.4162 H         1 FI8         0.2099
    146 H74        69.9194   88.3694  101.8100 H         1 FI8         0.2100
@<TRIPOS>BOND
     1   23    1 1  
     2    1   67 1  
     3    3    2 1  
     4    2   52 2  
     5    4    3 1  
     6    3   15 1  
     7    4    5 1  
     8   65    4 1  
     9    5    6 2  
    10    5   17 1  
    11    6    7 1  
    12    7    8 2  
    13    7   18 1  
    14    8    9 1  
    15    9   10 1  
    16   10   11 1  
    17   10   53 1  
    18   11   13 1  
    19   11   66 1  
    20   12   23 1  
    21   53   12 1  
    22   12   63 2  
    23   52   14 1  
    24   15   16 1  
    25   19   20 1  
    26   67   19 1  
    27   19   68 1  
    28   20   21 1  
    29   20   70 1  
    30   21   22 1  
    31   21   69 1  
    32   24   22 1  
    33   22   54 1  
    34   23   34 2  
    35   24   25 1  
    36   68   24 1  
    37   70   26 1  
    38   27   28 1  
    39   54   27 1  
    40   27   55 2  
    41   28   29 ar 
    42   28   33 ar 
    43   29   30 ar 
    44   29   57 1  
    45   30   31 ar 
    46   30   71 1  
    47   32   31 ar 
    48   31   56 1  
    49   33   32 ar 
    50   32   72 1  
    51   33   35 1  
    52   34   45 1  
    53   35   36 1  
    54   38   37 1  
    55   58   37 1  
    56   37   65 1  
    57   39   38 1  
    58   38   59 1  
    59   40   39 1  
    60   39   60 1  
    61   40   41 1  
    62   61   40 1  
    63   41   42 1  
    64   41   43 1  
    65   41   58 1  
    66   44   46 1  
    67   44   61 1  
    68   44   62 2  
    69   45   49 2  
    70   46   47 1  
    71   46   48 1  
    72   49   50 1  
    73   50   51 1  
    74   51   52 1  
    75   51   64 1  
    76    1   73 1  
    77    1   74 1  
    78    2   75 1  
    79    3   76 1  
    80    4   77 1  
    81    6   78 1  
    82    8   79 1  
    83    9   80 1  
    84    9   81 1  
    85   10   82 1  
    86   11   83 1  
    87   13   84 1  
    88   13   85 1  
    89   13   86 1  
    90   14   87 1  
    91   14   88 1  
    92   14   89 1  
    93   15   90 1  
    94   15   91 1  
    95   16   92 1  
    96   16   93 1  
    97   16   94 1  
    98   17   95 1  
    99   17   96 1  
   100   17   97 1  
   101   18   98 1  
   102   18   99 1  
   103   18  100 1  
   104   19  101 1  
   105   20  102 1  
   106   21  103 1  
   107   22  104 1  
   108   24  105 1  
   109   25  106 1  
   110   25  107 1  
   111   25  108 1  
   112   26  109 1  
   113   26  110 1  
   114   26  111 1  
   115   34  112 1  
   116   35  113 1  
   117   35  114 1  
   118   36  115 1  
   119   36  116 1  
   120   36  117 1  
   121   37  118 1  
   122   38  119 1  
   123   39  120 1  
   124   40  121 1  
   125   42  122 1  
   126   42  123 1  
   127   42  124 1  
   128   43  125 1  
   129   43  126 1  
   130   43  127 1  
   131   45  128 1  
   132   46  129 1  
   133   47  130 1  
   134   47  131 1  
   135   47  132 1  
   136   48  133 1  
   137   48  134 1  
   138   48  135 1  
   139   49  136 1  
   140   50  137 1  
   141   50  138 1  
   142   51  139 1  
   143   56  140 1  
   144   57  141 1  
   145   59  142 1  
   146   60  143 1  
   147   64  144 1  
   148   66  145 1  
   149   69  146 1  
@<TRIPOS>SUBSTRUCTURE
     1 FI8         1

