1g85_ligand
  -I-interpret- 

 27 26  0  0  0  0  0  0  0  0999 V2000
   -2.0130   -1.2270    3.9210 C   0  0  0  0  0
   -1.2750    0.0060    3.7440 C   0  0  0  0  0
    0.2220    0.1050    3.9100 C   0  0  0  0  0
    0.6870    1.3980    3.3500 O   0  0  0  0  0
    0.4690    0.0270    5.3980 C   0  0  0  0  0
    0.8580   -1.3840    5.8140 C   0  0  0  0  0
    1.2060   -1.3970    7.3140 C   0  0  0  0  0
    0.0140   -1.7440    8.1800 C   0  0  0  0  0
    0.2660   -3.0670    8.9470 C   0  0  0  0  0
   -1.6515   -1.9705    3.2106 H   0  0  0  0  0
   -1.8679   -1.5931    4.9374 H   0  0  0  0  0
   -3.0732   -1.0424    3.7478 H   0  0  0  0  0
   -1.6543    0.6376    4.5473 H   0  0  0  0  0
   -1.4212    0.2311    2.6876 H   0  0  0  0  0
    0.7616   -0.6854    3.3883 H   0  0  0  0  0
    0.5164    1.4162    2.4055 H   0  0  0  0  0
   -0.4471    0.3048    5.9192 H   0  0  0  0  0
    1.2847    0.7037    5.6526 H   0  0  0  0  0
    1.7238   -1.7082    5.2365 H   0  0  0  0  0
    0.0246   -2.0613    5.6277 H   0  0  0  0  0
    1.5443   -0.3984    7.5904 H   0  0  0  0  0
    1.9724   -2.1550    7.4758 H   0  0  0  0  0
   -0.8624   -1.8655    7.5434 H   0  0  0  0  0
   -0.1452   -0.9420    8.9008 H   0  0  0  0  0
    0.4320   -3.8736    8.2328 H   0  0  0  0  0
    1.1449   -2.9556    9.5820 H   0  0  0  0  0
   -0.6023   -3.2990    9.5637 H   0  0  0  0  0
  1  2  1  0  0  0
  2  3  1  0  0  0
  3  4  1  0  0  0
  3  5  1  0  0  0
  5  6  1  0  0  0
  6  7  1  0  0  0
  7  8  1  0  0  0
  8  9  1  0  0  0
  1 10  1  0  0  0
  1 11  1  0  0  0
  1 12  1  0  0  0
  2 13  1  0  0  0
  2 14  1  0  0  0
  3 15  1  0  0  0
  4 16  1  0  0  0
  5 17  1  0  0  0
  5 18  1  0  0  0
  6 19  1  0  0  0
  6 20  1  0  0  0
  7 21  1  0  0  0
  7 22  1  0  0  0
  8 23  1  0  0  0
  8 24  1  0  0  0
  9 25  1  0  0  0
  9 26  1  0  0  0
  9 27  1  0  0  0
M  END
$$$$
