1h3b_ligand
  -I-interpret- 

 56 58  0  0  0  0  0  0  0  0999 V2000
   63.5350   67.5640   58.0500 C   0  0  0  0  0
   63.3640   68.8740   58.2570 C   0  0  0  0  0
   62.0090   69.5080   58.4530 C   0  0  0  0  0
   62.0400   70.6380   59.4220 N   0  3  0  0  0
   62.2070   70.2270   60.8510 C   0  0  0  0  0
   62.2050   71.3570   61.9130 C   0  0  0  0  0
   63.4780   71.3250   62.8160 C   0  0  0  0  0
   63.6480   70.0070   63.6460 C   0  0  0  0  0
   62.3510   69.5920   64.4220 C   0  0  0  0  0
   62.4860   69.7140   65.9620 C   0  0  0  0  0
   63.7090   69.0920   66.3980 O   0  0  0  0  0
   64.5150   69.6940   67.3780 C   0  0  0  0  0
   65.1610   70.9130   67.0510 C   0  0  0  0  0
   65.9900   71.5690   68.0040 C   0  0  0  0  0
   66.9900   73.1300   70.4060 N   0  0  0  0  0
   67.0920   71.7810   70.2660 C   0  0  0  0  0
   66.1920   71.0230   69.3050 C   0  0  0  0  0
   65.5370   69.7880   69.6420 C   0  0  0  0  0
   64.7060   69.1260   68.6910 C   0  0  0  0  0
   68.0700   71.2510   71.0680 C   0  0  0  0  0
   68.4940   69.9050   71.2230 C   0  0  0  0  0
   69.5250   69.6210   72.1180 C   0  0  0  0  0
   67.9640   73.8700   71.4260 S   0  0  0  0  0
   70.1370   70.6600   72.8580 C   0  0  0  0  0
   69.7270   72.0000   72.7140 C   0  0  0  0  0
   68.6840   72.3020   71.8120 C   0  0  0  0  0
   71.4810   70.2380   74.0180 Br  0  0  0  0  0
   60.8420   71.4920   59.2250 C   0  0  0  0  0
   62.6711   66.9002   58.0167 H   0  0  0  0  0
   64.5383   67.1600   57.9146 H   0  0  0  0  0
   64.2456   69.5143   58.2855 H   0  0  0  0  0
   61.3364   68.7464   58.8475 H   0  0  0  0  0
   61.6800   69.9004   57.4907 H   0  0  0  0  0
   62.8822   71.1769   59.2203 H   0  0  0  0  0
   63.1904   69.7612   60.9138 H   0  0  0  0  0
   61.3466   69.5992   61.0827 H   0  0  0  0  0
   61.3335   71.2179   62.5527 H   0  0  0  0  0
   62.1863   72.3128   61.3893 H   0  0  0  0  0
   63.3851   72.1434   63.5299 H   0  0  0  0  0
   64.3415   71.4011   62.1552 H   0  0  0  0  0
   64.4319   70.1805   64.3832 H   0  0  0  0  0
   63.8844   69.2052   62.9465 H   0  0  0  0  0
   62.1527   68.5451   64.1924 H   0  0  0  0  0
   61.5525   70.2646   64.1088 H   0  0  0  0  0
   61.6406   69.2166   66.4373 H   0  0  0  0  0
   62.5004   70.7681   66.2390 H   0  0  0  0  0
   65.0218   71.3509   66.0626 H   0  0  0  0  0
   66.4789   72.5051   67.7342 H   0  0  0  0  0
   65.6769   69.3545   70.6323 H   0  0  0  0  0
   64.2144   68.1899   68.9559 H   0  0  0  0  0
   68.0212   69.1063   70.6515 H   0  0  0  0  0
   69.8614   68.5924   72.2482 H   0  0  0  0  0
   70.2074   72.7910   73.2899 H   0  0  0  0  0
   59.9512   70.9415   59.5277 H   0  0  0  0  0
   60.9366   72.3936   59.8302 H   0  0  0  0  0
   60.7615   71.7657   58.1730 H   0  0  0  0  0
  2  1  2  0  0  0
  3  2  1  0  0  0
  4  3  1  0  0  0
  5  4  1  0  0  0
  4 28  1  0  0  0
  6  5  1  0  0  0
  7  6  1  0  0  0
  8  7  1  0  0  0
  9  8  1  0  0  0
 10  9  1  0  0  0
 11 10  1  0  0  0
 12 11  1  0  0  0
 13 12  4  0  0  0
 12 19  4  0  0  0
 14 13  4  0  0  0
 17 14  4  0  0  0
 16 15  4  0  0  0
 15 23  4  0  0  0
 16 17  1  0  0  0
 16 20  4  0  0  0
 17 18  4  0  0  0
 18 19  4  0  0  0
 20 21  4  0  0  0
 20 26  4  0  0  0
 21 22  4  0  0  0
 22 24  4  0  0  0
 23 26  4  0  0  0
 24 25  4  0  0  0
 24 27  1  0  0  0
 25 26  4  0  0  0
  1 29  1  0  0  0
  1 30  1  0  0  0
  2 31  1  0  0  0
  3 32  1  0  0  0
  3 33  1  0  0  0
  4 34  1  0  0  0
  5 35  1  0  0  0
  5 36  1  0  0  0
  6 37  1  0  0  0
  6 38  1  0  0  0
  7 39  1  0  0  0
  7 40  1  0  0  0
  8 41  1  0  0  0
  8 42  1  0  0  0
  9 43  1  0  0  0
  9 44  1  0  0  0
 10 45  1  0  0  0
 10 46  1  0  0  0
 13 47  1  0  0  0
 14 48  1  0  0  0
 18 49  1  0  0  0
 19 50  1  0  0  0
 21 51  1  0  0  0
 22 52  1  0  0  0
 25 53  1  0  0  0
 28 54  1  0  0  0
 28 55  1  0  0  0
 28 56  1  0  0  0
M  END
$$$$
