3ocg_ligand
  -I-interpret- 

 48 51  0  0  0  0  0  0  0  0999 V2000
   35.4480   -4.7380   18.7640 N   0  0  0  0  0
   36.1210   -5.6690   19.7740 N   0  0  0  0  0
   36.5370   -4.9600   20.7330 C   0  0  0  0  0
   36.2250   -3.6120   20.5010 C   0  0  0  0  0
   35.5530   -3.5020   19.2790 C   0  0  0  0  0
   35.1210   -2.3390   18.7790 N   0  0  0  0  0
   36.5400   -2.5380   21.3690 C   0  0  0  0  0
   36.2700   -1.3560   21.1490 O   0  0  0  0  0
   37.1970   -2.7530   22.5700 N   0  0  0  0  0
   37.3890   -1.8110   23.5850 C   0  0  0  0  0
   38.6800   -1.3320   23.9460 C   0  0  0  0  0
   38.8390   -0.3770   24.9790 C   0  0  0  0  0
   37.6860    0.0940   25.6470 C   0  0  0  0  0
   36.3860   -0.3610   25.3100 C   0  0  0  0  0
   36.2510   -1.3160   24.2750 C   0  0  0  0  0
   35.3680    0.1490   26.0040 C   0  0  0  0  0
   34.2660   -0.3800   25.8770 O   0  0  0  0  0
   35.5470    1.2030   26.8130 N   0  0  0  0  0
   34.6850    1.6120   27.7560 C   0  0  0  0  0
   33.8340    0.9080   28.4810 N   0  0  0  0  0
   33.0700    1.8300   29.4210 O   0  0  0  0  0
   33.5180    2.9740   29.1820 C   0  0  0  0  0
   34.5030    2.9340   28.1830 C   0  0  0  0  0
   39.9200   -1.8440   23.2250 C   0  0  0  0  0
   34.8510   -5.0630   17.5670 C   0  0  0  0  0
   33.4270   -4.8860   17.3990 C   0  0  0  0  0
   32.7860   -5.2110   16.1830 C   0  0  0  0  0
   33.5280   -5.7180   15.0960 C   0  0  0  0  0
   34.9260   -5.8980   15.2420 C   0  0  0  0  0
   35.5940   -5.5800   16.4520 C   0  0  0  0  0
   37.0607   -5.3392   21.6106 H   0  0  0  0  0
   34.6348   -2.3184   17.8825 H   0  0  0  0  0
   35.2777   -1.4727   19.2942 H   0  0  0  0  0
   37.5763   -3.6865   22.7284 H   0  0  0  0  0
   39.8291   -0.0129   25.2532 H   0  0  0  0  0
   37.7994    0.8284   26.4444 H   0  0  0  0  0
   35.2591   -1.6770   24.0033 H   0  0  0  0  0
   36.4087    1.7374   26.7025 H   0  0  0  0  0
   33.1864    3.8828   29.6842 H   0  0  0  0  0
   35.0435    3.7988   27.7983 H   0  0  0  0  0
   39.9960   -2.9233   23.3573 H   0  0  0  0  0
   39.8432   -1.6113   22.1629 H   0  0  0  0  0
   40.8052   -1.3625   23.6406 H   0  0  0  0  0
   32.8358   -4.4941   18.2267 H   0  0  0  0  0
   31.7098   -5.0689   16.0840 H   0  0  0  0  0
   33.0334   -5.9677   14.1573 H   0  0  0  0  0
   35.5020   -6.2904   14.4039 H   0  0  0  0  0
   36.6707   -5.7279   16.5356 H   0  0  0  0  0
  1  2  4  0  0  0
  1  5  4  0  0  0
  1 25  1  0  0  0
  2  3  4  0  0  0
  3  4  4  0  0  0
  4  5  4  0  0  0
  4  7  1  0  0  0
  5  6  1  0  0  0
  7  8  2  0  0  0
  7  9  1  0  0  0
  9 10  1  0  0  0
 10 11  4  0  0  0
 10 15  4  0  0  0
 11 12  4  0  0  0
 11 24  1  0  0  0
 12 13  4  0  0  0
 13 14  4  0  0  0
 14 15  4  0  0  0
 14 16  1  0  0  0
 16 17  2  0  0  0
 16 18  1  0  0  0
 18 19  1  0  0  0
 19 20  4  0  0  0
 19 23  4  0  0  0
 20 21  4  0  0  0
 21 22  4  0  0  0
 22 23  4  0  0  0
 25 26  4  0  0  0
 25 30  4  0  0  0
 26 27  4  0  0  0
 27 28  4  0  0  0
 28 29  4  0  0  0
 29 30  4  0  0  0
  3 31  1  0  0  0
  6 32  1  0  0  0
  6 33  1  0  0  0
  9 34  1  0  0  0
 12 35  1  0  0  0
 13 36  1  0  0  0
 15 37  1  0  0  0
 18 38  1  0  0  0
 22 39  1  0  0  0
 23 40  1  0  0  0
 24 41  1  0  0  0
 24 42  1  0  0  0
 24 43  1  0  0  0
 26 44  1  0  0  0
 27 45  1  0  0  0
 28 46  1  0  0  0
 29 47  1  0  0  0
 30 48  1  0  0  0
M  END
$$$$
