4j04_ligand
  -I-interpret- 

 30 31  0  0  0  0  0  0  0  0999 V2000
  -26.0080   53.8700   56.0970 C   0  0  0  0  0
  -25.3090   55.1210   56.1690 C   0  0  0  0  0
  -23.9330   55.1850   55.7760 C   0  0  0  0  0
  -23.2440   54.0250   55.3100 C   0  0  0  0  0
  -23.9440   52.7740   55.2360 C   0  0  0  0  0
  -25.3040   52.7100   55.6260 C   0  0  0  0  0
  -27.7210   53.6340   56.5550 S   0  0  0  0  0
  -28.6090   54.2030   55.5630 O   0  0  0  0  0
  -27.8370   54.1940   57.8990 O   0  0  0  0  0
  -27.9270   51.9540   56.7200 N   0  0  0  0  0
  -28.4780   51.0540   55.7190 C   0  0  0  0  0
  -29.0500   49.7890   56.0880 C   0  0  0  0  0
  -29.5730   48.9270   55.0760 C   0  0  0  0  0
  -29.5380   49.3050   53.7110 C   0  0  0  0  0
  -28.9810   50.5480   53.3390 C   0  0  0  0  0
  -28.4490   51.4270   54.3270 C   0  0  0  0  0
  -25.9790   56.6230   56.7050 Cl  0  0  0  0  0
  -21.5790   54.2180   54.8620 Cl  0  0  0  0  0
  -23.2310   51.2940   54.6910 Cl  0  0  0  0  0
  -29.1180   49.3490   57.4860 C   0  0  0  0  0
  -30.1470   49.1900   58.1280 O   0  0  0  0  0
  -27.8940   49.1340   58.0010 O   0  0  0  0  0
  -28.9590   50.9900   51.6790 Cl  0  0  0  0  0
  -23.4030   56.1357   55.8338 H   0  0  0  0  0
  -25.8295   51.7568   55.5673 H   0  0  0  0  0
  -27.6366   51.5380   57.6049 H   0  0  0  0  0
  -30.0044   47.9664   55.3575 H   0  0  0  0  0
  -29.9404   48.6373   52.9492 H   0  0  0  0  0
  -28.0193   52.3834   54.0292 H   0  0  0  0  0
  -27.2300   49.3170   57.3323 H   0  0  0  0  0
  1  2  4  0  0  0
  1  6  4  0  0  0
  1  7  1  0  0  0
  2  3  4  0  0  0
  2 17  1  0  0  0
  3  4  4  0  0  0
  4  5  4  0  0  0
  4 18  1  0  0  0
  5  6  4  0  0  0
  5 19  1  0  0  0
  7  8  2  0  0  0
  7  9  2  0  0  0
  7 10  1  0  0  0
 10 11  1  0  0  0
 11 12  4  0  0  0
 11 16  4  0  0  0
 12 13  4  0  0  0
 12 20  1  0  0  0
 13 14  4  0  0  0
 14 15  4  0  0  0
 15 16  4  0  0  0
 15 23  1  0  0  0
 20 21  2  0  0  0
 20 22  1  0  0  0
  3 24  1  0  0  0
  6 25  1  0  0  0
 10 26  1  0  0  0
 13 27  1  0  0  0
 14 28  1  0  0  0
 16 29  1  0  0  0
 22 30  1  0  0  0
M  END
$$$$
