5ar8_ligand
  -I-interpret- 

 72 77  0  0  0  0  0  0  0  0999 V2000
   38.8010  -43.8670   49.1640 C   0  0  0  0  0
   39.6560  -42.6340   50.1120 S   0  0  0  0  0
   40.8550  -43.2600   50.6390 O   0  0  0  0  0
   38.7330  -42.0310   51.0600 O   0  0  0  0  0
   40.1400  -41.4020   48.9280 C   0  0  0  0  0
   40.3720  -41.7920   47.6260 C   0  0  0  0  0
   40.7480  -40.8630   46.6820 C   0  0  0  0  0
   40.8850  -39.5500   47.0650 C   0  0  0  0  0
   40.6570  -39.1440   48.3640 C   0  0  0  0  0
   40.8400  -37.7720   48.5980 N   0  0  0  0  0
   40.6780  -37.0530   49.7470 C   0  0  0  0  0
   40.9720  -35.7430   49.6190 N   0  0  0  0  0
   40.8300  -34.9800   50.7130 C   0  0  0  0  0
   40.4160  -35.4830   51.9230 C   0  0  0  0  0
   40.1320  -36.8370   51.9520 C   0  0  0  0  0
   40.2560  -37.6420   50.8820 N   0  0  0  0  0
   39.7070  -37.5480   53.1590 C   0  0  0  0  0
   39.7530  -39.2630   53.0100 S   0  0  0  0  0
   39.2580  -39.4310   54.6440 C   0  0  0  0  0
   39.0590  -38.2870   55.2570 N   0  0  0  0  0
   39.3110  -37.2090   54.4390 C   0  0  0  0  0
   39.1190  -35.8960   55.0950 C   0  0  0  0  0
   38.4530  -34.8380   54.5170 C   0  0  0  0  0
   38.3230  -33.6590   55.2260 C   0  0  0  0  0
   38.8530  -33.5250   56.5050 C   0  0  0  0  0
   39.5230  -34.5880   57.0850 C   0  0  0  0  0
   40.1010  -34.5290   58.4060 N   0  0  0  0  0
   39.9220  -33.4150   59.5990 S   0  0  0  0  0
   38.4990  -33.2230   59.8090 O   0  0  0  0  0
   40.7000  -33.9090   60.7160 O   0  0  0  0  0
   40.7060  -31.8960   59.0700 C   0  0  0  0  0
   39.9610  -30.7330   58.8930 C   0  0  0  0  0
   38.6410  -30.7620   59.1230 F   0  0  0  0  0
   40.5420  -29.5460   58.4860 C   0  0  0  0  0
   41.9010  -29.4990   58.2450 C   0  0  0  0  0
   42.6700  -30.6350   58.4100 C   0  0  0  0  0
   42.0700  -31.8050   58.8160 C   0  0  0  0  0
   42.8170  -32.9030   58.9760 F   0  0  0  0  0
   39.6420  -35.7600   56.3670 C   0  0  0  0  0
   39.0920  -40.6510   55.2250 N   0  0  0  0  0
   39.2570  -40.6990   56.6970 C   0  0  0  0  0
   39.1890  -42.0860   57.3070 C   0  0  0  0  0
   39.8160  -43.1000   56.5210 O   0  0  0  0  0
   39.3230  -43.0860   55.1930 C   0  0  0  0  0
   39.7200  -41.7850   54.5580 C   0  0  0  0  0
   40.2800  -40.0770   49.3090 C   0  0  0  0  0
   39.4442  -44.2115   48.3542 H   0  0  0  0  0
   38.5456  -44.7074   49.8095 H   0  0  0  0  0
   37.8900  -43.4367   48.7481 H   0  0  0  0  0
   40.2574  -42.8385   47.3434 H   0  0  0  0  0
   40.9335  -41.1630   45.6506 H   0  0  0  0  0
   41.1818  -38.8093   46.3224 H   0  0  0  0  0
   41.1392  -37.2306   47.7870 H   0  0  0  0  0
   41.0525  -33.9155   50.6391 H   0  0  0  0  0
   40.3172  -34.8531   52.8070 H   0  0  0  0  0
   38.0345  -34.9294   53.5147 H   0  0  0  0  0
   37.7955  -32.8187   54.7747 H   0  0  0  0  0
   38.7411  -32.5867   57.0482 H   0  0  0  0  0
   40.7214  -35.3053   58.6359 H   0  0  0  0  0
   39.9310  -28.6528   58.3562 H   0  0  0  0  0
   42.3665  -28.5668   57.9250 H   0  0  0  0  0
   43.7429  -30.6047   58.2202 H   0  0  0  0  0
   40.1644  -36.6044   56.8166 H   0  0  0  0  0
   38.4329  -40.1276   57.1240 H   0  0  0  0  0
   40.2514  -40.3090   56.9143 H   0  0  0  0  0
   38.1348  -42.3496   57.3920 H   0  0  0  0  0
   39.7158  -42.0452   58.2604 H   0  0  0  0  0
   38.2376  -43.1855   55.1955 H   0  0  0  0  0
   39.7408  -43.9204   54.6297 H   0  0  0  0  0
   40.8016  -41.6773   54.6389 H   0  0  0  0  0
   39.3962  -41.7959   53.5173 H   0  0  0  0  0
   40.0951  -39.7758   50.3401 H   0  0  0  0  0
  1  2  1  0  0  0
  2  3  2  0  0  0
  2  4  2  0  0  0
  2  5  1  0  0  0
  5  6  4  0  0  0
  5 46  4  0  0  0
  6  7  4  0  0  0
  7  8  4  0  0  0
  8  9  4  0  0  0
  9 10  1  0  0  0
  9 46  4  0  0  0
 10 11  1  0  0  0
 11 12  4  0  0  0
 11 16  4  0  0  0
 12 13  4  0  0  0
 13 14  4  0  0  0
 14 15  4  0  0  0
 15 16  4  0  0  0
 15 17  1  0  0  0
 17 18  4  0  0  0
 17 21  4  0  0  0
 18 19  4  0  0  0
 19 20  4  0  0  0
 19 40  1  0  0  0
 20 21  4  0  0  0
 21 22  1  0  0  0
 22 23  4  0  0  0
 22 39  4  0  0  0
 23 24  4  0  0  0
 24 25  4  0  0  0
 25 26  4  0  0  0
 26 27  1  0  0  0
 26 39  4  0  0  0
 27 28  1  0  0  0
 28 29  2  0  0  0
 28 30  2  0  0  0
 28 31  1  0  0  0
 31 32  4  0  0  0
 31 37  4  0  0  0
 32 33  1  0  0  0
 32 34  4  0  0  0
 34 35  4  0  0  0
 35 36  4  0  0  0
 36 37  4  0  0  0
 37 38  1  0  0  0
 40 41  1  0  0  0
 40 45  1  0  0  0
 41 42  1  0  0  0
 42 43  1  0  0  0
 43 44  1  0  0  0
 44 45  1  0  0  0
  1 47  1  0  0  0
  1 48  1  0  0  0
  1 49  1  0  0  0
  6 50  1  0  0  0
  7 51  1  0  0  0
  8 52  1  0  0  0
 10 53  1  0  0  0
 13 54  1  0  0  0
 14 55  1  0  0  0
 23 56  1  0  0  0
 24 57  1  0  0  0
 25 58  1  0  0  0
 27 59  1  0  0  0
 34 60  1  0  0  0
 35 61  1  0  0  0
 36 62  1  0  0  0
 39 63  1  0  0  0
 41 64  1  0  0  0
 41 65  1  0  0  0
 42 66  1  0  0  0
 42 67  1  0  0  0
 44 68  1  0  0  0
 44 69  1  0  0  0
 45 70  1  0  0  0
 45 71  1  0  0  0
 46 72  1  0  0  0
M  END
$$$$
