6hp9_ligand
  -I-interpret- 

 56 60  0  0  0  0  0  0  0  0999 V2000
   33.4000    7.1940  -42.0530 N   0  0  0  0  0
   39.9850   -1.9430  -36.7570 N   0  0  0  0  0
   32.3200    6.1500  -37.3420 C   0  0  0  0  0
   32.8720    6.6590  -39.7290 C   0  0  0  0  0
   33.6660    6.4570  -40.8570 C   0  0  0  0  0
   34.2940    7.4080  -43.0840 C   0  0  0  0  0
   33.6320    8.0720  -44.0690 C   0  0  0  0  0
   32.2210    7.7530  -42.4400 C   0  0  0  0  0
   37.0870    0.4710  -38.7130 C   0  0  0  0  0
   39.4210    0.0950  -39.1360 C   0  0  0  0  0
   39.7530   -2.0700  -38.1890 C   0  0  0  0  0
   38.8760   -4.7160  -33.9980 C   0  0  0  0  0
   39.7710   -2.7020  -34.4740 C   0  0  0  0  0
   38.2620   -1.8520  -38.4460 C   0  0  0  0  0
   38.4430    2.2510  -39.5770 C   0  0  0  0  0
   35.8640    3.7040  -39.7960 N   0  0  0  0  0
   35.9990    2.6640  -38.9400 C   0  0  0  0  0
   35.1710    2.4050  -38.0710 O   0  0  0  0  0
   34.9310    4.7670  -39.7050 C   0  0  0  0  0
   34.7000    5.5250  -40.8450 C   0  0  0  0  0
   37.2050    1.7970  -39.1230 C   0  0  0  0  0
   38.1840   -0.3780  -38.7310 C   0  0  0  0  0
   40.4630   -0.9830  -39.0000 C   0  0  0  0  0
   39.5940   -2.9090  -35.8380 C   0  0  0  0  0
   39.0310   -4.1370  -36.1710 C   0  0  0  0  0
   34.1450    4.9670  -38.5710 C   0  0  0  0  0
   39.5460    1.4110  -39.5740 C   0  0  0  0  0
   33.1220    5.9130  -38.5840 C   0  0  0  0  0
   34.1270    8.4950  -45.4210 C   0  0  0  0  0
   31.6530    7.2930  -37.3580 F   0  0  0  0  0
   33.0890    6.1700  -36.2440 F   0  0  0  0  0
   31.3930    5.2260  -37.1320 F   0  0  0  0  0
   32.2900    8.2970  -43.6340 N   0  0  0  0  0
   38.6650   -5.0490  -35.2680 N   0  0  0  0  0
   39.4130   -3.5890  -33.5450 N   0  0  0  0  0
   40.4562   -1.1064  -36.4128 H   0  0  0  0  0
   32.0658    7.3924  -39.7452 H   0  0  0  0  0
   35.3396    7.1007  -43.1044 H   0  0  0  0  0
   31.3195    7.7498  -41.8273 H   0  0  0  0  0
   36.1213    0.0960  -38.3740 H   0  0  0  0  0
   40.1210   -3.0517  -38.4872 H   0  0  0  0  0
   38.5757   -5.4472  -33.2475 H   0  0  0  0  0
   40.2257   -1.7666  -34.1478 H   0  0  0  0  0
   37.6382   -2.1547  -37.6049 H   0  0  0  0  0
   37.8791   -2.4626  -39.2637 H   0  0  0  0  0
   38.5443    3.2748  -39.9372 H   0  0  0  0  0
   36.5020    3.7248  -40.5916 H   0  0  0  0  0
   35.3259    5.3909  -41.7273 H   0  0  0  0  0
   41.3708   -0.6261  -38.5136 H   0  0  0  0  0
   40.8152   -1.3464  -39.9654 H   0  0  0  0  0
   38.8808   -4.3665  -37.2259 H   0  0  0  0  0
   34.3314    4.3812  -37.6709 H   0  0  0  0  0
   40.5128    1.7813  -39.9151 H   0  0  0  0  0
   34.9761    9.1679  -45.3014 H   0  0  0  0  0
   34.4358    7.6149  -45.9851 H   0  0  0  0  0
   33.3274    9.0083  -45.9550 H   0  0  0  0  0
  5  1  1  0  0  0
  1  6  4  0  0  0
  1  8  4  0  0  0
 11  2  1  0  0  0
  2 24  1  0  0  0
 28  3  1  0  0  0
  3 30  1  0  0  0
  3 31  1  0  0  0
  3 32  1  0  0  0
  5  4  4  0  0  0
  4 28  4  0  0  0
 20  5  4  0  0  0
  6  7  4  0  0  0
  7 29  1  0  0  0
 33  7  4  0  0  0
  8 33  4  0  0  0
 21  9  4  0  0  0
  9 22  4  0  0  0
 22 10  4  0  0  0
 10 23  1  0  0  0
 27 10  4  0  0  0
 14 11  1  0  0  0
 23 11  1  0  0  0
 12 34  4  0  0  0
 35 12  4  0  0  0
 24 13  4  0  0  0
 13 35  4  0  0  0
 22 14  1  0  0  0
 21 15  4  0  0  0
 15 27  4  0  0  0
 16 17  1  0  0  0
 19 16  1  0  0  0
 17 18  2  0  0  0
 17 21  1  0  0  0
 19 20  4  0  0  0
 19 26  4  0  0  0
 24 25  4  0  0  0
 25 34  4  0  0  0
 26 28  4  0  0  0
  2 36  1  0  0  0
  4 37  1  0  0  0
  6 38  1  0  0  0
  8 39  1  0  0  0
  9 40  1  0  0  0
 11 41  1  0  0  0
 12 42  1  0  0  0
 13 43  1  0  0  0
 14 44  1  0  0  0
 14 45  1  0  0  0
 15 46  1  0  0  0
 16 47  1  0  0  0
 20 48  1  0  0  0
 23 49  1  0  0  0
 23 50  1  0  0  0
 25 51  1  0  0  0
 26 52  1  0  0  0
 27 53  1  0  0  0
 29 54  1  0  0  0
 29 55  1  0  0  0
 29 56  1  0  0  0
M  END
$$$$
