1t3t_ligand
  -I-interpret- 

 42 44  0  0  0  0  0  0  0  0999 V2000
   93.7690   86.1420  -53.1460 P   0  0  0  0  0
   93.6050   87.6040  -53.0560 O   0  0  0  0  0
   92.7390   85.4150  -53.9160 O   0  0  0  0  0
   95.1570   85.7250  -53.7330 O   0  0  0  0  0
   93.3360   84.2910  -50.8960 P   0  0  0  0  0
   94.2280   83.1970  -51.2790 O   0  0  0  0  0
   91.8650   84.2030  -51.1280 O   0  0  0  0  0
   93.7880   85.6820  -51.5830 O   0  0  0  0  0
   93.5340   84.6440  -49.3640 O   0  0  0  0  0
   92.6760   85.6010  -48.7050 C   0  0  0  0  0
   93.4390   86.3000  -47.5810 C   0  0  0  0  0
   94.0170   85.3210  -46.7150 O   0  0  0  0  0
   94.5750   87.1880  -48.0580 C   0  0  0  0  0
   94.5760   88.3200  -47.2070 O   0  0  0  0  0
   95.8150   86.3200  -47.8150 C   0  0  0  0  0
   97.0070   87.0050  -47.5810 O   0  0  0  0  0
   95.4130   85.4860  -46.5930 C   0  0  0  0  0
   96.0240   84.1470  -46.6010 N   0  0  0  0  0
   95.8020   83.1390  -47.5160 C   0  0  0  0  0
   96.5010   82.0610  -47.2480 N   0  0  0  0  0
   97.2300   82.3820  -46.0870 C   0  0  0  0  0
   98.1510   81.6530  -45.3270 C   0  0  0  0  0
   98.5230   80.4480  -45.6090 N   0  0  0  0  0
   98.6260   82.3320  -44.2580 N   0  0  0  0  0
   98.2870   83.5880  -43.9210 C   0  0  0  0  0
   97.4210   84.3410  -44.6140 N   0  0  0  0  0
   96.9590   83.6620  -45.6540 C   0  0  0  0  0
   92.9404   84.4764  -53.9110 H   0  0  0  0  0
   95.2127   84.7673  -53.7703 H   0  0  0  0  0
   91.4442   85.0074  -50.8157 H   0  0  0  0  0
   91.8152   85.0809  -48.2846 H   0  0  0  0  0
   92.3449   86.3445  -49.4300 H   0  0  0  0  0
   92.7027   86.9290  -47.0806 H   0  0  0  0  0
   94.5157   87.5268  -49.0923 H   0  0  0  0  0
   95.2814   88.9158  -47.4697 H   0  0  0  0  0
   96.0556   85.7490  -48.7118 H   0  0  0  0  0
   97.7160   86.3729  -47.4421 H   0  0  0  0  0
   95.7343   85.9830  -45.6777 H   0  0  0  0  0
   95.1236   83.2276  -48.3646 H   0  0  0  0  0
   98.1402   79.9744  -46.4272 H   0  0  0  0  0
   99.1994   79.9705  -45.0133 H   0  0  0  0  0
   98.7436   84.0205  -43.0307 H   0  0  0  0  0
  1  2  2  0  0  0
  1  3  1  0  0  0
  1  4  1  0  0  0
  8  1  1  0  0  0
  5  6  2  0  0  0
  5  7  1  0  0  0
  5  8  1  0  0  0
  5  9  1  0  0  0
  9 10  1  0  0  0
 10 11  1  0  0  0
 11 12  1  0  0  0
 11 13  1  0  0  0
 12 17  1  0  0  0
 13 14  1  0  0  0
 13 15  1  0  0  0
 15 16  1  0  0  0
 15 17  1  0  0  0
 17 18  1  0  0  0
 18 19  4  0  0  0
 18 27  4  0  0  0
 19 20  4  0  0  0
 20 21  4  0  0  0
 21 22  4  0  0  0
 21 27  4  0  0  0
 22 23  1  0  0  0
 22 24  4  0  0  0
 24 25  4  0  0  0
 25 26  4  0  0  0
 26 27  4  0  0  0
  3 28  1  0  0  0
  4 29  1  0  0  0
  7 30  1  0  0  0
 10 31  1  0  0  0
 10 32  1  0  0  0
 11 33  1  0  0  0
 13 34  1  0  0  0
 14 35  1  0  0  0
 15 36  1  0  0  0
 16 37  1  0  0  0
 17 38  1  0  0  0
 19 39  1  0  0  0
 23 40  1  0  0  0
 23 41  1  0  0  0
 25 42  1  0  0  0
M  END
$$$$
