### 
### Created by X-TOOL on Mon Sep 10 21:12:51 2018
### 

@<TRIPOS>MOLECULE
1t3t_ligand
   39    41     1     0     0
SMALL
GAST_HUCK


@<TRIPOS>ATOM
      1 PB         93.7690   86.1420  -53.1460 P.3       1 ADP         0.2069
      2 O1B        93.6050   87.6040  -53.0560 O.co2     1 ADP        -0.5891
      3 O2B        92.7390   85.4150  -53.9160 O.co2     1 ADP        -0.5891
      4 O3B        95.1570   85.7250  -53.7330 O.co2     1 ADP        -0.5891
      5 PA         93.3360   84.2910  -50.8960 P.3       1 ADP         0.3276
      6 O1A        94.2280   83.1970  -51.2790 O.co2     1 ADP        -0.5556
      7 O2A        91.8650   84.2030  -51.1280 O.co2     1 ADP        -0.5556
      8 O3A        93.7880   85.6820  -51.5830 O.3       1 ADP        -0.1548
      9 O5         93.5340   84.6440  -49.3640 O.3       1 ADP        -0.2436
     10 C5         92.6760   85.6010  -48.7050 C.3       1 ADP         0.1132
     11 C4         93.4390   86.3000  -47.5810 C.3       1 ADP         0.1189
     12 O4         94.0170   85.3210  -46.7150 O.3       1 ADP        -0.3364
     13 C3         94.5750   87.1880  -48.0580 C.3       1 ADP         0.1149
     14 O3         94.5760   88.3200  -47.2070 O.3       1 ADP        -0.3864
     15 C2         95.8150   86.3200  -47.8150 C.3       1 ADP         0.1385
     16 O2         97.0070   87.0050  -47.5810 O.3       1 ADP        -0.3836
     17 C1         95.4130   85.4860  -46.5930 C.3       1 ADP         0.2010
     18 N9         96.0240   84.1470  -46.6010 N.pl3     1 ADP        -0.1919
     19 C8         95.8020   83.1390  -47.5160 C.2       1 ADP         0.1123
     20 N7         96.5010   82.0610  -47.2480 N.2       1 ADP        -0.2958
     21 C5         97.2300   82.3820  -46.0870 C.ar      1 ADP         0.1045
     22 C6         98.1510   81.6530  -45.3270 C.ar      1 ADP         0.1298
     23 N6         98.5230   80.4480  -45.6090 N.pl3     1 ADP        -0.3152
     24 N1         98.6260   82.3320  -44.2580 N.ar      1 ADP        -0.2698
     25 C2         98.2870   83.5880  -43.9210 C.ar      1 ADP         0.0533
     26 N3         97.4210   84.3410  -44.6140 N.ar      1 ADP        -0.2714
     27 C4         96.9590   83.6620  -45.6540 C.ar      1 ADP         0.1613
     28 H1         91.8042   85.0790  -48.2836 H         1 ADP         0.0648
     29 H2         92.3370   86.3501  -49.4357 H         1 ADP         0.0648
     30 H3         92.7249   86.9166  -47.0155 H         1 ADP         0.0651
     31 H4         94.4773   87.4806  -49.1139 H         1 ADP         0.0648
     32 H5         95.2740   88.9096  -47.4670 H         1 ADP         0.2100
     33 H6         95.9732   85.6662  -48.6854 H         1 ADP         0.0676
     34 H7         97.2101   87.5505  -48.3318 H         1 ADP         0.2101
     35 H8         95.6766   86.0125  -45.6639 H         1 ADP         0.0996
     36 H9         95.1243   83.2275  -48.3638 H         1 ADP         0.1349
     37 H10        99.2061   79.9658  -45.0075 H         1 ADP         0.1820
     38 H11        98.1364   79.9697  -46.4353 H         1 ADP         0.1820
     39 H12        98.7411   84.0181  -43.0356 H         1 ADP         0.0996
@<TRIPOS>BOND
     1    1    2 ar 
     2    1    3 ar 
     3    1    4 ar 
     4    8    1 1  
     5    5    6 ar 
     6    5    7 ar 
     7    5    8 1  
     8    5    9 1  
     9    9   10 1  
    10   10   11 1  
    11   11   12 1  
    12   11   13 1  
    13   12   17 1  
    14   13   14 1  
    15   13   15 1  
    16   15   16 1  
    17   15   17 1  
    18   17   18 1  
    19   18   19 1  
    20   18   27 1  
    21   19   20 2  
    22   20   21 1  
    23   21   22 ar 
    24   21   27 ar 
    25   22   23 1  
    26   22   24 ar 
    27   24   25 ar 
    28   25   26 ar 
    29   26   27 ar 
    30   10   28 1  
    31   10   29 1  
    32   11   30 1  
    33   13   31 1  
    34   14   32 1  
    35   15   33 1  
    36   16   34 1  
    37   17   35 1  
    38   19   36 1  
    39   23   37 1  
    40   23   38 1  
    41   25   39 1  
@<TRIPOS>SUBSTRUCTURE
     1 ADP         1

