2nng_ligand
  -I-interpret- 

 26 26  0  0  0  0  0  0  0  0999 V2000
   -5.2110    2.2850   15.7470 C   0  0  0  0  0
   -3.8580    2.2760   15.4320 C   0  0  0  0  0
   -3.3380    3.3490   14.7060 C   0  0  0  0  0
   -4.1320    4.4050   14.2860 C   0  0  0  0  0
   -5.4890    4.3670   14.5920 C   0  0  0  0  0
   -6.0230    3.3260   15.3110 C   0  0  0  0  0
   -5.8950    0.9400   16.7130 S   0  0  0  0  0
   -7.3120    1.0580   16.5550 O   0  0  0  0  0
   -5.3200    1.1250   18.0250 O   0  0  0  0  0
   -5.3770   -0.4270   16.0610 N   0  0  0  0  0
   -3.6430    5.5140   13.3710 C   0  0  0  0  0
   -2.5690    6.4240   13.8810 C   0  0  0  0  0
   -2.1560    7.1920   12.6700 N   0  3  0  0  0
   -3.2178    1.4509   15.7442 H   0  0  0  0  0
   -2.2757    3.3568   14.4620 H   0  0  0  0  0
   -6.1379    5.1758   14.2559 H   0  0  0  0  0
   -7.0884    3.3158   15.5410 H   0  0  0  0  0
   -6.0390   -1.0631   15.6166 H   0  0  0  0  0
   -4.3849   -0.6620   16.0899 H   0  0  0  0  0
   -4.5093    6.1542   13.2042 H   0  0  0  0  0
   -3.2076    5.0073   12.5097 H   0  0  0  0  0
   -1.7398    5.8788   14.3318 H   0  0  0  0  0
   -2.9180    7.0708   14.6860 H   0  0  0  0  0
   -1.4166    7.8483   12.9209 H   0  0  0  0  0
   -1.8120    6.5456   11.9599 H   0  0  0  0  0
   -2.9581    7.7052   12.3044 H   0  0  0  0  0
  1  2  4  0  0  0
  1  6  4  0  0  0
  1  7  1  0  0  0
  2  3  4  0  0  0
  3  4  4  0  0  0
  4  5  4  0  0  0
  4 11  1  0  0  0
  5  6  4  0  0  0
  7  8  2  0  0  0
  7  9  2  0  0  0
  7 10  1  0  0  0
 11 12  1  0  0  0
 12 13  1  0  0  0
  2 14  1  0  0  0
  3 15  1  0  0  0
  5 16  1  0  0  0
  6 17  1  0  0  0
 10 18  1  0  0  0
 10 19  1  0  0  0
 11 20  1  0  0  0
 11 21  1  0  0  0
 12 22  1  0  0  0
 12 23  1  0  0  0
 13 24  1  0  0  0
 13 25  1  0  0  0
 13 26  1  0  0  0
M  END
$$$$
