5c8n_ligand
  -I-interpret- 

 64 67  0  0  0  0  0  0  0  0999 V2000
  -52.7300    1.3400  -19.7870 C   0  0  0  0  0
  -53.7190    2.2970  -19.9760 C   0  0  0  0  0
  -50.7840   -1.2780  -21.3360 C   0  0  0  0  0
  -53.9970    1.6700  -22.2130 C   0  0  0  0  0
  -53.0060    0.7000  -22.1340 C   0  0  0  0  0
  -52.3660    0.5340  -20.8950 C   0  0  0  0  0
  -49.3450   -0.9350  -21.6970 C   0  0  0  0  0
  -51.0860   -2.7420  -21.0570 C   0  0  0  0  0
  -51.9620    0.9610  -18.7290 N   0  0  0  0  0
  -50.2140   -0.6470  -18.1260 C   0  0  0  0  0
  -51.1810   -0.0150  -19.0960 C   0  0  0  0  0
  -54.3050    2.4290  -21.1600 N   0  0  0  0  0
  -51.3890   -0.3070  -20.4310 N   0  0  0  0  0
  -54.6960    1.9350  -23.3780 N   0  0  0  0  0
  -54.7860    1.1170  -24.4820 C   0  0  0  0  0
  -55.9270    1.2060  -25.2850 C   0  0  0  0  0
  -55.9870    0.3840  -26.4020 C   0  0  0  0  0
  -54.9710   -0.4310  -26.6580 N   0  0  0  0  0
  -53.8910   -0.4730  -25.8910 C   0  0  0  0  0
  -53.8000    0.2860  -24.8160 N   0  0  0  0  0
  -52.8520   -1.3450  -26.1790 N   0  0  0  0  0
  -52.5660   -1.6570  -27.5970 C   0  0  0  0  0
  -51.9310   -3.0490  -27.6180 C   0  0  0  0  0
  -50.6760   -3.1080  -26.7170 C   0  0  0  0  0
  -50.9320   -2.5400  -25.3000 C   0  0  0  0  0
  -51.6460   -1.1690  -25.3540 C   0  0  0  0  0
  -50.2630   -4.5790  -26.5570 C   0  0  0  0  0
  -49.7130   -5.1270  -27.8850 C   0  0  0  0  0
  -49.1760   -6.4810  -27.7120 N   0  3  0  0  0
  -49.6490   -2.3510  -27.3940 O   0  0  0  0  0
  -48.4320   -2.0840  -26.6810 C   0  0  0  0  0
  -54.0151    2.9422  -19.1489 H   0  0  0  0  0
  -51.3312   -1.1594  -22.2712 H   0  0  0  0  0
  -52.7362    0.0927  -22.9980 H   0  0  0  0  0
  -48.6874   -1.2232  -20.8769 H   0  0  0  0  0
  -49.0597   -1.4748  -22.6000 H   0  0  0  0  0
  -49.2614    0.1377  -21.8717 H   0  0  0  0  0
  -50.7315   -3.0011  -20.0594 H   0  0  0  0  0
  -52.1618   -2.9074  -21.1160 H   0  0  0  0  0
  -50.5805   -3.3632  -21.7963 H   0  0  0  0  0
  -49.5190    0.1100  -17.7626 H   0  0  0  0  0
  -50.7668   -1.0677  -17.2860 H   0  0  0  0  0
  -49.6600   -1.4383  -18.6309 H   0  0  0  0  0
  -55.1937    2.8242  -23.4231 H   0  0  0  0  0
  -56.7375    1.8937  -25.0435 H   0  0  0  0  0
  -56.8560    0.4075  -27.0595 H   0  0  0  0  0
  -51.8948   -0.9160  -28.0312 H   0  0  0  0  0
  -53.4789   -1.6362  -28.1923 H   0  0  0  0  0
  -51.6345   -3.2796  -28.6412 H   0  0  0  0  0
  -52.6599   -3.7684  -27.2449 H   0  0  0  0  0
  -49.9704   -2.4073  -24.8042 H   0  0  0  0  0
  -51.5707   -3.2389  -24.7599 H   0  0  0  0  0
  -51.9099   -0.8315  -24.3517 H   0  0  0  0  0
  -50.9921   -0.4099  -25.7833 H   0  0  0  0  0
  -51.1354   -5.1637  -26.2650 H   0  0  0  0  0
  -49.4873   -4.6498  -25.7945 H   0  0  0  0  0
  -48.9108   -4.4735  -28.2278 H   0  0  0  0  0
  -50.5246   -5.1626  -28.6118 H   0  0  0  0  0
  -48.8186   -6.8204  -28.6050 H   0  0  0  0  0
  -48.4201   -6.4608  -27.0274 H   0  0  0  0  0
  -49.9172   -7.1001  -27.3837 H   0  0  0  0  0
  -48.6581   -1.5149  -25.7793 H   0  0  0  0  0
  -47.9581   -3.0268  -26.4079 H   0  0  0  0  0
  -47.7590   -1.5082  -27.3164 H   0  0  0  0  0
  1  2  4  0  0  0
  6  1  4  0  0  0
  1  9  4  0  0  0
  2 12  4  0  0  0
  3  7  1  0  0  0
  3  8  1  0  0  0
 13  3  1  0  0  0
  5  4  4  0  0  0
  4 12  4  0  0  0
  4 14  1  0  0  0
  6  5  4  0  0  0
  6 13  4  0  0  0
  9 11  4  0  0  0
 11 10  1  0  0  0
 11 13  4  0  0  0
 14 15  1  0  0  0
 15 16  4  0  0  0
 15 20  4  0  0  0
 16 17  4  0  0  0
 17 18  4  0  0  0
 18 19  4  0  0  0
 19 20  4  0  0  0
 19 21  1  0  0  0
 21 22  1  0  0  0
 21 26  1  0  0  0
 22 23  1  0  0  0
 23 24  1  0  0  0
 24 25  1  0  0  0
 24 27  1  0  0  0
 24 30  1  0  0  0
 25 26  1  0  0  0
 27 28  1  0  0  0
 28 29  1  0  0  0
 30 31  1  0  0  0
  2 32  1  0  0  0
  3 33  1  0  0  0
  5 34  1  0  0  0
  7 35  1  0  0  0
  7 36  1  0  0  0
  7 37  1  0  0  0
  8 38  1  0  0  0
  8 39  1  0  0  0
  8 40  1  0  0  0
 10 41  1  0  0  0
 10 42  1  0  0  0
 10 43  1  0  0  0
 14 44  1  0  0  0
 16 45  1  0  0  0
 17 46  1  0  0  0
 22 47  1  0  0  0
 22 48  1  0  0  0
 23 49  1  0  0  0
 23 50  1  0  0  0
 25 51  1  0  0  0
 25 52  1  0  0  0
 26 53  1  0  0  0
 26 54  1  0  0  0
 27 55  1  0  0  0
 27 56  1  0  0  0
 28 57  1  0  0  0
 28 58  1  0  0  0
 29 59  1  0  0  0
 29 60  1  0  0  0
 29 61  1  0  0  0
 31 62  1  0  0  0
 31 63  1  0  0  0
 31 64  1  0  0  0
M  END
$$$$
