2g01_ligand
  -I-interpret- 

 28 30  0  0  0  0  0  0  0  0999 V2000
   25.7510   96.7380   26.1430 C   0  0  0  0  0
   25.5430   95.2700   26.3870 C   0  0  0  0  0
   25.6710   94.2940   25.4560 N   0  0  0  0  0
   25.3980   93.0770   26.0440 N   0  0  0  0  0
   25.4350   91.8060   25.3530 C   0  0  0  0  0
   25.1020   93.2460   27.3070 C   0  0  0  0  0
   24.7480   92.3610   28.3350 N   0  0  0  0  0
   24.6660   91.0390   28.0800 O   0  0  0  0  0
   24.4720   92.7790   29.6060 C   0  0  0  0  0
   24.0950   91.9410   30.7060 C   0  0  0  0  0
   23.8200   92.4010   31.9910 C   0  0  0  0  0
   23.9130   93.8100   32.2750 C   0  0  0  0  0
   23.5990   94.4580   33.8100 Cl  0  0  0  0  0
   24.2770   94.6700   31.2340 C   0  0  0  0  0
   24.5550   94.1970   29.9160 C   0  0  0  0  0
   24.9210   95.1330   28.8680 C   0  0  0  0  0
   24.9950   96.3800   29.1240 O   0  0  0  0  0
   25.1890   94.6860   27.5830 C   0  0  0  0  0
   26.7722   96.9071   25.8013 H   0  0  0  0  0
   25.0503   97.0814   25.3819 H   0  0  0  0  0
   25.5809   97.2867   27.0694 H   0  0  0  0  0
   24.7168   91.8186   24.5331 H   0  0  0  0  0
   26.4368   91.6379   24.9576 H   0  0  0  0  0
   25.1792   91.0076   26.0496 H   0  0  0  0  0
   24.8819   90.8780   27.1585 H   0  0  0  0  0
   24.0183   90.8691   30.5239 H   0  0  0  0  0
   23.5365   91.7001   32.7762 H   0  0  0  0  0
   24.3510   95.7386   31.4359 H   0  0  0  0  0
  1  2  1  0  0  0
  2  3  4  0  0  0
  2 18  4  0  0  0
  3  4  4  0  0  0
  4  5  1  0  0  0
  4  6  4  0  0  0
  6  7  1  0  0  0
  6 18  4  0  0  0
  7  8  1  0  0  0
  7  9  1  0  0  0
  9 10  4  0  0  0
  9 15  4  0  0  0
 10 11  4  0  0  0
 11 12  4  0  0  0
 12 13  1  0  0  0
 12 14  4  0  0  0
 14 15  4  0  0  0
 15 16  1  0  0  0
 16 17  2  0  0  0
 16 18  1  0  0  0
  1 19  1  0  0  0
  1 20  1  0  0  0
  1 21  1  0  0  0
  5 22  1  0  0  0
  5 23  1  0  0  0
  5 24  1  0  0  0
  8 25  1  0  0  0
 10 26  1  0  0  0
 11 27  1  0  0  0
 14 28  1  0  0  0
M  END
$$$$
