4ylu_ligand
  -I-interpret- 

 51 54  0  0  0  0  0  0  0  0999 V2000
   35.1220  -20.1950   36.0920 O   0  0  0  0  0
   36.0310  -19.6100   36.7490 C   0  0  0  0  0
   37.3290  -19.8310   36.4120 N   0  0  0  0  0
   38.4120  -19.2040   37.1170 C   0  0  0  0  0
   38.9650  -18.0060   36.6400 C   0  0  0  0  0
   40.0740  -17.3380   37.2400 C   0  0  0  0  0
   40.6850  -17.8120   38.3980 C   0  0  0  0  0
   41.8150  -17.1460   39.0360 N   0  0  0  0  0
   42.1520  -15.7920   38.9550 C   0  0  0  0  0
   43.3640  -15.0950   39.6100 C   0  0  0  0  0
   43.0920  -13.9230   40.5440 C   0  0  0  0  0
   41.4100  -15.0440   38.2910 O   0  0  0  0  0
   40.1350  -19.0090   38.8990 C   0  0  0  0  0
   39.0250  -19.6760   38.2890 C   0  0  0  0  0
   37.7100  -20.8150   35.3750 C   0  0  0  0  0
   38.7430  -21.8210   35.9020 C   0  0  0  0  0
   40.0680  -21.5890   35.8020 C   0  0  0  0  0
   41.0200  -22.7930   36.5390 S   0  0  0  0  0
   39.6420  -23.6560   37.0530 C   0  0  0  0  0
   38.5230  -23.0080   36.6500 C   0  0  0  0  0
   35.5800  -18.6610   37.9230 C   0  0  0  0  0
   34.2350  -18.2840   38.0440 N   0  0  0  0  0
   33.3480  -18.9770   38.8340 N   0  0  0  0  0
   32.1930  -18.4870   38.7590 N   0  0  0  0  0
   32.2460  -17.3510   37.8330 C   0  0  0  0  0
   33.5730  -17.2690   37.3990 C   0  0  0  0  0
   33.9850  -16.2630   36.4860 C   0  0  0  0  0
   33.0580  -15.3540   36.0150 C   0  0  0  0  0
   31.6950  -15.4450   36.4500 C   0  0  0  0  0
   31.2980  -16.4470   37.3570 C   0  0  0  0  0
   38.5183  -17.5562   35.7533 H   0  0  0  0  0
   40.4550  -16.4277   36.7771 H   0  0  0  0  0
   42.4264  -17.7329   39.6036 H   0  0  0  0  0
   43.9415  -14.6800   38.7840 H   0  0  0  0  0
   43.8368  -15.8567   40.2300 H   0  0  0  0  0
   42.5723  -13.1367   39.9964 H   0  0  0  0  0
   42.4724  -14.2589   41.3755 H   0  0  0  0  0
   44.0373  -13.5376   40.9261 H   0  0  0  0  0
   40.5760  -19.4479   39.7939 H   0  0  0  0  0
   38.6409  -20.5850   38.7519 H   0  0  0  0  0
   38.1506  -20.2772   34.5355 H   0  0  0  0  0
   36.8167  -21.3635   35.0763 H   0  0  0  0  0
   40.4875  -20.7175   35.2994 H   0  0  0  0  0
   39.6591  -24.5871   37.6195 H   0  0  0  0  0
   37.5226  -23.3724   36.8837 H   0  0  0  0  0
   36.1087  -17.7264   37.7357 H   0  0  0  0  0
   35.7849  -19.2322   38.8285 H   0  0  0  0  0
   35.0236  -16.2085   36.1597 H   0  0  0  0  0
   33.3605  -14.5729   35.3175 H   0  0  0  0  0
   30.9596  -14.7328   36.0757 H   0  0  0  0  0
   30.2602  -16.5147   37.6832 H   0  0  0  0  0
  1  2  2  0  0  0
  2  3  1  0  0  0
  2 21  1  0  0  0
  3  4  1  0  0  0
  3 15  1  0  0  0
  4  5  4  0  0  0
  4 14  4  0  0  0
  5  6  4  0  0  0
  6  7  4  0  0  0
  7  8  1  0  0  0
  7 13  4  0  0  0
  8  9  1  0  0  0
  9 10  1  0  0  0
  9 12  2  0  0  0
 10 11  1  0  0  0
 13 14  4  0  0  0
 15 16  1  0  0  0
 16 17  4  0  0  0
 16 20  4  0  0  0
 17 18  4  0  0  0
 18 19  4  0  0  0
 19 20  4  0  0  0
 21 22  1  0  0  0
 22 23  4  0  0  0
 22 26  4  0  0  0
 23 24  4  0  0  0
 24 25  4  0  0  0
 25 26  4  0  0  0
 25 30  4  0  0  0
 26 27  4  0  0  0
 27 28  4  0  0  0
 28 29  4  0  0  0
 29 30  4  0  0  0
  5 31  1  0  0  0
  6 32  1  0  0  0
  8 33  1  0  0  0
 10 34  1  0  0  0
 10 35  1  0  0  0
 11 36  1  0  0  0
 11 37  1  0  0  0
 11 38  1  0  0  0
 13 39  1  0  0  0
 14 40  1  0  0  0
 15 41  1  0  0  0
 15 42  1  0  0  0
 17 43  1  0  0  0
 19 44  1  0  0  0
 20 45  1  0  0  0
 21 46  1  0  0  0
 21 47  1  0  0  0
 27 48  1  0  0  0
 28 49  1  0  0  0
 29 50  1  0  0  0
 30 51  1  0  0  0
M  END
$$$$
