### 
### Created by X-TOOL on Mon Sep 10 21:13:08 2018
### 

@<TRIPOS>MOLECULE
3asl_ligand
  160   159     1     0     0
SMALL
GAST_HUCK


@<TRIPOS>ATOM
      1 N          19.9030   18.0410    2.3430 N.4       1 ALA         0.2377
      2 CA         18.4260   17.8410    2.5020 C.3       1 ALA         0.0621
      3 C          17.9980   16.5330    1.8600 C.2       1 ALA         0.2264
      4 O          18.7400   15.9570    1.0780 O.2       1 ALA        -0.3907
      5 CB         17.6700   19.0110    1.8650 C.3       1 ALA        -0.0040
      6 N          16.8140   16.0580    2.1980 N.am      1 ARG        -0.2610
      7 CA         16.2570   14.8520    1.5930 C.3       1 ARG         0.1312
      8 C          15.7090   15.1280    0.1900 C.2       1 ARG         0.2040
      9 O          15.1170   16.1720   -0.0780 O.2       1 ARG        -0.3944
     10 CB         15.1310   14.2680    2.4720 C.3       1 ARG        -0.0092
     11 CG         15.6110   13.6570    3.7600 C.3       1 ARG        -0.0156
     12 CD         14.4820   13.0580    4.5550 C.3       1 ARG         0.0627
     13 NE         13.4560   14.0610    4.8500 N.pl3     1 ARG        -0.2723
     14 CZ         12.1470   13.9550    4.6090 C.cat     1 ARG         0.2882
     15 NH1        11.6180   12.8500    4.0950 N.pl3     1 ARG        -0.2849
     16 NH2        11.3520   14.9680    4.9260 N.pl3     1 ARG        -0.2849
     17 N          15.8920   14.1720   -0.7090 N.am      1 THR        -0.2613
     18 CA         15.2190   14.2040   -2.0030 C.3       1 THR         0.1565
     19 C          14.3020   12.9910   -2.0700 C.2       1 THR         0.2065
     20 O          14.4950   11.9890   -1.3440 O.2       1 THR        -0.3943
     21 CB         16.2350   14.1530   -3.1690 C.3       1 THR         0.0924
     22 OG1        17.0540   12.9830   -3.0260 O.3       1 THR        -0.3874
     23 CG2        17.1390   15.3690   -3.1650 C.3       1 THR        -0.0346
     24 N          13.3290   13.0550   -2.9790 N.am      1 LYS        -0.2637
     25 CA         12.3880   11.9730   -3.1280 C.3       1 LYS         0.1310
     26 C          13.0510   10.6880   -3.5490 C.2       1 LYS         0.2039
     27 O          12.7140    9.6020   -3.0520 O.2       1 LYS        -0.3944
     28 CB         11.2780   12.3410   -4.1090 C.3       1 LYS        -0.0122
     29 CG         10.1180   11.3730   -3.9750 C.3       1 LYS        -0.0440
     30 CD          8.8910   11.8520   -4.6380 C.3       1 LYS        -0.0124
     31 CE          9.0820   11.7590   -6.1040 C.3       1 LYS        -0.0354
     32 NZ          7.8820   12.2800   -6.7880 N.4       1 LYS         0.2185
     33 N          13.9450   10.8060   -4.5180 N.am      1 GLN        -0.2636
     34 CA         14.7860    9.6870   -4.9440 C.3       1 GLN         0.1330
     35 C          16.2040   10.1580   -5.1970 C.2       1 GLN         0.2041
     36 O          16.5100   11.3300   -5.0860 O.2       1 GLN        -0.3944
     37 CB         14.2050    9.0210   -6.2050 C.3       1 GLN         0.0045
     38 CG         12.8010    8.5210   -6.0050 C.3       1 GLN         0.0412
     39 CD         12.1900    7.9100   -7.2430 C.2       1 GLN         0.1737
     40 OE1        12.8870    7.5250   -8.1800 O.2       1 GLN        -0.3973
     41 NE2        10.8660    7.8310   -7.2580 N.am      1 GLN        -0.3009
     42 N          17.0860    9.2010   -5.4690 N.am      1 THR        -0.2613
     43 CA         18.4610    9.4540   -5.9300 C.3       1 THR         0.1565
     44 C          18.5510    8.9590   -7.3690 C.2       1 THR         0.2065
     45 O          17.6720    8.1950   -7.8260 O.2       1 THR        -0.3943
     46 CB         19.4880    8.6990   -5.0590 C.3       1 THR         0.0924
     47 OG1        19.2640    7.2940   -5.1900 O.3       1 THR        -0.3874
     48 CG2        19.3530    9.1140   -3.6210 C.3       1 THR        -0.0346
     49 N          19.6260    9.3400   -8.0660 N.am      1 ALA        -0.2639
     50 CA         19.8670    8.9290   -9.4460 C.3       1 ALA         0.1282
     51 C          21.3400    8.6270   -9.6110 C.2       1 ALA         0.2036
     52 O          22.1830    9.1980   -8.9180 O.2       1 ALA        -0.3944
     53 CB         19.4260   10.0030  -10.4290 C.3       1 ALA        -0.0244
     54 N          21.6170    7.7540  -10.5760 N.am      1 ARG        -0.2637
     55 CA         22.9600    7.3060  -10.8990 C.3       1 ARG         0.1310
     56 C          23.7370    8.4910  -11.4380 C.2       1 ARG         0.2033
     57 O          23.1780    9.3150  -12.1580 O.2       1 ARG        -0.3944
     58 CB         22.8950    6.1860  -11.9510 C.3       1 ARG        -0.0092
     59 CG         24.0520    5.1930  -11.9060 C.3       1 ARG        -0.0156
     60 CD         23.7500    3.9260  -12.7230 C.3       1 ARG         0.0627
     61 NE         24.2750    2.7230  -12.0760 N.pl3     1 ARG        -0.2723
     62 CZ         24.3730    1.5280  -12.6550 C.cat     1 ARG         0.2882
     63 NH1        23.9840    1.3430  -13.9210 N.pl3     1 ARG        -0.2849
     64 NH2        24.8800    0.5070  -11.9690 N.pl3     1 ARG        -0.2849
     65 N          25.0170    8.5670  -11.0760 N.am      1 LYS        -0.2695
     66 CA         25.9270    9.6050  -11.5570 C.3       1 LYS         0.0944
     67 C          26.4340    9.2640  -12.9580 C.2       1 LYS         0.0601
     68 O          25.7300    8.6098  -13.7729 O.co2     1 LYS        -0.5666
     69 CB         27.1020    9.7400  -10.5770 C.3       1 LYS        -0.0177
     70 CG         28.1930   10.7320  -10.9470 C.3       1 LYS        -0.0446
     71 CD         28.9440   11.2570   -9.7080 C.3       1 LYS        -0.0125
     72 CE         29.3510   10.1470   -8.7310 C.3       1 LYS        -0.0354
     73 NZ         29.9410    8.9550   -9.4210 N.4       1 LYS         0.2185
     74 H          20.3987   17.2582    2.7695 H         1 ALA         0.2015
     75 H          20.1333   18.0907    1.3506 H         1 ALA         0.2015
     76 H          20.1785   18.9097    2.8011 H         1 ALA         0.2015
     77 H          18.1897   17.8005    3.5653 H         1 ALA         0.1095
     78 H          17.8900   19.0463    0.7980 H         1 ALA         0.0310
     79 H          16.5988   18.8729    2.0120 H         1 ALA         0.0310
     80 H          17.9851   19.9435    2.3333 H         1 ALA         0.0310
     81 H          16.2695   16.5504    2.9062 H         1 ARG         0.1884
     82 H          17.0693   14.1294    1.5149 H         1 ARG         0.0800
     83 H          14.6523   13.4748    1.8977 H         1 ARG         0.0313
     84 H          14.4666   15.0914    2.7338 H         1 ARG         0.0313
     85 H          16.0707   14.4427    4.3595 H         1 ARG         0.0301
     86 H          16.3167   12.8623    3.5181 H         1 ARG         0.0301
     87 H          14.8803   12.6787    5.4960 H         1 ARG         0.0689
     88 H          14.0295   12.2572    3.9702 H         1 ARG         0.0689
     89 H          13.7736   14.9280    5.2833 H         1 ARG         0.2642
     90 H          12.2157   12.0536    3.8737 H         1 ARG         0.2615
     91 H          10.6142   12.7980    3.9217 H         1 ARG         0.2615
     92 H          11.7430   15.8108    5.3469 H         1 ARG         0.2615
     93 H          10.3495   14.9043    4.7490 H         1 ARG         0.2615
     94 H          16.5175   13.3962   -0.4915 H         1 THR         0.1884
     95 H          14.6570   15.1328   -2.1005 H         1 THR         0.0826
     96 H          15.6766   14.1308   -4.1048 H         1 THR         0.0639
     97 H          16.4984   12.2004   -3.0462 H         1 THR         0.2101
     98 H          16.5345   16.2699   -3.2701 H         1 THR         0.0257
     99 H          17.6902   15.4073   -2.2254 H         1 THR         0.0257
    100 H          17.8404   15.3015   -3.9966 H         1 THR         0.0257
    101 H          13.2494   13.8785   -3.5756 H         1 LYS         0.1883
    102 H          11.9487   11.8068   -2.1444 H         1 LYS         0.0800
    103 H          11.6690   12.2907   -5.1252 H         1 LYS         0.0312
    104 H          10.9280   13.3497   -3.8896 H         1 LYS         0.0312
    105 H           9.9000   11.2598   -2.9130 H         1 LYS         0.0269
    106 H          10.4094   10.4365   -4.4506 H         1 LYS         0.0269
    107 H           8.6934   12.8855   -4.3533 H         1 LYS         0.0317
    108 H           8.0411   11.2410   -4.3340 H         1 LYS         0.0317
    109 H           9.2386   10.7177   -6.3856 H         1 LYS         0.0813
    110 H           9.9520   12.3472   -6.3961 H         1 LYS         0.0813
    111 H           8.0129   12.2162   -7.7975 H         1 LYS         0.1994
    112 H           7.0693   11.7280   -6.5138 H         1 LYS         0.1994
    113 H           7.7376   13.2545   -6.5236 H         1 LYS         0.1994
    114 H          14.0512   11.7074   -4.9834 H         1 GLN         0.1883
    115 H          14.8049    8.9467   -4.1442 H         1 GLN         0.0801
    116 H          14.8329    8.1643   -6.4497 H         1 GLN         0.0337
    117 H          14.1835    9.7687   -6.9978 H         1 GLN         0.0337
    118 H          12.1869    9.3780   -5.7284 H         1 GLN         0.0504
    119 H          12.8385    7.7427   -5.2428 H         1 GLN         0.0504
    120 H          10.3877    7.4388   -8.0690 H         1 GLN         0.1814
    121 H          10.3262    8.1625   -6.4585 H         1 GLN         0.1814
    122 H          16.7917    8.2315   -5.3509 H         1 THR         0.1884
    123 H          18.6874   10.5178   -5.8581 H         1 THR         0.0826
    124 H          20.4973    8.9405   -5.3922 H         1 THR         0.0639
    125 H          19.8997    6.8181   -4.6505 H         1 THR         0.2101
    126 H          19.5309   10.1860   -3.5353 H         1 THR         0.0257
    127 H          18.3474    8.8821   -3.2701 H         1 THR         0.0257
    128 H          20.0831    8.5739   -3.0182 H         1 THR         0.0257
    129 H          20.3098    9.9461   -7.6126 H         1 ALA         0.1883
    130 H          19.2793    8.0366   -9.6612 H         1 ALA         0.0797
    131 H          18.3597   10.1920  -10.3045 H         1 ALA         0.0277
    132 H          19.9836   10.9199  -10.2377 H         1 ALA         0.0277
    133 H          19.6198    9.6640  -11.4466 H         1 ALA         0.0277
    134 H          20.8410    7.3776  -11.1205 H         1 ARG         0.1883
    135 H          23.4542    6.9126  -10.0107 H         1 ARG         0.0800
    136 H          22.9317    6.6686  -12.9277 H         1 ARG         0.0313
    137 H          21.9854    5.6192  -11.7521 H         1 ARG         0.0313
    138 H          24.2124    4.9010  -10.8682 H         1 ARG         0.0301
    139 H          24.9325    5.6736  -12.3325 H         1 ARG         0.0301
    140 H          24.2267    4.0259  -13.6982 H         1 ARG         0.0689
    141 H          22.6682    3.8240  -12.8090 H         1 ARG         0.0689
    142 H          24.5894    2.8061  -11.1092 H         1 ARG         0.2642
    143 H          23.6057    2.1236  -14.4575 H         1 ARG         0.2615
    144 H          24.0656    0.4213  -14.3501 H         1 ARG         0.2615
    145 H          25.1902    0.6429  -11.0069 H         1 ARG         0.2615
    146 H          24.9585   -0.4117  -12.4052 H         1 ARG         0.2615
    147 H          25.3803    7.8655  -10.4307 H         1 LYS         0.1875
    148 H          25.3944   10.5544  -11.6137 H         1 LYS         0.0726
    149 O          27.5831    9.6461  -13.3063 O.co2     1 LYS        -0.5666
    150 H          27.5831    8.7623  -10.5503 H         1 LYS         0.0305
    151 H          26.6725   10.1023   -9.6430 H         1 LYS         0.0305
    152 H          27.7256   11.5808  -11.4461 H         1 LYS         0.0269
    153 H          28.9115   10.2231  -11.5896 H         1 LYS         0.0269
    154 H          28.2734   11.9333   -9.1779 H         1 LYS         0.0317
    155 H          29.8566   11.7409  -10.0560 H         1 LYS         0.0317
    156 H          28.4541    9.8189   -8.2056 H         1 LYS         0.0813
    157 H          30.1079   10.5533   -8.0601 H         1 LYS         0.0813
    158 H          30.1923    8.2515   -8.7265 H         1 LYS         0.1994
    159 H          29.2564    8.5654  -10.0690 H         1 LYS         0.1994
    160 H          30.7745    9.2395   -9.9355 H         1 LYS         0.1994
@<TRIPOS>BOND
     1    1    2 1  
     2    2    3 1  
     3    2    5 1  
     4    3    4 2  
     5    3    6 am 
     6    6    7 1  
     7    7    8 1  
     8    7   10 1  
     9    8    9 2  
    10    8   17 am 
    11   10   11 1  
    12   11   12 1  
    13   12   13 1  
    14   13   14 ar 
    15   14   15 ar 
    16   14   16 ar 
    17   17   18 1  
    18   18   19 1  
    19   18   21 1  
    20   19   20 2  
    21   19   24 am 
    22   21   22 1  
    23   21   23 1  
    24   24   25 1  
    25   25   26 1  
    26   25   28 1  
    27   26   27 2  
    28   26   33 am 
    29   28   29 1  
    30   29   30 1  
    31   30   31 1  
    32   31   32 1  
    33   33   34 1  
    34   34   35 1  
    35   34   37 1  
    36   35   36 2  
    37   35   42 am 
    38   37   38 1  
    39   38   39 1  
    40   39   40 2  
    41   39   41 am 
    42   42   43 1  
    43   43   44 1  
    44   43   46 1  
    45   44   45 2  
    46   44   49 am 
    47   46   47 1  
    48   46   48 1  
    49   49   50 1  
    50   50   51 1  
    51   50   53 1  
    52   51   52 2  
    53   51   54 am 
    54   54   55 1  
    55   55   56 1  
    56   55   58 1  
    57   56   57 2  
    58   56   65 am 
    59   58   59 1  
    60   59   60 1  
    61   60   61 1  
    62   61   62 ar 
    63   62   63 ar 
    64   62   64 ar 
    65   65   66 1  
    66   66   67 1  
    67   66   69 1  
    68   67   68 ar 
    69   69   70 1  
    70   70   71 1  
    71   71   72 1  
    72   72   73 1  
    73    1   74 1  
    74    1   75 1  
    75    1   76 1  
    76    2   77 1  
    77    5   78 1  
    78    5   79 1  
    79    5   80 1  
    80    6   81 1  
    81    7   82 1  
    82   10   83 1  
    83   10   84 1  
    84   11   85 1  
    85   11   86 1  
    86   12   87 1  
    87   12   88 1  
    88   13   89 1  
    89   15   90 1  
    90   15   91 1  
    91   16   92 1  
    92   16   93 1  
    93   17   94 1  
    94   18   95 1  
    95   21   96 1  
    96   22   97 1  
    97   23   98 1  
    98   23   99 1  
    99   23  100 1  
   100   24  101 1  
   101   25  102 1  
   102   28  103 1  
   103   28  104 1  
   104   29  105 1  
   105   29  106 1  
   106   30  107 1  
   107   30  108 1  
   108   31  109 1  
   109   31  110 1  
   110   32  111 1  
   111   32  112 1  
   112   32  113 1  
   113   33  114 1  
   114   34  115 1  
   115   37  116 1  
   116   37  117 1  
   117   38  118 1  
   118   38  119 1  
   119   41  120 1  
   120   41  121 1  
   121   42  122 1  
   122   43  123 1  
   123   46  124 1  
   124   47  125 1  
   125   48  126 1  
   126   48  127 1  
   127   48  128 1  
   128   49  129 1  
   129   50  130 1  
   130   53  131 1  
   131   53  132 1  
   132   53  133 1  
   133   54  134 1  
   134   55  135 1  
   135   58  136 1  
   136   58  137 1  
   137   59  138 1  
   138   59  139 1  
   139   60  140 1  
   140   60  141 1  
   141   61  142 1  
   142   63  143 1  
   143   63  144 1  
   144   64  145 1  
   145   64  146 1  
   146   65  147 1  
   147   66  148 1  
   148   67  149 ar 
   149   69  150 1  
   150   69  151 1  
   151   70  152 1  
   152   70  153 1  
   153   71  154 1  
   154   71  155 1  
   155   72  156 1  
   156   72  157 1  
   157   73  158 1  
   158   73  159 1  
   159   73  160 1  
@<TRIPOS>SUBSTRUCTURE
     1 ALA         1

