3asl_ligand
  -I-interpret- 

159158  0  0  0  0  0  0  0  0999 V2000
   19.9030   18.0410    2.3430 N   0  3  0  0  0
   18.4260   17.8410    2.5020 C   0  0  0  0  0
   17.9980   16.5330    1.8600 C   0  0  0  0  0
   18.7400   15.9570    1.0780 O   0  0  0  0  0
   17.6700   19.0110    1.8650 C   0  0  0  0  0
   16.8140   16.0580    2.1980 N   0  0  0  0  0
   16.2570   14.8520    1.5930 C   0  0  0  0  0
   15.7090   15.1280    0.1900 C   0  0  0  0  0
   15.1170   16.1720   -0.0780 O   0  0  0  0  0
   15.1310   14.2680    2.4720 C   0  0  0  0  0
   15.6110   13.6570    3.7600 C   0  0  0  0  0
   14.4820   13.0580    4.5550 C   0  0  0  0  0
   13.4560   14.0610    4.8500 N   0  0  0  0  0
   12.1470   13.9550    4.6090 C   0  0  0  0  0
   11.6180   12.8500    4.0950 N   0  0  0  0  0
   11.3520   14.9680    4.9260 N   0  0  0  0  0
   15.8920   14.1720   -0.7090 N   0  0  0  0  0
   15.2190   14.2040   -2.0030 C   0  0  0  0  0
   14.3020   12.9910   -2.0700 C   0  0  0  0  0
   14.4950   11.9890   -1.3440 O   0  0  0  0  0
   16.2350   14.1530   -3.1690 C   0  0  0  0  0
   17.0540   12.9830   -3.0260 O   0  0  0  0  0
   17.1390   15.3690   -3.1650 C   0  0  0  0  0
   13.3290   13.0550   -2.9790 N   0  0  0  0  0
   12.3880   11.9730   -3.1280 C   0  0  0  0  0
   13.0510   10.6880   -3.5490 C   0  0  0  0  0
   12.7140    9.6020   -3.0520 O   0  0  0  0  0
   11.2780   12.3410   -4.1090 C   0  0  0  0  0
   10.1180   11.3730   -3.9750 C   0  0  0  0  0
    8.8910   11.8520   -4.6380 C   0  0  0  0  0
    9.0820   11.7590   -6.1040 C   0  0  0  0  0
    7.8820   12.2800   -6.7880 N   0  3  0  0  0
   13.9450   10.8060   -4.5180 N   0  0  0  0  0
   14.7860    9.6870   -4.9440 C   0  0  0  0  0
   16.2040   10.1580   -5.1970 C   0  0  0  0  0
   16.5100   11.3300   -5.0860 O   0  0  0  0  0
   14.2050    9.0210   -6.2050 C   0  0  0  0  0
   12.8010    8.5210   -6.0050 C   0  0  0  0  0
   12.1900    7.9100   -7.2430 C   0  0  0  0  0
   12.8870    7.5250   -8.1800 O   0  0  0  0  0
   10.8660    7.8310   -7.2580 N   0  0  0  0  0
   17.0860    9.2010   -5.4690 N   0  0  0  0  0
   18.4610    9.4540   -5.9300 C   0  0  0  0  0
   18.5510    8.9590   -7.3690 C   0  0  0  0  0
   17.6720    8.1950   -7.8260 O   0  0  0  0  0
   19.4880    8.6990   -5.0590 C   0  0  0  0  0
   19.2640    7.2940   -5.1900 O   0  0  0  0  0
   19.3530    9.1140   -3.6210 C   0  0  0  0  0
   19.6260    9.3400   -8.0660 N   0  0  0  0  0
   19.8670    8.9290   -9.4460 C   0  0  0  0  0
   21.3400    8.6270   -9.6110 C   0  0  0  0  0
   22.1830    9.1980   -8.9180 O   0  0  0  0  0
   19.4260   10.0030  -10.4290 C   0  0  0  0  0
   21.6170    7.7540  -10.5760 N   0  0  0  0  0
   22.9600    7.3060  -10.8990 C   0  0  0  0  0
   23.7370    8.4910  -11.4380 C   0  0  0  0  0
   23.1780    9.3150  -12.1580 O   0  0  0  0  0
   22.8950    6.1860  -11.9510 C   0  0  0  0  0
   24.0520    5.1930  -11.9060 C   0  0  0  0  0
   23.7500    3.9260  -12.7230 C   0  0  0  0  0
   24.2750    2.7230  -12.0760 N   0  0  0  0  0
   24.3730    1.5280  -12.6550 C   0  0  0  0  0
   23.9840    1.3430  -13.9210 N   0  0  0  0  0
   24.8800    0.5070  -11.9690 N   0  0  0  0  0
   25.0170    8.5670  -11.0760 N   0  0  0  0  0
   25.9270    9.6050  -11.5570 C   0  0  0  0  0
   26.4340    9.2640  -12.9580 C   0  0  0  0  0
   25.7300    8.6098  -13.7729 O   0  0  0  0  0
   27.1020    9.7400  -10.5770 C   0  0  0  0  0
   28.1930   10.7320  -10.9470 C   0  0  0  0  0
   28.9440   11.2570   -9.7080 C   0  0  0  0  0
   29.3510   10.1470   -8.7310 C   0  0  0  0  0
   29.9410    8.9550   -9.4210 N   0  3  0  0  0
   27.5831    9.6461  -13.3063 O   0  0  0  0  0
   20.3987   17.2582    2.7695 H   0  0  0  0  0
   20.1333   18.0907    1.3506 H   0  0  0  0  0
   20.1785   18.9097    2.8011 H   0  0  0  0  0
   18.1897   17.8005    3.5653 H   0  0  0  0  0
   17.8900   19.0463    0.7980 H   0  0  0  0  0
   16.5988   18.8729    2.0120 H   0  0  0  0  0
   17.9851   19.9435    2.3333 H   0  0  0  0  0
   16.2695   16.5504    2.9062 H   0  0  0  0  0
   17.0693   14.1294    1.5149 H   0  0  0  0  0
   14.6523   13.4748    1.8977 H   0  0  0  0  0
   14.4666   15.0914    2.7338 H   0  0  0  0  0
   16.0707   14.4427    4.3595 H   0  0  0  0  0
   16.3167   12.8623    3.5181 H   0  0  0  0  0
   14.8803   12.6787    5.4960 H   0  0  0  0  0
   14.0295   12.2572    3.9702 H   0  0  0  0  0
   13.7736   14.9280    5.2833 H   0  0  0  0  0
   10.6106   12.7874    3.9481 H   0  0  0  0  0
   12.2193   12.0642    3.8472 H   0  0  0  0  0
   11.7430   15.8108    5.3469 H   0  0  0  0  0
   16.5175   13.3962   -0.4915 H   0  0  0  0  0
   14.6570   15.1328   -2.1005 H   0  0  0  0  0
   15.6766   14.1308   -4.1048 H   0  0  0  0  0
   17.6865   12.9464   -3.7472 H   0  0  0  0  0
   16.5345   16.2699   -3.2701 H   0  0  0  0  0
   17.6902   15.4073   -2.2254 H   0  0  0  0  0
   17.8404   15.3015   -3.9966 H   0  0  0  0  0
   13.2494   13.8785   -3.5756 H   0  0  0  0  0
   11.9487   11.8068   -2.1444 H   0  0  0  0  0
   11.6690   12.2907   -5.1252 H   0  0  0  0  0
   10.9280   13.3497   -3.8896 H   0  0  0  0  0
    9.9000   11.2598   -2.9130 H   0  0  0  0  0
   10.4094   10.4365   -4.4506 H   0  0  0  0  0
    8.6934   12.8855   -4.3533 H   0  0  0  0  0
    8.0411   11.2410   -4.3340 H   0  0  0  0  0
    9.2386   10.7177   -6.3856 H   0  0  0  0  0
    9.9520   12.3472   -6.3961 H   0  0  0  0  0
    8.0129   12.2162   -7.7975 H   0  0  0  0  0
    7.0693   11.7280   -6.5138 H   0  0  0  0  0
    7.7376   13.2545   -6.5236 H   0  0  0  0  0
   14.0512   11.7074   -4.9834 H   0  0  0  0  0
   14.8049    8.9467   -4.1442 H   0  0  0  0  0
   14.8329    8.1643   -6.4497 H   0  0  0  0  0
   14.1835    9.7687   -6.9978 H   0  0  0  0  0
   12.1869    9.3780   -5.7284 H   0  0  0  0  0
   12.8385    7.7427   -5.2428 H   0  0  0  0  0
   10.3877    7.4388   -8.0690 H   0  0  0  0  0
   10.3262    8.1625   -6.4585 H   0  0  0  0  0
   16.7917    8.2315   -5.3509 H   0  0  0  0  0
   18.6874   10.5178   -5.8581 H   0  0  0  0  0
   20.4973    8.9405   -5.3922 H   0  0  0  0  0
   19.8997    6.8181   -4.6505 H   0  0  0  0  0
   19.5309   10.1860   -3.5353 H   0  0  0  0  0
   18.3474    8.8821   -3.2701 H   0  0  0  0  0
   20.0831    8.5739   -3.0182 H   0  0  0  0  0
   20.3098    9.9461   -7.6126 H   0  0  0  0  0
   19.2793    8.0366   -9.6612 H   0  0  0  0  0
   18.3597   10.1920  -10.3045 H   0  0  0  0  0
   19.9836   10.9199  -10.2377 H   0  0  0  0  0
   19.6198    9.6640  -11.4466 H   0  0  0  0  0
   20.8410    7.3776  -11.1205 H   0  0  0  0  0
   23.4542    6.9126  -10.0107 H   0  0  0  0  0
   22.9317    6.6686  -12.9277 H   0  0  0  0  0
   21.9854    5.6192  -11.7521 H   0  0  0  0  0
   24.2124    4.9010  -10.8682 H   0  0  0  0  0
   24.9325    5.6736  -12.3325 H   0  0  0  0  0
   24.2267    4.0259  -13.6982 H   0  0  0  0  0
   22.6682    3.8240  -12.8090 H   0  0  0  0  0
   24.5894    2.8061  -11.1092 H   0  0  0  0  0
   24.0770    0.4242  -14.3540 H   0  0  0  0  0
   23.5943    2.1207  -14.4536 H   0  0  0  0  0
   25.1902    0.6429  -11.0069 H   0  0  0  0  0
   25.3803    7.8655  -10.4307 H   0  0  0  0  0
   25.3944   10.5544  -11.6137 H   0  0  0  0  0
   27.5831    8.7623  -10.5503 H   0  0  0  0  0
   26.6725   10.1023   -9.6430 H   0  0  0  0  0
   27.7256   11.5808  -11.4461 H   0  0  0  0  0
   28.9115   10.2231  -11.5896 H   0  0  0  0  0
   28.2734   11.9333   -9.1779 H   0  0  0  0  0
   29.8566   11.7409  -10.0560 H   0  0  0  0  0
   28.4541    9.8189   -8.2056 H   0  0  0  0  0
   30.1079   10.5533   -8.0601 H   0  0  0  0  0
   30.1923    8.2515   -8.7265 H   0  0  0  0  0
   29.2564    8.5654  -10.0690 H   0  0  0  0  0
   30.7745    9.2395   -9.9355 H   0  0  0  0  0
   27.9917   10.1279  -12.5834 H   0  0  0  0  0
  1  2  1  0  0  0
  2  3  1  0  0  0
  2  5  1  0  0  0
  3  4  2  0  0  0
  3  6  1  0  0  0
  6  7  1  0  0  0
  7  8  1  0  0  0
  7 10  1  0  0  0
  8  9  2  0  0  0
  8 17  1  0  0  0
 10 11  1  0  0  0
 11 12  1  0  0  0
 12 13  1  0  0  0
 13 14  1  0  0  0
 14 15  1  0  0  0
 14 16  2  0  0  0
 17 18  1  0  0  0
 18 19  1  0  0  0
 18 21  1  0  0  0
 19 20  2  0  0  0
 19 24  1  0  0  0
 21 22  1  0  0  0
 21 23  1  0  0  0
 24 25  1  0  0  0
 25 26  1  0  0  0
 25 28  1  0  0  0
 26 27  2  0  0  0
 26 33  1  0  0  0
 28 29  1  0  0  0
 29 30  1  0  0  0
 30 31  1  0  0  0
 31 32  1  0  0  0
 33 34  1  0  0  0
 34 35  1  0  0  0
 34 37  1  0  0  0
 35 36  2  0  0  0
 35 42  1  0  0  0
 37 38  1  0  0  0
 38 39  1  0  0  0
 39 40  2  0  0  0
 39 41  1  0  0  0
 42 43  1  0  0  0
 43 44  1  0  0  0
 43 46  1  0  0  0
 44 45  2  0  0  0
 44 49  1  0  0  0
 46 47  1  0  0  0
 46 48  1  0  0  0
 49 50  1  0  0  0
 50 51  1  0  0  0
 50 53  1  0  0  0
 51 52  2  0  0  0
 51 54  1  0  0  0
 54 55  1  0  0  0
 55 56  1  0  0  0
 55 58  1  0  0  0
 56 57  2  0  0  0
 56 65  1  0  0  0
 58 59  1  0  0  0
 59 60  1  0  0  0
 60 61  1  0  0  0
 61 62  1  0  0  0
 62 63  1  0  0  0
 62 64  2  0  0  0
 65 66  1  0  0  0
 66 67  1  0  0  0
 66 69  1  0  0  0
 67 68  2  0  0  0
 69 70  1  0  0  0
 70 71  1  0  0  0
 71 72  1  0  0  0
 72 73  1  0  0  0
 67 74  1  0  0  0
  1 75  1  0  0  0
  1 76  1  0  0  0
  1 77  1  0  0  0
  2 78  1  0  0  0
  5 79  1  0  0  0
  5 80  1  0  0  0
  5 81  1  0  0  0
  6 82  1  0  0  0
  7 83  1  0  0  0
 10 84  1  0  0  0
 10 85  1  0  0  0
 11 86  1  0  0  0
 11 87  1  0  0  0
 12 88  1  0  0  0
 12 89  1  0  0  0
 13 90  1  0  0  0
 15 91  1  0  0  0
 15 92  1  0  0  0
 16 93  1  0  0  0
 17 94  1  0  0  0
 18 95  1  0  0  0
 21 96  1  0  0  0
 22 97  1  0  0  0
 23 98  1  0  0  0
 23 99  1  0  0  0
 23100  1  0  0  0
 24101  1  0  0  0
 25102  1  0  0  0
 28103  1  0  0  0
 28104  1  0  0  0
 29105  1  0  0  0
 29106  1  0  0  0
 30107  1  0  0  0
 30108  1  0  0  0
 31109  1  0  0  0
 31110  1  0  0  0
 32111  1  0  0  0
 32112  1  0  0  0
 32113  1  0  0  0
 33114  1  0  0  0
 34115  1  0  0  0
 37116  1  0  0  0
 37117  1  0  0  0
 38118  1  0  0  0
 38119  1  0  0  0
 41120  1  0  0  0
 41121  1  0  0  0
 42122  1  0  0  0
 43123  1  0  0  0
 46124  1  0  0  0
 47125  1  0  0  0
 48126  1  0  0  0
 48127  1  0  0  0
 48128  1  0  0  0
 49129  1  0  0  0
 50130  1  0  0  0
 53131  1  0  0  0
 53132  1  0  0  0
 53133  1  0  0  0
 54134  1  0  0  0
 55135  1  0  0  0
 58136  1  0  0  0
 58137  1  0  0  0
 59138  1  0  0  0
 59139  1  0  0  0
 60140  1  0  0  0
 60141  1  0  0  0
 61142  1  0  0  0
 63143  1  0  0  0
 63144  1  0  0  0
 64145  1  0  0  0
 65146  1  0  0  0
 66147  1  0  0  0
 69148  1  0  0  0
 69149  1  0  0  0
 70150  1  0  0  0
 70151  1  0  0  0
 71152  1  0  0  0
 71153  1  0  0  0
 72154  1  0  0  0
 72155  1  0  0  0
 73156  1  0  0  0
 73157  1  0  0  0
 73158  1  0  0  0
 74159  1  0  0  0
M  END
$$$$
