4uiu_ligand
  -I-interpret- 

 56 59  0  0  0  0  0  0  0  0999 V2000
   -5.8220   18.0850   17.4410 O   0  0  0  0  0
   -4.4840   18.0840   17.9660 S   0  0  0  0  0
   -4.2100   18.8720   19.1360 O   0  0  0  0  0
   -3.9620   16.4200   18.2410 C   0  0  0  0  0
   -2.4580   16.3480   18.5650 C   0  0  0  0  0
   -3.3510   18.5200   16.6850 C   0  0  0  0  0
   -1.9090   18.3630   17.1740 C   0  0  0  0  0
   -1.4950   16.9490   17.5490 C   0  0  0  0  0
   -1.3780   16.1030   16.3610 N   0  0  0  0  0
   -0.2880   16.0940   15.5710 C   0  0  0  0  0
    0.7600   16.6720   15.8630 O   0  0  0  0  0
   -0.3870   15.3200   14.3130 C   0  0  0  0  0
   -1.4000   14.5930   13.7580 C   0  0  0  0  0
    1.0030   15.3610   13.2680 S   0  0  0  0  0
    0.1750   14.4300   12.0510 C   0  0  0  0  0
   -1.0970   14.0850   12.4660 C   0  0  0  0  0
   -1.9570   13.3290   11.5690 C   0  0  0  0  0
   -3.0650   12.9160   11.8850 O   0  0  0  0  0
   -1.4620   13.0360   10.3030 N   0  0  0  0  0
   -2.3450   12.3150    9.3870 C   0  0  0  0  0
   -0.2170   13.4070    9.9120 C   0  0  0  0  0
    0.6550   14.0680   10.7110 C   0  0  0  0  0
    2.0320   14.3460   10.2270 C   0  0  0  0  0
    2.6580   15.5590   10.4990 C   0  0  0  0  0
    3.9420   15.8130   10.0520 C   0  0  0  0  0
    2.7030   13.3880    9.4710 C   0  0  0  0  0
    3.9770   13.6370    8.9980 C   0  0  0  0  0
    4.6890   12.7830    8.1990 O   0  0  0  0  0
    3.9580   11.9250    7.3250 C   0  0  0  0  0
    4.6120   14.8550    9.3060 C   0  0  0  0  0
    5.8970   14.9820    8.8550 O   0  0  0  0  0
    6.8720   15.4640    9.7740 C   0  0  0  0  0
   -4.1483   15.8448   17.3340 H   0  0  0  0  0
   -4.5179   16.0188   19.0884 H   0  0  0  0  0
   -2.2160   15.2861   18.6087 H   0  0  0  0  0
   -2.3246   16.9289   19.4776 H   0  0  0  0  0
   -3.5188   19.5587   16.4002 H   0  0  0  0  0
   -3.5103   17.8624   15.8304 H   0  0  0  0  0
   -1.8217   18.9625   18.0801 H   0  0  0  0  0
   -1.2663   18.6655   16.3472 H   0  0  0  0  0
   -0.5115   16.9999   18.0162 H   0  0  0  0  0
   -2.1583   15.4918   16.1203 H   0  0  0  0  0
   -2.3522   14.4184   14.2589 H   0  0  0  0  0
   -2.6124   11.3529    9.8240 H   0  0  0  0  0
   -3.2477   12.9019    9.2172 H   0  0  0  0  0
   -1.8307   12.1547    8.4394 H   0  0  0  0  0
    0.0994   13.1595    8.8987 H   0  0  0  0  0
    2.1287   16.3198   11.0726 H   0  0  0  0  0
    4.4251   16.7619   10.2850 H   0  0  0  0  0
    2.2201   12.4359    9.2511 H   0  0  0  0  0
    3.3000   11.2849    7.9128 H   0  0  0  0  0
    3.3628   12.5284    6.6396 H   0  0  0  0  0
    4.6545   11.3083    6.7570 H   0  0  0  0  0
    6.5865   16.4587   10.1161 H   0  0  0  0  0
    6.9309   14.7880   10.6270 H   0  0  0  0  0
    7.8423   15.5129    9.2799 H   0  0  0  0  0
  1  2  2  0  0  0
  2  3  2  0  0  0
  2  4  1  0  0  0
  2  6  1  0  0  0
  4  5  1  0  0  0
  5  8  1  0  0  0
  6  7  1  0  0  0
  7  8  1  0  0  0
  8  9  1  0  0  0
  9 10  1  0  0  0
 10 11  2  0  0  0
 10 12  1  0  0  0
 12 13  4  0  0  0
 12 14  4  0  0  0
 13 16  4  0  0  0
 14 15  4  0  0  0
 15 16  4  0  0  0
 15 22  1  0  0  0
 16 17  1  0  0  0
 17 18  2  0  0  0
 17 19  1  0  0  0
 19 20  1  0  0  0
 19 21  1  0  0  0
 21 22  2  0  0  0
 22 23  1  0  0  0
 23 24  4  0  0  0
 23 26  4  0  0  0
 24 25  4  0  0  0
 25 30  4  0  0  0
 26 27  4  0  0  0
 27 28  1  0  0  0
 27 30  4  0  0  0
 28 29  1  0  0  0
 30 31  1  0  0  0
 31 32  1  0  0  0
  4 33  1  0  0  0
  4 34  1  0  0  0
  5 35  1  0  0  0
  5 36  1  0  0  0
  6 37  1  0  0  0
  6 38  1  0  0  0
  7 39  1  0  0  0
  7 40  1  0  0  0
  8 41  1  0  0  0
  9 42  1  0  0  0
 13 43  1  0  0  0
 20 44  1  0  0  0
 20 45  1  0  0  0
 20 46  1  0  0  0
 21 47  1  0  0  0
 24 48  1  0  0  0
 25 49  1  0  0  0
 26 50  1  0  0  0
 29 51  1  0  0  0
 29 52  1  0  0  0
 29 53  1  0  0  0
 32 54  1  0  0  0
 32 55  1  0  0  0
 32 56  1  0  0  0
M  END
$$$$
