5ly3_ligand
  -I-interpret- 

268269  0  0  0  0  0  0  0  0999 V2000
   -3.1030  -23.1690  -24.4820 N   0  3  0  0  0
   -3.7180  -22.0960  -23.7210 C   0  0  0  0  0
   -3.9810  -22.4650  -22.2730 C   0  0  0  0  0
   -4.7030  -21.7610  -21.5670 O   0  0  0  0  0
   -3.4000  -23.5830  -21.8300 N   0  0  0  0  0
   -3.4840  -23.9550  -20.4360 C   0  0  0  0  0
   -2.4820  -23.2000  -19.5800 C   0  0  0  0  0
   -1.4640  -22.7010  -20.0580 O   0  0  0  0  0
   -2.7810  -23.1220  -18.2820 N   0  0  0  0  0
   -1.9420  -22.3380  -17.3800 C   0  0  0  0  0
   -0.6310  -23.0660  -17.0880 C   0  0  0  0  0
    0.4320  -22.4410  -16.9860 O   0  0  0  0  0
   -2.7150  -22.0050  -16.0900 C   0  0  0  0  0
   -4.0430  -21.3220  -16.4490 C   0  0  0  0  0
   -1.8610  -21.1320  -15.1710 C   0  0  0  0  0
   -4.7670  -20.6500  -15.2910 C   0  0  0  0  0
   -0.6790  -24.3940  -16.9570 N   0  0  0  0  0
    0.5140  -25.1410  -16.5860 C   0  0  0  0  0
    1.6410  -25.0380  -17.5970 C   0  0  0  0  0
    2.8180  -25.1030  -17.2310 O   0  0  0  0  0
    1.3070  -24.8840  -18.8740 N   0  0  0  0  0
    2.3030  -24.8240  -19.9360 C   0  0  0  0  0
    2.7040  -23.3970  -20.2960 C   0  0  0  0  0
    3.5880  -23.2100  -21.1410 O   0  0  0  0  0
    1.7710  -25.5420  -21.1800 C   0  0  0  0  0
    0.5450  -24.8770  -21.7990 C   0  0  0  0  0
   -0.3060  -25.8380  -22.6090 C   0  0  0  0  0
    0.2020  -26.9150  -22.9900 O   0  0  0  0  0
   -1.4880  -25.5170  -22.8580 O   0  0  0  0  0
    2.0900  -22.3930  -19.6730 N   0  0  0  0  0
    2.3300  -20.9980  -20.0250 C   0  0  0  0  0
    3.6460  -20.5220  -19.4140 C   0  0  0  0  0
    3.8040  -20.5210  -18.1900 O   0  0  0  0  0
    1.1560  -20.1430  -19.5470 C   0  0  0  0  0
    1.1870  -18.7330  -20.1050 C   0  0  0  0  0
    2.1870  -18.0290  -19.9860 O   0  0  0  0  0
    0.0890  -18.3200  -20.7260 N   0  0  0  0  0
    4.5890  -20.1100  -20.2680 N   0  0  0  0  0
    5.9210  -19.7300  -19.8060 C   0  0  0  0  0
    5.9200  -18.4580  -18.9640 C   0  0  0  0  0
    6.8810  -18.2260  -18.2210 O   0  0  0  0  0
    6.8600  -19.5480  -21.0060 C   0  0  0  0  0
    7.0260  -20.8080  -21.8430 C   0  0  0  0  0
    7.9340  -20.6150  -23.0470 C   0  0  0  0  0
    8.1760  -19.4560  -23.4490 O   0  0  0  0  0
    8.4080  -21.6340  -23.5950 O   0  0  0  0  0
    4.8790  -17.6260  -19.0660 N   0  0  0  0  0
    4.8230  -16.4070  -18.2660 C   0  0  0  0  0
    4.6180  -16.6880  -16.7820 C   0  0  0  0  0
    4.9690  -15.8410  -15.9550 O   0  0  0  0  0
    3.6980  -15.4930  -18.7520 C   0  0  0  0  0
    3.9900  -14.6780  -19.9860 C   0  0  0  0  0
    3.5980  -14.9550  -21.2620 C   0  0  0  0  0
    4.6860  -13.4210  -20.0450 C   0  0  0  0  0
    4.0190  -13.9610  -22.1150 N   0  0  0  0  0
    4.6930  -13.0110  -21.3950 C   0  0  0  0  0
    5.3200  -12.6170  -19.0900 C   0  0  0  0  0
    5.2920  -11.8250  -21.8110 C   0  0  0  0  0
    5.9140  -11.4420  -19.5010 C   0  0  0  0  0
    5.9040  -11.0580  -20.8560 C   0  0  0  0  0
    4.0580  -17.8460  -16.4200 N   0  0  0  0  0
    3.8160  -18.1350  -15.0060 C   0  0  0  0  0
    5.1380  -18.1770  -14.2430 C   0  0  0  0  0
    5.2700  -17.5860  -13.1660 O   0  0  0  0  0
    3.0130  -19.4410  -14.8490 C   0  0  0  0  0
    2.9020  -19.8600  -13.3800 C   0  0  0  0  0
    1.6140  -19.2780  -15.4390 C   0  0  0  0  0
    6.1510  -18.8520  -14.8010 N   0  0  0  0  0
    7.4570  -18.8880  -14.1430 C   0  0  0  0  0
    8.1080  -17.5060  -14.1210 C   0  0  0  0  0
    8.7400  -17.1270  -13.1280 O   0  0  0  0  0
    8.3730  -19.9010  -14.8380 C   0  0  0  0  0
    9.7190  -20.1050  -14.1360 C   0  0  0  0  0
   10.4380  -21.3570  -14.6340 C   0  0  0  0  0
   11.8350  -21.4880  -14.0320 C   0  0  0  0  0
   12.5760  -22.6750  -14.5530 N   0  3  0  0  0
    7.9810  -16.7450  -15.2100 N   0  0  0  0  0
    8.5850  -15.4140  -15.2680 C   0  0  0  0  0
    7.9830  -14.5130  -14.1970 C   0  0  0  0  0
    8.6980  -13.8100  -13.4720 O   0  0  0  0  0
    8.4080  -14.8110  -16.6730 C   0  0  0  0  0
    9.2910  -15.5570  -17.6770 C   0  0  0  0  0
    8.7270  -13.3090  -16.6710 C   0  0  0  0  0
    8.9190  -15.3070  -19.1160 C   0  0  0  0  0
    6.6550  -14.5200  -14.0830 N   0  0  0  0  0
    5.9940  -13.6280  -13.1350 C   0  0  0  0  0
    6.2680  -14.0520  -11.6940 C   0  0  0  0  0
    6.5040  -13.2000  -10.8270 O   0  0  0  0  0
    4.4900  -13.5850  -13.4280 C   0  0  0  0  0
    4.0750  -12.9460  -14.7650 C   0  0  0  0  0
    2.6010  -13.2000  -15.0960 C   0  0  0  0  0
    4.3590  -11.4460  -14.7800 C   0  0  0  0  0
    6.2550  -15.3620  -11.4160 N   0  0  0  0  0
    6.5200  -15.8400  -10.0610 C   0  0  0  0  0
    7.9510  -15.5670   -9.6100 C   0  0  0  0  0
    8.2210  -15.6110   -8.4040 O   0  0  0  0  0
    6.2240  -17.3390   -9.9540 C   0  0  0  0  0
    4.7480  -17.6850   -9.9940 C   0  0  0  0  0
    4.5110  -19.1890   -9.9140 C   0  0  0  0  0
    3.1020  -19.4930   -9.6760 N   0  0  0  0  0
    2.5390  -20.6830   -9.8610 C   0  0  0  0  0
    3.2560  -21.7120  -10.3050 N   0  0  0  0  0
    1.2460  -20.8420   -9.6070 N   0  0  0  0  0
    8.8700  -15.2890  -10.5380 N   0  0  0  0  0
   10.2450  -14.9660  -10.1750 C   0  0  0  0  0
   10.4340  -13.5130   -9.7520 C   0  0  0  0  0
   11.5100  -13.1720   -9.2480 O   0  0  0  0  0
   11.1880  -15.2670  -11.3480 C   0  0  0  0  0
   11.1900  -16.6510  -11.6550 O   0  0  0  0  0
    9.4320  -12.6560   -9.9320 N   0  0  0  0  0
    9.6060  -11.2330   -9.6650 C   0  0  0  0  0
    9.7450  -10.9690   -8.1700 C   0  0  0  0  0
    9.0740  -11.5960   -7.3440 O   0  0  0  0  0
    8.4270  -10.4330  -10.2210 C   0  0  0  0  0
    8.3670  -10.3490  -11.7360 C   0  0  0  0  0
    7.2400   -9.4310  -12.1770 C   0  0  0  0  0
    7.2710   -9.1490  -13.6700 C   0  0  0  0  0
    8.2270   -8.0580  -14.0090 N   0  3  0  0  0
   10.6130  -10.0200   -7.8270 N   0  0  0  0  0
   10.8450   -9.6530   -6.4320 C   0  0  0  0  0
   10.8380   -8.1350   -6.2530 C   0  0  0  0  0
   11.2180   -7.3890   -7.1550 O   0  0  0  0  0
   12.1730  -10.2320   -5.9370 C   0  0  0  0  0
   12.2420  -11.7540   -5.9510 C   0  0  0  0  0
   11.2590  -12.3870   -4.9730 C   0  0  0  0  0
   11.3660  -13.8460   -4.9750 N   0  0  0  0  0
   10.6210  -14.6640   -5.7160 C   0  0  0  0  0
   10.8110  -15.9740   -5.6410 N   0  0  0  0  0
    9.6860  -14.1850   -6.5280 N   0  0  0  0  0
   10.4520   -7.6230   -5.2030 O   0  0  0  0  0
   -2.9527  -22.8602  -25.4424 H   0  0  0  0  0
   -2.2082  -23.4149  -24.0586 H   0  0  0  0  0
   -3.7177  -23.9830  -24.4776 H   0  0  0  0  0
   -4.6786  -21.8709  -24.1843 H   0  0  0  0  0
   -3.0301  -21.2505  -23.7267 H   0  0  0  0  0
   -2.8918  -24.1804  -22.4822 H   0  0  0  0  0
   -3.2652  -25.0197  -20.3551 H   0  0  0  0  0
   -4.4853  -23.7127  -20.0798 H   0  0  0  0  0
   -3.5986  -23.6118  -17.9185 H   0  0  0  0  0
   -1.6842  -21.3966  -17.8652 H   0  0  0  0  0
   -2.9403  -22.9244  -15.5497 H   0  0  0  0  0
   -4.7056  -22.1052  -16.8173 H   0  0  0  0  0
   -3.8043  -20.5353  -17.1648 H   0  0  0  0  0
   -0.9468  -21.6658  -14.9113 H   0  0  0  0  0
   -1.6082  -20.2045  -15.6848 H   0  0  0  0  0
   -2.4211  -20.9053  -14.2638 H   0  0  0  0  0
   -4.9987  -21.3936  -14.5285 H   0  0  0  0  0
   -4.1280  -19.8770  -14.8642 H   0  0  0  0  0
   -5.6910  -20.1999  -15.6540 H   0  0  0  0  0
   -1.5568  -24.8879  -17.1179 H   0  0  0  0  0
    0.2318  -26.1918  -16.5200 H   0  0  0  0  0
    0.8800  -24.7236  -15.6480 H   0  0  0  0  0
    0.3200  -24.8051  -19.1191 H   0  0  0  0  0
    3.1989  -25.3205  -19.5634 H   0  0  0  0  0
    1.4763  -26.5459  -20.8743 H   0  0  0  0  0
    2.5629  -25.5241  -21.9288 H   0  0  0  0  0
    0.8961  -24.0956  -22.4730 H   0  0  0  0  0
   -0.0707  -24.4933  -20.9855 H   0  0  0  0  0
    1.1137  -26.9603  -22.6928 H   0  0  0  0  0
    1.4302  -22.6065  -18.9250 H   0  0  0  0  0
    2.4101  -20.9010  -21.1077 H   0  0  0  0  0
    1.2159  -20.0726  -18.4609 H   0  0  0  0  0
    0.2369  -20.6172  -19.8913 H   0  0  0  0  0
    0.0523  -17.3834  -21.1283 H   0  0  0  0  0
   -0.7181  -18.9392  -20.8009 H   0  0  0  0  0
    4.3731  -20.0601  -21.2636 H   0  0  0  0  0
    6.2731  -20.5397  -19.1668 H   0  0  0  0  0
    7.8424  -19.2818  -20.6160 H   0  0  0  0  0
    6.4257  -18.7824  -21.6489 H   0  0  0  0  0
    6.0406  -21.0884  -22.2152 H   0  0  0  0  0
    7.4793  -21.5685  -21.2071 H   0  0  0  0  0
    7.7167  -18.8230  -22.8923 H   0  0  0  0  0
    4.1175  -17.8450  -19.7083 H   0  0  0  0  0
    5.7888  -15.9172  -18.3907 H   0  0  0  0  0
    3.5187  -14.7774  -17.9496 H   0  0  0  0  0
    2.8640  -16.1463  -19.0086 H   0  0  0  0  0
    3.0325  -15.8369  -21.5630 H   0  0  0  0  0
    5.3437  -12.9141  -18.0415 H   0  0  0  0  0
    5.2744  -11.5188  -22.8570 H   0  0  0  0  0
    6.3989  -10.8003  -18.7653 H   0  0  0  0  0
    6.3941  -10.1301  -21.1508 H   0  0  0  0  0
    3.7986  -18.5300  -17.1308 H   0  0  0  0  0
    3.2137  -17.3351  -14.5754 H   0  0  0  0  0
    3.5492  -20.2214  -15.3890 H   0  0  0  0  0
    3.9004  -20.0175  -12.9720 H   0  0  0  0  0
    2.3976  -19.0749  -12.8167 H   0  0  0  0  0
    2.3292  -20.7847  -13.3095 H   0  0  0  0  0
    1.0928  -18.4746  -14.9183 H   0  0  0  0  0
    1.6940  -19.0342  -16.4984 H   0  0  0  0  0
    1.0601  -20.2092  -15.3200 H   0  0  0  0  0
    6.0119  -19.3412  -15.6851 H   0  0  0  0  0
    7.3046  -19.1997  -13.1097 H   0  0  0  0  0
    8.5831  -19.5165  -15.8360 H   0  0  0  0  0
    7.8566  -20.8609  -14.8339 H   0  0  0  0  0
    9.5332  -20.2199  -13.0681 H   0  0  0  0  0
   10.3495  -19.2417  -14.3489 H   0  0  0  0  0
   10.5376  -21.2861  -15.7171 H   0  0  0  0  0
    9.8542  -22.2279  -14.3361 H   0  0  0  0  0
   11.7258  -21.6075  -12.9541 H   0  0  0  0  0
   12.4006  -20.5955  -14.2998 H   0  0  0  0  0
   13.4988  -22.7150  -14.1203 H   0  0  0  0  0
   12.0568  -23.5238  -14.3285 H   0  0  0  0  0
   12.6767  -22.5942  -15.5648 H   0  0  0  0  0
    7.4565  -17.0957  -16.0114 H   0  0  0  0  0
    9.6537  -15.4988  -15.0709 H   0  0  0  0  0
    7.3662  -14.9259  -16.9723 H   0  0  0  0  0
    9.1673  -16.6236  -17.4895 H   0  0  0  0  0
   10.3123  -15.2023  -17.5386 H   0  0  0  0  0
    8.0545  -12.7970  -15.9828 H   0  0  0  0  0
    9.7585  -13.1584  -16.3526 H   0  0  0  0  0
    8.5937  -12.9092  -17.6762 H   0  0  0  0  0
    7.8915  -15.6289  -19.2855 H   0  0  0  0  0
    9.0082  -14.2426  -19.3334 H   0  0  0  0  0
    9.5892  -15.8693  -19.7662 H   0  0  0  0  0
    6.0987  -15.1508  -14.6601 H   0  0  0  0  0
    6.4010  -12.6241  -13.2554 H   0  0  0  0  0
    4.0455  -12.9694  -12.6460 H   0  0  0  0  0
    4.1590  -14.6226  -13.4714 H   0  0  0  0  0
    4.6806  -13.4260  -15.5337 H   0  0  0  0  0
    2.4251  -14.2735  -15.1645 H   0  0  0  0  0
    1.9754  -12.7774  -14.3098 H   0  0  0  0  0
    2.3575  -12.7292  -16.0484 H   0  0  0  0  0
    3.8001  -10.9637  -13.9781 H   0  0  0  0  0
    5.4259  -11.2780  -14.6330 H   0  0  0  0  0
    4.0531  -11.0292  -15.7396 H   0  0  0  0  0
    6.0580  -16.0333  -12.1582 H   0  0  0  0  0
    5.8561  -15.2836   -9.3994 H   0  0  0  0  0
    6.6072  -17.6747   -8.9904 H   0  0  0  0  0
    6.6910  -17.8213  -10.8127 H   0  0  0  0  0
    4.3393  -17.3255  -10.9384 H   0  0  0  0  0
    4.2652  -17.2179   -9.1356 H   0  0  0  0  0
    5.0966  -19.5888   -9.0862 H   0  0  0  0  0
    4.8072  -19.6376  -10.8622 H   0  0  0  0  0
    2.5056  -18.7355   -9.3430 H   0  0  0  0  0
    2.8118  -22.6188  -10.4490 H   0  0  0  0  0
    4.2499  -21.5941  -10.5014 H   0  0  0  0  0
    0.6914  -20.0541   -9.2723 H   0  0  0  0  0
    8.6044  -15.3029  -11.5227 H   0  0  0  0  0
   10.4841  -15.5915   -9.3150 H   0  0  0  0  0
   12.1988  -14.9687  -11.0699 H   0  0  0  0  0
   10.8453  -14.7149  -12.2231 H   0  0  0  0  0
   11.7857  -16.8137  -12.3900 H   0  0  0  0  0
    8.5297  -12.9992  -10.2613 H   0  0  0  0  0
   10.5215  -10.9127  -10.1623 H   0  0  0  0  0
    8.5371   -9.4129   -9.8531 H   0  0  0  0  0
    7.5197  -10.9433   -9.8977 H   0  0  0  0  0
    8.1877  -11.3462  -12.1380 H   0  0  0  0  0
    9.3119   -9.9503  -12.1051 H   0  0  0  0  0
    7.3539   -8.4822  -11.6527 H   0  0  0  0  0
    6.2951   -9.9233  -11.9469 H   0  0  0  0  0
    6.2734   -8.8381  -13.9801 H   0  0  0  0  0
    7.5914  -10.0560  -14.1827 H   0  0  0  0  0
    8.2177   -7.9004  -15.0167 H   0  0  0  0  0
    7.9497   -7.2027  -13.5273 H   0  0  0  0  0
    9.1659   -8.3265  -13.7143 H   0  0  0  0  0
   11.1313   -9.5349   -8.5594 H   0  0  0  0  0
   10.0327  -10.0726   -5.8385 H   0  0  0  0  0
   11.4894   -7.9150   -7.9108 H   0  0  0  0  0
   12.2923   -9.9165   -4.9005 H   0  0  0  0  0
   12.9498   -9.8709   -6.6110 H   0  0  0  0  0
   13.2491  -12.0495   -5.6568 H   0  0  0  0  0
   11.9872  -12.0947   -6.9545 H   0  0  0  0  0
   10.2477  -12.1144   -5.2746 H   0  0  0  0  0
   11.4877  -12.0252   -3.9705 H   0  0  0  0  0
   12.0638  -14.2685   -4.3627 H   0  0  0  0  0
   11.5251  -16.3509   -5.0178 H   0  0  0  0  0
    9.1208  -14.8235   -7.0877 H   0  0  0  0  0
    9.5330  -13.1786   -6.5920 H   0  0  0  0  0
  1  2  1  0  0  0
  2  3  1  0  0  0
  3  4  2  0  0  0
  3  5  1  0  0  0
  5  6  1  0  0  0
  6  7  1  0  0  0
  7  8  2  0  0  0
  7  9  1  0  0  0
  9 10  1  0  0  0
 10 11  1  0  0  0
 10 13  1  0  0  0
 11 12  2  0  0  0
 11 17  1  0  0  0
 13 14  1  0  0  0
 13 15  1  0  0  0
 14 16  1  0  0  0
 17 18  1  0  0  0
 18 19  1  0  0  0
 19 20  2  0  0  0
 19 21  1  0  0  0
 21 22  1  0  0  0
 22 23  1  0  0  0
 22 25  1  0  0  0
 23 24  2  0  0  0
 23 30  1  0  0  0
 25 26  1  0  0  0
 26 27  1  0  0  0
 27 28  1  0  0  0
 27 29  2  0  0  0
 30 31  1  0  0  0
 31 32  1  0  0  0
 31 34  1  0  0  0
 32 33  2  0  0  0
 32 38  1  0  0  0
 34 35  1  0  0  0
 35 36  2  0  0  0
 35 37  1  0  0  0
 38 39  1  0  0  0
 39 40  1  0  0  0
 39 42  1  0  0  0
 40 41  2  0  0  0
 40 47  1  0  0  0
 42 43  1  0  0  0
 43 44  1  0  0  0
 44 45  1  0  0  0
 44 46  2  0  0  0
 47 48  1  0  0  0
 48 49  1  0  0  0
 48 51  1  0  0  0
 49 50  2  0  0  0
 49 61  1  0  0  0
 51 52  1  0  0  0
 52 53  4  0  0  0
 52 54  4  0  0  0
 53 55  4  0  0  0
 54 56  4  0  0  0
 54 57  4  0  0  0
 55 56  4  0  0  0
 56 58  4  0  0  0
 57 59  4  0  0  0
 58 60  4  0  0  0
 59 60  4  0  0  0
 61 62  1  0  0  0
 62 63  1  0  0  0
 62 65  1  0  0  0
 63 64  2  0  0  0
 63 68  1  0  0  0
 65 66  1  0  0  0
 65 67  1  0  0  0
 68 69  1  0  0  0
 69 70  1  0  0  0
 69 72  1  0  0  0
 70 71  2  0  0  0
 70 77  1  0  0  0
 72 73  1  0  0  0
 73 74  1  0  0  0
 74 75  1  0  0  0
 75 76  1  0  0  0
 77 78  1  0  0  0
 78 79  1  0  0  0
 78 81  1  0  0  0
 79 80  2  0  0  0
 79 85  1  0  0  0
 81 82  1  0  0  0
 81 83  1  0  0  0
 82 84  1  0  0  0
 85 86  1  0  0  0
 86 87  1  0  0  0
 86 89  1  0  0  0
 87 88  2  0  0  0
 87 93  1  0  0  0
 89 90  1  0  0  0
 90 91  1  0  0  0
 90 92  1  0  0  0
 93 94  1  0  0  0
 94 95  1  0  0  0
 94 97  1  0  0  0
 95 96  2  0  0  0
 95104  1  0  0  0
 97 98  1  0  0  0
 98 99  1  0  0  0
 99100  1  0  0  0
100101  1  0  0  0
101102  1  0  0  0
101103  2  0  0  0
104105  1  0  0  0
105106  1  0  0  0
105108  1  0  0  0
106107  2  0  0  0
106110  1  0  0  0
108109  1  0  0  0
110111  1  0  0  0
111112  1  0  0  0
111114  1  0  0  0
112113  2  0  0  0
112119  1  0  0  0
114115  1  0  0  0
115116  1  0  0  0
116117  1  0  0  0
117118  1  0  0  0
119120  1  0  0  0
120121  1  0  0  0
120123  1  0  0  0
121122  1  0  0  0
121130  2  0  0  0
123124  1  0  0  0
124125  1  0  0  0
125126  1  0  0  0
126127  1  0  0  0
127128  2  0  0  0
127129  1  0  0  0
  1131  1  0  0  0
  1132  1  0  0  0
  1133  1  0  0  0
  2134  1  0  0  0
  2135  1  0  0  0
  5136  1  0  0  0
  6137  1  0  0  0
  6138  1  0  0  0
  9139  1  0  0  0
 10140  1  0  0  0
 13141  1  0  0  0
 14142  1  0  0  0
 14143  1  0  0  0
 15144  1  0  0  0
 15145  1  0  0  0
 15146  1  0  0  0
 16147  1  0  0  0
 16148  1  0  0  0
 16149  1  0  0  0
 17150  1  0  0  0
 18151  1  0  0  0
 18152  1  0  0  0
 21153  1  0  0  0
 22154  1  0  0  0
 25155  1  0  0  0
 25156  1  0  0  0
 26157  1  0  0  0
 26158  1  0  0  0
 28159  1  0  0  0
 30160  1  0  0  0
 31161  1  0  0  0
 34162  1  0  0  0
 34163  1  0  0  0
 37164  1  0  0  0
 37165  1  0  0  0
 38166  1  0  0  0
 39167  1  0  0  0
 42168  1  0  0  0
 42169  1  0  0  0
 43170  1  0  0  0
 43171  1  0  0  0
 45172  1  0  0  0
 47173  1  0  0  0
 48174  1  0  0  0
 51175  1  0  0  0
 51176  1  0  0  0
 53177  1  0  0  0
 57178  1  0  0  0
 58179  1  0  0  0
 59180  1  0  0  0
 60181  1  0  0  0
 61182  1  0  0  0
 62183  1  0  0  0
 65184  1  0  0  0
 66185  1  0  0  0
 66186  1  0  0  0
 66187  1  0  0  0
 67188  1  0  0  0
 67189  1  0  0  0
 67190  1  0  0  0
 68191  1  0  0  0
 69192  1  0  0  0
 72193  1  0  0  0
 72194  1  0  0  0
 73195  1  0  0  0
 73196  1  0  0  0
 74197  1  0  0  0
 74198  1  0  0  0
 75199  1  0  0  0
 75200  1  0  0  0
 76201  1  0  0  0
 76202  1  0  0  0
 76203  1  0  0  0
 77204  1  0  0  0
 78205  1  0  0  0
 81206  1  0  0  0
 82207  1  0  0  0
 82208  1  0  0  0
 83209  1  0  0  0
 83210  1  0  0  0
 83211  1  0  0  0
 84212  1  0  0  0
 84213  1  0  0  0
 84214  1  0  0  0
 85215  1  0  0  0
 86216  1  0  0  0
 89217  1  0  0  0
 89218  1  0  0  0
 90219  1  0  0  0
 91220  1  0  0  0
 91221  1  0  0  0
 91222  1  0  0  0
 92223  1  0  0  0
 92224  1  0  0  0
 92225  1  0  0  0
 93226  1  0  0  0
 94227  1  0  0  0
 97228  1  0  0  0
 97229  1  0  0  0
 98230  1  0  0  0
 98231  1  0  0  0
 99232  1  0  0  0
 99233  1  0  0  0
100234  1  0  0  0
102235  1  0  0  0
102236  1  0  0  0
103237  1  0  0  0
104238  1  0  0  0
105239  1  0  0  0
108240  1  0  0  0
108241  1  0  0  0
109242  1  0  0  0
110243  1  0  0  0
111244  1  0  0  0
114245  1  0  0  0
114246  1  0  0  0
115247  1  0  0  0
115248  1  0  0  0
116249  1  0  0  0
116250  1  0  0  0
117251  1  0  0  0
117252  1  0  0  0
118253  1  0  0  0
118254  1  0  0  0
118255  1  0  0  0
119256  1  0  0  0
120257  1  0  0  0
122258  1  0  0  0
123259  1  0  0  0
123260  1  0  0  0
124261  1  0  0  0
124262  1  0  0  0
125263  1  0  0  0
125264  1  0  0  0
126265  1  0  0  0
128266  1  0  0  0
129267  1  0  0  0
129268  1  0  0  0
M  END
$$$$
