### 
### Created by X-TOOL on Mon Sep 10 21:13:27 2018
### 

@<TRIPOS>MOLECULE
5ly3_ligand
  268   269     1     0     0
SMALL
GAST_HUCK


@<TRIPOS>ATOM
      1 N          -3.1030  -23.1690  -24.4820 N.4       1 GLY         0.2357
      2 CA         -3.7180  -22.0960  -23.7210 C.3       1 GLY         0.0545
      3 C          -3.9810  -22.4650  -22.2730 C.2       1 GLY         0.2234
      4 O          -4.7030  -21.7610  -21.5670 O.2       1 GLY        -0.3911
      5 N          -3.4000  -23.5830  -21.8300 N.am      1 GLY        -0.2639
      6 CA         -3.4840  -23.9550  -20.4360 C.3       1 GLY         0.1202
      7 C          -2.4820  -23.2000  -19.5800 C.2       1 GLY         0.2008
      8 O          -1.4640  -22.7010  -20.0580 O.2       1 GLY        -0.3947
      9 N          -2.7810  -23.1220  -18.2820 N.am      1 ILE        -0.2637
     10 CA         -1.9420  -22.3380  -17.3800 C.3       1 ILE         0.1335
     11 C          -0.6310  -23.0660  -17.0880 C.2       1 ILE         0.2040
     12 O           0.4320  -22.4410  -16.9860 O.2       1 ILE        -0.3944
     13 CB         -2.7150  -22.0050  -16.0900 C.3       1 ILE        -0.0037
     14 CG1        -4.0430  -21.3220  -16.4490 C.3       1 ILE        -0.0491
     15 CG2        -1.8610  -21.1320  -15.1710 C.3       1 ILE        -0.0582
     16 CD1        -4.7670  -20.6500  -15.2910 C.3       1 ILE        -0.0648
     17 N          -0.6790  -24.3940  -16.9570 N.am      1 GLY        -0.2664
     18 CA          0.5140  -25.1410  -16.5860 C.3       1 GLY         0.1201
     19 C           1.6410  -25.0380  -17.5970 C.2       1 GLY         0.2007
     20 O           2.8180  -25.1030  -17.2310 O.2       1 GLY        -0.3947
     21 N           1.3070  -24.8840  -18.8740 N.am      1 GLU        -0.2639
     22 CA          2.3030  -24.8240  -19.9360 C.3       1 GLU         0.1325
     23 C           2.7040  -23.3970  -20.2960 C.2       1 GLU         0.2041
     24 O           3.5880  -23.2100  -21.1410 O.2       1 GLU        -0.3944
     25 CB          1.7710  -25.5420  -21.1800 C.3       1 GLU        -0.0008
     26 CG          0.5450  -24.8770  -21.7990 C.3       1 GLU         0.0044
     27 CD         -0.3060  -25.8380  -22.6090 C.2       1 GLU         0.0350
     28 OE1         0.2020  -26.9150  -22.9900 O.co2     1 GLU        -0.5690
     29 OE2        -1.4880  -25.5170  -22.8580 O.co2     1 GLU        -0.5690
     30 N           2.0900  -22.3930  -19.6730 N.am      1 ASN        -0.2616
     31 CA          2.3300  -20.9980  -20.0250 C.3       1 ASN         0.1476
     32 C           3.6460  -20.5220  -19.4140 C.2       1 ASN         0.2063
     33 O           3.8040  -20.5210  -18.1900 O.2       1 ASN        -0.3942
     34 CB          1.1560  -20.1430  -19.5470 C.3       1 ASN         0.0773
     35 CG          1.1870  -18.7330  -20.1050 C.2       1 ASN         0.1780
     36 OD1         2.1870  -18.0290  -19.9860 O.2       1 ASN        -0.3970
     37 ND2         0.0890  -18.3200  -20.7260 N.am      1 ASN        -0.3007
     38 N           4.5890  -20.1100  -20.2680 N.am      1 GLU        -0.2635
     39 CA          5.9210  -19.7300  -19.8060 C.3       1 GLU         0.1325
     40 C           5.9200  -18.4580  -18.9640 C.2       1 GLU         0.2041
     41 O           6.8810  -18.2260  -18.2210 O.2       1 GLU        -0.3944
     42 CB          6.8600  -19.5480  -21.0060 C.3       1 GLU        -0.0008
     43 CG          7.0260  -20.8080  -21.8430 C.3       1 GLU         0.0044
     44 CD          7.9340  -20.6150  -23.0470 C.2       1 GLU         0.0350
     45 OE1         8.1760  -19.4560  -23.4490 O.co2     1 GLU        -0.5690
     46 OE2         8.4080  -21.6340  -23.5950 O.co2     1 GLU        -0.5690
     47 N           4.8790  -17.6260  -19.0660 N.am      1 TRP        -0.2627
     48 CA          4.8230  -16.4070  -18.2660 C.3       1 TRP         0.1352
     49 C           4.6180  -16.6880  -16.7820 C.2       1 TRP         0.2052
     50 O           4.9690  -15.8410  -15.9550 O.2       1 TRP        -0.3942
     51 CB          3.6980  -15.4930  -18.7520 C.3       1 TRP         0.0042
     52 CG          3.9900  -14.6780  -19.9860 C.2       1 TRP        -0.0418
     53 CD1         3.5980  -14.9550  -21.2620 C.2       1 TRP         0.0167
     54 CD2         4.6860  -13.4210  -20.0450 C.ar      1 TRP        -0.0214
     55 NE1         4.0190  -13.9610  -22.1150 N.pl3     1 TRP        -0.2890
     56 CE2         4.6930  -13.0110  -21.3950 C.ar      1 TRP         0.0603
     57 CE3         5.3200  -12.6170  -19.0900 C.ar      1 TRP        -0.0747
     58 CZ2         5.2920  -11.8250  -21.8110 C.ar      1 TRP        -0.0443
     59 CZ3         5.9140  -11.4420  -19.5010 C.ar      1 TRP        -0.0792
     60 CH2         5.9040  -11.0580  -20.8560 C.ar      1 TRP        -0.0768
     61 N           4.0580  -17.8460  -16.4200 N.am      1 VAL        -0.2634
     62 CA          3.8160  -18.1350  -15.0060 C.3       1 VAL         0.1333
     63 C           5.1380  -18.1770  -14.2430 C.2       1 VAL         0.2041
     64 O           5.2700  -17.5860  -13.1660 O.2       1 VAL        -0.3944
     65 CB          3.0130  -19.4410  -14.8490 C.3       1 VAL        -0.0063
     66 CG1         2.9020  -19.8600  -13.3800 C.3       1 VAL        -0.0584
     67 CG2         1.6140  -19.2780  -15.4390 C.3       1 VAL        -0.0584
     68 N           6.1510  -18.8520  -14.8010 N.am      1 LYS        -0.2637
     69 CA          7.4570  -18.8880  -14.1430 C.3       1 LYS         0.1310
     70 C           8.1080  -17.5060  -14.1210 C.2       1 LYS         0.2039
     71 O           8.7400  -17.1270  -13.1280 O.2       1 LYS        -0.3944
     72 CB          8.3730  -19.9010  -14.8380 C.3       1 LYS        -0.0122
     73 CG          9.7190  -20.1050  -14.1360 C.3       1 LYS        -0.0440
     74 CD         10.4380  -21.3570  -14.6340 C.3       1 LYS        -0.0124
     75 CE         11.8350  -21.4880  -14.0320 C.3       1 LYS        -0.0354
     76 NZ         12.5760  -22.6750  -14.5530 N.4       1 LYS         0.2185
     77 N           7.9810  -16.7450  -15.2100 N.am      1 ILE        -0.2635
     78 CA          8.5850  -15.4140  -15.2680 C.3       1 ILE         0.1335
     79 C           7.9830  -14.5130  -14.1970 C.2       1 ILE         0.2042
     80 O           8.6980  -13.8100  -13.4720 O.2       1 ILE        -0.3944
     81 CB          8.4080  -14.8110  -16.6730 C.3       1 ILE        -0.0037
     82 CG1         9.2910  -15.5570  -17.6770 C.3       1 ILE        -0.0491
     83 CG2         8.7270  -13.3090  -16.6710 C.3       1 ILE        -0.0582
     84 CD1         8.9190  -15.3070  -19.1160 C.3       1 ILE        -0.0648
     85 N           6.6550  -14.5200  -14.0830 N.am      1 LEU        -0.2637
     86 CA          5.9940  -13.6280  -13.1350 C.3       1 LEU         0.1312
     87 C           6.2680  -14.0520  -11.6940 C.2       1 LEU         0.2039
     88 O           6.5040  -13.2000  -10.8270 O.2       1 LEU        -0.3944
     89 CB          4.4900  -13.5850  -13.4280 C.3       1 LEU        -0.0101
     90 CG          4.0750  -12.9460  -14.7650 C.3       1 LEU        -0.0425
     91 CD1         2.6010  -13.2000  -15.0960 C.3       1 LEU        -0.0625
     92 CD2         4.3590  -11.4460  -14.7800 C.3       1 LEU        -0.0625
     93 N           6.2550  -15.3620  -11.4160 N.am      1 ARG        -0.2637
     94 CA          6.5200  -15.8400  -10.0610 C.3       1 ARG         0.1311
     95 C           7.9510  -15.5670   -9.6100 C.2       1 ARG         0.2040
     96 O           8.2210  -15.6110   -8.4040 O.2       1 ARG        -0.3944
     97 CB          6.2240  -17.3390   -9.9540 C.3       1 ARG        -0.0092
     98 CG          4.7480  -17.6850   -9.9940 C.3       1 ARG        -0.0156
     99 CD          4.5110  -19.1890   -9.9140 C.3       1 ARG         0.0627
    100 NE          3.1020  -19.4930   -9.6760 N.pl3     1 ARG        -0.2723
    101 CZ          2.5390  -20.6830   -9.8610 C.cat     1 ARG         0.2882
    102 NH1         3.2560  -21.7120  -10.3050 N.pl3     1 ARG        -0.2849
    103 NH2         1.2460  -20.8420   -9.6070 N.pl3     1 ARG        -0.2849
    104 N           8.8700  -15.2890  -10.5380 N.am      1 SER        -0.2616
    105 CA         10.2450  -14.9660  -10.1750 C.3       1 SER         0.1539
    106 C          10.4340  -13.5130   -9.7520 C.2       1 SER         0.2062
    107 O          11.5100  -13.1720   -9.2480 O.2       1 SER        -0.3943
    108 CB         11.1880  -15.2670  -11.3480 C.3       1 SER         0.0843
    109 OG         11.1900  -16.6510  -11.6550 O.3       1 SER        -0.3903
    110 N           9.4320  -12.6560   -9.9320 N.am      1 LYS        -0.2637
    111 CA          9.6060  -11.2330   -9.6650 C.3       1 LYS         0.1309
    112 C           9.7450  -10.9690   -8.1700 C.2       1 LYS         0.2033
    113 O           9.0740  -11.5960   -7.3440 O.2       1 LYS        -0.3944
    114 CB          8.4270  -10.4330  -10.2210 C.3       1 LYS        -0.0122
    115 CG          8.3670  -10.3490  -11.7360 C.3       1 LYS        -0.0440
    116 CD          7.2400   -9.4310  -12.1770 C.3       1 LYS        -0.0124
    117 CE          7.2710   -9.1490  -13.6700 C.3       1 LYS        -0.0354
    118 NZ          8.2270   -8.0580  -14.0090 N.4       1 LYS         0.2185
    119 N          10.6130  -10.0200   -7.8270 N.am      1 ARG        -0.2695
    120 CA         10.8450   -9.6530   -6.4320 C.3       1 ARG         0.0945
    121 C          10.8380   -8.1350   -6.2530 C.2       1 ARG         0.0601
    122 O          11.2180   -7.3890   -7.1550 O.co2     1 ARG        -0.5666
    123 CB         12.1730  -10.2320   -5.9370 C.3       1 ARG        -0.0148
    124 CG         12.2420  -11.7540   -5.9510 C.3       1 ARG        -0.0162
    125 CD         11.2590  -12.3870   -4.9730 C.3       1 ARG         0.0627
    126 NE         11.3660  -13.8460   -4.9750 N.pl3     1 ARG        -0.2723
    127 CZ         10.6210  -14.6640   -5.7160 C.cat     1 ARG         0.2882
    128 NH1        10.8110  -15.9740   -5.6410 N.pl3     1 ARG        -0.2849
    129 NH2         9.6860  -14.1850   -6.5280 N.pl3     1 ARG        -0.2849
    130 OXT        10.4520   -7.6230   -5.2030 O.co2     1 ARG        -0.5666
    131 H1         -2.9539  -22.8649  -25.4314 H         1 GLY         0.2012
    132 H2         -3.7096  -23.9740  -24.4784 H         1 GLY         0.2012
    133 H3         -2.2185  -23.4129  -24.0646 H         1 GLY         0.2012
    134 H4         -4.6759  -21.8357  -24.1949 H         1 GLY         0.1061
    135 H5         -3.0487  -21.2233  -23.7434 H         1 GLY         0.1061
    136 H6         -2.9018  -24.1687  -22.4694 H         1 GLY         0.1882
    137 H7         -3.2868  -25.0333  -20.3445 H         1 GLY         0.0763
    138 H8         -4.4982  -23.7354  -20.0711 H         1 GLY         0.0763
    139 H9         -3.5825  -23.6022  -17.9256 H         1 ILE         0.1883
    140 H10        -1.6952  -21.3899  -17.8801 H         1 ILE         0.0803
    141 H11        -2.9394  -22.9435  -15.5620 H         1 ILE         0.0345
    142 H12        -4.7135  -22.0850  -16.8711 H         1 ILE         0.0267
    143 H13        -3.8352  -20.5551  -17.2097 H         1 ILE         0.0267
    144 H14        -0.9216  -21.6546  -14.9378 H         1 ILE         0.0235
    145 H15        -2.4109  -20.9329  -14.2393 H         1 ILE         0.0235
    146 H16        -1.6358  -20.1803  -15.6745 H         1 ILE         0.0235
    147 H17        -5.6997  -20.1953  -15.6561 H         1 ILE         0.0230
    148 H18        -4.1231  -19.8696  -14.8593 H         1 ILE         0.0230
    149 H19        -5.0015  -21.3994  -14.5207 H         1 ILE         0.0230
    150 H20        -1.5396  -24.8782  -17.1147 H         1 GLY         0.1881
    151 H21         0.2401  -26.2010  -16.4790 H         1 GLY         0.0763
    152 H22         0.8775  -24.7570  -15.6214 H         1 GLY         0.0763
    153 H23         0.3394  -24.8067  -19.1143 H         1 GLU         0.1883
    154 H24         3.2034  -25.3501  -19.5861 H         1 GLU         0.0801
    155 H25         1.5020  -26.5707  -20.8981 H         1 GLU         0.0330
    156 H26         2.5706  -25.5659  -21.9350 H         1 GLU         0.0330
    157 H27         0.8828  -24.0654  -22.4602 H         1 GLU         0.0433
    158 H28        -0.0723  -24.4584  -20.9905 H         1 GLU         0.0433
    159 H29         1.4431  -22.6023  -18.9397 H         1 ASN         0.1885
    160 H30         2.4028  -20.9147  -21.1194 H         1 ASN         0.0826
    161 H31         1.1870  -20.0866  -18.4489 H         1 ASN         0.0551
    162 H32         0.2191  -20.6250  -19.8631 H         1 ASN         0.0551
    163 H33         0.0506  -17.3994  -21.1146 H         1 ASN         0.1814
    164 H34        -0.6998  -18.9295  -20.8053 H         1 ASN         0.1814
    165 H35         4.3774  -20.0611  -21.2441 H         1 GLU         0.1883
    166 H36         6.3070  -20.5490  -19.1813 H         1 GLU         0.0801
    167 H37         7.8492  -19.2459  -20.6315 H         1 GLU         0.0330
    168 H38         6.4532  -18.7538  -21.6492 H         1 GLU         0.0330
    169 H39         6.0345  -21.1228  -22.2004 H         1 GLU         0.0433
    170 H40         7.4536  -21.5964  -21.2061 H         1 GLU         0.0433
    171 H41         4.1324  -17.8407  -19.6957 H         1 TRP         0.1884
    172 H42         5.7808  -15.8799  -18.3873 H         1 TRP         0.0815
    173 H43         3.4575  -14.7942  -17.9373 H         1 TRP         0.0397
    174 H44         2.8219  -16.1231  -18.9653 H         1 TRP         0.0397
    175 H45         3.0330  -15.8361  -21.5628 H         1 TRP         0.0795
    176 H46         3.8538  -13.9355  -23.1314 H         1 TRP         0.2216
    177 H47         5.3436  -12.9124  -18.0473 H         1 TRP         0.0540
    178 H48         5.2745  -11.5205  -22.8512 H         1 TRP         0.0541
    179 H49         6.3963  -10.8039  -18.7694 H         1 TRP         0.0510
    180 H50         6.3914  -10.1352  -21.1492 H         1 TRP         0.0530
    181 H51         3.8037  -18.5166  -17.1169 H         1 VAL         0.1883
    182 H52         3.2112  -17.3169  -14.5877 H         1 VAL         0.0802
    183 H53         3.5370  -20.2364  -15.3992 H         1 VAL         0.0343
    184 H54         2.3241  -20.7932  -13.3076 H         1 VAL         0.0234
    185 H55         2.3931  -19.0685  -12.8104 H         1 VAL         0.0234
    186 H56         3.9090  -20.0194  -12.9670 H         1 VAL         0.0234
    187 H57         1.6938  -18.9771  -16.4940 H         1 VAL         0.0234
    188 H58         1.0671  -18.5060  -14.8779 H         1 VAL         0.0234
    189 H59         1.0734  -20.2335  -15.3702 H         1 VAL         0.0234
    190 H60         6.0147  -19.3316  -15.6678 H         1 LYS         0.1883
    191 H61         7.3081  -19.2127  -13.1026 H         1 LYS         0.0800
    192 H62         8.5664  -19.5477  -15.8616 H         1 LYS         0.0312
    193 H63         7.8524  -20.8692  -14.8765 H         1 LYS         0.0312
    194 H64         9.5447  -20.2018  -13.0542 H         1 LYS         0.0269
    195 H65        10.3563  -19.2292  -14.3278 H         1 LYS         0.0269
    196 H66        10.5261  -21.3047  -15.7292 H         1 LYS         0.0317
    197 H67         9.8463  -22.2415  -14.3555 H         1 LYS         0.0317
    198 H68        11.7406  -21.5831  -12.9402 H         1 LYS         0.0813
    199 H69        12.4089  -20.5810  -14.2729 H         1 LYS         0.0813
    200 H70        13.4882  -22.7155  -14.1261 H         1 LYS         0.1994
    201 H71        12.6762  -22.5962  -15.5529 H         1 LYS         0.1994
    202 H72        12.0639  -23.5145  -14.3317 H         1 LYS         0.1994
    203 H73         7.4668  -17.0888  -15.9957 H         1 ILE         0.1883
    204 H74         9.6624  -15.5118  -15.0689 H         1 ILE         0.0803
    205 H75         7.3577  -14.9377  -16.9744 H         1 ILE         0.0345
    206 H76         9.2064  -16.6357  -17.4791 H         1 ILE         0.0267
    207 H77        10.3328  -15.2374  -17.5274 H         1 ILE         0.0267
    208 H78         8.0802  -12.7978  -15.9428 H         1 ILE         0.0235
    209 H79         8.5483  -12.8948  -17.6743 H         1 ILE         0.0235
    210 H80         9.7809  -13.1583  -16.3944 H         1 ILE         0.0235
    211 H81         9.5947  -15.8740  -19.7732 H         1 ILE         0.0230
    212 H82         9.0087  -14.2331  -19.3367 H         1 ILE         0.0230
    213 H83         7.8822  -15.6315  -19.2884 H         1 ILE         0.0230
    214 H84         6.1096  -15.1384  -14.6488 H         1 LEU         0.1883
    215 H85         6.4007  -12.6154  -13.2733 H         1 LEU         0.0800
    216 H86         4.0071  -13.0158  -12.6201 H         1 LEU         0.0315
    217 H87         4.1172  -14.6199  -13.4210 H         1 LEU         0.0315
    218 H88         4.6813  -13.4126  -15.5554 H         1 LEU         0.0298
    219 H89         2.3540  -12.7253  -16.0570 H         1 LEU         0.0232
    220 H90         1.9685  -12.7739  -14.3033 H         1 LEU         0.0232
    221 H91         2.4221  -14.2831  -15.1654 H         1 LEU         0.0232
    222 H92         5.4185  -11.2711  -14.5417 H         1 LEU         0.0232
    223 H93         3.7273  -10.9457  -14.0312 H         1 LEU         0.0232
    224 H94         4.1359  -11.0405  -15.7779 H         1 LEU         0.0232
    225 H95         6.0618  -16.0201  -12.1437 H         1 ARG         0.1883
    226 H96         5.8431  -15.3045   -9.3790 H         1 ARG         0.0800
    227 H97         6.6387  -17.7057   -9.0034 H         1 ARG         0.0313
    228 H98         6.7209  -17.8496  -10.7921 H         1 ARG         0.0313
    229 H99         4.3203  -17.3078  -10.9346 H         1 ARG         0.0301
    230 H100        4.2466  -17.2009   -9.1430 H         1 ARG         0.0301
    231 H101        5.1108  -19.6028   -9.0900 H         1 ARG         0.0689
    232 H102        4.8220  -19.6516  -10.8623 H         1 ARG         0.0689
    233 H103        2.4997  -18.7281   -9.3397 H         1 ARG         0.2642
    234 H104        2.8088  -22.6293  -10.4445 H         1 ARG         0.2615
    235 H105        4.2583  -21.5913  -10.5093 H         1 ARG         0.2615
    236 H106        0.6873  -20.0480   -9.2631 H         1 ARG         0.2615
    237 H107        0.8013  -21.7594   -9.7538 H         1 ARG         0.2615
    238 H108        8.6096  -15.3026  -11.5034 H         1 SER         0.1884
    239 H109       10.5259  -15.6061   -9.3257 H         1 SER         0.0823
    240 H110       12.2083  -14.9568  -11.0783 H         1 SER         0.0606
    241 H111       10.8547  -14.7029  -12.2316 H         1 SER         0.0606
    242 H112       10.3111  -16.9229  -11.8921 H         1 SER         0.2097
    243 H113        8.5474  -12.9925  -10.2549 H         1 LYS         0.1883
    244 H114       10.5257  -10.8969  -10.1661 H         1 LYS         0.0800
    245 H115        8.4921   -9.4090   -9.8247 H         1 LYS         0.0312
    246 H116        7.4979  -10.9044   -9.8682 H         1 LYS         0.0312
    247 H117        8.1957  -11.3547  -12.1472 H         1 LYS         0.0269
    248 H118        9.3222   -9.9560  -12.1143 H         1 LYS         0.0269
    249 H119        7.3291   -8.4775  -11.6358 H         1 LYS         0.0317
    250 H120        6.2797   -9.9059  -11.9274 H         1 LYS         0.0317
    251 H121        6.2633   -8.8533  -13.9972 H         1 LYS         0.0813
    252 H122        7.5742  -10.0647  -14.1988 H         1 LYS         0.0813
    253 H123        8.2187   -7.9013  -15.0047 H         1 LYS         0.1994
    254 H124        9.1553   -8.3222  -13.7183 H         1 LYS         0.1994
    255 H125        7.9540   -7.2122  -13.5335 H         1 LYS         0.1994
    256 H126       11.1211   -9.5444   -8.5450 H         1 ARG         0.1875
    257 H127       10.0320  -10.0772   -5.8246 H         1 ARG         0.0726
    258 H128       12.3332   -9.8902   -4.9038 H         1 ARG         0.0307
    259 H129       12.9775   -9.8456   -6.5800 H         1 ARG         0.0307
    260 H130       13.2615  -12.0644   -5.6784 H         1 ARG         0.0301
    261 H131       12.0095  -12.1093   -6.9657 H         1 ARG         0.0301
    262 H132       10.2359  -12.1032   -5.2604 H         1 ARG         0.0689
    263 H133       11.4721  -12.0143   -3.9603 H         1 ARG         0.0689
    264 H134       12.0707  -14.2727   -4.3567 H         1 ARG         0.2642
    265 H135       10.2375  -16.6111   -6.2120 H         1 ARG         0.2615
    266 H136       11.5321  -16.3546   -5.0117 H         1 ARG         0.2615
    267 H137        9.5315  -13.1687   -6.5927 H         1 ARG         0.2615
    268 H138        9.1152  -14.8297   -7.0932 H         1 ARG         0.2615
@<TRIPOS>BOND
     1    1    2 1  
     2    2    3 1  
     3    3    4 2  
     4    3    5 am 
     5    5    6 1  
     6    6    7 1  
     7    7    8 2  
     8    7    9 am 
     9    9   10 1  
    10   10   11 1  
    11   10   13 1  
    12   11   12 2  
    13   11   17 am 
    14   13   14 1  
    15   13   15 1  
    16   14   16 1  
    17   17   18 1  
    18   18   19 1  
    19   19   20 2  
    20   19   21 am 
    21   21   22 1  
    22   22   23 1  
    23   22   25 1  
    24   23   24 2  
    25   23   30 am 
    26   25   26 1  
    27   26   27 1  
    28   27   28 ar 
    29   27   29 ar 
    30   30   31 1  
    31   31   32 1  
    32   31   34 1  
    33   32   33 2  
    34   32   38 am 
    35   34   35 1  
    36   35   36 2  
    37   35   37 am 
    38   38   39 1  
    39   39   40 1  
    40   39   42 1  
    41   40   41 2  
    42   40   47 am 
    43   42   43 1  
    44   43   44 1  
    45   44   45 ar 
    46   44   46 ar 
    47   47   48 1  
    48   48   49 1  
    49   48   51 1  
    50   49   50 2  
    51   49   61 am 
    52   51   52 1  
    53   52   53 2  
    54   52   54 1  
    55   53   55 1  
    56   54   56 ar 
    57   54   57 ar 
    58   55   56 1  
    59   56   58 ar 
    60   57   59 ar 
    61   58   60 ar 
    62   59   60 ar 
    63   61   62 1  
    64   62   63 1  
    65   62   65 1  
    66   63   64 2  
    67   63   68 am 
    68   65   66 1  
    69   65   67 1  
    70   68   69 1  
    71   69   70 1  
    72   69   72 1  
    73   70   71 2  
    74   70   77 am 
    75   72   73 1  
    76   73   74 1  
    77   74   75 1  
    78   75   76 1  
    79   77   78 1  
    80   78   79 1  
    81   78   81 1  
    82   79   80 2  
    83   79   85 am 
    84   81   82 1  
    85   81   83 1  
    86   82   84 1  
    87   85   86 1  
    88   86   87 1  
    89   86   89 1  
    90   87   88 2  
    91   87   93 am 
    92   89   90 1  
    93   90   91 1  
    94   90   92 1  
    95   93   94 1  
    96   94   95 1  
    97   94   97 1  
    98   95   96 2  
    99   95  104 am 
   100   97   98 1  
   101   98   99 1  
   102   99  100 1  
   103  100  101 ar 
   104  101  102 ar 
   105  101  103 ar 
   106  104  105 1  
   107  105  106 1  
   108  105  108 1  
   109  106  107 2  
   110  106  110 am 
   111  108  109 1  
   112  110  111 1  
   113  111  112 1  
   114  111  114 1  
   115  112  113 2  
   116  112  119 am 
   117  114  115 1  
   118  115  116 1  
   119  116  117 1  
   120  117  118 1  
   121  119  120 1  
   122  120  121 1  
   123  120  123 1  
   124  121  122 ar 
   125  121  130 ar 
   126  123  124 1  
   127  124  125 1  
   128  125  126 1  
   129  126  127 ar 
   130  127  128 ar 
   131  127  129 ar 
   132    1  131 1  
   133    1  132 1  
   134    1  133 1  
   135    2  134 1  
   136    2  135 1  
   137    5  136 1  
   138    6  137 1  
   139    6  138 1  
   140    9  139 1  
   141   10  140 1  
   142   13  141 1  
   143   14  142 1  
   144   14  143 1  
   145   15  144 1  
   146   15  145 1  
   147   15  146 1  
   148   16  147 1  
   149   16  148 1  
   150   16  149 1  
   151   17  150 1  
   152   18  151 1  
   153   18  152 1  
   154   21  153 1  
   155   22  154 1  
   156   25  155 1  
   157   25  156 1  
   158   26  157 1  
   159   26  158 1  
   160   30  159 1  
   161   31  160 1  
   162   34  161 1  
   163   34  162 1  
   164   37  163 1  
   165   37  164 1  
   166   38  165 1  
   167   39  166 1  
   168   42  167 1  
   169   42  168 1  
   170   43  169 1  
   171   43  170 1  
   172   47  171 1  
   173   48  172 1  
   174   51  173 1  
   175   51  174 1  
   176   53  175 1  
   177   55  176 1  
   178   57  177 1  
   179   58  178 1  
   180   59  179 1  
   181   60  180 1  
   182   61  181 1  
   183   62  182 1  
   184   65  183 1  
   185   66  184 1  
   186   66  185 1  
   187   66  186 1  
   188   67  187 1  
   189   67  188 1  
   190   67  189 1  
   191   68  190 1  
   192   69  191 1  
   193   72  192 1  
   194   72  193 1  
   195   73  194 1  
   196   73  195 1  
   197   74  196 1  
   198   74  197 1  
   199   75  198 1  
   200   75  199 1  
   201   76  200 1  
   202   76  201 1  
   203   76  202 1  
   204   77  203 1  
   205   78  204 1  
   206   81  205 1  
   207   82  206 1  
   208   82  207 1  
   209   83  208 1  
   210   83  209 1  
   211   83  210 1  
   212   84  211 1  
   213   84  212 1  
   214   84  213 1  
   215   85  214 1  
   216   86  215 1  
   217   89  216 1  
   218   89  217 1  
   219   90  218 1  
   220   91  219 1  
   221   91  220 1  
   222   91  221 1  
   223   92  222 1  
   224   92  223 1  
   225   92  224 1  
   226   93  225 1  
   227   94  226 1  
   228   97  227 1  
   229   97  228 1  
   230   98  229 1  
   231   98  230 1  
   232   99  231 1  
   233   99  232 1  
   234  100  233 1  
   235  102  234 1  
   236  102  235 1  
   237  103  236 1  
   238  103  237 1  
   239  104  238 1  
   240  105  239 1  
   241  108  240 1  
   242  108  241 1  
   243  109  242 1  
   244  110  243 1  
   245  111  244 1  
   246  114  245 1  
   247  114  246 1  
   248  115  247 1  
   249  115  248 1  
   250  116  249 1  
   251  116  250 1  
   252  117  251 1  
   253  117  252 1  
   254  118  253 1  
   255  118  254 1  
   256  118  255 1  
   257  119  256 1  
   258  120  257 1  
   259  123  258 1  
   260  123  259 1  
   261  124  260 1  
   262  124  261 1  
   263  125  262 1  
   264  125  263 1  
   265  126  264 1  
   266  128  265 1  
   267  128  266 1  
   268  129  267 1  
   269  129  268 1  
@<TRIPOS>SUBSTRUCTURE
     1 GLY         1

