3s7f_ligand
  -I-interpret- 

107106  0  0  0  0  0  0  0  0999 V2000
   17.5200   57.8730    0.4980 N   0  3  0  0  0
   17.1410   56.8970    1.5200 C   0  0  0  0  0
   18.3230   56.0990    2.0830 C   0  0  0  0  0
   19.3360   55.9330    1.4040 O   0  0  0  0  0
   15.9640   55.9800    1.0740 C   0  0  0  0  0
   14.5710   56.6690    0.7330 C   0  0  0  0  0
   13.3870   55.6550    0.7460 C   0  0  0  0  0
   14.2480   57.9330    1.6210 C   0  0  0  0  0
   18.1840   55.6590    3.3570 N   0  0  0  0  0
   19.1490   54.9330    4.1830 C   0  0  0  0  0
   19.5480   53.6330    3.5360 C   0  0  0  0  0
   18.7780   52.6780    3.5110 O   0  0  0  0  0
   18.5950   54.7040    5.6060 C   0  0  0  0  0
   18.2250   55.9920    6.3780 C   0  0  0  0  0
   17.9810   55.7440    7.8650 C   0  0  0  0  0
   17.2510   56.8420    8.6250 C   0  0  0  0  0
   16.7370   56.2610    9.9020 N   0  3  0  0  0
   20.7650   53.6220    2.9610 N   0  0  0  0  0
   21.3950   52.4770    2.2750 C   0  0  0  0  0
   22.9440   52.5040    2.3110 C   0  0  0  0  0
   23.5540   53.5310    2.6380 O   0  0  0  0  0
   20.8910   52.3440    0.8360 C   0  0  0  0  0
   21.3430   53.4030    0.0060 O   0  0  0  0  0
   23.5520   51.3440    1.9530 N   0  0  0  0  0
   24.9830   51.0400    1.8740 C   0  0  0  0  0
   25.6430   51.6900    0.6530 C   0  0  0  0  0
   26.8020   52.0620    0.7480 O   0  0  0  0  0
   25.2220   49.5180    1.8150 C   0  0  0  0  0
   24.3710   48.6320    2.7330 C   0  0  0  0  0
   24.9840   48.4920    4.1260 C   0  0  0  0  0
   23.9580   48.8520    5.1590 C   0  0  0  0  0
   22.8670   47.8450    5.2430 N   0  3  0  0  0
   24.9430   51.7760   -0.5070 N   0  0  0  0  0
   25.4640   52.4330   -1.7190 C   0  0  0  0  0
   24.4710   53.4770   -2.3060 C   0  0  0  0  0
   23.2570   53.2250   -2.3260 O   0  0  0  0  0
   25.9460   51.4130   -2.7710 C   0  0  0  0  0
   24.8460   50.6160   -3.4830 C   0  0  0  0  0
   25.4360   49.8170   -4.6440 C   0  0  0  0  0
   24.7510   50.0730   -5.9720 C   0  0  0  0  0
   25.2790   49.1900   -7.0610 N   0  3  0  0  0
   25.0060   54.6170   -2.7690 N   0  0  0  0  0
   24.2420   55.7160   -3.3610 C   0  0  0  0  0
   24.5940   56.0040   -4.8070 C   0  0  0  0  0
   23.9700   55.4700   -5.7260 O   0  0  0  0  0
   25.5353   56.7984   -5.0725 O   0  0  0  0  0
   18.2918   58.4432    0.8437 H   0  0  0  0  0
   17.8104   57.3824   -0.3478 H   0  0  0  0  0
   16.7211   58.4714    0.2881 H   0  0  0  0  0
   16.7710   57.4938    2.3537 H   0  0  0  0  0
   15.7648   55.3293    1.9254 H   0  0  0  0  0
   16.2937   55.5169    0.1440 H   0  0  0  0  0
   14.6861   57.0360   -0.2869 H   0  0  0  0  0
   13.2039   55.3252    1.7687 H   0  0  0  0  0
   12.4924   56.1380    0.3530 H   0  0  0  0  0
   13.6398   54.7953    0.1254 H   0  0  0  0  0
   13.3588   58.4301    1.2334 H   0  0  0  0  0
   14.0704   57.6174    2.6491 H   0  0  0  0  0
   15.0926   58.6214    1.5917 H   0  0  0  0  0
   17.2872   55.8608    3.7990 H   0  0  0  0  0
   20.0458   55.5465    4.2695 H   0  0  0  0  0
   19.3832   54.2113    6.1752 H   0  0  0  0  0
   17.6765   54.1273    5.4972 H   0  0  0  0  0
   17.3021   56.3833    5.9499 H   0  0  0  0  0
   19.0612   56.6855    6.2889 H   0  0  0  0  0
   18.9666   55.6632    8.3235 H   0  0  0  0  0
   17.3441   54.8614    7.9235 H   0  0  0  0  0
   16.4240   57.2259    8.0276 H   0  0  0  0  0
   17.9301   57.6683    8.8351 H   0  0  0  0  0
   16.2432   56.9822   10.4278 H   0  0  0  0  0
   16.0982   55.4940    9.6923 H   0  0  0  0  0
   17.5199   55.9116   10.4546 H   0  0  0  0  0
   21.3031   54.4874    3.0034 H   0  0  0  0  0
   21.0911   51.5954    2.8394 H   0  0  0  0  0
   19.8015   52.3716    0.8557 H   0  0  0  0  0
   21.2744   51.4084    0.4289 H   0  0  0  0  0
   21.0037   53.2782   -0.8833 H   0  0  0  0  0
   22.9258   50.5781    1.7047 H   0  0  0  0  0
   25.4350   51.4510    2.7767 H   0  0  0  0  0
   26.2527   49.3700    2.1373 H   0  0  0  0  0
   24.9651   49.2197    0.7986 H   0  0  0  0  0
   24.3102   47.6394    2.2868 H   0  0  0  0  0
   23.3897   49.0948    2.8382 H   0  0  0  0  0
   25.8411   49.1594    4.2157 H   0  0  0  0  0
   25.3097   47.4631    4.2790 H   0  0  0  0  0
   23.5159   49.8080    4.8786 H   0  0  0  0  0
   24.4542   48.8957    6.1285 H   0  0  0  0  0
   22.1959   48.1313    5.9558 H   0  0  0  0  0
   22.3977   47.7778    4.3399 H   0  0  0  0  0
   23.2617   46.9377    5.4908 H   0  0  0  0  0
   24.0099   51.3654   -0.5415 H   0  0  0  0  0
   26.3442   52.9979   -1.4120 H   0  0  0  0  0
   26.5559   50.6849   -2.2362 H   0  0  0  0  0
   26.4585   51.9868   -3.5431 H   0  0  0  0  0
   24.0995   51.3089   -3.8713 H   0  0  0  0  0
   24.3898   49.9267   -2.7725 H   0  0  0  0  0
   25.3078   48.7601   -4.4101 H   0  0  0  0  0
   26.4776   50.1198   -4.7514 H   0  0  0  0  0
   24.9372   51.1089   -6.2553 H   0  0  0  0  0
   23.6882   49.8636   -5.8511 H   0  0  0  0  0
   24.7904   49.3973   -7.9321 H   0  0  0  0  0
   26.2775   49.3602   -7.1810 H   0  0  0  0  0
   25.1273   48.2134   -6.8088 H   0  0  0  0  0
   26.0181   54.7255   -2.7037 H   0  0  0  0  0
   24.4711   56.6143   -2.7877 H   0  0  0  0  0
   23.1907   55.4291   -3.3354 H   0  0  0  0  0
   25.9163   57.1261   -4.2545 H   0  0  0  0  0
  1  2  1  0  0  0
  2  3  1  0  0  0
  2  5  1  0  0  0
  3  4  2  0  0  0
  3  9  1  0  0  0
  5  6  1  0  0  0
  6  7  1  0  0  0
  6  8  1  0  0  0
  9 10  1  0  0  0
 10 11  1  0  0  0
 10 13  1  0  0  0
 11 12  2  0  0  0
 11 18  1  0  0  0
 13 14  1  0  0  0
 14 15  1  0  0  0
 15 16  1  0  0  0
 16 17  1  0  0  0
 18 19  1  0  0  0
 19 20  1  0  0  0
 19 22  1  0  0  0
 20 21  2  0  0  0
 20 24  1  0  0  0
 22 23  1  0  0  0
 24 25  1  0  0  0
 25 26  1  0  0  0
 25 28  1  0  0  0
 26 27  2  0  0  0
 26 33  1  0  0  0
 28 29  1  0  0  0
 29 30  1  0  0  0
 30 31  1  0  0  0
 31 32  1  0  0  0
 33 34  1  0  0  0
 34 35  1  0  0  0
 34 37  1  0  0  0
 35 36  2  0  0  0
 35 42  1  0  0  0
 37 38  1  0  0  0
 38 39  1  0  0  0
 39 40  1  0  0  0
 40 41  1  0  0  0
 42 43  1  0  0  0
 43 44  1  0  0  0
 44 45  2  0  0  0
 44 46  1  0  0  0
  1 47  1  0  0  0
  1 48  1  0  0  0
  1 49  1  0  0  0
  2 50  1  0  0  0
  5 51  1  0  0  0
  5 52  1  0  0  0
  6 53  1  0  0  0
  7 54  1  0  0  0
  7 55  1  0  0  0
  7 56  1  0  0  0
  8 57  1  0  0  0
  8 58  1  0  0  0
  8 59  1  0  0  0
  9 60  1  0  0  0
 10 61  1  0  0  0
 13 62  1  0  0  0
 13 63  1  0  0  0
 14 64  1  0  0  0
 14 65  1  0  0  0
 15 66  1  0  0  0
 15 67  1  0  0  0
 16 68  1  0  0  0
 16 69  1  0  0  0
 17 70  1  0  0  0
 17 71  1  0  0  0
 17 72  1  0  0  0
 18 73  1  0  0  0
 19 74  1  0  0  0
 22 75  1  0  0  0
 22 76  1  0  0  0
 23 77  1  0  0  0
 24 78  1  0  0  0
 25 79  1  0  0  0
 28 80  1  0  0  0
 28 81  1  0  0  0
 29 82  1  0  0  0
 29 83  1  0  0  0
 30 84  1  0  0  0
 30 85  1  0  0  0
 31 86  1  0  0  0
 31 87  1  0  0  0
 32 88  1  0  0  0
 32 89  1  0  0  0
 32 90  1  0  0  0
 33 91  1  0  0  0
 34 92  1  0  0  0
 37 93  1  0  0  0
 37 94  1  0  0  0
 38 95  1  0  0  0
 38 96  1  0  0  0
 39 97  1  0  0  0
 39 98  1  0  0  0
 40 99  1  0  0  0
 40100  1  0  0  0
 41101  1  0  0  0
 41102  1  0  0  0
 41103  1  0  0  0
 42104  1  0  0  0
 43105  1  0  0  0
 43106  1  0  0  0
 46107  1  0  0  0
M  END
$$$$
