### 
### Created by X-TOOL on Mon Sep 10 21:13:05 2018
### 

@<TRIPOS>MOLECULE
3s7f_ligand
  106   105     1     0     0
SMALL
GAST_HUCK


@<TRIPOS>ATOM
      1 N          17.5200   57.8730    0.4980 N.4       1 LEU         0.2379
      2 CA         17.1410   56.8970    1.5200 C.3       1 LEU         0.0652
      3 C          18.3230   56.0990    2.0830 C.2       1 LEU         0.2267
      4 O          19.3360   55.9330    1.4040 O.2       1 LEU        -0.3907
      5 CB         15.9640   55.9800    1.0740 C.3       1 LEU         0.0102
      6 CG         14.5710   56.6690    0.7330 C.3       1 LEU        -0.0394
      7 CD1        13.3870   55.6550    0.7460 C.3       1 LEU        -0.0623
      8 CD2        14.2480   57.9330    1.6210 C.3       1 LEU        -0.0623
      9 N          18.1840   55.6590    3.3570 N.am      1 LYS        -0.2610
     10 CA         19.1490   54.9330    4.1830 C.3       1 LYS         0.1311
     11 C          19.5480   53.6330    3.5360 C.2       1 LYS         0.2040
     12 O          18.7780   52.6780    3.5110 O.2       1 LYS        -0.3944
     13 CB         18.5950   54.7040    5.6060 C.3       1 LYS        -0.0122
     14 CG         18.2250   55.9920    6.3780 C.3       1 LYS        -0.0440
     15 CD         17.9810   55.7440    7.8650 C.3       1 LYS        -0.0124
     16 CE         17.2510   56.8420    8.6250 C.3       1 LYS        -0.0354
     17 NZ         16.7370   56.2610    9.9020 N.4       1 LYS         0.2185
     18 N          20.7650   53.6220    2.9610 N.am      1 SER        -0.2616
     19 CA         21.3950   52.4770    2.2750 C.3       1 SER         0.1539
     20 C          22.9440   52.5040    2.3110 C.2       1 SER         0.2062
     21 O          23.5540   53.5310    2.6380 O.2       1 SER        -0.3943
     22 CB         20.8910   52.3440    0.8360 C.3       1 SER         0.0843
     23 OG         21.3430   53.4030    0.0060 O.3       1 SER        -0.3903
     24 N          23.5520   51.3440    1.9530 N.am      1 LYS        -0.2637
     25 CA         24.9830   51.0400    1.8740 C.3       1 LYS         0.1310
     26 C          25.6430   51.6900    0.6530 C.2       1 LYS         0.2039
     27 O          26.8020   52.0620    0.7480 O.2       1 LYS        -0.3944
     28 CB         25.2220   49.5180    1.8150 C.3       1 LYS        -0.0122
     29 CG         24.3710   48.6320    2.7330 C.3       1 LYS        -0.0440
     30 CD         24.9840   48.4920    4.1260 C.3       1 LYS        -0.0124
     31 CE         23.9580   48.8520    5.1590 C.3       1 LYS        -0.0354
     32 NZ         22.8670   47.8450    5.2430 N.4       1 LYS         0.2185
     33 N          24.9430   51.7760   -0.5070 N.am      1 LYS        -0.2637
     34 CA         25.4640   52.4330   -1.7190 C.3       1 LYS         0.1309
     35 C          24.4710   53.4770   -2.3060 C.2       1 LYS         0.2031
     36 O          23.2570   53.2250   -2.3260 O.2       1 LYS        -0.3944
     37 CB         25.9460   51.4130   -2.7710 C.3       1 LYS        -0.0122
     38 CG         24.8460   50.6160   -3.4830 C.3       1 LYS        -0.0440
     39 CD         25.4360   49.8170   -4.6440 C.3       1 LYS        -0.0124
     40 CE         24.7510   50.0730   -5.9720 C.3       1 LYS        -0.0354
     41 NZ         25.2790   49.1900   -7.0610 N.4       1 LYS         0.2185
     42 N          25.0060   54.6170   -2.7690 N.am      1 GLY        -0.2722
     43 CA         24.2420   55.7160   -3.3610 C.3       1 GLY         0.0833
     44 C          24.5940   56.0040   -4.8070 C.2       1 GLY         0.0570
     45 O          23.9700   55.4700   -5.7260 O.co2     1 GLY        -0.5669
     46 H          18.2918   58.4432    0.8437 H         1 LEU         0.2015
     47 H          17.8104   57.3824   -0.3478 H         1 LEU         0.2015
     48 H          16.7211   58.4714    0.2881 H         1 LEU         0.2015
     49 H          16.7710   57.4938    2.3537 H         1 LEU         0.1098
     50 H          15.7648   55.3293    1.9254 H         1 LEU         0.0348
     51 H          16.2937   55.5169    0.1440 H         1 LEU         0.0348
     52 H          14.6861   57.0360   -0.2869 H         1 LEU         0.0299
     53 H          13.2039   55.3252    1.7687 H         1 LEU         0.0232
     54 H          12.4924   56.1380    0.3530 H         1 LEU         0.0232
     55 H          13.6398   54.7953    0.1254 H         1 LEU         0.0232
     56 H          13.3588   58.4301    1.2334 H         1 LEU         0.0232
     57 H          14.0704   57.6174    2.6491 H         1 LEU         0.0232
     58 H          15.0926   58.6214    1.5917 H         1 LEU         0.0232
     59 H          17.2872   55.8608    3.7990 H         1 LYS         0.1884
     60 H          20.0458   55.5465    4.2695 H         1 LYS         0.0800
     61 H          19.3832   54.2113    6.1752 H         1 LYS         0.0312
     62 H          17.6765   54.1273    5.4972 H         1 LYS         0.0312
     63 H          17.3021   56.3833    5.9499 H         1 LYS         0.0269
     64 H          19.0612   56.6855    6.2889 H         1 LYS         0.0269
     65 H          18.9666   55.6632    8.3235 H         1 LYS         0.0317
     66 H          17.3441   54.8614    7.9235 H         1 LYS         0.0317
     67 H          16.4240   57.2259    8.0276 H         1 LYS         0.0813
     68 H          17.9301   57.6683    8.8351 H         1 LYS         0.0813
     69 H          16.2432   56.9822   10.4278 H         1 LYS         0.1994
     70 H          16.0982   55.4940    9.6923 H         1 LYS         0.1994
     71 H          17.5199   55.9116   10.4546 H         1 LYS         0.1994
     72 H          21.3031   54.4874    3.0034 H         1 SER         0.1884
     73 H          21.0911   51.5954    2.8394 H         1 SER         0.0823
     74 H          19.8015   52.3716    0.8557 H         1 SER         0.0606
     75 H          21.2744   51.4084    0.4289 H         1 SER         0.0606
     76 H          22.3028   53.4052   -0.0139 H         1 SER         0.2097
     77 H          22.9258   50.5781    1.7047 H         1 LYS         0.1883
     78 H          25.4350   51.4510    2.7767 H         1 LYS         0.0800
     79 H          26.2527   49.3700    2.1373 H         1 LYS         0.0312
     80 H          24.9651   49.2197    0.7986 H         1 LYS         0.0312
     81 H          24.3102   47.6394    2.2868 H         1 LYS         0.0269
     82 H          23.3897   49.0948    2.8382 H         1 LYS         0.0269
     83 H          25.8411   49.1594    4.2157 H         1 LYS         0.0317
     84 H          25.3097   47.4631    4.2790 H         1 LYS         0.0317
     85 H          23.5159   49.8080    4.8786 H         1 LYS         0.0813
     86 H          24.4542   48.8957    6.1285 H         1 LYS         0.0813
     87 H          22.1959   48.1313    5.9558 H         1 LYS         0.1994
     88 H          22.3977   47.7778    4.3399 H         1 LYS         0.1994
     89 H          23.2617   46.9377    5.4908 H         1 LYS         0.1994
     90 H          24.0099   51.3654   -0.5415 H         1 LYS         0.1883
     91 H          26.3442   52.9979   -1.4120 H         1 LYS         0.0800
     92 H          26.5559   50.6849   -2.2362 H         1 LYS         0.0312
     93 H          26.4585   51.9868   -3.5431 H         1 LYS         0.0312
     94 H          24.0995   51.3089   -3.8713 H         1 LYS         0.0269
     95 H          24.3898   49.9267   -2.7725 H         1 LYS         0.0269
     96 H          25.3078   48.7601   -4.4101 H         1 LYS         0.0317
     97 H          26.4776   50.1198   -4.7514 H         1 LYS         0.0317
     98 H          24.9372   51.1089   -6.2553 H         1 LYS         0.0813
     99 H          23.6882   49.8636   -5.8511 H         1 LYS         0.0813
    100 H          24.7904   49.3973   -7.9321 H         1 LYS         0.1994
    101 H          26.2775   49.3602   -7.1810 H         1 LYS         0.1994
    102 H          25.1273   48.2134   -6.8088 H         1 LYS         0.1994
    103 H          26.0181   54.7255   -2.7037 H         1 GLY         0.1873
    104 H          24.4711   56.6143   -2.7877 H         1 GLY         0.0689
    105 H          23.1907   55.4291   -3.3354 H         1 GLY         0.0689
    106 O          25.5353   56.7984   -5.0725 O.co2     1 GLY        -0.5669
@<TRIPOS>BOND
     1    1    2 1  
     2    2    3 1  
     3    2    5 1  
     4    3    4 2  
     5    3    9 am 
     6    5    6 1  
     7    6    7 1  
     8    6    8 1  
     9    9   10 1  
    10   10   11 1  
    11   10   13 1  
    12   11   12 2  
    13   11   18 am 
    14   13   14 1  
    15   14   15 1  
    16   15   16 1  
    17   16   17 1  
    18   18   19 1  
    19   19   20 1  
    20   19   22 1  
    21   20   21 2  
    22   20   24 am 
    23   22   23 1  
    24   24   25 1  
    25   25   26 1  
    26   25   28 1  
    27   26   27 2  
    28   26   33 am 
    29   28   29 1  
    30   29   30 1  
    31   30   31 1  
    32   31   32 1  
    33   33   34 1  
    34   34   35 1  
    35   34   37 1  
    36   35   36 2  
    37   35   42 am 
    38   37   38 1  
    39   38   39 1  
    40   39   40 1  
    41   40   41 1  
    42   42   43 1  
    43   43   44 1  
    44   44   45 ar 
    45    1   46 1  
    46    1   47 1  
    47    1   48 1  
    48    2   49 1  
    49    5   50 1  
    50    5   51 1  
    51    6   52 1  
    52    7   53 1  
    53    7   54 1  
    54    7   55 1  
    55    8   56 1  
    56    8   57 1  
    57    8   58 1  
    58    9   59 1  
    59   10   60 1  
    60   13   61 1  
    61   13   62 1  
    62   14   63 1  
    63   14   64 1  
    64   15   65 1  
    65   15   66 1  
    66   16   67 1  
    67   16   68 1  
    68   17   69 1  
    69   17   70 1  
    70   17   71 1  
    71   18   72 1  
    72   19   73 1  
    73   22   74 1  
    74   22   75 1  
    75   23   76 1  
    76   24   77 1  
    77   25   78 1  
    78   28   79 1  
    79   28   80 1  
    80   29   81 1  
    81   29   82 1  
    82   30   83 1  
    83   30   84 1  
    84   31   85 1  
    85   31   86 1  
    86   32   87 1  
    87   32   88 1  
    88   32   89 1  
    89   33   90 1  
    90   34   91 1  
    91   37   92 1  
    92   37   93 1  
    93   38   94 1  
    94   38   95 1  
    95   39   96 1  
    96   39   97 1  
    97   40   98 1  
    98   40   99 1  
    99   41  100 1  
   100   41  101 1  
   101   41  102 1  
   102   42  103 1  
   103   43  104 1  
   104   43  105 1  
   105   44  106 ar 
@<TRIPOS>SUBSTRUCTURE
     1 LEU         1

