4pyv_ligand
  -I-interpret- 

 59 61  0  0  0  0  0  0  0  0999 V2000
   40.5120  110.1250   10.3850 C   0  0  0  0  0
   40.8260  110.3470    8.8760 C   0  0  0  0  0
   42.2620  110.0980    8.5530 N   0  3  0  0  0
   42.9020  108.8560    9.0710 C   0  0  0  0  0
   42.7580  108.9370   10.6060 C   0  0  0  0  0
   41.2210  108.8390   10.9020 C   0  0  0  0  0
   43.5270  107.8990   11.4280 C   0  0  0  0  0
   44.5510  108.1630   12.3180 N   0  0  0  0  0
   43.1100  106.7580   11.3100 O   0  0  0  0  0
   39.0470  110.1600   10.6160 N   0  0  0  0  0
   45.0670  109.5150   12.5940 C   0  0  0  0  0
   44.9710  107.0670   13.2010 C   0  0  0  0  0
   46.6030  109.7210   12.6260 C   0  0  0  0  0
   45.7860  110.2870   11.4620 C   0  0  0  0  0
   46.1990  106.1900   12.9370 C   0  0  0  0  0
   46.7330  105.9510   11.6620 C   0  0  0  0  0
   47.8200  105.0590   11.5330 C   0  0  0  0  0
   48.3750  104.3980   12.6450 C   0  0  0  0  0
   47.8170  104.6070   13.9140 C   0  0  0  0  0
   46.7310  105.4900   14.0480 C   0  0  0  0  0
   46.0480  105.7210   15.6460 Cl  0  0  0  0  0
   48.4460  103.7580   15.3240 Cl  0  0  0  0  0
   38.5540  111.2650   11.2530 C   0  0  0  0  0
   39.2720  112.1720   11.6640 O   0  0  0  0  0
   37.2100  111.2660   11.3870 O   0  0  0  0  0
   36.4720  112.3970   11.9850 C   0  0  0  0  0
   36.9550  112.9060   13.3950 C   0  0  0  0  0
   36.5590  113.5710   10.9460 C   0  0  0  0  0
   34.9640  112.0380   12.1250 C   0  0  0  0  0
   40.9209  110.9414   10.9804 H   0  0  0  0  0
   40.6000  111.3852    8.6329 H   0  0  0  0  0
   40.2232  109.6460    8.2987 H   0  0  0  0  0
   42.7712  110.8642    8.9935 H   0  0  0  0  0
   42.2959  110.0118    7.5372 H   0  0  0  0  0
   43.9467  108.7853    8.7681 H   0  0  0  0  0
   42.4271  107.9610    8.6691 H   0  0  0  0  0
   43.2130  109.8751   10.9239 H   0  0  0  0  0
   40.8076  107.9668   10.3956 H   0  0  0  0  0
   41.0625  108.7427   11.9761 H   0  0  0  0  0
   38.4385  109.3987   10.3150 H   0  0  0  0  0
   44.2377  109.7295   13.2680 H   0  0  0  0  0
   44.1451  106.3601   13.1218 H   0  0  0  0  0
   45.2348  107.5845   14.1233 H   0  0  0  0  0
   47.5025  109.1239   12.7761 H   0  0  0  0  0
   47.3654  110.0599   13.3274 H   0  0  0  0  0
   45.6796  111.2297   10.9252 H   0  0  0  0  0
   45.8170  110.2912   10.3724 H   0  0  0  0  0
   46.3156  106.4459   10.7851 H   0  0  0  0  0
   48.2413  104.8771   10.5443 H   0  0  0  0  0
   49.2285  103.7315   12.5209 H   0  0  0  0  0
   36.8805  112.0938   14.1181 H   0  0  0  0  0
   37.9909  113.2378   13.3248 H   0  0  0  0  0
   36.3267  113.7374   13.7145 H   0  0  0  0  0
   37.6046  113.8284   10.7773 H   0  0  0  0  0
   36.1045  113.2572   10.0063 H   0  0  0  0  0
   36.0280  114.4395   11.3357 H   0  0  0  0  0
   34.5505  111.8212   11.1401 H   0  0  0  0  0
   34.8582  111.1625   12.7656 H   0  0  0  0  0
   34.4309  112.8798   12.5670 H   0  0  0  0  0
  1  2  1  0  0  0
  1  6  1  0  0  0
  1 10  1  0  0  0
  2  3  1  0  0  0
  3  4  1  0  0  0
  4  5  1  0  0  0
  5  6  1  0  0  0
  5  7  1  0  0  0
  7  8  1  0  0  0
  7  9  2  0  0  0
  8 11  1  0  0  0
  8 12  1  0  0  0
 10 23  1  0  0  0
 11 13  1  0  0  0
 11 14  1  0  0  0
 12 15  1  0  0  0
 13 14  1  0  0  0
 15 16  4  0  0  0
 15 20  4  0  0  0
 16 17  4  0  0  0
 17 18  4  0  0  0
 18 19  4  0  0  0
 19 20  4  0  0  0
 19 22  1  0  0  0
 20 21  1  0  0  0
 23 24  2  0  0  0
 23 25  1  0  0  0
 25 26  1  0  0  0
 26 27  1  0  0  0
 26 28  1  0  0  0
 26 29  1  0  0  0
  1 30  1  0  0  0
  2 31  1  0  0  0
  2 32  1  0  0  0
  3 33  1  0  0  0
  3 34  1  0  0  0
  4 35  1  0  0  0
  4 36  1  0  0  0
  5 37  1  0  0  0
  6 38  1  0  0  0
  6 39  1  0  0  0
 10 40  1  0  0  0
 11 41  1  0  0  0
 12 42  1  0  0  0
 12 43  1  0  0  0
 13 44  1  0  0  0
 13 45  1  0  0  0
 14 46  1  0  0  0
 14 47  1  0  0  0
 16 48  1  0  0  0
 17 49  1  0  0  0
 18 50  1  0  0  0
 27 51  1  0  0  0
 27 52  1  0  0  0
 27 53  1  0  0  0
 28 54  1  0  0  0
 28 55  1  0  0  0
 28 56  1  0  0  0
 29 57  1  0  0  0
 29 58  1  0  0  0
 29 59  1  0  0  0
M  END
$$$$
