3er3_ligand
  -I-interpret- 

124126  0  0  0  0  0  0  0  0999 V2000
    1.5750   27.1820   19.7870 O   0  0  0  0  0
    2.4370   26.3690   19.3430 C   0  0  0  0  0
    2.2300   24.9630   19.4450 O   0  0  0  0  0
    1.2420   24.5790   20.3970 C   0  0  0  0  0
    1.3590   23.0810   20.6800 C   0  0  0  0  0
   -0.1490   24.8950   19.8420 C   0  0  0  0  0
    1.4510   25.3690   21.6910 C   0  0  0  0  0
    3.5630   26.7010   18.7700 N   0  0  0  0  0
    3.9450   28.0880   18.5510 C   0  0  0  0  0
    3.2430   28.6420   17.3150 C   0  0  0  0  0
    3.0250   27.9310   16.3310 O   0  0  0  0  0
    5.4510   28.1700   18.2710 C   0  0  0  0  0
    6.2940   27.9840   19.5230 C   0  0  0  0  0
    5.9110   28.6210   20.7000 C   0  0  0  0  0
    7.4410   27.1800   19.4930 C   0  0  0  0  0
    6.6670   28.4560   21.8590 C   0  0  0  0  0
    8.1990   27.0120   20.6560 C   0  0  0  0  0
    7.8100   27.6510   21.8400 C   0  0  0  0  0
    2.8670   29.9030   17.3910 N   0  0  0  0  0
    2.3980   30.6200   16.1950 C   0  0  0  0  0
    3.2410   31.8870   16.0240 C   0  0  0  0  0
    2.8600   32.9720   16.4770 O   0  0  0  0  0
    0.9600   31.1690   16.2270 C   0  0  0  0  0
   -0.1570   30.3180   16.8350 C   0  0  0  0  0
   -0.2950   28.9400   16.6380 N   0  0  0  0  0
   -1.1920   30.7010   17.6230 C   0  0  0  0  0
   -1.3820   28.5440   17.3030 C   0  0  0  0  0
   -1.9230   29.5870   17.8950 N   0  0  0  0  0
    4.3930   31.7540   15.3860 N   0  0  0  0  0
    5.2700   32.9210   15.1470 C   0  0  0  0  0
    6.7380   32.5640   15.3220 C   0  0  0  0  0
    7.0730   31.9970   16.7040 C   0  0  0  0  0
    6.5920   32.9520   17.8140 C   0  0  0  0  0
    8.4640   31.8090   16.7910 C   0  0  0  0  0
    6.9360   32.3840   19.1980 C   0  0  0  0  0
    8.8490   31.1870   18.1410 C   0  0  0  0  0
    8.4350   32.1100   19.2840 C   0  0  0  0  0
    5.0570   33.4500   13.7300 C   0  0  0  0  0
    5.1690   32.3750   12.7980 O   0  0  0  0  0
    3.6740   34.0820   13.6810 C   0  0  0  0  0
    3.5220   35.0030   12.5420 C   0  0  0  0  0
    2.4740   34.4900   11.6660 C   0  0  0  0  0
    1.1220   34.9380   12.2060 C   0  0  0  0  0
    0.0060   34.4980   11.2620 C   0  0  0  0  0
    0.8740   34.3390   13.5930 C   0  0  0  0  0
    3.1670   36.2260   12.9760 C   0  0  0  0  0
    2.6490   36.3840   14.0880 O   0  0  0  0  0
    3.3600   37.2320   12.1200 N   0  0  0  0  0
    3.1440   38.6540   12.4960 C   0  0  0  0  0
    1.6650   38.9910   12.7110 C   0  0  0  0  0
    0.9000   39.2090   11.7660 O   0  0  0  0  0
    3.7510   39.5740   11.4350 C   0  0  0  0  0
    4.1760   40.9250   12.0040 C   0  0  0  0  0
    3.3120   42.0580   11.4720 C   0  0  0  0  0
    3.6790   43.4130   12.0600 C   0  0  0  0  0
    4.0920   44.3820   11.0390 N   0  3  0  0  0
    1.2156   39.0475   13.8868 O   0  0  0  0  0
    2.3498   22.8643   21.0792 H   0  0  0  0  0
    0.6011   22.7897   21.4072 H   0  0  0  0  0
    1.2091   22.5249   19.7546 H   0  0  0  0  0
   -0.9043   24.6100   20.5744 H   0  0  0  0  0
   -0.2234   25.9632   19.6382 H   0  0  0  0  0
   -0.3063   24.3360   18.9196 H   0  0  0  0  0
    1.3711   26.4356   21.4809 H   0  0  0  0  0
    0.6902   25.0824   22.4171 H   0  0  0  0  0
    2.4400   25.1497   22.0934 H   0  0  0  0  0
    4.1967   25.9621   18.4654 H   0  0  0  0  0
    3.6713   28.6549   19.4408 H   0  0  0  0  0
    5.6626   29.1613   17.8703 H   0  0  0  0  0
    5.7053   27.3702   17.5754 H   0  0  0  0  0
    5.0200   29.2487   20.7151 H   0  0  0  0  0
    7.7410   26.6879   18.5678 H   0  0  0  0  0
    6.3671   28.9547   22.7807 H   0  0  0  0  0
    9.0906   26.3851   20.6411 H   0  0  0  0  0
    8.3991   27.5206   22.7478 H   0  0  0  0  0
    2.9015   30.3868   18.2883 H   0  0  0  0  0
    2.4682   29.8648   15.4122 H   0  0  0  0  0
    0.6831   31.2816   15.1788 H   0  0  0  0  0
    1.0145   32.0513   16.8648 H   0  0  0  0  0
   -1.3992   31.7123   17.9729 H   0  0  0  0  0
   -1.7601   27.5227   17.3484 H   0  0  0  0  0
    4.6803   30.8332   15.0542 H   0  0  0  0  0
    5.0077   33.6837   15.8802 H   0  0  0  0  0
    7.3135   33.4813   15.1978 H   0  0  0  0  0
    6.9761   31.7945   14.5876 H   0  0  0  0  0
    6.5627   31.0433   16.8384 H   0  0  0  0  0
    5.5109   33.0680   17.7375 H   0  0  0  0  0
    7.0887   33.9147   17.6928 H   0  0  0  0  0
    8.9553   32.7776   16.6983 H   0  0  0  0  0
    8.7775   31.1362   15.9928 H   0  0  0  0  0
    6.3894   31.4538   19.3527 H   0  0  0  0  0
    6.6564   33.1066   19.9646 H   0  0  0  0  0
    9.9290   31.0427   18.1723 H   0  0  0  0  0
    8.3380   30.2306   18.2518 H   0  0  0  0  0
    8.6634   31.6334   20.2373 H   0  0  0  0  0
    8.9814   33.0501   19.2084 H   0  0  0  0  0
    5.8086   34.1941   13.4663 H   0  0  0  0  0
    5.0349   32.7092   11.9081 H   0  0  0  0  0
    3.5293   34.6517   14.5989 H   0  0  0  0  0
    2.9404   33.2834   13.5710 H   0  0  0  0  0
    4.4693   35.0763   12.0078 H   0  0  0  0  0
    2.5177   33.4013   11.6352 H   0  0  0  0  0
    2.6149   34.8749   10.6560 H   0  0  0  0  0
    1.1281   36.0254   12.2808 H   0  0  0  0  0
    0.1649   34.9446   10.2805 H   0  0  0  0  0
    0.0137   33.4116   11.1738 H   0  0  0  0  0
   -0.9547   34.8247   11.6600 H   0  0  0  0  0
    0.8862   33.2512   13.5251 H   0  0  0  0  0
    1.6564   34.6705   14.2757 H   0  0  0  0  0
   -0.0966   34.6704   13.9622 H   0  0  0  0  0
    3.6675   37.0168   11.1716 H   0  0  0  0  0
    3.6453   38.8141   13.4506 H   0  0  0  0  0
    2.9924   39.7543   10.6734 H   0  0  0  0  0
    4.6386   39.0844   11.0343 H   0  0  0  0  0
    5.2080   41.1126   11.7077 H   0  0  0  0  0
    4.0667   40.8903   13.0879 H   0  0  0  0  0
    2.2791   41.8453   11.7478 H   0  0  0  0  0
    3.4628   42.1123   10.3939 H   0  0  0  0  0
    4.5182   43.2659   12.7398 H   0  0  0  0  0
    2.7957   43.8105   12.5599 H   0  0  0  0  0
    4.3253   45.2680   11.4874 H   0  0  0  0  0
    4.9090   44.0248   10.5436 H   0  0  0  0  0
    3.3279   44.5247   10.3785 H   0  0  0  0  0
    1.9223   38.8565   14.5078 H   0  0  0  0  0
  9  8  1  0  0  0
  9 12  1  0  0  0
 10  9  1  0  0  0
 10 11  2  0  0  0
 12 13  1  0  0  0
 13 14  4  0  0  0
 13 15  4  0  0  0
 15 17  4  0  0  0
 17 18  4  0  0  0
 16 18  4  0  0  0
 14 16  4  0  0  0
 20 19  1  0  0  0
 20 23  1  0  0  0
 21 20  1  0  0  0
 21 22  2  0  0  0
 23 24  1  0  0  0
 24 25  4  0  0  0
 24 26  4  0  0  0
 26 28  4  0  0  0
 28 27  4  0  0  0
 25 27  4  0  0  0
 19 10  1  0  0  0
 48 49  1  0  0  0
 49 52  1  0  0  0
 49 50  1  0  0  0
 50 51  2  0  0  0
 52 53  1  0  0  0
 53 54  1  0  0  0
 54 55  1  0  0  0
 55 56  1  0  0  0
  2  1  2  0  0  0
  2  3  1  0  0  0
  8  2  1  0  0  0
  3  4  1  0  0  0
  4  5  1  0  0  0
  4  6  1  0  0  0
  4  7  1  0  0  0
 29 21  1  0  0  0
 30 29  1  0  0  0
 30 31  1  0  0  0
 38 30  1  0  0  0
 31 32  1  0  0  0
 32 33  1  0  0  0
 32 34  1  0  0  0
 33 35  1  0  0  0
 34 36  1  0  0  0
 35 37  1  0  0  0
 36 37  1  0  0  0
 38 39  1  0  0  0
 40 38  1  0  0  0
 41 40  1  0  0  0
 41 42  1  0  0  0
 46 41  1  0  0  0
 42 43  1  0  0  0
 43 44  1  0  0  0
 43 45  1  0  0  0
 46 47  2  0  0  0
 46 48  1  0  0  0
 50 57  1  0  0  0
  5 58  1  0  0  0
  5 59  1  0  0  0
  5 60  1  0  0  0
  6 61  1  0  0  0
  6 62  1  0  0  0
  6 63  1  0  0  0
  7 64  1  0  0  0
  7 65  1  0  0  0
  7 66  1  0  0  0
  8 67  1  0  0  0
  9 68  1  0  0  0
 12 69  1  0  0  0
 12 70  1  0  0  0
 14 71  1  0  0  0
 15 72  1  0  0  0
 16 73  1  0  0  0
 17 74  1  0  0  0
 18 75  1  0  0  0
 19 76  1  0  0  0
 20 77  1  0  0  0
 23 78  1  0  0  0
 23 79  1  0  0  0
 26 80  1  0  0  0
 27 81  1  0  0  0
 29 82  1  0  0  0
 30 83  1  0  0  0
 31 84  1  0  0  0
 31 85  1  0  0  0
 32 86  1  0  0  0
 33 87  1  0  0  0
 33 88  1  0  0  0
 34 89  1  0  0  0
 34 90  1  0  0  0
 35 91  1  0  0  0
 35 92  1  0  0  0
 36 93  1  0  0  0
 36 94  1  0  0  0
 37 95  1  0  0  0
 37 96  1  0  0  0
 38 97  1  0  0  0
 39 98  1  0  0  0
 40 99  1  0  0  0
 40100  1  0  0  0
 41101  1  0  0  0
 42102  1  0  0  0
 42103  1  0  0  0
 43104  1  0  0  0
 44105  1  0  0  0
 44106  1  0  0  0
 44107  1  0  0  0
 45108  1  0  0  0
 45109  1  0  0  0
 45110  1  0  0  0
 48111  1  0  0  0
 49112  1  0  0  0
 52113  1  0  0  0
 52114  1  0  0  0
 53115  1  0  0  0
 53116  1  0  0  0
 54117  1  0  0  0
 54118  1  0  0  0
 55119  1  0  0  0
 55120  1  0  0  0
 56121  1  0  0  0
 56122  1  0  0  0
 56123  1  0  0  0
 57124  1  0  0  0
M  END
$$$$
