### 
### Created by X-TOOL on Mon Sep 10 21:12:44 2018
### 

@<TRIPOS>MOLECULE
3er3_ligand
  124   126     1     0     0
SMALL
GAST_HUCK


@<TRIPOS>ATOM
      1 OT1         1.5750   27.1820   19.7870 O.2       1 0EL        -0.3774
      2 CT1         2.4370   26.3690   19.3430 C.2       1 0EL         0.3224
      3 OT2         2.2300   24.9630   19.4450 O.3       1 0EL        -0.2580
      4 CT2         1.2420   24.5790   20.3970 C.3       1 0EL         0.0905
      5 CT3         1.3590   23.0810   20.6800 C.3       1 0EL        -0.0320
      6 CT4        -0.1490   24.8950   19.8420 C.3       1 0EL        -0.0320
      7 CT5         1.4510   25.3690   21.6910 C.3       1 0EL        -0.0320
      8 N           3.5630   26.7010   18.7700 N.am      1 0EL        -0.2394
      9 CA          3.9450   28.0880   18.5510 C.3       1 0EL         0.1423
     10 C           3.2430   28.6420   17.3150 C.2       1 0EL         0.2060
     11 O           3.0250   27.9310   16.3310 O.2       1 0EL        -0.3942
     12 CB          5.4510   28.1700   18.2710 C.3       1 0EL         0.0214
     13 CG          6.2940   27.9840   19.5230 C.ar      1 0EL        -0.0386
     14 CD1         5.9110   28.6210   20.7000 C.ar      1 0EL        -0.0601
     15 CD2         7.4410   27.1800   19.4930 C.ar      1 0EL        -0.0601
     16 CE1         6.6670   28.4560   21.8590 C.ar      1 0EL        -0.0686
     17 CE2         8.1990   27.0120   20.6560 C.ar      1 0EL        -0.0686
     18 CZ          7.8100   27.6510   21.8400 C.ar      1 0EL        -0.0687
     19 N           2.8670   29.9030   17.3910 N.am      1 0EL        -0.2618
     20 CA          2.3980   30.6200   16.1950 C.3       1 0EL         0.1420
     21 C           3.2410   31.8870   16.0240 C.2       1 0EL         0.2041
     22 O           2.8600   32.9720   16.4770 O.2       1 0EL        -0.3943
     23 CB          0.9600   31.1690   16.2270 C.3       1 0EL         0.0427
     24 CG         -0.1570   30.3180   16.8350 C.2       1 0EL         0.0561
     25 ND1        -0.2950   28.9400   16.6380 N.pl3     1 0EL        -0.2623
     26 CD2        -1.1920   30.7010   17.6230 C.2       1 0EL        -0.0276
     27 CE1        -1.3820   28.5440   17.3030 C.2       1 0EL         0.0875
     28 NE2        -1.9230   29.5870   17.8950 N.2       1 0EL        -0.3437
     29 N           4.3930   31.7540   15.3860 N.am      1 0EL        -0.2794
     30 CA          5.2700   32.9210   15.1470 C.3       1 0EL         0.0683
     31 CB          6.7380   32.5640   15.3220 C.3       1 0EL        -0.0246
     32 CG          7.0730   31.9970   16.7040 C.3       1 0EL        -0.0389
     33 CD1         6.5920   32.9520   17.8140 C.3       1 0EL        -0.0501
     34 CD2         8.4640   31.8090   16.7910 C.3       1 0EL        -0.0501
     35 CE1         6.9360   32.3840   19.1980 C.3       1 0EL        -0.0528
     36 CE2         8.8490   31.1870   18.1410 C.3       1 0EL        -0.0528
     37 CZ          8.4350   32.1100   19.2840 C.3       1 0EL        -0.0530
     38 CH          5.0570   33.4500   13.7300 C.3       1 0EL         0.0804
     39 OH          5.1690   32.3750   12.7980 O.3       1 0EL        -0.3894
     40 CM          3.6740   34.0820   13.6810 C.3       1 0EL        -0.0049
     41 CA2         3.5220   35.0030   12.5420 C.3       1 0EL         0.0514
     42 CB2         2.4740   34.4900   11.6660 C.3       1 0EL        -0.0308
     43 CG2         1.1220   34.9380   12.2060 C.3       1 0EL        -0.0444
     44 CD3         0.0060   34.4980   11.2620 C.3       1 0EL        -0.0625
     45 CD4         0.8740   34.3390   13.5930 C.3       1 0EL        -0.0625
     46 C           3.1670   36.2260   12.9760 C.2       1 0EL         0.1808
     47 O           2.6490   36.3840   14.0880 O.2       1 0EL        -0.3967
     48 N           3.3600   37.2320   12.1200 N.am      1 0EL        -0.2712
     49 CA          3.1440   38.6540   12.4960 C.3       1 0EL         0.0943
     50 C           1.6650   38.9910   12.7110 C.2       1 0EL         0.0601
     51 O           0.9000   39.2090   11.7660 O.co2     1 0EL        -0.5666
     52 CB          3.7510   39.5740   11.4350 C.3       1 0EL        -0.0177
     53 CG          4.1760   40.9250   12.0040 C.3       1 0EL        -0.0446
     54 CD          3.3120   42.0580   11.4720 C.3       1 0EL        -0.0125
     55 CE          3.6790   43.4130   12.0600 C.3       1 0EL        -0.0354
     56 NZ          4.0920   44.3820   11.0390 N.4       1 0EL         0.2185
     57 ****        1.2156   39.0475   13.8868 O.co2     1 0EL        -0.5666
     58 H1          0.5957   22.7860   21.4151 H         1 0EL         0.0260
     59 H2          2.3591   22.8607   21.0815 H         1 0EL         0.0260
     60 H3          1.2063   22.5186   19.7471 H         1 0EL         0.0260
     61 H4         -0.9127   24.5989   20.5763 H         1 0EL         0.0260
     62 H5         -0.3053   24.3389   18.9059 H         1 0EL         0.0260
     63 H6         -0.2287   25.9743   19.6451 H         1 0EL         0.0260
     64 H7          0.6892   25.0741   22.4277 H         1 0EL         0.0260
     65 H8          1.3618   26.4453   21.4820 H         1 0EL         0.0260
     66 H9          2.4522   25.1554   22.0934 H         1 0EL         0.0260
     67 H10         4.1843   25.9766   18.4714 H         1 0EL         0.1901
     68 H11         3.6864   28.6871   19.4366 H         1 0EL         0.0823
     69 H12         5.6751   29.1568   17.8398 H         1 0EL         0.0474
     70 H13         5.7174   27.3849   17.5481 H         1 0EL         0.0474
     71 H14         5.0249   29.2452   20.7150 H         1 0EL         0.0557
     72 H15         7.7393   26.6907   18.5729 H         1 0EL         0.0557
     73 H16         6.3688   28.9520   22.7756 H         1 0EL         0.0599
     74 H17         9.0857   26.3886   20.6412 H         1 0EL         0.0599
     75 H18         8.3958   27.5213   22.7428 H         1 0EL         0.0559
     76 H19         2.9009   30.3773   18.2707 H         1 0EL         0.1885
     77 H20         2.5112   29.9515   15.3288 H         1 0EL         0.0824
     78 H21         0.6733   31.3768   15.1855 H         1 0EL         0.0491
     79 H22         0.9895   32.1111   16.7941 H         1 0EL         0.0491
     80 H23         0.3294   28.3397   16.0806 H         1 0EL         0.2386
     81 H24        -1.3990   31.7114   17.9725 H         1 0EL         0.0324
     82 H25        -1.7598   27.5236   17.3483 H         1 0EL         0.1149
     83 H26         4.6747   30.8513   15.0607 H         1 0EL         0.1856
     84 H27         5.0088   33.7090   15.8687 H         1 0EL         0.0582
     85 H28         7.3375   33.4728   15.1649 H         1 0EL         0.0291
     86 H29         7.0054   31.8127   14.5643 H         1 0EL         0.0291
     87 H30         6.5688   31.0272   16.8274 H         1 0EL         0.0302
     88 H31         5.5022   33.0787   17.7354 H         1 0EL         0.0268
     89 H32         7.0845   33.9278   17.6906 H         1 0EL         0.0268
     90 H33         8.9663   32.7820   16.6864 H         1 0EL         0.0268
     91 H34         8.7885   31.1398   15.9805 H         1 0EL         0.0268
     92 H35         6.3833   31.4461   19.3560 H         1 0EL         0.0265
     93 H36         6.6524   33.1117   19.9726 H         1 0EL         0.0265
     94 H37         9.9379   31.0345   18.1735 H         1 0EL         0.0265
     95 H38         8.3395   30.2186   18.2534 H         1 0EL         0.0265
     96 H39         8.6654   31.6287   20.2459 H         1 0EL         0.0265
     97 H40         8.9863   33.0588   19.2073 H         1 0EL         0.0265
     98 H41         5.8169   34.2102   13.4963 H         1 0EL         0.0618
     99 H42         5.0363   32.7057   11.9174 H         1 0EL         0.2099
    100 H43         3.5072   34.6415   14.6133 H         1 0EL         0.0318
    101 H44         2.9227   33.2834   13.5931 H         1 0EL         0.0318
    102 H45         4.4717   35.0690   11.9909 H         1 0EL         0.0539
    103 H46         2.5170   33.3911   11.6418 H         1 0EL         0.0295
    104 H47         2.6155   34.8850   10.6492 H         1 0EL         0.0295
    105 H48         1.1162   36.0353   12.2831 H         1 0EL         0.0297
    106 H49        -0.9641   34.8271   11.6626 H         1 0EL         0.0232
    107 H50         0.0127   33.4017   11.1721 H         1 0EL         0.0232
    108 H51         0.1652   34.9481   10.2710 H         1 0EL         0.0232
    109 H52         1.6761   34.6535   14.2769 H         1 0EL         0.0232
    110 H53         0.8624   33.2414   13.5217 H         1 0EL         0.0232
    111 H54        -0.0946   34.6918   13.9770 H         1 0EL         0.0232
    112 H55         3.6614   37.0210   11.1902 H         1 0EL         0.1875
    113 H56         3.6684   38.8326   13.4463 H         1 0EL         0.0726
    114 H57         3.0035   39.7434   10.6460 H         1 0EL         0.0305
    115 H58         4.6340   39.0799   11.0035 H         1 0EL         0.0305
    116 H59         5.2232   41.1150   11.7262 H         1 0EL         0.0269
    117 H60         4.0872   40.8938   13.1000 H         1 0EL         0.0269
    118 H61         2.2616   41.8425   11.7172 H         1 0EL         0.0317
    119 H62         3.4311   42.1063   10.3795 H         1 0EL         0.0317
    120 H63         4.5080   43.2754   12.7698 H         1 0EL         0.0813
    121 H64         2.8037   43.8142   12.5918 H         1 0EL         0.0813
    122 H65         4.3228   45.2580   11.4810 H         1 0EL         0.1994
    123 H66         3.3376   44.5238   10.3857 H         1 0EL         0.1994
    124 H67         4.8994   44.0301   10.5488 H         1 0EL         0.1994
@<TRIPOS>BOND
     1    9    8 1  
     2    9   12 1  
     3   10    9 1  
     4   10   11 2  
     5   12   13 1  
     6   13   14 ar 
     7   13   15 ar 
     8   15   17 ar 
     9   17   18 ar 
    10   16   18 ar 
    11   14   16 ar 
    12   20   19 1  
    13   20   23 1  
    14   21   20 1  
    15   21   22 2  
    16   23   24 1  
    17   24   25 1  
    18   24   26 2  
    19   26   28 1  
    20   28   27 2  
    21   25   27 1  
    22   19   10 am 
    23   48   49 1  
    24   49   52 1  
    25   49   50 1  
    26   50   51 ar 
    27   52   53 1  
    28   53   54 1  
    29   54   55 1  
    30   55   56 1  
    31    2    1 2  
    32    2    3 1  
    33    8    2 am 
    34    3    4 1  
    35    4    5 1  
    36    4    6 1  
    37    4    7 1  
    38   29   21 am 
    39   30   29 1  
    40   30   31 1  
    41   38   30 1  
    42   31   32 1  
    43   32   33 1  
    44   32   34 1  
    45   33   35 1  
    46   34   36 1  
    47   35   37 1  
    48   36   37 1  
    49   38   39 1  
    50   40   38 1  
    51   41   40 1  
    52   41   42 1  
    53   46   41 1  
    54   42   43 1  
    55   43   44 1  
    56   43   45 1  
    57   46   47 2  
    58   46   48 am 
    59   50   57 ar 
    60    5   58 1  
    61    5   59 1  
    62    5   60 1  
    63    6   61 1  
    64    6   62 1  
    65    6   63 1  
    66    7   64 1  
    67    7   65 1  
    68    7   66 1  
    69    8   67 1  
    70    9   68 1  
    71   12   69 1  
    72   12   70 1  
    73   14   71 1  
    74   15   72 1  
    75   16   73 1  
    76   17   74 1  
    77   18   75 1  
    78   19   76 1  
    79   20   77 1  
    80   23   78 1  
    81   23   79 1  
    82   25   80 1  
    83   26   81 1  
    84   27   82 1  
    85   29   83 1  
    86   30   84 1  
    87   31   85 1  
    88   31   86 1  
    89   32   87 1  
    90   33   88 1  
    91   33   89 1  
    92   34   90 1  
    93   34   91 1  
    94   35   92 1  
    95   35   93 1  
    96   36   94 1  
    97   36   95 1  
    98   37   96 1  
    99   37   97 1  
   100   38   98 1  
   101   39   99 1  
   102   40  100 1  
   103   40  101 1  
   104   41  102 1  
   105   42  103 1  
   106   42  104 1  
   107   43  105 1  
   108   44  106 1  
   109   44  107 1  
   110   44  108 1  
   111   45  109 1  
   112   45  110 1  
   113   45  111 1  
   114   48  112 1  
   115   49  113 1  
   116   52  114 1  
   117   52  115 1  
   118   53  116 1  
   119   53  117 1  
   120   54  118 1  
   121   54  119 1  
   122   55  120 1  
   123   55  121 1  
   124   56  122 1  
   125   56  123 1  
   126   56  124 1  
@<TRIPOS>SUBSTRUCTURE
     1 0EL         1

