1zsb_ligand
  -I-interpret- 

 19 19  0  0  0  0  0  0  0  0999 V2000
   -5.1340    2.1990   15.9600 C   0  0  0  0  0
   -4.7810    4.3180   14.5450 C   0  0  0  0  0
   -6.0810    5.9690   13.2980 C   0  0  0  0  0
   -6.0920    7.0070   12.1240 C   0  0  0  0  0
   -5.3670   -0.4460   16.5460 N   0  0  0  0  0
   -3.7310    3.4610   14.8540 N   0  0  0  0  0
   -3.8100    2.3000   15.6230 N   0  0  0  0  0
   -4.9530    5.5040   13.8440 N   0  0  0  0  0
   -5.5460    1.1270   18.3740 O   0  0  0  0  0
   -7.3980    1.1650   16.8250 O   0  0  0  0  0
   -7.2150    5.6130   13.6650 O   0  0  0  0  0
   -5.9610    0.9490   16.9910 S   0  0  0  0  0
   -6.0580    3.4610   15.2370 S   0  0  0  0  0
   -6.5900    6.5696   11.2587 H   0  0  0  0  0
   -6.6269    7.9032   12.4381 H   0  0  0  0  0
   -5.0667    7.2676   11.8615 H   0  0  0  0  0
   -4.8211   -1.0014   17.2048 H   0  0  0  0  0
   -5.5294   -0.7911   15.6000 H   0  0  0  0  0
   -4.1236    6.0873   13.7329 H   0  0  0  0  0
  1 13  4  0  0  0
  1 12  1  0  0  0
  1  7  4  0  0  0
  7  6  4  0  0  0
  6  2  4  0  0  0
  2  8  1  0  0  0
  2 13  4  0  0  0
  8  3  1  0  0  0
  3 11  2  0  0  0
  3  4  1  0  0  0
 12  5  1  0  0  0
 12  9  2  0  0  0
 12 10  2  0  0  0
  4 14  1  0  0  0
  4 15  1  0  0  0
  4 16  1  0  0  0
  5 17  1  0  0  0
  5 18  1  0  0  0
  8 19  1  0  0  0
M  END
$$$$
