6evq_ligand
  -I-interpret- 

 41 43  0  0  0  0  0  0  0  0999 V2000
    2.7680   -1.9870  -11.3690 N   0  0  0  0  0
    4.1870   -4.6870   -9.0040 S   0  0  0  0  0
   -0.3070   -8.7650  -10.3670 O   0  0  0  0  0
    3.2840   -3.7070  -10.1280 C   0  0  0  0  0
    3.1840   -7.5110   -8.9690 O   0  0  0  0  0
    4.7790   -1.6250   -9.9250 C   0  0  0  0  0
    1.8760   -3.0050  -11.5400 N   0  0  0  0  0
    4.5530   -1.1700   -8.4530 C   0  0  0  0  0
    2.2160   -4.1060  -10.7310 N   0  0  0  0  0
    5.7300   -1.6910   -7.6260 C   0  0  0  0  0
    3.6390   -2.4580  -10.4450 N   0  0  0  0  0
    6.8170   -2.0900   -8.6060 C   0  0  0  0  0
    1.1790   -7.0670   -8.0590 N   0  0  0  0  0
    6.1330   -2.3440   -9.9570 C   0  0  0  0  0
    2.8480   -5.3550   -7.9760 C   0  0  0  0  0
    2.4410   -6.7400   -8.3880 C   0  0  0  0  0
    3.2460   -5.3880   -6.5180 C   0  0  0  0  0
    0.6810   -8.4290   -8.0690 C   0  0  0  0  0
   -0.4860   -8.5470   -8.9940 C   0  0  0  0  0
   -1.7790   -8.4530   -8.5990 C   0  0  0  0  0
   -2.5420   -8.6190   -9.7390 C   0  0  0  0  0
   -1.6650   -8.7990  -10.7680 C   0  0  0  0  0
    4.8021   -0.7709  -10.6019 H   0  0  0  0  0
    3.6126   -1.5673   -8.0709 H   0  0  0  0  0
    4.4966   -0.0831   -8.3939 H   0  0  0  0  0
    5.4271   -2.5431   -7.0175 H   0  0  0  0  0
    6.0904   -0.9234   -6.9412 H   0  0  0  0  0
    7.3362   -2.9848   -8.2625 H   0  0  0  0  0
    7.5645   -1.3016   -8.6946 H   0  0  0  0  0
    0.5397   -6.3195   -7.7888 H   0  0  0  0  0
    6.7477   -1.9667  -10.7743 H   0  0  0  0  0
    5.9953   -3.4127  -10.1215 H   0  0  0  0  0
    2.0002   -4.6852   -8.1198 H   0  0  0  0  0
    2.3988   -5.7219   -5.9189 H   0  0  0  0  0
    4.0802   -6.0771   -6.3859 H   0  0  0  0  0
    3.5450   -4.3887   -6.2016 H   0  0  0  0  0
    0.3656   -8.7002   -7.0615 H   0  0  0  0  0
    1.4737   -9.0954   -8.4091 H   0  0  0  0  0
   -2.1435   -8.2811   -7.5862 H   0  0  0  0  0
   -3.6301   -8.6082   -9.8033 H   0  0  0  0  0
   -1.9792   -8.9542  -11.8001 H   0  0  0  0  0
  1  7  4  0  0  0
 11  1  4  0  0  0
  2  4  1  0  0  0
 15  2  1  0  0  0
 19  3  4  0  0  0
  3 22  4  0  0  0
  4  9  4  0  0  0
  4 11  4  0  0  0
 16  5  2  0  0  0
  6  8  1  0  0  0
 11  6  1  0  0  0
  6 14  1  0  0  0
  9  7  4  0  0  0
  8 10  1  0  0  0
 12 10  1  0  0  0
 14 12  1  0  0  0
 13 16  1  0  0  0
 18 13  1  0  0  0
 16 15  1  0  0  0
 15 17  1  0  0  0
 18 19  1  0  0  0
 19 20  4  0  0  0
 20 21  4  0  0  0
 21 22  4  0  0  0
  6 23  1  0  0  0
  8 24  1  0  0  0
  8 25  1  0  0  0
 10 26  1  0  0  0
 10 27  1  0  0  0
 12 28  1  0  0  0
 12 29  1  0  0  0
 13 30  1  0  0  0
 14 31  1  0  0  0
 14 32  1  0  0  0
 15 33  1  0  0  0
 17 34  1  0  0  0
 17 35  1  0  0  0
 17 36  1  0  0  0
 18 37  1  0  0  0
 18 38  1  0  0  0
 20 39  1  0  0  0
 21 40  1  0  0  0
 22 41  1  0  0  0
M  END
$$$$
