4a4g_ligand
  -I-interpret- 

 33 32  0  0  0  0  0  0  0  0999 V2000
    9.7290   -1.5210    1.8900 C   0  0  0  0  0
   10.0350   -3.6920    0.7170 C   0  0  0  0  0
   13.8110   -8.0090   -0.9830 N   0  3  0  0  0
   14.3100   -7.4700    0.2670 C   0  0  0  0  0
   13.9870   -5.9690    0.3680 C   0  0  0  0  0
   14.3010   -5.3420    1.7210 C   0  0  0  0  0
   13.9780   -3.8640    1.7320 C   0  0  0  0  0
   12.5680   -3.6490    1.4650 N   0  0  0  0  0
   11.8380   -2.6250    1.8470 C   0  0  0  0  0
   12.3350   -1.6400    2.5440 N   0  0  0  0  0
   10.5860   -2.6100    1.5060 N   0  0  0  0  0
   13.6600   -8.2320    1.3850 C   0  0  0  0  0
   14.3620   -8.8570    2.1840 O   0  0  0  0  0
   12.4300   -8.2790    1.4220 O   0  0  0  0  0
    9.6982   -1.4506    2.9773 H   0  0  0  0  0
   10.1176   -0.5909    1.4753 H   0  0  0  0  0
    8.7240   -1.6990    1.5075 H   0  0  0  0  0
   10.5657   -3.7540   -0.2331 H   0  0  0  0  0
   10.1485   -4.6303    1.2600 H   0  0  0  0  0
    8.9775   -3.5033    0.5323 H   0  0  0  0  0
   14.2376   -7.5079   -1.7623 H   0  0  0  0  0
   14.0478   -8.9993   -1.0435 H   0  0  0  0  0
   12.7978   -7.8977   -1.0195 H   0  0  0  0  0
   15.3934   -7.5755    0.3237 H   0  0  0  0  0
   12.9137   -5.8633    0.2098 H   0  0  0  0  0
   14.6069   -5.4599   -0.3700 H   0  0  0  0  0
   15.3653   -5.4655    1.9214 H   0  0  0  0  0
   13.6940   -5.8349    2.4804 H   0  0  0  0  0
   14.5642   -3.3680    0.9584 H   0  0  0  0  0
   14.2182   -3.4567    2.7141 H   0  0  0  0  0
   12.0923   -4.3700    0.9226 H   0  0  0  0  0
   13.3198   -1.6491    2.8095 H   0  0  0  0  0
   15.2880   -8.6914    1.9923 H   0  0  0  0  0
 11  1  1  0  0  0
 11  2  1  0  0  0
  4  3  1  0  0  0
  5  4  1  0  0  0
  4 12  1  0  0  0
  6  5  1  0  0  0
  7  6  1  0  0  0
  8  7  1  0  0  0
  9  8  1  0  0  0
  9 10  2  0  0  0
  9 11  1  0  0  0
 12 13  1  0  0  0
 12 14  2  0  0  0
  1 15  1  0  0  0
  1 16  1  0  0  0
  1 17  1  0  0  0
  2 18  1  0  0  0
  2 19  1  0  0  0
  2 20  1  0  0  0
  3 21  1  0  0  0
  3 22  1  0  0  0
  3 23  1  0  0  0
  4 24  1  0  0  0
  5 25  1  0  0  0
  5 26  1  0  0  0
  6 27  1  0  0  0
  6 28  1  0  0  0
  7 29  1  0  0  0
  7 30  1  0  0  0
  8 31  1  0  0  0
 10 32  1  0  0  0
 13 33  1  0  0  0
M  END
$$$$
