4jxv_ligand
  -I-interpret- 

 36 37  0  0  0  0  0  0  0  0999 V2000
   23.4070    6.1610   10.4880 C   0  0  0  0  0
   23.2750    5.9920    9.1200 C   0  0  0  0  0
   22.7130    4.8140    8.6250 C   0  0  0  0  0
   22.5730    4.5240    7.1180 C   0  0  0  0  0
   21.4440    4.1730    6.7220 O   0  0  0  0  0
   23.5660    4.5940    6.3770 O   0  0  0  0  0
   22.2770    3.8330    9.5100 C   0  0  0  0  0
   22.3940    4.0120   10.8700 C   0  0  0  0  0
   22.9460    5.1710   11.3510 C   0  0  0  0  0
   23.0550    5.3100   12.8510 C   0  0  0  0  0
   24.1890    4.3590   13.2450 C   0  0  0  0  0
   24.6760    4.7240   14.5610 N   0  0  0  0  0
   25.9250    5.7100   14.4130 S   0  0  0  0  0
   25.7970    6.5290   13.1610 O   0  0  0  0  0
   27.1860    4.9080   14.3910 O   0  0  0  0  0
   25.8290    6.7340   15.8040 C   0  0  0  0  0
   25.8040    8.0710   15.6610 C   0  0  0  0  0
   25.7210    8.7600   16.8070 C   0  0  0  0  0
   25.6470    7.6440   18.0890 S   0  0  0  0  0
   25.7400    6.3030   17.1330 C   0  0  0  0  0
   25.6930    4.9150   17.7260 C   0  0  0  0  0
   25.5520    4.8530   18.9730 O   0  0  0  0  0
   25.7430    3.9530   16.9520 O   0  0  0  0  0
   23.8692    7.0640   10.8867 H   0  0  0  0  0
   23.6072    6.7724    8.4353 H   0  0  0  0  0
   20.8282    4.1902    7.4583 H   0  0  0  0  0
   21.8383    2.9134    9.1227 H   0  0  0  0  0
   22.0509    3.2393   11.5580 H   0  0  0  0  0
   22.1202    5.0599   13.3527 H   0  0  0  0  0
   23.2614    6.3373   13.1514 H   0  0  0  0  0
   24.9993    4.4331   12.5198 H   0  0  0  0  0
   23.8196    3.3336   13.2613 H   0  0  0  0  0
   24.2822    4.4013   15.4448 H   0  0  0  0  0
   25.8479    8.5573   14.6865 H   0  0  0  0  0
   25.7039    9.8458   16.9015 H   0  0  0  0  0
   25.5448    5.7410   19.3376 H   0  0  0  0  0
  1  2  4  0  0  0
  1  9  4  0  0  0
  2  3  4  0  0  0
  3  4  1  0  0  0
  3  7  4  0  0  0
  4  5  1  0  0  0
  4  6  2  0  0  0
  7  8  4  0  0  0
  8  9  4  0  0  0
  9 10  1  0  0  0
 10 11  1  0  0  0
 11 12  1  0  0  0
 12 13  1  0  0  0
 13 14  2  0  0  0
 13 15  2  0  0  0
 13 16  1  0  0  0
 16 17  4  0  0  0
 16 20  4  0  0  0
 17 18  4  0  0  0
 18 19  4  0  0  0
 19 20  4  0  0  0
 20 21  1  0  0  0
 21 22  1  0  0  0
 21 23  2  0  0  0
  1 24  1  0  0  0
  2 25  1  0  0  0
  5 26  1  0  0  0
  7 27  1  0  0  0
  8 28  1  0  0  0
 10 29  1  0  0  0
 10 30  1  0  0  0
 11 31  1  0  0  0
 11 32  1  0  0  0
 12 33  1  0  0  0
 17 34  1  0  0  0
 18 35  1  0  0  0
 22 36  1  0  0  0
M  END
$$$$
