5ni8_ligand
  -I-interpret- 

 58 61  0  0  0  0  0  0  0  0999 V2000
  -24.0380   11.8220  -13.7230 C   0  0  0  0  0
  -25.1580   12.4240  -14.2620 C   0  0  0  0  0
  -23.8110   10.4770  -13.9400 C   0  0  0  0  0
  -24.7020    9.7480  -14.7040 C   0  0  0  0  0
  -28.1700   -0.1320  -14.4500 C   0  0  0  0  0
  -26.7370   -1.0270  -12.7460 C   0  0  0  0  0
  -27.6400   -1.0100  -15.3720 C   0  0  0  0  0
  -26.2000   -1.9130  -13.6600 C   0  0  0  0  0
  -28.8940    4.8220  -14.6630 C   0  0  0  0  0
  -29.9510    8.4150  -18.1000 C   0  0  0  0  0
  -27.1490    6.2920  -14.3880 C   0  0  0  0  0
  -28.8090    6.8960  -16.1560 C   0  0  0  0  0
  -28.2970    6.0360  -15.1080 C   0  0  0  0  0
  -26.6680   -1.8960  -14.9610 C   0  0  0  0  0
  -28.5950    8.2670  -16.2590 C   0  0  0  0  0
  -28.2090    4.1880  -13.6530 C   0  0  0  0  0
  -27.6760    2.1570  -12.3690 C   0  0  0  0  0
  -28.3080    0.8090  -12.1630 C   0  0  0  0  0
  -30.2220    7.0620  -18.0880 C   0  0  0  0  0
  -29.6360    6.3070  -17.0980 C   0  0  0  0  0
  -26.0550   11.6920  -15.0160 C   0  0  0  0  0
  -27.7290   -0.1490  -13.1410 C   0  0  0  0  0
  -25.8260   10.3490  -15.2390 C   0  0  0  0  0
  -24.4210   -0.9290  -16.9780 C   0  0  0  0  0
  -26.7620    9.5490  -16.0830 C   0  0  0  0  0
  -24.3660   -2.3790  -16.5240 C   0  0  0  0  0
  -29.1500    9.0340  -17.2170 N   0  0  0  0  0
  -28.5530    3.0110  -13.0100 N   0  0  0  0  0
  -26.5410    2.3730  -11.9790 O   0  0  0  0  0
  -25.7800   -4.2660  -15.3910 O   0  0  0  0  0
  -26.7770   -3.0300  -17.3510 O   0  0  0  0  0
  -27.8010    8.9340  -15.3250 O   0  0  0  0  0
  -26.8160    5.0900  -13.2070 S   0  0  0  0  0
  -25.9790   -3.0380  -16.1370 S   0  0  0  0  0
  -23.3357   12.4063  -13.1284 H   0  0  0  0  0
  -25.3358   13.4857  -14.0911 H   0  0  0  0  0
  -22.9336    9.9932  -13.5108 H   0  0  0  0  0
  -24.5169    8.6894  -14.8865 H   0  0  0  0  0
  -28.9392    0.5775  -14.7551 H   0  0  0  0  0
  -26.3795   -1.0203  -11.7163 H   0  0  0  0  0
  -27.9835   -1.0032  -16.4064 H   0  0  0  0  0
  -25.4205   -2.6136  -13.3606 H   0  0  0  0  0
  -29.8173    4.4280  -15.0877 H   0  0  0  0  0
  -30.4174    9.0211  -18.8767 H   0  0  0  0  0
  -26.5186    7.1661  -14.5513 H   0  0  0  0  0
  -29.3855    0.8808  -12.3113 H   0  0  0  0  0
  -28.1134    0.4621  -11.1481 H   0  0  0  0  0
  -30.8750    6.6088  -18.8339 H   0  0  0  0  0
  -29.8246    5.2343  -17.0547 H   0  0  0  0  0
  -26.9398   12.1729  -15.4330 H   0  0  0  0  0
  -25.0381   -0.8531  -17.8733 H   0  0  0  0  0
  -24.8519   -0.3175  -16.1852 H   0  0  0  0  0
  -23.4123   -0.5806  -17.1998 H   0  0  0  0  0
  -26.1857    8.7579  -16.5626 H   0  0  0  0  0
  -27.2274   10.2262  -16.7992 H   0  0  0  0  0
  -23.7590   -2.4248  -15.6198 H   0  0  0  0  0
  -23.9486   -2.9703  -17.3390 H   0  0  0  0  0
  -29.5395    2.7518  -13.0094 H   0  0  0  0  0
  2  1  4  0  0  0
  3  1  4  0  0  0
 21  2  4  0  0  0
  4  3  4  0  0  0
 23  4  4  0  0  0
  7  5  4  0  0  0
  5 22  4  0  0  0
  8  6  4  0  0  0
  6 22  4  0  0  0
 14  7  4  0  0  0
 14  8  4  0  0  0
  9 13  4  0  0  0
 16  9  4  0  0  0
 19 10  4  0  0  0
 27 10  4  0  0  0
 11 13  4  0  0  0
 33 11  4  0  0  0
 13 12  1  0  0  0
 12 15  4  0  0  0
 12 20  4  0  0  0
 34 14  1  0  0  0
 15 27  4  0  0  0
 15 32  1  0  0  0
 28 16  1  0  0  0
 16 33  4  0  0  0
 18 17  1  0  0  0
 17 28  1  0  0  0
 17 29  2  0  0  0
 22 18  1  0  0  0
 20 19  4  0  0  0
 23 21  4  0  0  0
 25 23  1  0  0  0
 26 24  1  0  0  0
 32 25  1  0  0  0
 26 34  1  0  0  0
 34 30  2  0  0  0
 34 31  2  0  0  0
  1 35  1  0  0  0
  2 36  1  0  0  0
  3 37  1  0  0  0
  4 38  1  0  0  0
  5 39  1  0  0  0
  6 40  1  0  0  0
  7 41  1  0  0  0
  8 42  1  0  0  0
  9 43  1  0  0  0
 10 44  1  0  0  0
 11 45  1  0  0  0
 18 46  1  0  0  0
 18 47  1  0  0  0
 19 48  1  0  0  0
 20 49  1  0  0  0
 21 50  1  0  0  0
 24 51  1  0  0  0
 24 52  1  0  0  0
 24 53  1  0  0  0
 25 54  1  0  0  0
 25 55  1  0  0  0
 26 56  1  0  0  0
 26 57  1  0  0  0
 28 58  1  0  0  0
M  END
$$$$
