4u58_ligand
  -I-interpret- 

 47 48  0  0  0  0  0  0  0  0999 V2000
    0.6220   31.2290   13.2400 C   0  0  0  0  0
    0.0690   29.9960   13.5680 C   0  0  0  0  0
   -1.1920   29.7070   13.0620 C   0  0  0  0  0
   -1.8480   30.5630   12.2970 N   0  0  0  0  0
   -1.3390   31.7330   11.9720 C   0  0  0  0  0
   -0.0930   32.1120   12.4410 C   0  0  0  0  0
    0.5060   33.4630   12.0730 C   0  0  0  0  0
    0.1640   34.0870   10.8760 C   0  0  0  0  0
    0.7270   35.3150   10.5510 C   0  0  0  0  0
    1.4020   34.0650   12.9420 C   0  0  0  0  0
    1.9600   35.2950   12.6150 C   0  0  0  0  0
    1.6190   35.9220   11.4310 C   0  0  0  0  0
    2.2680   37.2610   11.0900 C   0  0  0  0  0
    2.2420   37.6740    9.9810 O   0  0  0  0  0
    2.9470   38.0080   12.1250 N   0  0  0  0  0
    3.5780   39.2640   11.7970 C   0  0  0  0  0
    5.0840   39.0350   11.6480 C   0  0  0  0  0
    5.7320   39.7850   10.9950 O   0  0  0  0  0
    5.7260   37.8970   12.2850 N   0  0  0  0  0
    3.3110   40.2580   12.9150 C   0  0  0  0  0
    1.8180   40.5600   13.0470 C   0  0  0  0  0
    1.2740   41.4360   11.9210 C   0  0  0  0  0
    0.8290   42.8130   12.4190 C   0  0  0  0  0
    0.8820   43.7760   11.3270 N   0  3  0  0  0
    1.6113   31.5011   13.6079 H   0  0  0  0  0
    0.6038   29.2845   14.1972 H   0  0  0  0  0
   -1.6530   28.7489   13.3020 H   0  0  0  0  0
   -1.9031   32.4083   11.3287 H   0  0  0  0  0
   -0.5437   33.6132   10.1957 H   0  0  0  0  0
    0.4711   35.8017    9.6099 H   0  0  0  0  0
    1.6682   33.5754   13.8788 H   0  0  0  0  0
    2.6693   35.7673   13.2947 H   0  0  0  0  0
    2.9799   37.6502   13.0796 H   0  0  0  0  0
    3.1777   39.6585   10.8631 H   0  0  0  0  0
    6.7282   37.7464   12.1696 H   0  0  0  0  0
    5.1743   37.2491   12.8474 H   0  0  0  0  0
    3.8333   41.1867   12.6850 H   0  0  0  0  0
    3.6615   39.8270   13.8528 H   0  0  0  0  0
    1.6738   41.1006   13.9824 H   0  0  0  0  0
    1.2862   39.6093   13.0095 H   0  0  0  0  0
    0.4061   40.9350   11.4922 H   0  0  0  0  0
    2.0705   41.5817   11.1912 H   0  0  0  0  0
    1.4947   43.1387   13.2183 H   0  0  0  0  0
   -0.1933   42.7476   12.7914 H   0  0  0  0  0
    0.5842   44.6904   11.6669 H   0  0  0  0  0
    1.8375   43.8373   10.9754 H   0  0  0  0  0
    0.2613   43.4721   10.5768 H   0  0  0  0  0
  1  2  4  0  0  0
  1  6  4  0  0  0
  2  3  4  0  0  0
  3  4  4  0  0  0
  4  5  4  0  0  0
  5  6  4  0  0  0
  6  7  1  0  0  0
  7  8  4  0  0  0
  7 10  4  0  0  0
  8  9  4  0  0  0
  9 12  4  0  0  0
 10 11  4  0  0  0
 11 12  4  0  0  0
 12 13  1  0  0  0
 13 14  2  0  0  0
 13 15  1  0  0  0
 15 16  1  0  0  0
 16 17  1  0  0  0
 16 20  1  0  0  0
 17 18  2  0  0  0
 17 19  1  0  0  0
 20 21  1  0  0  0
 21 22  1  0  0  0
 22 23  1  0  0  0
 23 24  1  0  0  0
  1 25  1  0  0  0
  2 26  1  0  0  0
  3 27  1  0  0  0
  5 28  1  0  0  0
  8 29  1  0  0  0
  9 30  1  0  0  0
 10 31  1  0  0  0
 11 32  1  0  0  0
 15 33  1  0  0  0
 16 34  1  0  0  0
 19 35  1  0  0  0
 19 36  1  0  0  0
 20 37  1  0  0  0
 20 38  1  0  0  0
 21 39  1  0  0  0
 21 40  1  0  0  0
 22 41  1  0  0  0
 22 42  1  0  0  0
 23 43  1  0  0  0
 23 44  1  0  0  0
 24 45  1  0  0  0
 24 46  1  0  0  0
 24 47  1  0  0  0
M  END
$$$$
