5cap_ligand
  -I-interpret- 

 55 57  0  0  0  0  0  0  0  0999 V2000
  -54.2690    1.3930  -21.0150 C   0  0  0  0  0
  -55.2370    2.3870  -21.2280 C   0  0  0  0  0
  -52.2580   -1.2760  -22.4910 C   0  0  0  0  0
  -55.4830    1.7980  -23.4800 C   0  0  0  0  0
  -54.4940    0.8090  -23.3500 C   0  0  0  0  0
  -53.8870    0.5840  -22.1080 C   0  0  0  0  0
  -52.6970   -2.7290  -22.3600 C   0  0  0  0  0
  -50.8160   -0.9720  -22.9060 C   0  0  0  0  0
  -53.5400    0.9720  -19.9470 N   0  0  0  0  0
  -51.8030   -0.6690  -19.3070 C   0  0  0  0  0
  -52.7500   -0.0060  -20.2890 C   0  0  0  0  0
  -55.7980    2.5480  -22.4190 N   0  0  0  0  0
  -52.9320   -0.2920  -21.6260 N   0  0  0  0  0
  -56.1430    2.0630  -24.7050 N   0  0  0  0  0
  -56.1600    1.2080  -25.7970 C   0  0  0  0  0
  -57.2130    1.1600  -26.7440 C   0  0  0  0  0
  -57.1070    0.2090  -27.7750 C   0  0  0  0  0
  -56.0250   -0.6060  -27.8560 N   0  0  0  0  0
  -55.0790   -0.5330  -26.9170 C   0  0  0  0  0
  -55.1370    0.3750  -25.9490 N   0  0  0  0  0
  -53.9140   -1.2090  -26.9400 O   0  0  0  0  0
  -53.7850   -2.5970  -27.1580 C   0  0  0  0  0
  -52.3440   -2.8720  -27.5790 C   0  0  0  0  0
  -51.3790   -2.7980  -26.3890 C   0  0  0  0  0
  -52.4070   -4.3340  -28.0240 C   0  0  0  0  0
  -51.7840   -1.7550  -28.9280 S   0  0  0  0  0
  -52.8290   -1.5520  -29.8710 O   0  0  0  0  0
  -50.5550   -2.2500  -29.4160 O   0  0  0  0  0
  -51.4920   -0.1300  -28.2220 C   0  0  0  0  0
  -55.5317    3.0356  -20.4031 H   0  0  0  0  0
  -52.7273   -1.0673  -23.4524 H   0  0  0  0  0
  -54.1989    0.2165  -24.2160 H   0  0  0  0  0
  -52.5756   -3.2318  -23.3195 H   0  0  0  0  0
  -52.0843   -3.2259  -21.6079 H   0  0  0  0  0
  -53.7441   -2.7652  -22.0593 H   0  0  0  0  0
  -50.7884   -0.0320  -23.4572 H   0  0  0  0  0
  -50.1924   -0.8910  -22.0157 H   0  0  0  0  0
  -50.4442   -1.7773  -23.5396 H   0  0  0  0  0
  -51.1083    0.0743  -18.9158 H   0  0  0  0  0
  -52.3761   -1.1000  -18.4861 H   0  0  0  0  0
  -51.2464   -1.4560  -19.8158 H   0  0  0  0  0
  -56.6427    2.9481  -24.7904 H   0  0  0  0  0
  -58.0689    1.8316  -26.6764 H   0  0  0  0  0
  -57.9018    0.1259  -28.5162 H   0  0  0  0  0
  -54.4751   -2.9233  -27.9361 H   0  0  0  0  0
  -54.0244   -3.1466  -26.2477 H   0  0  0  0  0
  -51.4233   -1.8020  -25.9483 H   0  0  0  0  0
  -51.6659   -3.5397  -25.6435 H   0  0  0  0  0
  -50.3644   -2.9999  -26.7325 H   0  0  0  0  0
  -52.7308   -4.9534  -27.1876 H   0  0  0  0  0
  -53.1159   -4.4320  -28.8462 H   0  0  0  0  0
  -51.4190   -4.6548  -28.3542 H   0  0  0  0  0
  -51.1981    0.5607  -29.0124 H   0  0  0  0  0
  -52.4053    0.2275  -27.7464 H   0  0  0  0  0
  -50.6960   -0.1952  -27.4802 H   0  0  0  0  0
  1  2  4  0  0  0
  6  1  4  0  0  0
  1  9  4  0  0  0
  2 12  4  0  0  0
  3  7  1  0  0  0
  3  8  1  0  0  0
 13  3  1  0  0  0
  5  4  4  0  0  0
  4 12  4  0  0  0
  4 14  1  0  0  0
  6  5  4  0  0  0
  6 13  4  0  0  0
  9 11  4  0  0  0
 11 10  1  0  0  0
 11 13  4  0  0  0
 14 15  1  0  0  0
 15 16  4  0  0  0
 15 20  4  0  0  0
 16 17  4  0  0  0
 17 18  4  0  0  0
 18 19  4  0  0  0
 19 20  4  0  0  0
 19 21  1  0  0  0
 21 22  1  0  0  0
 22 23  1  0  0  0
 23 24  1  0  0  0
 23 25  1  0  0  0
 23 26  1  0  0  0
 26 27  2  0  0  0
 26 28  2  0  0  0
 26 29  1  0  0  0
  2 30  1  0  0  0
  3 31  1  0  0  0
  5 32  1  0  0  0
  7 33  1  0  0  0
  7 34  1  0  0  0
  7 35  1  0  0  0
  8 36  1  0  0  0
  8 37  1  0  0  0
  8 38  1  0  0  0
 10 39  1  0  0  0
 10 40  1  0  0  0
 10 41  1  0  0  0
 14 42  1  0  0  0
 16 43  1  0  0  0
 17 44  1  0  0  0
 22 45  1  0  0  0
 22 46  1  0  0  0
 24 47  1  0  0  0
 24 48  1  0  0  0
 24 49  1  0  0  0
 25 50  1  0  0  0
 25 51  1  0  0  0
 25 52  1  0  0  0
 29 53  1  0  0  0
 29 54  1  0  0  0
 29 55  1  0  0  0
M  END
$$$$
