1erb_ligand
  -I-interpret- 

 57 57  0  0  0  0  0  0  0  0999 V2000
   30.0350   21.4960   45.3510 C   0  0  0  0  0
   29.5360   21.5490   43.9000 C   0  0  0  0  0
   30.0000   20.3840   43.0340 C   0  0  0  0  0
   31.2680   19.7840   43.6060 C   0  0  0  0  0
   30.9700   19.3160   45.0280 C   0  0  0  0  0
   30.2620   20.0880   45.9100 C   0  0  0  0  0
   30.3430   19.5080   47.2550 C   0  0  0  0  0
   31.6130   19.5150   47.7410 C   0  0  0  0  0
   31.6720   19.1860   49.1630 C   0  0  0  0  0
   32.9770   19.1300   49.5110 C   0  0  0  0  0
   33.0790   18.9470   50.9230 C   0  0  0  0  0
   34.4980   18.8310   51.1830 C   0  0  0  0  0
   35.0440   18.6470   52.4650 C   0  0  0  0  0
   36.1710   18.4870   52.6170 C   0  0  0  0  0
   36.5720   18.2850   53.9970 C   0  0  0  0  0
   35.6070   18.3500   54.9850 O   0  0  0  0  0
   37.6270   17.9910   54.1300 N   0  0  0  0  0
   28.5990   21.6060   45.8100 C   0  0  0  0  0
   30.7830   22.7870   45.6750 C   0  0  0  0  0
   31.5600   17.9330   45.2190 C   0  0  0  0  0
   30.3050   18.9370   49.7900 C   0  0  0  0  0
   34.0830   18.7640   53.5240 C   0  0  0  0  0
   37.9900   16.7390   55.0200 C   0  0  0  0  0
   38.3520   17.4810   56.2650 C   0  0  0  0  0
   29.9386   22.4592   43.4555 H   0  0  0  0  0
   28.4472   21.5097   43.9337 H   0  0  0  0  0
   30.1983   20.7448   42.0247 H   0  0  0  0  0
   29.2213   19.6216   43.0123 H   0  0  0  0  0
   32.0655   20.5270   43.6139 H   0  0  0  0  0
   31.5957   18.9435   42.9942 H   0  0  0  0  0
   29.4848   19.1168   47.8014 H   0  0  0  0  0
   32.4908   19.7413   47.1358 H   0  0  0  0  0
   33.8181   19.2116   48.8225 H   0  0  0  0  0
   32.2656   18.9040   51.6474 H   0  0  0  0  0
   35.1822   18.8897   50.3365 H   0  0  0  0  0
   36.8823   18.4869   51.7911 H   0  0  0  0  0
   38.3673   18.5279   53.6782 H   0  0  0  0  0
   28.5750   21.7763   46.8863 H   0  0  0  0  0
   28.1181   22.4396   45.2981 H   0  0  0  0  0
   28.0720   20.6812   45.5753 H   0  0  0  0  0
   30.3037   23.6214   45.1630 H   0  0  0  0  0
   30.7605   22.9581   46.7512 H   0  0  0  0  0
   31.8170   22.6999   45.3412 H   0  0  0  0  0
   32.2802   17.9564   46.0368 H   0  0  0  0  0
   30.7625   17.2286   45.4555 H   0  0  0  0  0
   32.0601   17.6229   44.3015 H   0  0  0  0  0
   30.2408   17.8996   50.1184 H   0  0  0  0  0
   30.1731   19.5991   50.6457 H   0  0  0  0  0
   29.5270   19.1348   49.0526 H   0  0  0  0  0
   34.0923   17.8538   54.1236 H   0  0  0  0  0
   34.3388   19.6171   54.1524 H   0  0  0  0  0
   33.0904   18.9097   53.0977 H   0  0  0  0  0
   38.7617   16.0815   54.6196 H   0  0  0  0  0
   37.2048   15.9905   55.1266 H   0  0  0  0  0
   39.1823   18.1555   56.0560 H   0  0  0  0  0
   37.4917   18.0567   56.6065 H   0  0  0  0  0
   38.6452   16.7703   57.0377 H   0  0  0  0  0
  1 19  1  0  0  0
  1 18  1  0  0  0
  1  6  1  0  0  0
  1  2  1  0  0  0
  2  3  1  0  0  0
  3  4  1  0  0  0
  4  5  1  0  0  0
  5 20  1  0  0  0
  5  6  2  0  0  0
  6  7  1  0  0  0
  7  8  2  0  0  0
  8  9  1  0  0  0
  9 21  1  0  0  0
  9 10  2  0  0  0
 10 11  1  0  0  0
 11 12  2  0  0  0
 12 13  1  0  0  0
 13 22  1  0  0  0
 13 14  2  0  0  0
 14 15  1  0  0  0
 15 17  1  0  0  0
 15 16  2  0  0  0
 17 23  1  0  0  0
 23 24  1  0  0  0
  2 25  1  0  0  0
  2 26  1  0  0  0
  3 27  1  0  0  0
  3 28  1  0  0  0
  4 29  1  0  0  0
  4 30  1  0  0  0
  7 31  1  0  0  0
  8 32  1  0  0  0
 10 33  1  0  0  0
 11 34  1  0  0  0
 12 35  1  0  0  0
 14 36  1  0  0  0
 17 37  1  0  0  0
 18 38  1  0  0  0
 18 39  1  0  0  0
 18 40  1  0  0  0
 19 41  1  0  0  0
 19 42  1  0  0  0
 19 43  1  0  0  0
 20 44  1  0  0  0
 20 45  1  0  0  0
 20 46  1  0  0  0
 21 47  1  0  0  0
 21 48  1  0  0  0
 21 49  1  0  0  0
 22 50  1  0  0  0
 22 51  1  0  0  0
 22 52  1  0  0  0
 23 53  1  0  0  0
 23 54  1  0  0  0
 24 55  1  0  0  0
 24 56  1  0  0  0
 24 57  1  0  0  0
M  END
$$$$
