5anq_ligand
  -I-interpret- 

 36 38  0  0  0  0  0  0  0  0999 V2000
  143.6320   55.8470   31.7370 C   0  0  0  0  0
  143.6270   54.9840   30.6550 C   0  0  0  0  0
  142.4930   54.2340   30.4090 C   0  0  0  0  0
  141.4150   54.3830   31.2580 C   0  0  0  0  0
  141.4050   55.2120   32.3050 N   0  0  0  0  0
  142.5060   55.9350   32.5390 C   0  0  0  0  0
  144.8410   54.8700   29.7670 C   0  0  0  0  0
  145.9640   55.0180   30.2970 O   0  0  0  0  0
  144.6520   54.6350   28.5530 O   0  0  0  0  0
  142.4690   56.8050   33.6560 C   0  0  0  0  0
  141.2830   57.3080   34.0120 N   0  0  0  0  0
  141.2540   58.1380   35.0790 C   0  0  0  0  0
  142.3210   58.5010   35.8130 N   0  0  0  0  0
  143.4920   57.9820   35.4320 C   0  0  0  0  0
  143.6100   57.1310   34.3600 C   0  0  0  0  0
  140.0670   58.6390   35.4330 N   0  0  0  0  0
  139.9020   59.7290   36.3840 C   0  0  0  0  0
  140.6220   60.9870   35.9800 C   0  0  0  0  0
  141.0000   61.2010   34.6720 C   0  0  0  0  0
  141.6420   62.2950   34.2430 N   0  0  0  0  0
  141.9270   63.2310   35.1530 C   0  0  0  0  0
  141.5910   63.1110   36.4820 C   0  0  0  0  0
  140.9320   61.9750   36.8920 C   0  0  0  0  0
  144.5126   56.4510   31.9557 H   0  0  0  0  0
  142.4508   53.5431   29.5670 H   0  0  0  0  0
  140.5212   53.7905   31.0629 H   0  0  0  0  0
  143.7096   54.5625   28.3852 H   0  0  0  0  0
  144.3886   58.2441   35.9937 H   0  0  0  0  0
  144.5796   56.7240   34.0731 H   0  0  0  0  0
  139.2295   58.2352   35.0135 H   0  0  0  0  0
  140.3206   59.4015   37.3357 H   0  0  0  0  0
  138.8383   59.9612   36.4370 H   0  0  0  0  0
  140.7609   60.4300   33.9395 H   0  0  0  0  0
  142.4495   64.1306   34.8278 H   0  0  0  0  0
  141.8412   63.8979   37.1936 H   0  0  0  0  0
  140.6543   61.8552   37.9392 H   0  0  0  0  0
  1  2  4  0  0  0
  1  6  4  0  0  0
  2  3  4  0  0  0
  2  7  1  0  0  0
  3  4  4  0  0  0
  4  5  4  0  0  0
  5  6  4  0  0  0
  6 10  1  0  0  0
  7  8  2  0  0  0
  7  9  1  0  0  0
 10 11  4  0  0  0
 10 15  4  0  0  0
 11 12  4  0  0  0
 12 13  4  0  0  0
 12 16  1  0  0  0
 13 14  4  0  0  0
 14 15  4  0  0  0
 16 17  1  0  0  0
 17 18  1  0  0  0
 18 19  4  0  0  0
 18 23  4  0  0  0
 19 20  4  0  0  0
 20 21  4  0  0  0
 21 22  4  0  0  0
 22 23  4  0  0  0
  1 24  1  0  0  0
  3 25  1  0  0  0
  4 26  1  0  0  0
  9 27  1  0  0  0
 14 28  1  0  0  0
 15 29  1  0  0  0
 16 30  1  0  0  0
 17 31  1  0  0  0
 17 32  1  0  0  0
 19 33  1  0  0  0
 21 34  1  0  0  0
 22 35  1  0  0  0
 23 36  1  0  0  0
M  END
$$$$
