3rv4_ligand
  -I-interpret- 

 42 44  0  0  0  0  0  0  0  0999 V2000
  -25.8210  -17.1690   16.6290 P   0  0  0  0  0
  -26.2940  -18.5550   16.3250 O   0  0  0  0  0
  -25.5960  -16.9540   18.0990 O   0  0  0  0  0
  -24.7550  -16.6770   15.6670 O   0  0  0  0  0
  -27.2110  -14.7160   15.9790 P   0  0  0  0  0
  -28.1620  -14.1030   16.9750 O   0  0  0  0  0
  -25.8670  -14.0610   15.7880 O   0  0  0  0  0
  -27.1350  -16.2750   16.3450 O   0  0  0  0  0
  -27.9360  -14.7840   14.5520 O   0  0  0  0  0
  -27.2840  -15.4650   13.4850 C   0  0  0  0  0
  -27.9410  -15.1000   12.1690 C   0  0  0  0  0
  -29.3320  -15.4300   12.2290 O   0  0  0  0  0
  -27.8880  -13.6110   11.8620 C   0  0  0  0  0
  -26.6900  -13.2580   11.1790 O   0  0  0  0  0
  -29.1040  -13.4400   10.9840 C   0  0  0  0  0
  -28.8070  -13.7880    9.6120 O   0  0  0  0  0
  -30.1040  -14.4330   11.5530 C   0  0  0  0  0
  -30.9360  -13.6530   12.5070 N   0  0  0  0  0
  -30.7600  -13.5570   13.8340 C   0  0  0  0  0
  -31.6700  -12.7450   14.4060 N   0  0  0  0  0
  -32.4450  -12.2800   13.4170 C   0  0  0  0  0
  -33.5970  -11.3620   13.3300 C   0  0  0  0  0
  -34.0910  -10.7560   14.4460 N   0  0  0  0  0
  -34.1230  -11.1390   12.1050 N   0  0  0  0  0
  -33.6310  -11.7320   10.9940 C   0  0  0  0  0
  -32.5810  -12.5760   11.0060 N   0  0  0  0  0
  -31.9540  -12.8740   12.1680 C   0  0  0  0  0
  -25.2943  -16.0548   18.2472 H   0  0  0  0  0
  -24.4919  -15.7866   15.9109 H   0  0  0  0  0
  -28.9739  -14.6149   16.9975 H   0  0  0  0  0
  -27.3622  -16.5408   13.6417 H   0  0  0  0  0
  -26.2342  -15.1730   13.4580 H   0  0  0  0  0
  -27.3955  -15.6494   11.4018 H   0  0  0  0  0
  -27.8893  -12.9750   12.7472 H   0  0  0  0  0
  -26.6901  -12.3145   11.0018 H   0  0  0  0  0
  -29.4644  -12.4113   10.9765 H   0  0  0  0  0
  -29.5946  -13.6710    9.0757 H   0  0  0  0  0
  -30.7426  -14.9146   10.8125 H   0  0  0  0  0
  -29.9739  -14.0747   14.3837 H   0  0  0  0  0
  -33.6640  -10.9349   15.3549 H   0  0  0  0  0
  -34.8878  -10.1235   14.3725 H   0  0  0  0  0
  -34.1090  -11.5159   10.0385 H   0  0  0  0  0
  1  2  2  0  0  0
  1  3  1  0  0  0
  1  4  1  0  0  0
  8  1  1  0  0  0
  5  6  1  0  0  0
  5  7  2  0  0  0
  5  8  1  0  0  0
  5  9  1  0  0  0
  9 10  1  0  0  0
 10 11  1  0  0  0
 11 12  1  0  0  0
 11 13  1  0  0  0
 12 17  1  0  0  0
 13 14  1  0  0  0
 13 15  1  0  0  0
 15 16  1  0  0  0
 15 17  1  0  0  0
 17 18  1  0  0  0
 18 19  4  0  0  0
 18 27  4  0  0  0
 19 20  4  0  0  0
 20 21  4  0  0  0
 21 22  4  0  0  0
 21 27  4  0  0  0
 22 23  1  0  0  0
 22 24  4  0  0  0
 24 25  4  0  0  0
 25 26  4  0  0  0
 26 27  4  0  0  0
  3 28  1  0  0  0
  4 29  1  0  0  0
  6 30  1  0  0  0
 10 31  1  0  0  0
 10 32  1  0  0  0
 11 33  1  0  0  0
 13 34  1  0  0  0
 14 35  1  0  0  0
 15 36  1  0  0  0
 16 37  1  0  0  0
 17 38  1  0  0  0
 19 39  1  0  0  0
 23 40  1  0  0  0
 23 41  1  0  0  0
 25 42  1  0  0  0
M  END
$$$$
