1d4i_ligand
  -I-interpret- 

 87 92  0  0  0  0  0  0  0  0999 V2000
    9.7640   24.0840    2.2340 C   0  0  0  0  0
    9.0440   25.2510    1.8670 C   0  0  0  0  0
    7.6410   25.3630    2.0030 C   0  0  0  0  0
    6.9040   24.2720    2.5230 C   0  0  0  0  0
    7.5850   23.0880    2.8930 C   0  0  0  0  0
    8.9940   22.9960    2.7470 C   0  0  0  0  0
   16.2980   22.1490    8.7730 C   0  0  0  0  0
   15.5700   21.1300    9.4590 C   0  0  0  0  0
   16.1750   19.9340    9.9220 C   0  0  0  0  0
   17.5610   19.7290    9.7110 C   0  0  0  0  0
   18.3150   20.7250    9.0450 C   0  0  0  0  0
   17.6900   21.9140    8.5860 C   0  0  0  0  0
   15.5600   23.3580    8.1950 C   0  0  0  0  0
   14.5260   23.0150    7.2720 O   0  0  0  0  0
   11.2870   24.0770    2.1480 C   0  0  0  0  0
   11.9200   23.5540    3.3130 O   0  0  0  0  0
   15.0310   22.6990    5.9680 C   0  0  0  0  0
   13.9910   23.0190    4.9240 C   0  0  0  0  0
   13.5020   24.4250    5.0060 C   0  0  0  0  0
   14.4830   25.1780    4.3050 O   0  0  0  0  0
   12.1170   24.5380    4.3530 C   0  0  0  0  0
   10.9440   24.4850    5.3240 C   0  0  0  0  0
   10.6960   23.4920    6.0040 O   0  0  0  0  0
   10.1400   25.6060    5.3730 N   0  0  0  0  0
   15.1400   21.2020    5.8360 C   0  0  0  0  0
   14.1930   20.4640    6.0870 O   0  0  0  0  0
   16.3580   20.6920    5.4360 N   0  0  0  0  0
   16.6200   19.2770    5.2610 C   0  0  0  0  0
   16.5710   18.8470    3.8200 C   0  0  0  0  0
   17.5340   17.8490    3.5510 C   0  0  0  0  0
   15.7320   19.3140    2.7770 C   0  0  0  0  0
   15.8630   18.7640    1.4680 C   0  0  0  0  0
   16.8330   17.7550    1.2120 C   0  0  0  0  0
   18.0180   18.7810    5.6730 C   0  0  0  0  0
   18.9370   19.8230    5.3790 O   0  0  0  0  0
   17.6790   17.2890    2.2560 C   0  0  0  0  0
   18.3090   17.5380    4.7940 C   0  0  0  0  0
    8.9680   25.7780    6.2160 C   0  0  0  0  0
    9.2560   26.5070    7.5030 C   0  0  0  0  0
    8.1810   27.3610    7.8600 C   0  0  0  0  0
   10.4080   26.4460    8.3320 C   0  0  0  0  0
   10.4670   27.2400    9.5180 C   0  0  0  0  0
    9.3770   28.0890    9.8630 C   0  0  0  0  0
    7.8490   26.6630    5.6250 C   0  0  0  0  0
    8.4820   27.6840    4.8680 O   0  0  0  0  0
    8.2240   28.1560    9.0350 C   0  0  0  0  0
    7.0930   27.2730    6.8320 C   0  0  0  0  0
    9.5973   26.0985    1.4623 H   0  0  0  0  0
    7.1316   26.2811    1.7101 H   0  0  0  0  0
    5.8224   24.3432    2.6373 H   0  0  0  0  0
    7.0248   22.2424    3.2921 H   0  0  0  0  0
    9.4999   22.0738    3.0330 H   0  0  0  0  0
   14.5043   21.2777    9.6341 H   0  0  0  0  0
   15.5793   19.1793   10.4355 H   0  0  0  0  0
   18.0416   18.8142   10.0578 H   0  0  0  0  0
   19.3829   20.5779    8.8835 H   0  0  0  0  0
   18.2915   22.6671    8.0769 H   0  0  0  0  0
   16.2923   23.9578    7.6545 H   0  0  0  0  0
   15.0913   23.8815    9.0283 H   0  0  0  0  0
   11.6134   25.1107    2.0340 H   0  0  0  0  0
   11.5648   23.4382    1.3096 H   0  0  0  0  0
   15.9682   23.2412    5.8427 H   0  0  0  0  0
   13.1390   22.3595    5.0891 H   0  0  0  0  0
   14.4488   22.8818    3.9444 H   0  0  0  0  0
   13.3801   24.7820    6.0287 H   0  0  0  0  0
   14.2380   26.1062    4.3125 H   0  0  0  0  0
   12.1222   25.5377    3.9186 H   0  0  0  0  0
   10.3908   26.3839    4.7627 H   0  0  0  0  0
   17.1174   21.3480    5.2530 H   0  0  0  0  0
   15.8399   18.8637    5.9003 H   0  0  0  0  0
   14.9912   20.0888    2.9745 H   0  0  0  0  0
   15.2192   19.1170    0.6624 H   0  0  0  0  0
   16.9283   17.3367    0.2100 H   0  0  0  0  0
   18.0922   18.5234    6.7295 H   0  0  0  0  0
   19.8227   19.5458    5.6247 H   0  0  0  0  0
   18.4241   16.5168    2.0647 H   0  0  0  0  0
   19.3715   17.3767    4.6118 H   0  0  0  0  0
   18.0153   16.5988    5.2628 H   0  0  0  0  0
    8.6658   24.7376    6.3362 H   0  0  0  0  0
   11.2420   25.7971    8.0647 H   0  0  0  0  0
   11.3471   27.1960   10.1595 H   0  0  0  0  0
    9.4275   28.6923   10.7694 H   0  0  0  0  0
    7.1560   26.1150    4.9867 H   0  0  0  0  0
    7.8141   28.2565    4.4835 H   0  0  0  0  0
    7.3888   28.8054    9.2972 H   0  0  0  0  0
    6.6252   28.2325    6.6115 H   0  0  0  0  0
    6.2380   26.6787    7.1543 H   0  0  0  0  0
  1  2  4  0  0  0
  1  6  4  0  0  0
 15  1  1  0  0  0
  2  3  4  0  0  0
  3  4  4  0  0  0
  5  4  4  0  0  0
  6  5  4  0  0  0
  7  8  4  0  0  0
  7 12  4  0  0  0
 13  7  1  0  0  0
  8  9  4  0  0  0
  9 10  4  0  0  0
 11 10  4  0  0  0
 12 11  4  0  0  0
 14 13  1  0  0  0
 16 15  1  0  0  0
 21 16  1  0  0  0
 17 18  1  0  0  0
 18 19  1  0  0  0
 19 20  1  0  0  0
 19 21  1  0  0  0
 21 22  1  0  0  0
 22 23  2  0  0  0
 22 24  1  0  0  0
 24 38  1  0  0  0
 17 25  1  0  0  0
 25 26  2  0  0  0
 25 27  1  0  0  0
 27 28  1  0  0  0
 28 29  1  0  0  0
 28 34  1  0  0  0
 29 30  4  0  0  0
 29 31  4  0  0  0
 30 36  4  0  0  0
 37 30  1  0  0  0
 31 32  4  0  0  0
 32 33  4  0  0  0
 36 33  4  0  0  0
 34 35  1  0  0  0
 34 37  1  0  0  0
 38 39  1  0  0  0
 38 44  1  0  0  0
 39 40  4  0  0  0
 39 41  4  0  0  0
 40 46  4  0  0  0
 47 40  1  0  0  0
 41 42  4  0  0  0
 42 43  4  0  0  0
 46 43  4  0  0  0
 44 45  1  0  0  0
 44 47  1  0  0  0
 17 14  1  0  0  0
  2 48  1  0  0  0
  3 49  1  0  0  0
  4 50  1  0  0  0
  5 51  1  0  0  0
  6 52  1  0  0  0
  8 53  1  0  0  0
  9 54  1  0  0  0
 10 55  1  0  0  0
 11 56  1  0  0  0
 12 57  1  0  0  0
 13 58  1  0  0  0
 13 59  1  0  0  0
 15 60  1  0  0  0
 15 61  1  0  0  0
 17 62  1  0  0  0
 18 63  1  0  0  0
 18 64  1  0  0  0
 19 65  1  0  0  0
 20 66  1  0  0  0
 21 67  1  0  0  0
 24 68  1  0  0  0
 27 69  1  0  0  0
 28 70  1  0  0  0
 31 71  1  0  0  0
 32 72  1  0  0  0
 33 73  1  0  0  0
 34 74  1  0  0  0
 35 75  1  0  0  0
 36 76  1  0  0  0
 37 77  1  0  0  0
 37 78  1  0  0  0
 38 79  1  0  0  0
 41 80  1  0  0  0
 42 81  1  0  0  0
 43 82  1  0  0  0
 44 83  1  0  0  0
 45 84  1  0  0  0
 46 85  1  0  0  0
 47 86  1  0  0  0
 47 87  1  0  0  0
M  END
$$$$
