5fao_ligand
  -I-interpret- 

 45 46  0  0  0  0  0  0  0  0999 V2000
  -17.0390  -11.9420   39.7190 O   0  0  0  0  0
  -17.0690  -13.3750   39.7970 S   0  0  0  0  0
  -16.4780  -13.6750   41.0610 O   0  0  0  0  0
  -18.4620  -13.6950   39.9690 O   0  0  0  0  0
  -16.4090  -14.0770   38.6190 O   0  0  0  0  0
  -15.0470  -14.0690   38.8310 N   0  3  0  0  0
  -14.4700  -15.2240   38.2500 C   0  0  0  0  0
  -14.6780  -16.4200   39.1810 C   0  0  0  0  0
  -13.9200  -16.2520   40.4910 C   0  0  0  0  0
  -12.9730  -14.9780   38.0090 C   0  0  0  0  0
  -12.5350  -14.7490   39.3720 N   0  0  0  0  0
  -12.1940  -13.5200   39.7710 C   0  0  0  0  0
  -11.8180  -13.3190   40.9370 O   0  0  0  0  0
  -12.4730  -15.8610   40.2870 C   0  0  0  0  0
  -11.6460  -16.9990   39.7480 C   0  0  0  0  0
  -11.7380  -17.3130   38.5910 O   0  0  0  0  0
  -10.7500  -17.7080   40.6120 N   0  0  0  0  0
   -9.9850  -18.7630   40.1080 O   0  0  0  0  0
   -8.6520  -18.7420   40.7070 C   0  0  0  0  0
   -8.7720  -18.8190   42.1700 C   0  0  0  0  0
   -8.2210  -20.2230   42.5560 C   0  0  0  0  0
   -7.3080  -20.5670   41.4000 N   0  3  0  0  0
   -7.8700  -19.9040   40.2180 C   0  0  0  0  0
  -18.5652  -14.6475   40.0301 H   0  0  0  0  0
  -14.8598  -14.0640   39.8337 H   0  0  0  0  0
  -14.6421  -13.2360   38.4038 H   0  0  0  0  0
  -14.9479  -15.4393   37.2943 H   0  0  0  0  0
  -14.3054  -17.3138   38.6806 H   0  0  0  0  0
  -15.7414  -16.4986   39.4070 H   0  0  0  0  0
  -13.9362  -17.2101   41.0105 H   0  0  0  0  0
  -14.4039  -15.4554   41.0561 H   0  0  0  0  0
  -12.7550  -14.1605   37.3217 H   0  0  0  0  0
  -12.4580  -15.7931   37.5006 H   0  0  0  0  0
  -12.2463  -12.6886   39.0681 H   0  0  0  0  0
  -11.9812  -15.5965   41.2231 H   0  0  0  0  0
  -10.6706  -17.4430   41.5938 H   0  0  0  0  0
   -8.1449  -17.8181   40.4289 H   0  0  0  0  0
   -9.8047  -18.6910   42.4944 H   0  0  0  0  0
   -8.2141  -18.0212   42.6602 H   0  0  0  0  0
   -9.0116  -20.9594   42.7004 H   0  0  0  0  0
   -7.7025  -20.2217   43.5148 H   0  0  0  0  0
   -7.2546  -21.5764   41.2632 H   0  0  0  0  0
   -6.3550  -20.2505   41.5791 H   0  0  0  0  0
   -7.0779  -19.5805   39.5427 H   0  0  0  0  0
   -8.5051  -20.5886   39.6559 H   0  0  0  0  0
  1  2  2  0  0  0
  2  3  2  0  0  0
  2  4  1  0  0  0
  2  5  1  0  0  0
  5  6  1  0  0  0
  6  7  1  0  0  0
  7  8  1  0  0  0
  7 10  1  0  0  0
  8  9  1  0  0  0
  9 14  1  0  0  0
 10 11  1  0  0  0
 11 12  1  0  0  0
 11 14  1  0  0  0
 12 13  2  0  0  0
 14 15  1  0  0  0
 15 16  2  0  0  0
 15 17  1  0  0  0
 17 18  1  0  0  0
 18 19  1  0  0  0
 19 20  1  0  0  0
 19 23  1  0  0  0
 20 21  1  0  0  0
 21 22  1  0  0  0
 22 23  1  0  0  0
  4 24  1  0  0  0
  6 25  1  0  0  0
  6 26  1  0  0  0
  7 27  1  0  0  0
  8 28  1  0  0  0
  8 29  1  0  0  0
  9 30  1  0  0  0
  9 31  1  0  0  0
 10 32  1  0  0  0
 10 33  1  0  0  0
 12 34  1  0  0  0
 14 35  1  0  0  0
 17 36  1  0  0  0
 19 37  1  0  0  0
 20 38  1  0  0  0
 20 39  1  0  0  0
 21 40  1  0  0  0
 21 41  1  0  0  0
 22 42  1  0  0  0
 22 43  1  0  0  0
 23 44  1  0  0  0
 23 45  1  0  0  0
M  END
$$$$
