3lk8_ligand
  -I-interpret- 

 29 29  0  0  0  0  0  0  0  0999 V2000
    3.2440   -3.0610    4.0450 O   0  0  0  0  0
    2.0610   -3.1300    4.3500 C   0  0  0  0  0
    1.5060   -2.3710    5.3080 N   0  0  0  0  0
    2.3060   -1.5120    6.0440 O   0  0  0  0  0
    1.1460   -4.1060    3.6320 C   0  0  0  0  0
    1.6810   -5.4480    3.6950 N   0  0  0  0  0
    1.4570   -6.3220    5.0030 S   0  0  0  0  0
    0.1810   -5.9000    5.5650 O   0  0  0  0  0
    1.3840   -7.7240    4.6820 O   0  0  0  0  0
    2.5680   -6.1780    6.1610 C   0  0  0  0  0
    2.3120   -5.3360    7.2560 C   0  0  0  0  0
    3.2220   -5.2360    8.3110 C   0  0  0  0  0
    4.3940   -5.9730    8.2850 C   0  0  0  0  0
    5.2670   -5.8580    9.3380 O   0  0  0  0  0
    6.3280   -6.7880    9.5380 C   0  0  0  0  0
    4.6550   -6.8330    7.2040 C   0  0  0  0  0
    3.7430   -6.9330    6.1500 C   0  0  0  0  0
    0.5043   -2.4262    5.4924 H   0  0  0  0  0
    1.7657   -1.0430    6.6841 H   0  0  0  0  0
    1.0633   -3.8081    2.5868 H   0  0  0  0  0
    0.1686   -4.0930    4.1143 H   0  0  0  0  0
    2.1991   -5.8313    2.9044 H   0  0  0  0  0
    1.3913   -4.7532    7.2827 H   0  0  0  0  0
    3.0097   -4.5784    9.1540 H   0  0  0  0  0
    5.9134   -7.7874    9.6697 H   0  0  0  0  0
    6.9867   -6.7780    8.6696 H   0  0  0  0  0
    6.8926   -6.5074   10.4272 H   0  0  0  0  0
    5.5712   -7.4233    7.1880 H   0  0  0  0  0
    3.9495   -7.6032    5.3156 H   0  0  0  0  0
  1  2  2  0  0  0
  2  3  1  0  0  0
  2  5  1  0  0  0
  3  4  1  0  0  0
  5  6  1  0  0  0
  6  7  1  0  0  0
  7  8  2  0  0  0
  7  9  2  0  0  0
  7 10  1  0  0  0
 10 11  4  0  0  0
 10 17  4  0  0  0
 11 12  4  0  0  0
 12 13  4  0  0  0
 13 14  1  0  0  0
 13 16  4  0  0  0
 14 15  1  0  0  0
 16 17  4  0  0  0
  3 18  1  0  0  0
  4 19  1  0  0  0
  5 20  1  0  0  0
  5 21  1  0  0  0
  6 22  1  0  0  0
 11 23  1  0  0  0
 12 24  1  0  0  0
 15 25  1  0  0  0
 15 26  1  0  0  0
 15 27  1  0  0  0
 16 28  1  0  0  0
 17 29  1  0  0  0
M  END
$$$$
