6pii_ligand
  -I-interpret- 

 14 15  0  0  0  0  0  0  0  0999 V2000
    3.2420   33.8760  122.9930 N   0  0  0  0  0
    2.5660   34.7440  122.2020 C   0  0  0  0  0
    3.0510   35.9730  122.2140 N   0  0  0  0  0
    4.1420   35.8870  123.0670 C   0  0  0  0  0
    5.0320   36.8810  123.4890 C   0  0  0  0  0
    5.0070   38.0650  123.1640 O   0  0  0  0  0
    6.0240   36.3780  124.3660 N   0  0  0  0  0
    6.0890   35.0360  124.7520 C   0  0  0  0  0
    7.0750   34.6170  125.5620 N   0  0  0  0  0
    5.2130   34.1130  124.3820 N   0  0  0  0  0
    4.2600   34.5710  123.5410 C   0  0  0  0  0
    1.6990   34.4541  121.6084 H   0  0  0  0  0
    7.7765   35.2780  125.8956 H   0  0  0  0  0
    5.2545   33.1456  124.7027 H   0  0  0  0  0
  1  2  4  0  0  0
  1 11  4  0  0  0
  2  3  4  0  0  0
  3  4  4  0  0  0
  4  5  1  0  0  0
  4 11  4  0  0  0
  5  6  2  0  0  0
  5  7  1  0  0  0
  7  8  4  0  0  0
  8  9  2  0  0  0
  8 10  1  0  0  0
 10 11  1  0  0  0
  2 12  1  0  0  0
  9 13  1  0  0  0
 10 14  1  0  0  0
M  END
$$$$
