5j0d_ligand
  -I-interpret- 

 71 74  0  0  0  0  0  0  0  0999 V2000
   12.3260   12.1130   18.6240 O   0  0  0  0  0
   10.9350   18.0140   26.0640 C   0  0  0  0  0
   11.2360   15.9110   24.9700 C   0  0  0  0  0
   11.3130   20.6090   23.4250 O   0  0  0  0  0
   10.9510   16.1870   23.6390 C   0  0  0  0  0
   12.0870   13.3940   27.2190 N   0  0  0  0  0
    9.9530   17.2580   23.2730 C   0  0  0  0  0
   11.5990   15.4560   22.6530 C   0  0  0  0  0
   11.7080   11.2250   30.2430 N   0  3  0  0  0
   12.5220   14.4570   22.9710 C   0  0  0  0  0
   12.7960   14.2000   24.3210 C   0  0  0  0  0
   12.1540   14.9250   25.3370 C   0  0  0  0  0
   12.4370   14.6070   26.7740 C   0  0  0  0  0
   12.0290   13.0690   28.6470 C   0  0  0  0  0
   10.9380   13.8640   29.3530 C   0  0  0  0  0
   10.8140   13.4530   30.8190 C   0  0  0  0  0
   10.9840   19.5130   22.9760 C   0  0  0  0  0
   11.3150   19.1450   21.5420 C   0  0  0  0  0
   11.7530   20.2940   20.6890 C   0  0  0  0  0
   10.3650   18.5910   23.7390 N   0  0  0  0  0
   13.1430   13.6490   21.8900 C   0  0  0  0  0
   14.4930   13.2810   21.9330 C   0  0  0  0  0
   15.0550   12.5640   20.8830 C   0  0  0  0  0
   16.3770   12.2440   21.0310 O   0  0  0  0  0
   17.0000   11.3660   20.0960 C   0  0  0  0  0
   14.2900   12.1930   19.7860 C   0  0  0  0  0
   12.9580   12.5530   19.7550 C   0  0  0  0  0
   10.9180   12.2990   18.4970 C   0  0  0  0  0
   12.3800   13.2670   20.7900 C   0  0  0  0  0
   10.5900   16.6170   25.9630 O   0  0  0  0  0
   10.0700   18.8560   25.1540 C   0  0  0  0  0
   12.8770   15.4680   27.5260 O   0  0  0  0  0
   11.7080   11.5950   28.8270 C   0  0  0  0  0
   11.5380    9.7700   30.3960 C   0  0  0  0  0
   10.6530   11.9500   30.9490 C   0  0  0  0  0
   11.9766   18.1381   25.7678 H   0  0  0  0  0
   10.7778   18.3384   27.0927 H   0  0  0  0  0
   11.8523   12.6700   26.5400 H   0  0  0  0  0
    9.0043   17.0122   23.7501 H   0  0  0  0  0
    9.8755   17.2897   22.1862 H   0  0  0  0  0
   11.3825   15.6665   21.6057 H   0  0  0  0  0
   12.6066   11.4817   30.6517 H   0  0  0  0  0
   13.5173   13.4268   24.5856 H   0  0  0  0  0
   12.9999   13.3168   29.0761 H   0  0  0  0  0
    9.9881   13.6679   28.8556 H   0  0  0  0  0
   11.1958   14.9222   29.3094 H   0  0  0  0  0
    9.9357   13.9375   31.2455 H   0  0  0  0  0
   11.7195   13.7550   31.3452 H   0  0  0  0  0
   10.4027   18.7480   21.0968 H   0  0  0  0  0
   12.1461   18.4407   21.5781 H   0  0  0  0  0
   10.9584   21.0390   20.6493 H   0  0  0  0  0
   12.6506   20.7407   21.1165 H   0  0  0  0  0
   11.9679   19.9361   19.6821 H   0  0  0  0  0
   15.1048   13.5573   22.7917 H   0  0  0  0  0
   16.4890   10.4032   20.1075 H   0  0  0  0  0
   16.9399   11.7988   19.0974 H   0  0  0  0  0
   18.0456   11.2272   20.3709 H   0  0  0  0  0
   14.7324   11.6285   18.9652 H   0  0  0  0  0
   10.4097   11.7825   19.3112 H   0  0  0  0  0
   10.6880   13.3636   18.5406 H   0  0  0  0  0
   10.5838   11.8926   17.5424 H   0  0  0  0  0
   11.3235   13.5312   20.7438 H   0  0  0  0  0
   10.2721   19.9073   25.3591 H   0  0  0  0  0
    9.0253   18.6084   25.3424 H   0  0  0  0  0
   10.7174   11.4010   28.4157 H   0  0  0  0  0
   12.4683   11.0071   28.3128 H   0  0  0  0  0
   10.5904    9.4673   29.9503 H   0  0  0  0  0
   12.3576    9.2550   29.8948 H   0  0  0  0  0
   11.5406    9.5146   31.4557 H   0  0  0  0  0
   10.7090   11.6907   32.0062 H   0  0  0  0  0
    9.6947   11.6701   30.5116 H   0  0  0  0  0
 27  1  1  0  0  0
  1 28  1  0  0  0
 30  2  1  0  0  0
  2 31  1  0  0  0
  5  3  4  0  0  0
 12  3  4  0  0  0
  3 30  1  0  0  0
 17  4  2  0  0  0
  5  7  1  0  0  0
  8  5  4  0  0  0
 13  6  1  0  0  0
  6 14  1  0  0  0
  7 20  1  0  0  0
 10  8  4  0  0  0
 33  9  1  0  0  0
  9 34  1  0  0  0
  9 35  1  0  0  0
 10 11  4  0  0  0
 21 10  1  0  0  0
 11 12  4  0  0  0
 12 13  1  0  0  0
 13 32  2  0  0  0
 14 15  1  0  0  0
 14 33  1  0  0  0
 15 16  1  0  0  0
 16 35  1  0  0  0
 17 18  1  0  0  0
 20 17  1  0  0  0
 18 19  1  0  0  0
 20 31  1  0  0  0
 22 21  4  0  0  0
 21 29  4  0  0  0
 23 22  4  0  0  0
 23 24  1  0  0  0
 26 23  4  0  0  0
 24 25  1  0  0  0
 26 27  4  0  0  0
 27 29  4  0  0  0
  2 36  1  0  0  0
  2 37  1  0  0  0
  6 38  1  0  0  0
  7 39  1  0  0  0
  7 40  1  0  0  0
  8 41  1  0  0  0
  9 42  1  0  0  0
 11 43  1  0  0  0
 14 44  1  0  0  0
 15 45  1  0  0  0
 15 46  1  0  0  0
 16 47  1  0  0  0
 16 48  1  0  0  0
 18 49  1  0  0  0
 18 50  1  0  0  0
 19 51  1  0  0  0
 19 52  1  0  0  0
 19 53  1  0  0  0
 22 54  1  0  0  0
 25 55  1  0  0  0
 25 56  1  0  0  0
 25 57  1  0  0  0
 26 58  1  0  0  0
 28 59  1  0  0  0
 28 60  1  0  0  0
 28 61  1  0  0  0
 29 62  1  0  0  0
 31 63  1  0  0  0
 31 64  1  0  0  0
 33 65  1  0  0  0
 33 66  1  0  0  0
 34 67  1  0  0  0
 34 68  1  0  0  0
 34 69  1  0  0  0
 35 70  1  0  0  0
 35 71  1  0  0  0
M  END
$$$$
