5fyx_ligand
  -I-interpret- 

 51 54  0  0  0  0  0  0  0  0999 V2000
   11.5350  -23.9120  -19.0870 S   0  0  0  0  0
   14.8940  -23.6380  -16.1060 C   0  0  0  0  0
   13.2340  -21.4120  -18.5510 N   0  0  0  0  0
   14.2030  -24.8140  -16.2610 C   0  0  0  0  0
   15.5290  -18.8250  -15.9640 N   0  3  0  0  0
   13.1780  -24.8740  -17.1800 C   0  0  0  0  0
   15.7800  -19.6170  -17.1600 N   0  3  0  0  0
   13.7820  -17.6130  -14.0660 N   0  3  0  0  0
   12.8630  -23.7610  -17.9580 C   0  0  0  0  0
   13.5530  -22.5550  -17.7810 C   0  0  0  0  0
   14.5840  -22.5130  -16.8410 C   0  0  0  0  0
   11.7890  -22.5540  -20.1620 C   0  0  0  0  0
   11.1280  -22.5660  -21.3870 C   0  0  0  0  0
   11.2820  -21.5130  -22.2640 C   0  0  0  0  0
   12.0650  -20.4410  -21.9240 C   0  0  0  0  0
   16.1870  -23.5600  -14.9430 Cl  0  0  0  0  0
   12.7040  -20.4000  -20.6970 C   0  0  0  0  0
   12.5750  -21.4560  -19.7950 C   0  0  0  0  0
   13.4280  -20.0760  -17.9360 C   0  0  0  0  0
   14.8020  -19.4390  -18.2180 C   0  0  0  0  0
   14.7970  -19.6220  -14.9750 C   0  0  0  0  0
   14.5420  -18.8110  -13.7460 C   0  0  0  0  0
   14.5340  -16.8090  -15.0220 C   0  0  0  0  0
   14.8070  -17.5950  -16.2870 C   0  0  0  0  0
   13.5100  -16.8480  -12.8550 C   0  0  0  0  0
   14.4618  -25.6890  -15.6648 H   0  0  0  0  0
   16.4268  -18.5554  -15.5619 H   0  0  0  0  0
   12.6104  -25.7969  -17.2993 H   0  0  0  0  0
   15.7425  -20.5975  -16.8814 H   0  0  0  0  0
   16.6805  -19.3163  -17.5330 H   0  0  0  0  0
   12.8884  -17.8778  -14.4804 H   0  0  0  0  0
   15.1443  -21.5907  -16.6878 H   0  0  0  0  0
   10.4887  -23.4078  -21.6530 H   0  0  0  0  0
   10.7792  -21.5334  -23.2309 H   0  0  0  0  0
   12.1854  -19.6149  -22.6248 H   0  0  0  0  0
   13.3131  -19.5353  -20.4334 H   0  0  0  0  0
   13.3515  -20.2066  -16.8566 H   0  0  0  0  0
   12.6748  -19.4144  -18.3640 H   0  0  0  0  0
   15.2024  -19.9273  -19.1065 H   0  0  0  0  0
   14.6395  -18.3664  -18.3235 H   0  0  0  0  0
   15.3923  -20.4955  -14.7091 H   0  0  0  0  0
   13.8434  -19.9326  -15.4019 H   0  0  0  0  0
   13.9689  -19.4127  -13.0406 H   0  0  0  0  0
   15.4987  -18.5156  -13.3152 H   0  0  0  0  0
   15.4853  -16.5255  -14.5718 H   0  0  0  0  0
   13.9483  -15.9256  -15.2763 H   0  0  0  0  0
   13.8601  -17.8490  -16.7633 H   0  0  0  0  0
   15.4123  -16.9900  -16.9621 H   0  0  0  0  0
   12.9343  -17.4608  -12.1613 H   0  0  0  0  0
   14.4525  -16.5587  -12.3901 H   0  0  0  0  0
   12.9406  -15.9546  -13.1114 H   0  0  0  0  0
  9  1  1  0  0  0
 12  1  1  0  0  0
  2  4  4  0  0  0
 11  2  4  0  0  0
  2 16  1  0  0  0
  3 10  1  0  0  0
  3 18  1  0  0  0
 19  3  1  0  0  0
  6  4  4  0  0  0
  5  7  1  0  0  0
 21  5  1  0  0  0
  5 24  1  0  0  0
  9  6  4  0  0  0
  7 20  1  0  0  0
 22  8  1  0  0  0
  8 23  1  0  0  0
  8 25  1  0  0  0
 10  9  4  0  0  0
 10 11  4  0  0  0
 12 13  4  0  0  0
 18 12  4  0  0  0
 13 14  4  0  0  0
 15 14  4  0  0  0
 17 15  4  0  0  0
 18 17  4  0  0  0
 20 19  1  0  0  0
 21 22  1  0  0  0
 23 24  1  0  0  0
  4 26  1  0  0  0
  5 27  1  0  0  0
  6 28  1  0  0  0
  7 29  1  0  0  0
  7 30  1  0  0  0
  8 31  1  0  0  0
 11 32  1  0  0  0
 13 33  1  0  0  0
 14 34  1  0  0  0
 15 35  1  0  0  0
 17 36  1  0  0  0
 19 37  1  0  0  0
 19 38  1  0  0  0
 20 39  1  0  0  0
 20 40  1  0  0  0
 21 41  1  0  0  0
 21 42  1  0  0  0
 22 43  1  0  0  0
 22 44  1  0  0  0
 23 45  1  0  0  0
 23 46  1  0  0  0
 24 47  1  0  0  0
 24 48  1  0  0  0
 25 49  1  0  0  0
 25 50  1  0  0  0
 25 51  1  0  0  0
M  END
$$$$
