4utv_ligand
  -I-interpret- 

139140  0  0  0  0  0  0  0  0999 V2000
   35.7580   25.6680   11.2650 C   0  0  0  0  0
   35.0890   26.6990   11.3980 O   0  0  0  0  0
   36.6480   25.3100   12.2680 C   0  0  0  0  0
   37.6900   24.4290   12.0090 C   0  0  0  0  0
   38.5220   24.0610   13.0460 C   0  0  0  0  0
   38.2950   24.5860   14.3150 C   0  0  0  0  0
   37.2470   25.4560   14.5680 C   0  0  0  0  0
   36.4140   25.8150   13.5360 C   0  0  0  0  0
   35.6010   24.7450   10.2590 N   0  0  0  0  0
   34.6090   24.9510    9.1630 C   0  0  0  0  0
   34.7680   23.8120    8.2040 C   0  0  0  0  0
   35.8210   23.1930    8.0870 O   0  0  0  0  0
   33.6690   23.5070    7.5320 N   0  0  0  0  0
   33.6200   22.4460    6.5590 C   0  0  0  0  0
   34.2950   22.8380    5.2600 C   0  0  0  0  0
   33.8890   23.8050    4.6210 O   0  0  0  0  0
   32.1810   22.1130    6.1890 C   0  0  0  0  0
   32.1670   20.8370    5.3570 C   0  0  0  0  0
   31.3170   21.9910    7.4390 C   0  0  0  0  0
   35.3280   22.0940    4.8890 N   0  0  0  0  0
   36.0080   22.2520    3.6070 C   0  0  0  0  0
   35.0810   21.7660    2.4960 C   0  0  0  0  0
   34.4060   20.7720    2.6920 O   0  0  0  0  0
   37.2780   21.3870    3.5960 C   0  0  0  0  0
   38.3930   21.8740    4.5160 C   0  0  0  0  0
   39.4300   20.7800    4.7100 C   0  0  0  0  0
   39.0410   23.1480    3.9870 C   0  0  0  0  0
   35.0620   22.4260    1.3320 N   0  0  0  0  0
   34.1930   21.9540    0.2460 C   0  0  0  0  0
   34.7960   20.6790   -0.2580 C   0  0  0  0  0
   35.9990   20.5290   -0.2620 O   0  0  0  0  0
   33.7730   22.9370   -0.8750 C   0  0  0  0  0
   34.9380   23.5440   -1.6760 C   0  0  0  0  0
   34.2010   24.3730   -2.7590 C   0  0  0  0  0
   34.4690   23.5910   -3.9910 C   0  0  0  0  0
   34.5660   24.3850   -5.2310 N   0  3  0  0  0
   33.9350   19.7460   -0.6500 N   0  0  0  0  0
   34.3350   18.3770   -1.0080 C   0  0  0  0  0
   35.0930   17.6670    0.1120 C   0  0  0  0  0
   35.7320   16.6600   -0.1330 O   0  0  0  0  0
   35.2260   18.3830   -2.2190 C   0  0  0  0  0
   34.7930   19.3750   -3.2600 C   0  0  0  0  0
   33.7890   18.7800   -4.2030 C   0  0  0  0  0
   33.0110   17.8910   -3.7390 O   0  0  0  0  0
   33.8210   19.2010   -5.3940 O   0  0  0  0  0
   35.0070   18.2030    1.3300 N   0  0  0  0  0
   35.6430   17.5970    2.4920 C   0  0  0  0  0
   37.1430   17.6530    2.3340 C   0  0  0  0  0
   37.8500   16.8620    2.9420 O   0  0  0  0  0
   35.2170   16.1380    2.6650 C   0  0  0  0  0
   33.7430   15.9340    2.9290 C   0  0  0  0  0
   33.0830   16.6430    3.9270 C   0  0  0  0  0
   33.0230   15.0190    2.1950 C   0  0  0  0  0
   31.7450   16.4380    4.1880 C   0  0  0  0  0
   31.6900   14.8000    2.4430 C   0  0  0  0  0
   31.0530   15.5170    3.4400 C   0  0  0  0  0
   29.7090   15.2940    3.6650 O   0  0  0  0  0
   37.6130   18.5790    1.5020 N   0  0  0  0  0
   39.0340   18.7470    1.2480 C   0  0  0  0  0
   39.5490   17.6980    0.2830 C   0  0  0  0  0
   40.7380   17.6400    0.0260 O   0  0  0  0  0
   38.6660   16.8590   -0.2540 N   0  0  0  0  0
   39.0990   15.8000   -1.1860 C   0  0  0  0  0
   38.9920   16.2070   -2.6660 C   0  0  0  0  0
   39.2890   17.3450   -3.0440 O   0  0  0  0  0
   38.2940   14.4930   -0.9840 C   0  0  0  0  0
   38.2620   13.6780   -2.2800 C   0  0  0  0  0
   38.8610   13.6850    0.1840 C   0  0  0  0  0
   38.5929   15.3614   -3.5106 O   0  0  0  0  0
   37.8475   24.0356   11.0048 H   0  0  0  0  0
   39.3460   23.3685   12.8740 H   0  0  0  0  0
   38.9598   24.3050   15.1318 H   0  0  0  0  0
   37.0856   25.8501   15.5714 H   0  0  0  0  0
   35.5773   26.4906   13.7136 H   0  0  0  0  0
   36.1744   23.9015   10.2614 H   0  0  0  0  0
   34.7826   25.9030    8.6613 H   0  0  0  0  0
   33.5952   24.9786    9.5624 H   0  0  0  0  0
   32.8215   24.0458    7.7107 H   0  0  0  0  0
   34.1275   21.5996    7.0218 H   0  0  0  0  0
   31.7550   22.9197    5.5925 H   0  0  0  0  0
   32.7548   20.9886    4.4517 H   0  0  0  0  0
   32.5965   20.0211    5.9382 H   0  0  0  0  0
   31.1397   20.5915    5.0878 H   0  0  0  0  0
   31.7102   21.1978    8.0749 H   0  0  0  0  0
   31.3318   22.9355    7.9829 H   0  0  0  0  0
   30.2934   21.7528    7.1498 H   0  0  0  0  0
   35.6640   21.3760    5.5309 H   0  0  0  0  0
   36.2691   23.2994    3.4554 H   0  0  0  0  0
   37.6714   21.4160    2.5799 H   0  0  0  0  0
   36.9887   20.3964    3.9469 H   0  0  0  0  0
   37.9504   22.1129    5.4830 H   0  0  0  0  0
   38.9552   19.9061    5.1560 H   0  0  0  0  0
   39.8565   20.5100    3.7439 H   0  0  0  0  0
   40.2194   21.1421    5.3687 H   0  0  0  0  0
   39.4663   22.9558    3.0020 H   0  0  0  0  0
   38.2884   23.9329    3.9123 H   0  0  0  0  0
   39.8301   23.4632    4.6697 H   0  0  0  0  0
   35.6469   23.2511    1.1999 H   0  0  0  0  0
   33.2053   21.8110    0.6842 H   0  0  0  0  0
   33.2580   23.7664   -0.3902 H   0  0  0  0  0
   33.1671   22.3693   -1.5812 H   0  0  0  0  0
   35.6073   22.7923   -2.0943 H   0  0  0  0  0
   35.6122   24.1429   -1.0637 H   0  0  0  0  0
   34.5489   25.4041   -2.8209 H   0  0  0  0  0
   33.1380   24.4993   -2.5534 H   0  0  0  0  0
   33.6264   22.9116   -4.1197 H   0  0  0  0  0
   35.4368   23.1094   -3.8515 H   0  0  0  0  0
   34.7506   23.7630   -6.0180 H   0  0  0  0  0
   33.6877   24.8799   -5.3860 H   0  0  0  0  0
   35.3265   25.0590   -5.1431 H   0  0  0  0  0
   32.9466   19.9918   -0.7054 H   0  0  0  0  0
   33.4055   17.8420   -1.2029 H   0  0  0  0  0
   35.1837   17.3905   -2.6677 H   0  0  0  0  0
   36.2285   18.6598   -1.8927 H   0  0  0  0  0
   35.6688   19.6774   -3.8341 H   0  0  0  0  0
   34.3322   20.2249   -2.7565 H   0  0  0  0  0
   33.1963   17.7605   -2.8061 H   0  0  0  0  0
   34.4780   19.0665    1.4521 H   0  0  0  0  0
   35.3315   18.1565    3.3741 H   0  0  0  0  0
   35.7500   15.7542    3.5349 H   0  0  0  0  0
   35.4436   15.6294    1.7280 H   0  0  0  0  0
   33.6352   17.3760    4.5151 H   0  0  0  0  0
   33.5194   14.4583    1.4030 H   0  0  0  0  0
   31.2434   16.9988    4.9767 H   0  0  0  0  0
   31.1371   14.0654    1.8576 H   0  0  0  0  0
   29.3908   14.6234    3.0563 H   0  0  0  0  0
   36.9523   19.1929    1.0255 H   0  0  0  0  0
   39.5697   18.6431    2.1916 H   0  0  0  0  0
   39.1937   19.7314    0.8080 H   0  0  0  0  0
   37.6777   16.9492   -0.0183 H   0  0  0  0  0
   40.1500   15.6358   -0.9481 H   0  0  0  0  0
   37.2649   14.7490   -0.7320 H   0  0  0  0  0
   37.7907   14.2672   -3.0667 H   0  0  0  0  0
   39.2807   13.4256   -2.5742 H   0  0  0  0  0
   37.6919   12.7632   -2.1184 H   0  0  0  0  0
   39.9007   13.4311   -0.0223 H   0  0  0  0  0
   38.8048   14.2790    1.0962 H   0  0  0  0  0
   38.2801   12.7710    0.3077 H   0  0  0  0  0
   38.4032   14.5319   -3.0662 H   0  0  0  0  0
  1  2  2  0  0  0
  1  3  1  0  0  0
  1  9  1  0  0  0
  3  4  4  0  0  0
  3  8  4  0  0  0
  4  5  4  0  0  0
  5  6  4  0  0  0
  6  7  4  0  0  0
  7  8  4  0  0  0
  9 10  1  0  0  0
 10 11  1  0  0  0
 11 12  2  0  0  0
 11 13  1  0  0  0
 13 14  1  0  0  0
 14 15  1  0  0  0
 14 17  1  0  0  0
 15 16  2  0  0  0
 15 20  1  0  0  0
 17 18  1  0  0  0
 17 19  1  0  0  0
 20 21  1  0  0  0
 21 22  1  0  0  0
 21 24  1  0  0  0
 22 23  2  0  0  0
 22 28  1  0  0  0
 24 25  1  0  0  0
 25 26  1  0  0  0
 25 27  1  0  0  0
 28 29  1  0  0  0
 29 30  1  0  0  0
 29 32  1  0  0  0
 30 31  2  0  0  0
 30 37  1  0  0  0
 32 33  1  0  0  0
 33 34  1  0  0  0
 34 35  1  0  0  0
 35 36  1  0  0  0
 37 38  1  0  0  0
 38 39  1  0  0  0
 38 41  1  0  0  0
 39 40  2  0  0  0
 39 46  1  0  0  0
 41 42  1  0  0  0
 42 43  1  0  0  0
 43 44  1  0  0  0
 43 45  2  0  0  0
 46 47  1  0  0  0
 47 48  1  0  0  0
 47 50  1  0  0  0
 48 49  2  0  0  0
 48 58  1  0  0  0
 50 51  1  0  0  0
 51 52  4  0  0  0
 51 53  4  0  0  0
 52 54  4  0  0  0
 53 55  4  0  0  0
 54 56  4  0  0  0
 55 56  4  0  0  0
 56 57  1  0  0  0
 58 59  1  0  0  0
 59 60  1  0  0  0
 60 61  2  0  0  0
 60 62  1  0  0  0
 62 63  1  0  0  0
 63 64  1  0  0  0
 63 66  1  0  0  0
 64 65  2  0  0  0
 66 67  1  0  0  0
 66 68  1  0  0  0
 64 69  1  0  0  0
  4 70  1  0  0  0
  5 71  1  0  0  0
  6 72  1  0  0  0
  7 73  1  0  0  0
  8 74  1  0  0  0
  9 75  1  0  0  0
 10 76  1  0  0  0
 10 77  1  0  0  0
 13 78  1  0  0  0
 14 79  1  0  0  0
 17 80  1  0  0  0
 18 81  1  0  0  0
 18 82  1  0  0  0
 18 83  1  0  0  0
 19 84  1  0  0  0
 19 85  1  0  0  0
 19 86  1  0  0  0
 20 87  1  0  0  0
 21 88  1  0  0  0
 24 89  1  0  0  0
 24 90  1  0  0  0
 25 91  1  0  0  0
 26 92  1  0  0  0
 26 93  1  0  0  0
 26 94  1  0  0  0
 27 95  1  0  0  0
 27 96  1  0  0  0
 27 97  1  0  0  0
 28 98  1  0  0  0
 29 99  1  0  0  0
 32100  1  0  0  0
 32101  1  0  0  0
 33102  1  0  0  0
 33103  1  0  0  0
 34104  1  0  0  0
 34105  1  0  0  0
 35106  1  0  0  0
 35107  1  0  0  0
 36108  1  0  0  0
 36109  1  0  0  0
 36110  1  0  0  0
 37111  1  0  0  0
 38112  1  0  0  0
 41113  1  0  0  0
 41114  1  0  0  0
 42115  1  0  0  0
 42116  1  0  0  0
 44117  1  0  0  0
 46118  1  0  0  0
 47119  1  0  0  0
 50120  1  0  0  0
 50121  1  0  0  0
 52122  1  0  0  0
 53123  1  0  0  0
 54124  1  0  0  0
 55125  1  0  0  0
 57126  1  0  0  0
 58127  1  0  0  0
 59128  1  0  0  0
 59129  1  0  0  0
 62130  1  0  0  0
 63131  1  0  0  0
 66132  1  0  0  0
 67133  1  0  0  0
 67134  1  0  0  0
 67135  1  0  0  0
 68136  1  0  0  0
 68137  1  0  0  0
 68138  1  0  0  0
 69139  1  0  0  0
M  END
$$$$
