### 
### Created by X-TOOL on Mon Sep 10 21:13:18 2018
### 

@<TRIPOS>MOLECULE
4utv_ligand
  137   138     1     0     0
SMALL
GAST_HUCK


@<TRIPOS>ATOM
      1 C          35.7580   25.6680   11.2650 C.2       1 BEZ         0.2070
      2 O1         35.0890   26.6990   11.3980 O.2       1 BEZ        -0.3845
      3 C1         36.6480   25.3100   12.2680 C.ar      1 BEZ         0.0500
      4 C2         37.6900   24.4290   12.0090 C.ar      1 BEZ        -0.0419
      5 C3         38.5220   24.0610   13.0460 C.ar      1 BEZ        -0.0562
      6 C4         38.2950   24.5860   14.3150 C.ar      1 BEZ        -0.0575
      7 C5         37.2470   25.4560   14.5680 C.ar      1 BEZ        -0.0562
      8 C6         36.4140   25.8150   13.5360 C.ar      1 BEZ        -0.0419
      9 N          35.6010   24.7450   10.2590 N.am      1 GLY        -0.2676
     10 CA         34.6090   24.9510    9.1630 C.3       1 GLY         0.1197
     11 C          34.7680   23.8120    8.2040 C.2       1 GLY         0.2007
     12 O          35.8210   23.1930    8.0870 O.2       1 GLY        -0.3947
     13 N          33.6690   23.5070    7.5320 N.am      1 VAL        -0.2637
     14 CA         33.6200   22.4460    6.5590 C.3       1 VAL         0.1332
     15 C          34.2950   22.8380    5.2600 C.2       1 VAL         0.2041
     16 O          33.8890   23.8050    4.6210 O.2       1 VAL        -0.3944
     17 CB         32.1810   22.1130    6.1890 C.3       1 VAL        -0.0063
     18 CG1        32.1670   20.8370    5.3570 C.3       1 VAL        -0.0584
     19 CG2        31.3170   21.9910    7.4390 C.3       1 VAL        -0.0584
     20 N          35.3280   22.0940    4.8890 N.am      1 LEU        -0.2637
     21 CA         36.0080   22.2520    3.6070 C.3       1 LEU         0.1312
     22 C          35.0810   21.7660    2.4960 C.2       1 LEU         0.2039
     23 O          34.4060   20.7720    2.6920 O.2       1 LEU        -0.3944
     24 CB         37.2780   21.3870    3.5960 C.3       1 LEU        -0.0101
     25 CG         38.3930   21.8740    4.5160 C.3       1 LEU        -0.0425
     26 CD1        39.4300   20.7800    4.7100 C.3       1 LEU        -0.0625
     27 CD2        39.0410   23.1480    3.9870 C.3       1 LEU        -0.0625
     28 N          35.0620   22.4260    1.3320 N.am      1 LYS        -0.2637
     29 CA         34.1930   21.9540    0.2460 C.3       1 LYS         0.1310
     30 C          34.7960   20.6790   -0.2580 C.2       1 LYS         0.2039
     31 O          35.9990   20.5290   -0.2620 O.2       1 LYS        -0.3944
     32 CB         33.7730   22.9370   -0.8750 C.3       1 LYS        -0.0122
     33 CG         34.9380   23.5440   -1.6760 C.3       1 LYS        -0.0440
     34 CD         34.2010   24.3730   -2.7590 C.3       1 LYS        -0.0124
     35 CE         34.4690   23.5910   -3.9910 C.3       1 LYS        -0.0354
     36 NZ         34.5660   24.3850   -5.2310 N.4       1 LYS         0.2185
     37 N          33.9350   19.7460   -0.6500 N.am      1 GLU        -0.2636
     38 CA         34.3350   18.3770   -1.0080 C.3       1 GLU         0.1325
     39 C          35.0930   17.6670    0.1120 C.2       1 GLU         0.2041
     40 O          35.7320   16.6600   -0.1330 O.2       1 GLU        -0.3944
     41 CB         35.2260   18.3830   -2.2190 C.3       1 GLU        -0.0008
     42 CG         34.7930   19.3750   -3.2600 C.3       1 GLU         0.0044
     43 CD         33.7890   18.7800   -4.2030 C.2       1 GLU         0.0350
     44 OE1        33.0110   17.8910   -3.7390 O.co2     1 GLU        -0.5690
     45 OE2        33.8210   19.2010   -5.3940 O.co2     1 GLU        -0.5690
     46 N          35.0070   18.2030    1.3300 N.am      1 TYR        -0.2621
     47 CA         35.6430   17.5970    2.4920 C.3       1 TYR         0.1390
     48 C          37.1430   17.6530    2.3340 C.2       1 TYR         0.2055
     49 O          37.8500   16.8620    2.9420 O.2       1 TYR        -0.3942
     50 CB         35.2170   16.1380    2.6650 C.3       1 TYR         0.0163
     51 CG         33.7430   15.9340    2.9290 C.ar      1 TYR        -0.0493
     52 CD1        33.0830   16.6430    3.9270 C.ar      1 TYR        -0.0685
     53 CD2        33.0230   15.0190    2.1950 C.ar      1 TYR        -0.0685
     54 CE1        31.7450   16.4380    4.1880 C.ar      1 TYR        -0.0398
     55 CE2        31.6900   14.8000    2.4430 C.ar      1 TYR        -0.0398
     56 CZ         31.0530   15.5170    3.4400 C.ar      1 TYR         0.0805
     57 OH         29.7090   15.2940    3.6650 O.3       1 TYR        -0.3376
     58 N          37.6130   18.5790    1.5020 N.am      1 GLY        -0.2663
     59 CA         39.0340   18.7470    1.2480 C.3       1 GLY         0.1201
     60 C          39.5490   17.6980    0.2830 C.2       1 GLY         0.2003
     61 O          40.7380   17.6400    0.0260 O.2       1 GLY        -0.3947
     62 N          38.6660   16.8590   -0.2540 N.am      1 VAL        -0.2670
     63 CA         39.0990   15.8000   -1.1860 C.3       1 VAL         0.1248
     64 C          38.9920   16.2070   -2.6660 C.2       1 VAL         0.2152
     65 O          39.2890   17.3450   -3.0440 O.co2     1 VAL        -0.4120
     66 CB         38.2940   14.4930   -0.9840 C.3       1 VAL        -0.0094
     67 CG1        38.2620   13.6780   -2.2800 C.3       1 VAL        -0.0589
     68 CG2        38.8610   13.6850    0.1840 C.3       1 VAL        -0.0589
     69 H          37.8466   24.0377   11.0103 H         1 BEZ         0.0669
     70 H          39.3415   23.3723   12.8749 H         1 BEZ         0.0629
     71 H          38.9562   24.3065   15.1273 H         1 BEZ         0.0653
     72 H          37.0865   25.8479   15.5659 H         1 BEZ         0.0629
     73 H          35.5819   26.4869   13.7126 H         1 BEZ         0.0669
     74 H          36.1632   23.9180   10.2613 H         1 GLY         0.1874
     75 H          34.8049   25.9049    8.6514 H         1 GLY         0.0763
     76 H          33.5888   24.9582    9.5741 H         1 GLY         0.0763
     77 H          32.8382   24.0352    7.7072 H         1 VAL         0.1883
     78 H          34.1137   21.5581    6.9807 H         1 VAL         0.0802
     79 H          31.7774   22.9316    5.5750 H         1 VAL         0.0343
     80 H          31.1307   20.5882    5.0847 H         1 VAL         0.0234
     81 H          32.6002   20.0127    5.9425 H         1 VAL         0.0234
     82 H          32.7599   20.9887    4.4430 H         1 VAL         0.0234
     83 H          31.3577   22.9326    8.0062 H         1 VAL         0.0234
     84 H          31.6929   21.1689    8.0658 H         1 VAL         0.0234
     85 H          30.2770   21.7835    7.1471 H         1 VAL         0.0234
     86 H          35.6574   21.3901    5.5183 H         1 LEU         0.1883
     87 H          36.2697   23.3084    3.4475 H         1 LEU         0.0800
     88 H          37.6681   21.3653    2.5677 H         1 LEU         0.0315
     89 H          37.0006   20.3683    3.9045 H         1 LEU         0.0315
     90 H          37.9492   22.1030    5.4961 H         1 LEU         0.0298
     91 H          40.2272   21.1442    5.3747 H         1 LEU         0.0232
     92 H          39.8613   20.5066    3.7357 H         1 LEU         0.0232
     93 H          38.9521   19.8974    5.1601 H         1 LEU         0.0232
     94 H          38.2717   23.9231    3.8552 H         1 LEU         0.0232
     95 H          39.5219   22.9404    3.0197 H         1 LEU         0.0232
     96 H          39.7970   23.5000    4.7043 H         1 LEU         0.0232
     97 H          35.6355   23.2349    1.2025 H         1 LYS         0.1883
     98 H          33.2436   21.6809    0.7297 H         1 LYS         0.0800
     99 H          33.2102   23.7615   -0.4130 H         1 LYS         0.0312
    100 H          33.1213   22.3962   -1.5769 H         1 LYS         0.0312
    101 H          35.5600   22.7589   -2.1307 H         1 LYS         0.0269
    102 H          35.5652   24.1870   -1.0410 H         1 LYS         0.0269
    103 H          34.6156   25.3891   -2.8339 H         1 LYS         0.0317
    104 H          33.1225   24.4314   -2.5508 H         1 LYS         0.0317
    105 H          33.6538   22.8631   -4.1160 H         1 LYS         0.0813
    106 H          35.4204   23.0561   -3.8543 H         1 LYS         0.0813
    107 H          34.7484   23.7713   -6.0095 H         1 LYS         0.1994
    108 H          35.3174   25.0515   -5.1454 H         1 LYS         0.1994
    109 H          33.6985   24.8746   -5.3852 H         1 LYS         0.1994
    110 H          32.9660   19.9870   -0.7043 H         1 GLU         0.1883
    111 H          33.4235   17.8044   -1.2343 H         1 GLU         0.0801
    112 H          35.2163   17.3782   -2.6666 H         1 GLU         0.0330
    113 H          36.2489   18.6327   -1.9006 H         1 GLU         0.0330
    114 H          35.6740   19.6986   -3.8336 H         1 GLU         0.0433
    115 H          34.3417   20.2443   -2.7595 H         1 GLU         0.0433
    116 H          34.4884   19.0496    1.4497 H         1 TYR         0.1885
    117 H          35.3513   18.1619    3.3897 H         1 TYR         0.0821
    118 H          35.7777   15.7162    3.5122 H         1 TYR         0.0453
    119 H          35.4781   15.5941    1.7452 H         1 TYR         0.0453
    120 H          33.6322   17.3720    4.5118 H         1 TYR         0.0530
    121 H          33.5167   14.4614    1.4073 H         1 TYR         0.0530
    122 H          31.2461   16.9957    4.9723 H         1 TYR         0.0525
    123 H          31.1401   14.0694    1.8608 H         1 TYR         0.0525
    124 H          29.4107   15.8526    4.3731 H         1 TYR         0.2458
    125 H          36.9653   19.1808    1.0348 H         1 GLY         0.1881
    126 H          39.5807   18.6587    2.1984 H         1 GLY         0.0763
    127 H          39.2055   19.7447    0.8176 H         1 GLY         0.0763
    128 H          37.6971   16.9475   -0.0229 H         1 VAL         0.1876
    129 H          40.1566   15.5890   -0.9695 H         1 VAL         0.0754
    130 O2         38.5929   15.3614   -3.5106 O.co2     1 VAL        -0.4120
    131 H          37.2585   14.7657   -0.7323 H         1 VAL         0.0336
    132 H          37.6868   12.7544   -2.1182 H         1 VAL         0.0234
    133 H          39.2896   13.4225   -2.5780 H         1 VAL         0.0234
    134 H          37.7865   14.2715   -3.0748 H         1 VAL         0.0234
    135 H          38.8657   14.3064    1.0916 H         1 VAL         0.0234
    136 H          39.8889   13.3720   -0.0514 H         1 VAL         0.0234
    137 H          38.2362   12.7954    0.3520 H         1 VAL         0.0234
@<TRIPOS>BOND
     1    1    2 2  
     2    1    3 1  
     3    1    9 am 
     4    3    4 ar 
     5    3    8 ar 
     6    4    5 ar 
     7    5    6 ar 
     8    6    7 ar 
     9    7    8 ar 
    10    9   10 1  
    11   10   11 1  
    12   11   12 2  
    13   11   13 am 
    14   13   14 1  
    15   14   15 1  
    16   14   17 1  
    17   15   16 2  
    18   15   20 am 
    19   17   18 1  
    20   17   19 1  
    21   20   21 1  
    22   21   22 1  
    23   21   24 1  
    24   22   23 2  
    25   22   28 am 
    26   24   25 1  
    27   25   26 1  
    28   25   27 1  
    29   28   29 1  
    30   29   30 1  
    31   29   32 1  
    32   30   31 2  
    33   30   37 am 
    34   32   33 1  
    35   33   34 1  
    36   34   35 1  
    37   35   36 1  
    38   37   38 1  
    39   38   39 1  
    40   38   41 1  
    41   39   40 2  
    42   39   46 am 
    43   41   42 1  
    44   42   43 1  
    45   43   44 ar 
    46   43   45 ar 
    47   46   47 1  
    48   47   48 1  
    49   47   50 1  
    50   48   49 2  
    51   48   58 am 
    52   50   51 1  
    53   51   52 ar 
    54   51   53 ar 
    55   52   54 ar 
    56   53   55 ar 
    57   54   56 ar 
    58   55   56 ar 
    59   56   57 1  
    60   58   59 1  
    61   59   60 1  
    62   60   61 2  
    63   60   62 am 
    64   62   63 1  
    65   63   64 1  
    66   63   66 1  
    67   64   65 ar 
    68   66   67 1  
    69   66   68 1  
    70    4   69 1  
    71    5   70 1  
    72    6   71 1  
    73    7   72 1  
    74    8   73 1  
    75    9   74 1  
    76   10   75 1  
    77   10   76 1  
    78   13   77 1  
    79   14   78 1  
    80   17   79 1  
    81   18   80 1  
    82   18   81 1  
    83   18   82 1  
    84   19   83 1  
    85   19   84 1  
    86   19   85 1  
    87   20   86 1  
    88   21   87 1  
    89   24   88 1  
    90   24   89 1  
    91   25   90 1  
    92   26   91 1  
    93   26   92 1  
    94   26   93 1  
    95   27   94 1  
    96   27   95 1  
    97   27   96 1  
    98   28   97 1  
    99   29   98 1  
   100   32   99 1  
   101   32  100 1  
   102   33  101 1  
   103   33  102 1  
   104   34  103 1  
   105   34  104 1  
   106   35  105 1  
   107   35  106 1  
   108   36  107 1  
   109   36  108 1  
   110   36  109 1  
   111   37  110 1  
   112   38  111 1  
   113   41  112 1  
   114   41  113 1  
   115   42  114 1  
   116   42  115 1  
   117   46  116 1  
   118   47  117 1  
   119   50  118 1  
   120   50  119 1  
   121   52  120 1  
   122   53  121 1  
   123   54  122 1  
   124   55  123 1  
   125   57  124 1  
   126   58  125 1  
   127   59  126 1  
   128   59  127 1  
   129   62  128 1  
   130   63  129 1  
   131   64  130 ar 
   132   66  131 1  
   133   67  132 1  
   134   67  133 1  
   135   67  134 1  
   136   68  135 1  
   137   68  136 1  
   138   68  137 1  
@<TRIPOS>SUBSTRUCTURE
     1 BEZ         1

