5v5d_ligand
  -I-interpret- 

 59 62  0  0  0  0  0  0  0  0999 V2000
   -1.8990  -29.9810  -41.9960 O   0  0  0  0  0
   -3.0710  -29.9770  -41.7780 C   0  0  0  0  0
   -3.9590  -31.2690  -41.9780 C   0  0  0  0  0
   -5.3200  -31.0620  -41.8680 N   0  0  0  0  0
   -6.1930  -32.1150  -41.9970 C   0  0  0  0  0
   -7.7350  -31.9500  -41.9080 C   0  0  0  0  0
   -8.5620  -31.7400  -43.2240 C   0  0  0  0  0
   -7.7050  -31.3620  -44.4510 C   0  0  0  0  0
   -8.4770  -31.0380  -45.7370 C   0  0  0  0  0
   -9.9870  -30.9530  -45.5740 C   0  0  0  0  0
  -10.4380  -30.2830  -44.3010 C   0  0  0  0  0
   -9.6650  -30.6830  -43.0440 C   0  0  0  0  0
   -5.6740  -33.3990  -42.2310 C   0  0  0  0  0
   -4.3210  -33.6040  -42.3240 C   0  0  0  0  0
   -3.4160  -32.5290  -42.1910 C   0  0  0  0  0
   -3.7050  -28.7840  -41.3050 N   0  0  0  0  0
   -3.0960  -27.5070  -40.9970 C   0  0  0  0  0
   -1.8280  -27.0750  -41.4240 C   0  0  0  0  0
   -1.2630  -25.8450  -41.0890 C   0  0  0  0  0
   -1.9340  -24.9260  -40.2670 C   0  0  0  0  0
   -1.3480  -23.5160  -39.8440 C   0  0  0  0  0
   -2.1740  -22.8460  -39.1730 O   0  0  0  0  0
   -0.2290  -23.2310  -40.1740 O   0  0  0  0  0
   -3.1920  -25.3410  -39.8230 C   0  0  0  0  0
   -3.7880  -26.5720  -40.1410 C   0  0  0  0  0
   -5.0870  -26.9200  -39.6450 N   0  0  0  0  0
   -6.2520  -27.0840  -40.3990 C   0  0  0  0  0
   -6.3110  -26.9180  -41.7950 C   0  0  0  0  0
   -7.4590  -27.0700  -42.5850 C   0  0  0  0  0
   -8.7080  -27.4130  -42.0300 C   0  0  0  0  0
   -8.4830  -27.5380  -40.7050 C   0  0  0  0  0
   -7.5470  -27.4490  -39.7860 C   0  0  0  0  0
   -7.8842  -31.0339  -41.3365 H   0  0  0  0  0
   -8.0931  -32.8963  -41.5024 H   0  0  0  0  0
   -9.0083  -32.7148  -43.4209 H   0  0  0  0  0
   -7.0898  -32.2335  -44.6748 H   0  0  0  0  0
   -7.1667  -30.4537  -44.1802 H   0  0  0  0  0
   -8.2806  -31.8509  -46.4360 H   0  0  0  0  0
   -8.1398  -30.0558  -46.0682 H   0  0  0  0  0
  -10.3645  -31.9752  -45.5491 H   0  0  0  0  0
  -10.3654  -30.3543  -46.4025 H   0  0  0  0  0
  -11.4734  -30.5831  -44.1398 H   0  0  0  0  0
  -10.2798  -29.2133  -44.4379 H   0  0  0  0  0
   -9.1635  -29.7793  -42.6977 H   0  0  0  0  0
  -10.3970  -31.1229  -42.3667 H   0  0  0  0  0
   -6.3550  -34.2431  -42.3401 H   0  0  0  0  0
   -3.9399  -34.6094  -42.5028 H   0  0  0  0  0
   -2.3385  -32.6813  -42.2528 H   0  0  0  0  0
   -4.7141  -28.8407  -41.1674 H   0  0  0  0  0
   -1.2486  -27.7456  -42.0586 H   0  0  0  0  0
   -0.2758  -25.5908  -41.4750 H   0  0  0  0  0
   -2.9871  -23.3471  -39.0759 H   0  0  0  0  0
   -3.7519  -24.6592  -39.1828 H   0  0  0  0  0
   -5.1695  -27.0626  -38.6384 H   0  0  0  0  0
   -5.3862  -26.6485  -42.3051 H   0  0  0  0  0
   -7.3832  -26.9182  -43.6617 H   0  0  0  0  0
   -9.6524  -27.5482  -42.5572 H   0  0  0  0  0
   -9.4193  -27.8133  -40.2196 H   0  0  0  0  0
   -7.7038  -27.6204  -38.7210 H   0  0  0  0  0
  1  2  2  0  0  0
  2  3  1  0  0  0
  2 16  1  0  0  0
  3  4  4  0  0  0
  3 15  4  0  0  0
  4  5  4  0  0  0
  5  6  1  0  0  0
  5 13  4  0  0  0
  6  7  1  0  0  0
  7  8  1  0  0  0
  7 12  1  0  0  0
  8  9  1  0  0  0
  9 10  1  0  0  0
 10 11  1  0  0  0
 11 12  1  0  0  0
 13 14  4  0  0  0
 14 15  4  0  0  0
 16 17  1  0  0  0
 17 18  4  0  0  0
 17 25  4  0  0  0
 18 19  4  0  0  0
 19 20  4  0  0  0
 20 21  1  0  0  0
 20 24  4  0  0  0
 21 22  1  0  0  0
 21 23  2  0  0  0
 24 25  4  0  0  0
 25 26  1  0  0  0
 26 27  1  0  0  0
 27 28  4  0  0  0
 27 32  4  0  0  0
 28 29  4  0  0  0
 29 30  4  0  0  0
 30 31  4  0  0  0
 31 32  4  0  0  0
  6 33  1  0  0  0
  6 34  1  0  0  0
  7 35  1  0  0  0
  8 36  1  0  0  0
  8 37  1  0  0  0
  9 38  1  0  0  0
  9 39  1  0  0  0
 10 40  1  0  0  0
 10 41  1  0  0  0
 11 42  1  0  0  0
 11 43  1  0  0  0
 12 44  1  0  0  0
 12 45  1  0  0  0
 13 46  1  0  0  0
 14 47  1  0  0  0
 15 48  1  0  0  0
 16 49  1  0  0  0
 18 50  1  0  0  0
 19 51  1  0  0  0
 22 52  1  0  0  0
 24 53  1  0  0  0
 26 54  1  0  0  0
 28 55  1  0  0  0
 29 56  1  0  0  0
 30 57  1  0  0  0
 31 58  1  0  0  0
 32 59  1  0  0  0
M  END
$$$$
