3ncz_ligand
  -I-interpret- 

 41 43  0  0  0  0  0  0  0  0999 V2000
  -14.7170   -4.0320   42.3610 C   0  0  0  0  0
  -15.3240   -5.2590   41.7080 C   0  0  0  0  0
  -15.7550   -6.2170   42.8110 C   0  0  0  0  0
  -16.8890   -5.5840   43.6070 C   0  0  0  0  0
  -16.3180   -4.3670   44.3020 C   0  0  0  0  0
  -15.7740   -3.3940   43.2620 C   0  0  0  0  0
  -12.6520    1.2200   39.0810 C   0  0  0  0  0
  -13.9360    0.6330   39.0580 C   0  0  0  0  0
  -14.9430    1.1750   38.1390 C   0  0  0  0  0
  -14.6330    2.2090   37.3450 C   0  0  0  0  0
  -13.4050    2.7990   37.3610 N   0  0  0  0  0
  -12.4230    2.3570   38.1740 C   0  0  0  0  0
  -11.6760    0.7210   39.9480 C   0  0  0  0  0
  -11.9720   -0.3330   40.7730 C   0  0  0  0  0
  -13.2350   -0.9410   40.7430 C   0  0  0  0  0
  -14.2140   -0.4390   39.9030 C   0  0  0  0  0
  -11.3410    2.9090   38.1430 O   0  0  0  0  0
  -10.7740   -0.9750   41.8670 Cl  0  0  0  0  0
  -13.5670   -1.9960   41.6150 N   0  0  0  0  0
  -14.3840   -3.0150   41.3060 C   0  0  0  0  0
  -14.8400   -3.1230   40.1950 O   0  0  0  0  0
  -17.9400   -5.1610   42.6850 N   0  3  0  0  0
  -13.8261   -4.3240   42.9170 H   0  0  0  0  0
  -14.5929   -5.7391   41.0575 H   0  0  0  0  0
  -16.1829   -4.9751   41.0999 H   0  0  0  0  0
  -14.9117   -6.4185   43.4715 H   0  0  0  0  0
  -16.0953   -7.1540   42.3702 H   0  0  0  0  0
  -17.3063   -6.2875   44.3274 H   0  0  0  0  0
  -15.5115   -4.6746   44.9677 H   0  0  0  0  0
  -17.1021   -3.8785   44.8805 H   0  0  0  0  0
  -16.6047   -3.0751   42.6325 H   0  0  0  0  0
  -15.3081   -2.5623   43.7905 H   0  0  0  0  0
  -15.9408    0.7377   38.1022 H   0  0  0  0  0
  -15.3908    2.5920   36.6615 H   0  0  0  0  0
  -13.2241    3.5918   36.7452 H   0  0  0  0  0
  -10.6823    1.1686   39.9681 H   0  0  0  0  0
  -15.2085   -0.8852   39.9027 H   0  0  0  0  0
  -13.1569   -1.9848   42.5489 H   0  0  0  0  0
  -18.3274   -5.9789   42.2145 H   0  0  0  0  0
  -18.6771   -4.6863   43.2063 H   0  0  0  0  0
  -17.5469   -4.5235   41.9926 H   0  0  0  0  0
  1  2  1  0  0  0
  1  6  1  0  0  0
 20  1  1  0  0  0
  2  3  1  0  0  0
  3  4  1  0  0  0
  5  4  1  0  0  0
  4 22  1  0  0  0
  6  5  1  0  0  0
  8  7  4  0  0  0
  7 12  1  0  0  0
 13  7  4  0  0  0
  8  9  1  0  0  0
 16  8  4  0  0  0
  9 10  2  0  0  0
 10 11  1  0  0  0
 12 11  1  0  0  0
 12 17  2  0  0  0
 14 13  4  0  0  0
 15 14  4  0  0  0
 14 18  1  0  0  0
 15 16  4  0  0  0
 19 15  1  0  0  0
 19 20  1  0  0  0
 20 21  2  0  0  0
  1 23  1  0  0  0
  2 24  1  0  0  0
  2 25  1  0  0  0
  3 26  1  0  0  0
  3 27  1  0  0  0
  4 28  1  0  0  0
  5 29  1  0  0  0
  5 30  1  0  0  0
  6 31  1  0  0  0
  6 32  1  0  0  0
  9 33  1  0  0  0
 10 34  1  0  0  0
 11 35  1  0  0  0
 13 36  1  0  0  0
 16 37  1  0  0  0
 19 38  1  0  0  0
 22 39  1  0  0  0
 22 40  1  0  0  0
 22 41  1  0  0  0
M  END
$$$$
