6e5g_ligand
  -I-interpret- 

 32 33  0  0  0  0  0  0  0  0999 V2000
   23.6050   -7.3210   16.0290 C   0  0  0  0  0
   24.4980   -7.3290   17.2610 C   0  0  0  0  0
   25.5810   -6.8520   17.2130 O   0  0  0  0  0
   23.9850   -7.9410   18.5610 C   0  0  0  0  0
   22.8000   -7.5010   19.1280 C   0  0  0  0  0
   22.3530   -8.0680   20.3110 C   0  0  0  0  0
   23.0930   -9.0700   20.9210 C   0  0  0  0  0
   24.2770   -9.5100   20.3510 C   0  0  0  0  0
   24.7190   -8.9430   19.1670 C   0  0  0  0  0
   25.9550   -9.3700   18.5440 N   0  0  0  0  0
   26.3420  -10.7630   18.4410 C   0  0  0  0  0
   27.4250  -11.2050   19.1820 C   0  0  0  0  0
   27.8270  -12.5280   19.0980 C   0  0  0  0  0
   27.1500  -13.4010   18.2630 C   0  0  0  0  0
   26.0670  -12.9670   17.5170 C   0  0  0  0  0
   25.3480  -13.9680   16.6090 C   0  0  0  0  0
   25.7780  -13.8450   15.3180 F   0  0  0  0  0
   24.0000  -13.7560   16.6680 F   0  0  0  0  0
   25.6340  -15.2360   17.0240 F   0  0  0  0  0
   25.6630  -11.6400   17.6020 C   0  0  0  0  0
   23.4255   -6.2917   15.7186 H   0  0  0  0  0
   24.0964   -7.8647   15.2221 H   0  0  0  0  0
   22.6557   -7.8009   16.2668 H   0  0  0  0  0
   22.2219   -6.7126   18.6460 H   0  0  0  0  0
   21.4209   -7.7269   20.7615 H   0  0  0  0  0
   22.7417   -9.5133   21.8528 H   0  0  0  0  0
   24.8572  -10.2977   20.8316 H   0  0  0  0  0
   26.5796   -8.6601   18.1615 H   0  0  0  0  0
   27.9609  -10.5124   19.8310 H   0  0  0  0  0
   28.6735  -12.8807   19.6872 H   0  0  0  0  0
   27.4727  -14.4397   18.1923 H   0  0  0  0  0
   24.8164  -11.2876   17.0128 H   0  0  0  0  0
  1  2  1  0  0  0
  2  3  2  0  0  0
  2  4  1  0  0  0
  4  5  4  0  0  0
  4  9  4  0  0  0
  5  6  4  0  0  0
  6  7  4  0  0  0
  7  8  4  0  0  0
  8  9  4  0  0  0
  9 10  1  0  0  0
 10 11  1  0  0  0
 11 12  4  0  0  0
 11 20  4  0  0  0
 12 13  4  0  0  0
 13 14  4  0  0  0
 14 15  4  0  0  0
 15 16  1  0  0  0
 15 20  4  0  0  0
 16 17  1  0  0  0
 16 18  1  0  0  0
 16 19  1  0  0  0
  1 21  1  0  0  0
  1 22  1  0  0  0
  1 23  1  0  0  0
  5 24  1  0  0  0
  6 25  1  0  0  0
  7 26  1  0  0  0
  8 27  1  0  0  0
 10 28  1  0  0  0
 12 29  1  0  0  0
 13 30  1  0  0  0
 14 31  1  0  0  0
 20 32  1  0  0  0
M  END
$$$$
