### 
### Created by X-TOOL on Mon Sep 10 21:13:10 2018
### 

@<TRIPOS>MOLECULE
3rwc_ligand
  168   172     1     0     0
SMALL
GAST_HUCK


@<TRIPOS>ATOM
      1 N          12.4190   13.2340   -0.9400 N.4       1 ILE         0.2381
      2 CA         12.2350   14.5390   -0.3160 C.3       1 ILE         0.0676
      3 C          10.8320   15.0750   -0.5900 C.2       1 ILE         0.2270
      4 O          10.2930   14.9070   -1.6850 O.2       1 ILE        -0.3907
      5 CB         13.2830   15.5600   -0.8100 C.3       1 ILE         0.0164
      6 CG1        13.2410   16.8280    0.0420 C.3       1 ILE        -0.0460
      7 CG2        13.0670   15.8900   -2.2790 C.3       1 ILE        -0.0551
      8 CD1        14.2930   17.8430   -0.3300 C.3       1 ILE        -0.0647
      9 N          10.2410   15.7180    0.4100 N.am      1 ARG        -0.2610
     10 CA          8.8710   16.2040    0.3040 C.3       1 ARG         0.1312
     11 C           8.7920   17.4790   -0.5230 C.2       1 ARG         0.2040
     12 O           9.7910   18.1700   -0.7140 O.2       1 ARG        -0.3944
     13 CB          8.2870   16.4530    1.6960 C.3       1 ARG        -0.0092
     14 CG          8.2440   15.2210    2.5850 C.3       1 ARG        -0.0156
     15 CD          7.8220   15.5790    4.0010 C.3       1 ARG         0.0627
     16 NE          7.5970   14.3880    4.8130 N.pl3     1 ARG        -0.2723
     17 CZ          6.4350   13.7480    4.8900 C.cat     1 ARG         0.2882
     18 NH1         5.3880   14.1880    4.2050 N.pl3     1 ARG        -0.2849
     19 NH2         6.3180   12.6680    5.6510 N.pl3     1 ARG        -0.2849
     20 N           7.5950   17.7790   -1.0150 N.am      1 TYR        -0.2621
     21 CA          7.3520   19.0140   -1.7490 C.3       1 TYR         0.1392
     22 C           7.1690   20.1610   -0.7650 C.2       1 TYR         0.2082
     23 O           6.3110   20.0970    0.1140 O.2       1 TYR        -0.3940
     24 CB          6.1240   18.8740   -2.6520 C.3       1 TYR         0.0164
     25 CG          5.8120   20.1090   -3.4720 C.ar      1 TYR        -0.0493
     26 CD1         6.7300   20.6120   -4.3810 C.ar      1 TYR        -0.0685
     27 CD2         4.5910   20.7590   -3.3500 C.ar      1 TYR        -0.0685
     28 CE1         6.4480   21.7400   -5.1330 C.ar      1 TYR        -0.0398
     29 CE2         4.3000   21.8870   -4.0970 C.ar      1 TYR        -0.0398
     30 CZ          5.2300   22.3720   -4.9870 C.ar      1 TYR         0.0805
     31 OH          4.9330   23.4940   -5.7290 O.3       1 TYR        -0.3376
     32 N           7.9900   21.2150   -0.9070 N.am      1 PRO        -0.2497
     33 CA          8.0480   22.3480    0.0240 C.3       1 PRO         0.1338
     34 C           6.7020   23.0220    0.2510 C.2       1 PRO         0.2041
     35 O           6.2590   23.1440    1.3940 O.2       1 PRO        -0.3944
     36 CB          8.9670   23.3380   -0.6960 C.3       1 PRO        -0.0104
     37 CG          9.8480   22.4910   -1.5090 C.3       1 PRO        -0.0281
     38 CD          8.9990   21.3440   -1.9710 C.3       1 PRO         0.0369
     39 N           6.0700   23.4710   -0.8280 N.am      1 LYS        -0.2637
     40 CA          4.8190   24.2060   -0.7280 C.3       1 LYS         0.1310
     41 C           3.6280   23.2610   -0.6650 C.2       1 LYS         0.2040
     42 O           3.6500   22.1840   -1.2570 O.2       1 LYS        -0.3944
     43 CB          4.6800   25.1610   -1.9110 C.3       1 LYS        -0.0122
     44 CG          3.3660   25.9250   -1.9380 C.3       1 LYS        -0.0440
     45 CD          3.2460   26.8990   -0.7670 C.3       1 LYS        -0.0124
     46 CE          1.9540   27.7050   -0.8690 C.3       1 LYS        -0.0354
     47 NZ          1.7970   28.7320    0.1990 N.4       1 LYS         0.2185
     48 N           2.6010   23.6630    0.0790 N.am      1 THR        -0.2613
     49 CA          1.3310   22.9460    0.0870 C.3       1 THR         0.1565
     50 C           0.1980   23.8490   -0.3950 C.2       1 THR         0.2066
     51 O           0.0260   24.9750    0.0790 O.2       1 THR        -0.3943
     52 CB          0.9800   22.3580    1.4840 C.3       1 THR         0.0924
     53 OG1         2.1070   21.6510    2.0120 O.3       1 THR        -0.3874
     54 CG2        -0.1920   21.3900    1.3780 C.3       1 THR        -0.0346
     55 N          -0.5810   23.3360   -1.3370 N.am      1 PHE        -0.2619
     56 CA         -1.6050   24.1300   -2.0000 C.3       1 PHE         0.1404
     57 C          -2.8740   24.1680   -1.1610 C.2       1 PHE         0.2058
     58 O          -3.3600   23.1300   -0.7200 O.2       1 PHE        -0.3942
     59 CB         -1.9170   23.5310   -3.3700 C.3       1 PHE         0.0214
     60 CG         -0.6990   23.2670   -4.2130 C.ar      1 PHE        -0.0386
     61 CD1         0.4660   23.9960   -4.0320 C.ar      1 PHE        -0.0601
     62 CD2        -0.7250   22.2900   -5.1920 C.ar      1 PHE        -0.0601
     63 CE1         1.5790   23.7520   -4.8130 C.ar      1 PHE        -0.0686
     64 CE2         0.3830   22.0420   -5.9740 C.ar      1 PHE        -0.0686
     65 CZ          1.5380   22.7750   -5.7850 C.ar      1 PHE        -0.0687
     66 N          -3.4100   25.3640   -0.9430 N.am      1 GLY        -0.2663
     67 CA         -4.6710   25.5150   -0.2410 C.3       1 GLY         0.1201
     68 C          -5.8660   25.3660   -1.1660 C.2       1 GLY         0.2003
     69 O          -5.8750   25.9030   -2.2750 O.2       1 GLY        -0.3947
     70 N          -6.8800   24.6330   -0.7150 N.am      1 TRP        -0.2687
     71 CA         -8.0740   24.4190   -1.5270 C.3       1 TRP         0.0986
     72 C          -8.8860   25.6970   -1.6690 C.2       1 TRP         0.0613
     73 O          -9.7920   25.7650   -2.4970 O.co2     1 TRP        -0.5665
     74 CB         -8.9530   23.3190   -0.9350 C.3       1 TRP        -0.0013
     75 CG         -8.3850   21.9500   -1.0790 C.2       1 TRP        -0.0424
     76 CD1        -7.1360   21.6200   -1.5180 C.2       1 TRP         0.0166
     77 CD2        -9.0480   20.7160   -0.7870 C.ar      1 TRP        -0.0214
     78 NE1        -6.9790   20.2550   -1.5140 N.pl3     1 TRP        -0.2891
     79 CE2        -8.1400   19.6770   -1.0690 C.ar      1 TRP         0.0603
     80 CE3       -10.3230   20.3890   -0.3120 C.ar      1 TRP        -0.0747
     81 CZ2        -8.4640   18.3340   -0.8930 C.ar      1 TRP        -0.0443
     82 CZ3       -10.6430   19.0560   -0.1380 C.ar      1 TRP        -0.0792
     83 CH2        -9.7180   18.0450   -0.4280 C.ar      1 TRP        -0.0768
     84 OXT        -8.6620   26.6770   -0.9590 O.co2     1 TRP        -0.5665
     85 H          11.7110   12.5884   -0.5903 H         1 ILE         0.2015
     86 H          12.3268   13.3262   -1.9516 H         1 ILE         0.2015
     87 H          13.3475   12.8778   -0.7130 H         1 ILE         0.2015
     88 H          12.3671   14.4032    0.7574 H         1 ILE         0.1101
     89 H          14.2709   15.1110   -0.7070 H         1 ILE         0.0378
     90 H          13.4236   16.5328    1.0753 H         1 ILE         0.0269
     91 H          12.2682   17.2941   -0.1148 H         1 ILE         0.0269
     92 H          12.0946   16.3663   -2.4039 H         1 ILE         0.0236
     93 H          13.8510   16.5676   -2.6169 H         1 ILE         0.0236
     94 H          13.1012   14.9717   -2.8652 H         1 ILE         0.0236
     95 H          15.2818   17.4012   -0.2073 H         1 ILE         0.0230
     96 H          14.1545   18.1440   -1.3684 H         1 ILE         0.0230
     97 H          14.2002   18.7147    0.3178 H         1 ILE         0.0230
     98 H          10.7589   15.8759    1.2744 H         1 ARG         0.1884
     99 H           8.2874   15.4350   -0.2021 H         1 ARG         0.0800
    100 H           7.2581   16.7851    1.5577 H         1 ARG         0.0313
    101 H           8.9307   17.1819    2.1885 H         1 ARG         0.0313
    102 H           9.2411   14.7821    2.6197 H         1 ARG         0.0301
    103 H           7.5186   14.5197    2.1727 H         1 ARG         0.0301
    104 H           6.8899   16.1417    3.9502 H         1 ARG         0.0689
    105 H           8.6197   16.1628    4.4604 H         1 ARG         0.0689
    106 H           8.3804   14.0239    5.3554 H         1 ARG         0.2642
    107 H           5.4744   15.0181    3.6186 H         1 ARG         0.2615
    108 H           4.4963   13.6963    4.2646 H         1 ARG         0.2615
    109 H           7.1212   12.3267    6.1790 H         1 ARG         0.2615
    110 H           5.4248   12.1787    5.7082 H         1 ARG         0.2615
    111 H           6.8240   17.1261   -0.8749 H         1 TYR         0.1885
    112 H           8.2111   19.2250   -2.3859 H         1 TYR         0.0821
    113 H           5.2668   18.6937   -2.0034 H         1 TYR         0.0453
    114 H           6.3313   18.0660   -3.3537 H         1 TYR         0.0453
    115 H           7.6900   20.1111   -4.5058 H         1 TYR         0.0530
    116 H           3.8475   20.3733   -2.6525 H         1 TYR         0.0530
    117 H           7.1847   22.1269   -5.8370 H         1 TYR         0.0525
    118 H           3.3392   22.3884   -3.9808 H         1 TYR         0.0525
    119 H           5.6762   23.7055   -6.2987 H         1 TYR         0.2458
    120 H           8.3812   22.0208    1.0089 H         1 PRO         0.0802
    121 H           9.5266   23.9603    0.0023 H         1 PRO         0.0313
    122 H           8.4076   24.0496   -1.3033 H         1 PRO         0.0313
    123 H          10.7057   22.1430   -0.9333 H         1 PRO         0.0287
    124 H          10.2615   23.0435   -2.3527 H         1 PRO         0.0287
    125 H           8.5541   21.5206   -2.9503 H         1 PRO         0.0524
    126 H           9.5741   20.4294   -2.1153 H         1 PRO         0.0524
    127 H           6.4720   23.2960   -1.7490 H         1 LYS         0.1883
    128 H           4.8346   24.7832    0.1965 H         1 LYS         0.0800
    129 H           4.7229   24.5594   -2.8189 H         1 LYS         0.0312
    130 H           5.4800   25.8967   -1.8283 H         1 LYS         0.0312
    131 H           2.5513   25.2044   -1.8668 H         1 LYS         0.0269
    132 H           3.3242   26.4985   -2.8640 H         1 LYS         0.0269
    133 H           4.0929   27.5848   -0.7898 H         1 LYS         0.0317
    134 H           3.2362   26.3324    0.1641 H         1 LYS         0.0317
    135 H           1.1257   27.0037   -0.7685 H         1 LYS         0.0813
    136 H           1.9744   28.2307   -1.8236 H         1 LYS         0.0813
    137 H           0.9153   29.2273    0.0658 H         1 LYS         0.1994
    138 H           1.7973   28.2752    1.1110 H         1 LYS         0.1994
    139 H           2.5713   29.3941    0.1488 H         1 LYS         0.1994
    140 H           2.7046   24.4952    0.6596 H         1 THR         0.1884
    141 H           1.4462   22.1070   -0.5993 H         1 THR         0.0826
    142 H           0.7118   23.1843    2.1424 H         1 THR         0.0639
    143 H           2.8493   22.2535    2.0988 H         1 THR         0.2101
    144 H          -1.0623   21.9167    0.9866 H         1 THR         0.0257
    145 H           0.0725   20.5733    0.7063 H         1 THR         0.0257
    146 H          -0.4216   20.9900    2.3656 H         1 THR         0.0257
    147 H          -0.4596   22.3591   -1.6042 H         1 PHE         0.1885
    148 H          -1.2321   25.1469   -2.1225 H         1 PHE         0.0823
    149 H          -2.5319   24.2534   -3.9068 H         1 PHE         0.0474
    150 H          -2.4072   22.5724   -3.2002 H         1 PHE         0.0474
    151 H           0.5043   24.7699   -3.2654 H         1 PHE         0.0557
    152 H          -1.6337   21.7084   -5.3472 H         1 PHE         0.0557
    153 H           2.4894   24.3317   -4.6609 H         1 PHE         0.0599
    154 H           0.3474   21.2681   -6.7407 H         1 PHE         0.0599
    155 H           2.4150   22.5817   -6.4027 H         1 PHE         0.0559
    156 H          -2.9235   26.1959   -1.2771 H         1 GLY         0.1881
    157 H          -4.7001   26.5152    0.1912 H         1 GLY         0.0763
    158 H          -4.7313   24.7351    0.5181 H         1 GLY         0.0763
    159 H          -6.8224   24.2137    0.2131 H         1 TRP         0.1876
    160 H          -7.7353   24.1089   -2.5155 H         1 TRP         0.0741
    161 H          -9.9001   23.3354   -1.4742 H         1 TRP         0.0390
    162 H          -9.0489   23.5197    0.1321 H         1 TRP         0.0390
    163 H          -6.3737   22.3352   -1.8269 H         1 TRP         0.0795
    164 H          -6.1366   19.7537   -1.7959 H         1 TRP         0.2216
    165 H         -11.0488   21.1696   -0.0840 H         1 TRP         0.0540
    166 H          -7.7469   17.5442   -1.1169 H         1 TRP         0.0541
    167 H         -11.6325   18.7866    0.2314 H         1 TRP         0.0510
    168 H         -10.0038   17.0036   -0.2798 H         1 TRP         0.0530
@<TRIPOS>BOND
     1    1    2 1  
     2    2    3 1  
     3    2    5 1  
     4    3    4 2  
     5    3    9 am 
     6    5    6 1  
     7    5    7 1  
     8    6    8 1  
     9    9   10 1  
    10   10   11 1  
    11   10   13 1  
    12   11   12 2  
    13   11   20 am 
    14   13   14 1  
    15   14   15 1  
    16   15   16 1  
    17   16   17 ar 
    18   17   18 ar 
    19   17   19 ar 
    20   20   21 1  
    21   21   22 1  
    22   21   24 1  
    23   22   23 2  
    24   22   32 am 
    25   24   25 1  
    26   25   26 ar 
    27   25   27 ar 
    28   26   28 ar 
    29   27   29 ar 
    30   28   30 ar 
    31   29   30 ar 
    32   30   31 1  
    33   32   33 1  
    34   32   38 1  
    35   33   34 1  
    36   33   36 1  
    37   34   35 2  
    38   34   39 am 
    39   36   37 1  
    40   37   38 1  
    41   39   40 1  
    42   40   41 1  
    43   40   43 1  
    44   41   42 2  
    45   41   48 am 
    46   43   44 1  
    47   44   45 1  
    48   45   46 1  
    49   46   47 1  
    50   48   49 1  
    51   49   50 1  
    52   49   52 1  
    53   50   51 2  
    54   50   55 am 
    55   52   53 1  
    56   52   54 1  
    57   55   56 1  
    58   56   57 1  
    59   56   59 1  
    60   57   58 2  
    61   57   66 am 
    62   59   60 1  
    63   60   61 ar 
    64   60   62 ar 
    65   61   63 ar 
    66   62   64 ar 
    67   63   65 ar 
    68   64   65 ar 
    69   66   67 1  
    70   67   68 1  
    71   68   69 2  
    72   68   70 am 
    73   70   71 1  
    74   71   72 1  
    75   71   74 1  
    76   72   73 ar 
    77   72   84 ar 
    78   74   75 1  
    79   75   76 2  
    80   75   77 1  
    81   76   78 1  
    82   77   79 ar 
    83   77   80 ar 
    84   78   79 1  
    85   79   81 ar 
    86   80   82 ar 
    87   81   83 ar 
    88   82   83 ar 
    89    1   85 1  
    90    1   86 1  
    91    1   87 1  
    92    2   88 1  
    93    5   89 1  
    94    6   90 1  
    95    6   91 1  
    96    7   92 1  
    97    7   93 1  
    98    7   94 1  
    99    8   95 1  
   100    8   96 1  
   101    8   97 1  
   102    9   98 1  
   103   10   99 1  
   104   13  100 1  
   105   13  101 1  
   106   14  102 1  
   107   14  103 1  
   108   15  104 1  
   109   15  105 1  
   110   16  106 1  
   111   18  107 1  
   112   18  108 1  
   113   19  109 1  
   114   19  110 1  
   115   20  111 1  
   116   21  112 1  
   117   24  113 1  
   118   24  114 1  
   119   26  115 1  
   120   27  116 1  
   121   28  117 1  
   122   29  118 1  
   123   31  119 1  
   124   33  120 1  
   125   36  121 1  
   126   36  122 1  
   127   37  123 1  
   128   37  124 1  
   129   38  125 1  
   130   38  126 1  
   131   39  127 1  
   132   40  128 1  
   133   43  129 1  
   134   43  130 1  
   135   44  131 1  
   136   44  132 1  
   137   45  133 1  
   138   45  134 1  
   139   46  135 1  
   140   46  136 1  
   141   47  137 1  
   142   47  138 1  
   143   47  139 1  
   144   48  140 1  
   145   49  141 1  
   146   52  142 1  
   147   53  143 1  
   148   54  144 1  
   149   54  145 1  
   150   54  146 1  
   151   55  147 1  
   152   56  148 1  
   153   59  149 1  
   154   59  150 1  
   155   61  151 1  
   156   62  152 1  
   157   63  153 1  
   158   64  154 1  
   159   65  155 1  
   160   66  156 1  
   161   67  157 1  
   162   67  158 1  
   163   70  159 1  
   164   71  160 1  
   165   74  161 1  
   166   74  162 1  
   167   76  163 1  
   168   78  164 1  
   169   80  165 1  
   170   81  166 1  
   171   82  167 1  
   172   83  168 1  
@<TRIPOS>SUBSTRUCTURE
     1 ILE         1

