2igw_ligand
  -I-interpret- 

 25 25  0  0  0  0  0  0  0  0999 V2000
   45.9500   17.5750   12.1590 N   0  3  0  0  0
   47.0840   16.7730   12.7260 C   0  0  0  0  0
   48.2790   17.6670   13.0540 C   0  0  0  0  0
   48.5410   18.6430   12.3260 O   0  0  0  0  0
   48.9960   17.3660   14.1420 N   0  0  0  0  0
   48.7050   16.2280   15.0270 C   0  0  0  0  0
   47.6640   16.5480   16.1520 C   0  0  0  0  0
   47.0480   17.6380   16.3450 O   0  0  0  0  0
   50.0780   15.9420   15.6400 C   0  0  0  0  0
   50.7360   17.3310   15.7500 C   0  0  0  0  0
   50.1430   18.1590   14.6220 C   0  0  0  0  0
   47.4060   15.6710   16.9800 O   0  0  0  0  0
   45.1678   16.9548   11.9497 H   0  0  0  0  0
   45.6571   18.2758   12.8397 H   0  0  0  0  0
   46.2569   18.0378   11.3034 H   0  0  0  0  0
   47.3932   16.0344   11.9864 H   0  0  0  0  0
   46.7463   16.2912   13.6435 H   0  0  0  0  0
   48.2536   15.3975   14.4842 H   0  0  0  0  0
   47.2970   18.2695   15.6662 H   0  0  0  0  0
   50.6658   15.2541   15.0323 H   0  0  0  0  0
   50.0025   15.4437   16.6065 H   0  0  0  0  0
   51.8207   17.2643   15.6657 H   0  0  0  0  0
   50.5421   17.7864   16.7211 H   0  0  0  0  0
   49.8405   19.1503   14.9595 H   0  0  0  0  0
   50.8680   18.3477   13.8302 H   0  0  0  0  0
  1  2  1  0  0  0
  2  3  1  0  0  0
  3  4  2  0  0  0
  3  5  1  0  0  0
  5  6  1  0  0  0
  5 11  1  0  0  0
  6  7  1  0  0  0
  6  9  1  0  0  0
  7  8  1  0  0  0
  7 12  2  0  0  0
  9 10  1  0  0  0
 10 11  1  0  0  0
  1 13  1  0  0  0
  1 14  1  0  0  0
  1 15  1  0  0  0
  2 16  1  0  0  0
  2 17  1  0  0  0
  6 18  1  0  0  0
  8 19  1  0  0  0
  9 20  1  0  0  0
  9 21  1  0  0  0
 10 22  1  0  0  0
 10 23  1  0  0  0
 11 24  1  0  0  0
 11 25  1  0  0  0
M  END
$$$$
