### 
### Created by X-TOOL on Mon Sep 10 21:12:51 2018
### 

@<TRIPOS>MOLECULE
1ru2_ligand
   45    47     1     0     0
SMALL
GAST_HUCK


@<TRIPOS>ATOM
      1 PG          3.2350   18.3530   10.0550 P.3       1 APC         0.2050
      2 O1G         2.8070   16.9570   10.3160 O.co2     1 APC        -0.5889
      3 O2G         2.1900   19.1380    9.2910 O.co2     1 APC        -0.5889
      4 O3G         4.6110   18.3660    9.4160 O.co2     1 APC        -0.5889
      5 PB          4.4380   18.9410   12.6020 P.3       1 APC         0.2111
      6 O1B         5.6410   18.3420   11.9300 O.co2     1 APC        -0.5572
      7 O2B         4.6100   20.2030   13.3730 O.co2     1 APC        -0.5572
      8 O3B         3.3830   19.1800   11.4330 O.3       1 APC        -0.1814
      9 PA          4.4800   17.5920   15.2320 P.3       1 APC         0.1405
     10 O1A         5.9790   17.6070   14.9680 O.co2     1 APC        -0.6193
     11 O2A         4.0130   18.5470   16.2640 O.co2     1 APC        -0.6193
     12 C3A         3.6500   17.7420   13.6720 C.3       1 APC         0.1358
     13 O5          4.2550   16.0990   15.7650 O.3       1 APC        -0.2758
     14 C5          2.9430   15.7130   16.3100 C.3       1 APC         0.1108
     15 C4          2.7550   14.2360   16.1380 C.3       1 APC         0.1190
     16 O4          2.8020   13.7880   14.7830 O.3       1 APC        -0.3364
     17 C3          3.6570   13.3680   16.9320 C.3       1 APC         0.1150
     18 O3          3.2610   13.3650   18.2700 O.3       1 APC        -0.3864
     19 C2          3.5640   12.0510   16.2350 C.3       1 APC         0.1385
     20 O2          2.8660   11.0080   16.9780 O.3       1 APC        -0.3836
     21 C1          2.7960   12.3360   14.9640 C.3       1 APC         0.2010
     22 N9          3.2680   11.8230   13.6890 N.pl3     1 APC        -0.1919
     23 C8          2.3350   11.1650   12.8250 C.2       1 APC         0.1123
     24 N7          2.9630   10.7790   11.7260 N.2       1 APC        -0.2958
     25 C5          4.3070   11.1970   11.8980 C.ar      1 APC         0.1045
     26 C6          5.3800   11.0380   11.0340 C.ar      1 APC         0.1298
     27 N6          5.3540   10.4590    9.8750 N.pl3     1 APC        -0.3152
     28 N1          6.6290   11.5540   11.4500 N.ar      1 APC        -0.2698
     29 C2          6.7290   12.1540   12.6180 C.ar      1 APC         0.0533
     30 N3          5.6760   12.3680   13.5810 N.ar      1 APC        -0.2714
     31 C4          4.4750   11.8330   13.1020 C.ar      1 APC         0.1613
     32 H1          3.6557   16.7624   13.1717 H         1 APC         0.0719
     33 H2          2.6112   18.0558   13.8518 H         1 APC         0.0719
     34 H3          2.1482   16.2504   15.7720 H         1 APC         0.0650
     35 H4          2.8990   15.9677   17.3792 H         1 APC         0.0650
     36 H5          1.7360   14.0348   16.5003 H         1 APC         0.0651
     37 H6          4.6920   13.7370   16.8816 H         1 APC         0.0648
     38 H7          2.3723   13.0358   18.3353 H         1 APC         0.2100
     39 H8          4.5775   11.6934   16.0008 H         1 APC         0.0676
     40 H9          3.3165   10.8505   17.7995 H         1 APC         0.2101
     41 H10         1.7699   11.9691   15.1141 H         1 APC         0.0996
     42 H11         1.2787   11.0075   13.0379 H         1 APC         0.1349
     43 H12         6.2140   10.3954    9.3117 H         1 APC         0.1820
     44 H13         4.4734   10.0624    9.5171 H         1 APC         0.1820
     45 H14         7.7105   12.5284   12.8854 H         1 APC         0.0996
@<TRIPOS>BOND
     1    1    2 ar 
     2    1    3 ar 
     3    1    4 ar 
     4    8    1 1  
     5    5    6 ar 
     6    5    7 ar 
     7    5    8 1  
     8   12    5 1  
     9    9   10 ar 
    10    9   11 ar 
    11    9   12 1  
    12    9   13 1  
    13   13   14 1  
    14   14   15 1  
    15   15   16 1  
    16   15   17 1  
    17   16   21 1  
    18   17   18 1  
    19   17   19 1  
    20   19   20 1  
    21   19   21 1  
    22   21   22 1  
    23   22   23 1  
    24   22   31 1  
    25   23   24 2  
    26   24   25 1  
    27   25   26 ar 
    28   25   31 ar 
    29   26   27 1  
    30   26   28 ar 
    31   28   29 ar 
    32   29   30 ar 
    33   30   31 ar 
    34   12   32 1  
    35   12   33 1  
    36   14   34 1  
    37   14   35 1  
    38   15   36 1  
    39   17   37 1  
    40   18   38 1  
    41   19   39 1  
    42   20   40 1  
    43   21   41 1  
    44   23   42 1  
    45   27   43 1  
    46   27   44 1  
    47   29   45 1  
@<TRIPOS>SUBSTRUCTURE
     1 APC         1

