1ru2_ligand
  -I-interpret- 

 49 51  0  0  0  0  0  0  0  0999 V2000
    3.2350   18.3530   10.0550 P   0  0  0  0  0
    2.8070   16.9570   10.3160 O   0  0  0  0  0
    2.1900   19.1380    9.2910 O   0  0  0  0  0
    4.6110   18.3660    9.4160 O   0  0  0  0  0
    4.4380   18.9410   12.6020 P   0  0  0  0  0
    5.6410   18.3420   11.9300 O   0  0  0  0  0
    4.6100   20.2030   13.3730 O   0  0  0  0  0
    3.3830   19.1800   11.4330 O   0  0  0  0  0
    4.4800   17.5920   15.2320 P   0  0  0  0  0
    5.9790   17.6070   14.9680 O   0  0  0  0  0
    4.0130   18.5470   16.2640 O   0  0  0  0  0
    3.6500   17.7420   13.6720 C   0  0  0  0  0
    4.2550   16.0990   15.7650 O   0  0  0  0  0
    2.9430   15.7130   16.3100 C   0  0  0  0  0
    2.7550   14.2360   16.1380 C   0  0  0  0  0
    2.8020   13.7880   14.7830 O   0  0  0  0  0
    3.6570   13.3680   16.9320 C   0  0  0  0  0
    3.2610   13.3650   18.2700 O   0  0  0  0  0
    3.5640   12.0510   16.2350 C   0  0  0  0  0
    2.8660   11.0080   16.9780 O   0  0  0  0  0
    2.7960   12.3360   14.9640 C   0  0  0  0  0
    3.2680   11.8230   13.6890 N   0  0  0  0  0
    2.3350   11.1650   12.8250 C   0  0  0  0  0
    2.9630   10.7790   11.7260 N   0  0  0  0  0
    4.3070   11.1970   11.8980 C   0  0  0  0  0
    5.3800   11.0380   11.0340 C   0  0  0  0  0
    5.3540   10.4590    9.8750 N   0  0  0  0  0
    6.6290   11.5540   11.4500 N   0  0  0  0  0
    6.7290   12.1540   12.6180 C   0  0  0  0  0
    5.6760   12.3680   13.5810 N   0  0  0  0  0
    4.4750   11.8330   13.1020 C   0  0  0  0  0
    2.5070   20.0322    9.1444 H   0  0  0  0  0
    4.8777   19.2734    9.2517 H   0  0  0  0  0
    5.3838   17.5375   11.4737 H   0  0  0  0  0
    6.1898   16.9612   14.2897 H   0  0  0  0  0
    3.6808   16.7719   13.1760 H   0  0  0  0  0
    2.6291   18.0741   13.8608 H   0  0  0  0  0
    2.1545   16.2470   15.7797 H   0  0  0  0  0
    2.8969   15.9674   17.3689 H   0  0  0  0  0
    1.7448   14.1225   16.5313 H   0  0  0  0  0
    4.6963   13.6932   16.9795 H   0  0  0  0  0
    3.8505   12.8008   18.7757 H   0  0  0  0  0
    4.5719   11.6633   16.0869 H   0  0  0  0  0
    2.8533   10.2007   16.4587 H   0  0  0  0  0
    1.8498   11.8263   15.1456 H   0  0  0  0  0
    1.2777   11.0074   13.0381 H   0  0  0  0  0
    4.4819   10.0663    9.5205 H   0  0  0  0  0
    6.2056   10.3960    9.3172 H   0  0  0  0  0
    7.7160   12.5304   12.8869 H   0  0  0  0  0
  1  2  2  0  0  0
  1  3  1  0  0  0
  1  4  1  0  0  0
  8  1  1  0  0  0
  5  6  1  0  0  0
  5  7  2  0  0  0
  5  8  1  0  0  0
 12  5  1  0  0  0
  9 10  1  0  0  0
  9 11  2  0  0  0
  9 12  1  0  0  0
  9 13  1  0  0  0
 13 14  1  0  0  0
 14 15  1  0  0  0
 15 16  1  0  0  0
 15 17  1  0  0  0
 16 21  1  0  0  0
 17 18  1  0  0  0
 17 19  1  0  0  0
 19 20  1  0  0  0
 19 21  1  0  0  0
 21 22  1  0  0  0
 22 23  4  0  0  0
 22 31  4  0  0  0
 23 24  4  0  0  0
 24 25  4  0  0  0
 25 26  4  0  0  0
 25 31  4  0  0  0
 26 27  1  0  0  0
 26 28  4  0  0  0
 28 29  4  0  0  0
 29 30  4  0  0  0
 30 31  4  0  0  0
  3 32  1  0  0  0
  4 33  1  0  0  0
  6 34  1  0  0  0
 10 35  1  0  0  0
 12 36  1  0  0  0
 12 37  1  0  0  0
 14 38  1  0  0  0
 14 39  1  0  0  0
 15 40  1  0  0  0
 17 41  1  0  0  0
 18 42  1  0  0  0
 19 43  1  0  0  0
 20 44  1  0  0  0
 21 45  1  0  0  0
 23 46  1  0  0  0
 27 47  1  0  0  0
 27 48  1  0  0  0
 29 49  1  0  0  0
M  END
$$$$
