4eyr_ligand
  -I-interpret- 

 98101  0  0  0  0  0  0  0  0999 V2000
   12.0480   -3.7360    4.9050 C   0  0  0  0  0
   12.0210   -3.7540    3.5250 C   0  0  0  0  0
   11.5240   -2.2750    2.7360 S   0  0  0  0  0
   11.3390   -1.7070    4.3820 C   0  0  0  0  0
   11.6750   -2.5490    5.3820 N   0  0  0  0  0
   12.3650   -4.9210    2.6340 C   0  0  0  0  0
   12.9190   -4.5380    1.3940 O   0  0  0  0  0
   14.0340   -5.3350    0.9260 C   0  0  0  0  0
   14.7540   -5.8970    1.7290 O   0  0  0  0  0
   14.2240   -5.3970   -0.3830 N   0  0  0  0  0
   14.9390   -6.4640   -1.0590 C   0  0  0  0  0
   16.4160   -6.5530   -0.6470 C   0  0  0  0  0
   16.6970   -7.7880    0.2120 C   0  0  0  0  0
   16.8340   -8.9850   -0.7200 C   0  0  0  0  0
   14.7980   -6.2110   -2.5590 C   0  0  0  0  0
   13.6290   -5.2830   -2.7530 C   0  0  0  0  0
   12.4940   -5.7450   -3.4220 C   0  0  0  0  0
   11.4090   -4.8870   -3.5660 C   0  0  0  0  0
   11.4710   -3.5930   -3.0440 C   0  0  0  0  0
   12.6040   -3.1420   -2.3680 C   0  0  0  0  0
   13.6860   -3.9860   -2.2230 C   0  0  0  0  0
   16.8460   -5.3600    0.0100 O   0  0  0  0  0
   17.6140  -10.1170   -0.0610 C   0  0  0  0  0
   16.7200  -11.2050    0.4890 C   0  0  0  0  0
   16.9590  -12.5310    0.1250 C   0  0  0  0  0
   16.1580  -13.5600    0.6190 C   0  0  0  0  0
   15.1140  -13.2540    1.4880 C   0  0  0  0  0
   14.8720  -11.9360    1.8640 C   0  0  0  0  0
   15.6760  -10.9110    1.3670 C   0  0  0  0  0
   17.5390   -8.5080   -1.8870 N   0  0  0  0  0
   18.1520  -10.7720   -3.2820 N   0  0  0  0  0
   17.9020   -9.5140   -4.0150 C   0  0  0  0  0
   17.0730   -8.6180   -3.1280 C   0  0  0  0  0
   16.0670   -8.0220   -3.5080 O   0  0  0  0  0
   17.3700   -9.6400   -5.4780 C   0  0  0  0  0
   16.1480   -8.7950   -5.8540 C   0  0  0  0  0
   18.4150   -9.3410   -6.5570 C   0  0  0  0  0
   19.3180  -11.3790   -2.9050 C   0  0  0  0  0
   19.2510  -12.6160   -2.3690 N   0  0  0  0  0
   20.3760  -13.2790   -1.7010 C   0  0  0  0  0
   20.4320  -10.8870   -3.0320 O   0  0  0  0  0
   20.6160  -12.9050   -0.2490 C   0  0  0  0  0
   21.2250  -11.7300    0.1830 C   0  0  0  0  0
   21.4170  -11.5520    1.9170 S   0  0  0  0  0
   20.6370  -13.1270    1.9790 C   0  0  0  0  0
   20.2990  -13.6890    0.8010 N   0  0  0  0  0
   20.4570  -13.6550    3.3500 C   0  0  0  0  0
   21.5840  -14.6280    3.6950 C   0  0  0  0  0
   19.0860  -14.3120    3.4700 C   0  0  0  0  0
   18.0580  -13.4600   -2.4460 C   0  0  0  0  0
   12.3374   -4.5843    5.5252 H   0  0  0  0  0
   10.9644   -0.7053    4.5924 H   0  0  0  0  0
   11.4400   -5.4594    2.4274 H   0  0  0  0  0
   13.1107   -5.5220    3.1544 H   0  0  0  0  0
   13.8420   -4.6439   -0.9550 H   0  0  0  0  0
   14.5094   -7.4251   -0.7763 H   0  0  0  0  0
   16.9965   -6.6580   -1.5636 H   0  0  0  0  0
   15.8824   -7.9503    0.9178 H   0  0  0  0  0
   17.6137   -7.6487    0.7850 H   0  0  0  0  0
   15.8536   -9.3875   -0.9746 H   0  0  0  0  0
   14.6328   -7.1485   -3.0900 H   0  0  0  0  0
   15.7091   -5.7650   -2.9578 H   0  0  0  0  0
   12.4590   -6.7578   -3.8234 H   0  0  0  0  0
   10.5118   -5.2238   -4.0853 H   0  0  0  0  0
   10.6191   -2.9243   -3.1672 H   0  0  0  0  0
   12.6347   -2.1325   -1.9580 H   0  0  0  0  0
   14.5798   -3.6465   -1.6995 H   0  0  0  0  0
   17.7704   -5.4461    0.2545 H   0  0  0  0  0
   18.1747   -9.6938    0.7724 H   0  0  0  0  0
   18.2555  -10.5651   -0.8198 H   0  0  0  0  0
   17.7803  -12.7647   -0.5525 H   0  0  0  0  0
   16.3472  -14.5932    0.3279 H   0  0  0  0  0
   14.4817  -14.0524    1.8766 H   0  0  0  0  0
   14.0543  -11.7052    2.5467 H   0  0  0  0  0
   15.4889   -9.8792    1.6645 H   0  0  0  0  0
   18.4460   -8.0613   -1.7517 H   0  0  0  0  0
   17.3078  -11.2756   -3.0096 H   0  0  0  0  0
   18.8722   -9.0585   -4.2133 H   0  0  0  0  0
   17.0833  -10.6915   -5.4613 H   0  0  0  0  0
   15.3088   -9.0671   -5.2139 H   0  0  0  0  0
   16.3824   -7.7391   -5.7187 H   0  0  0  0  0
   15.8867   -8.9798   -6.8960 H   0  0  0  0  0
   18.7785   -8.3205   -6.4361 H   0  0  0  0  0
   19.2469  -10.0384   -6.4585 H   0  0  0  0  0
   17.9608   -9.4520   -7.5416 H   0  0  0  0  0
   21.2713  -12.9750   -2.2434 H   0  0  0  0  0
   20.1445  -14.3441   -1.7045 H   0  0  0  0  0
   21.5629  -10.9650   -0.5161 H   0  0  0  0  0
   20.5031  -12.8354    4.0671 H   0  0  0  0  0
   21.5744  -15.4583    2.9888 H   0  0  0  0  0
   22.5409  -14.1095    3.6352 H   0  0  0  0  0
   21.4376  -15.0077    4.7062 H   0  0  0  0  0
   18.3114  -13.5742    3.2610 H   0  0  0  0  0
   19.0128  -15.1304    2.7538 H   0  0  0  0  0
   18.9574  -14.6994    4.4807 H   0  0  0  0  0
   17.2236  -12.9525   -1.9620 H   0  0  0  0  0
   17.8139  -13.6473   -3.4917 H   0  0  0  0  0
   18.2511  -14.4067   -1.9415 H   0  0  0  0  0
  2  1  4  0  0  0
  1  5  4  0  0  0
  2  3  4  0  0  0
  6  2  1  0  0  0
  3  4  4  0  0  0
  4  5  4  0  0  0
  7  6  1  0  0  0
  8  7  1  0  0  0
  8  9  2  0  0  0
 10  8  1  0  0  0
 11 10  1  0  0  0
 12 11  1  0  0  0
 11 15  1  0  0  0
 13 12  1  0  0  0
 12 22  1  0  0  0
 14 13  1  0  0  0
 14 23  1  0  0  0
 30 14  1  0  0  0
 15 16  1  0  0  0
 16 17  4  0  0  0
 16 21  4  0  0  0
 17 18  4  0  0  0
 18 19  4  0  0  0
 20 19  4  0  0  0
 21 20  4  0  0  0
 23 24  1  0  0  0
 24 25  4  0  0  0
 24 29  4  0  0  0
 25 26  4  0  0  0
 26 27  4  0  0  0
 28 27  4  0  0  0
 29 28  4  0  0  0
 33 30  1  0  0  0
 32 31  1  0  0  0
 31 38  1  0  0  0
 32 33  1  0  0  0
 32 35  1  0  0  0
 33 34  2  0  0  0
 35 36  1  0  0  0
 35 37  1  0  0  0
 38 39  1  0  0  0
 38 41  2  0  0  0
 39 40  1  0  0  0
 39 50  1  0  0  0
 40 42  1  0  0  0
 42 43  4  0  0  0
 42 46  4  0  0  0
 43 44  4  0  0  0
 44 45  4  0  0  0
 45 46  4  0  0  0
 45 47  1  0  0  0
 47 48  1  0  0  0
 47 49  1  0  0  0
  1 51  1  0  0  0
  4 52  1  0  0  0
  6 53  1  0  0  0
  6 54  1  0  0  0
 10 55  1  0  0  0
 11 56  1  0  0  0
 12 57  1  0  0  0
 13 58  1  0  0  0
 13 59  1  0  0  0
 14 60  1  0  0  0
 15 61  1  0  0  0
 15 62  1  0  0  0
 17 63  1  0  0  0
 18 64  1  0  0  0
 19 65  1  0  0  0
 20 66  1  0  0  0
 21 67  1  0  0  0
 22 68  1  0  0  0
 23 69  1  0  0  0
 23 70  1  0  0  0
 25 71  1  0  0  0
 26 72  1  0  0  0
 27 73  1  0  0  0
 28 74  1  0  0  0
 29 75  1  0  0  0
 30 76  1  0  0  0
 31 77  1  0  0  0
 32 78  1  0  0  0
 35 79  1  0  0  0
 36 80  1  0  0  0
 36 81  1  0  0  0
 36 82  1  0  0  0
 37 83  1  0  0  0
 37 84  1  0  0  0
 37 85  1  0  0  0
 40 86  1  0  0  0
 40 87  1  0  0  0
 43 88  1  0  0  0
 47 89  1  0  0  0
 48 90  1  0  0  0
 48 91  1  0  0  0
 48 92  1  0  0  0
 49 93  1  0  0  0
 49 94  1  0  0  0
 49 95  1  0  0  0
 50 96  1  0  0  0
 50 97  1  0  0  0
 50 98  1  0  0  0
M  END
$$$$
