5ali_ligand
  -I-interpret- 

 65 70  0  0  0  0  0  0  0  0999 V2000
   20.5580   -7.3760  -11.9490 C   0  0  0  0  0
   20.6100   -8.8000  -11.9500 O   0  0  0  0  0
   19.5780   -9.3130  -12.7240 C   0  0  0  0  0
   19.6020  -10.6750  -12.9460 C   0  0  0  0  0
   18.6010  -11.2560  -13.6970 C   0  0  0  0  0
   17.5890  -10.4840  -14.2280 C   0  0  0  0  0
   17.5570   -9.1230  -13.9860 C   0  0  0  0  0
   18.5560   -8.5330  -13.2390 C   0  0  0  0  0
   16.5850  -11.1330  -14.9820 N   0  0  0  0  0
   16.1020  -10.7120  -16.2070 C   0  0  0  0  0
   16.4280   -9.6760  -16.7660 O   0  0  0  0  0
   15.1900  -11.6200  -16.7100 N   0  0  0  0  0
   14.6380  -11.6100  -18.0070 C   0  0  0  0  0
   14.9300  -12.6390  -18.8810 C   0  0  0  0  0
   14.3660  -12.6570  -20.1420 C   0  0  0  0  0
   13.5040  -11.6520  -20.5380 C   0  0  0  0  0
   13.1810  -10.6290  -19.6650 C   0  0  0  0  0
   13.7570  -10.6210  -18.4040 C   0  0  0  0  0
   12.2710   -9.5510  -20.0170 C   0  0  0  0  0
   11.3360   -9.4480  -21.0420 C   0  0  0  0  0
   10.8160   -8.1830  -20.8930 N   0  0  0  0  0
   11.4490   -7.5810  -19.8490 C   0  0  0  0  0
   12.3200   -8.3870  -19.2950 N   0  0  0  0  0
    9.8880   -7.4190  -21.7250 C   0  0  0  0  0
    8.4780   -7.9370  -21.9040 C   0  0  0  0  0
    7.9110   -7.3850  -23.1890 C   0  0  0  0  0
    6.6100   -6.7350  -22.8110 C   0  0  0  0  0
    6.3930   -7.1030  -21.3660 C   0  0  0  0  0
    7.6500   -7.5080  -20.8300 O   0  0  0  0  0
   10.8560  -10.3390  -22.0460 C   0  0  0  0  0
   11.4580  -10.5230  -23.2030 N   0  0  0  0  0
   10.7210  -11.3670  -23.9990 C   0  0  0  0  0
   10.9940  -11.8070  -25.2890 C   0  0  0  0  0
   10.1070  -12.6150  -25.8860 N   0  0  0  0  0
    8.9980  -12.9480  -25.2170 C   0  0  0  0  0
    8.6240  -12.5950  -23.9830 N   0  0  0  0  0
    9.5330  -11.7900  -23.4290 C   0  0  0  0  0
    9.3620  -11.1650  -21.8420 S   0  0  0  0  0
   12.1670  -11.4540  -25.9620 N   0  0  0  0  0
   20.6590   -7.0093  -12.9705 H   0  0  0  0  0
   19.6034   -7.0489  -11.5369 H   0  0  0  0  0
   21.3720   -6.9844  -11.3389 H   0  0  0  0  0
   20.4042  -11.2859  -12.5319 H   0  0  0  0  0
   18.6101  -12.3319  -13.8717 H   0  0  0  0  0
   16.7436   -8.5169  -14.3848 H   0  0  0  0  0
   18.5409   -7.4587  -13.0552 H   0  0  0  0  0
   16.1828  -11.9840  -14.5890 H   0  0  0  0  0
   14.8881  -12.3671  -16.0846 H   0  0  0  0  0
   15.6061  -13.4376  -18.5755 H   0  0  0  0  0
   14.6025  -13.4693  -20.8292 H   0  0  0  0  0
   13.0775  -11.6656  -21.5410 H   0  0  0  0  0
   13.5099   -9.8174  -17.7103 H   0  0  0  0  0
   11.2560   -6.5608  -19.5173 H   0  0  0  0  0
   10.3244   -7.4343  -22.7237 H   0  0  0  0  0
    9.7756   -6.4608  -21.2177 H   0  0  0  0  0
    8.5058   -9.0264  -21.9276 H   0  0  0  0  0
    7.7630   -8.1714  -23.9292 H   0  0  0  0  0
    8.5932   -6.6714  -23.6512 H   0  0  0  0  0
    5.7898   -7.0777  -23.4418 H   0  0  0  0  0
    6.6434   -5.6546  -22.9512 H   0  0  0  0  0
    5.6671   -7.9120  -21.2850 H   0  0  0  0  0
    6.0006   -6.2504  -20.8117 H   0  0  0  0  0
    8.3035  -13.5964  -25.7513 H   0  0  0  0  0
   12.8556  -10.8550  -25.5067 H   0  0  0  0  0
   12.3344  -11.7954  -26.9085 H   0  0  0  0  0
  1  2  1  0  0  0
  2  3  1  0  0  0
  3  4  4  0  0  0
  3  8  4  0  0  0
  4  5  4  0  0  0
  5  6  4  0  0  0
  6  7  4  0  0  0
  6  9  1  0  0  0
  7  8  4  0  0  0
  9 10  1  0  0  0
 10 11  2  0  0  0
 10 12  1  0  0  0
 12 13  1  0  0  0
 13 14  4  0  0  0
 13 18  4  0  0  0
 14 15  4  0  0  0
 15 16  4  0  0  0
 16 17  4  0  0  0
 17 18  4  0  0  0
 17 19  1  0  0  0
 19 20  4  0  0  0
 19 23  4  0  0  0
 20 21  4  0  0  0
 20 30  1  0  0  0
 21 22  4  0  0  0
 21 24  1  0  0  0
 22 23  4  0  0  0
 24 25  1  0  0  0
 25 26  1  0  0  0
 25 29  1  0  0  0
 26 27  1  0  0  0
 27 28  1  0  0  0
 28 29  1  0  0  0
 30 31  4  0  0  0
 30 38  4  0  0  0
 31 32  4  0  0  0
 32 33  4  0  0  0
 32 37  4  0  0  0
 33 34  4  0  0  0
 33 39  1  0  0  0
 34 35  4  0  0  0
 35 36  4  0  0  0
 36 37  4  0  0  0
 37 38  4  0  0  0
  1 40  1  0  0  0
  1 41  1  0  0  0
  1 42  1  0  0  0
  4 43  1  0  0  0
  5 44  1  0  0  0
  7 45  1  0  0  0
  8 46  1  0  0  0
  9 47  1  0  0  0
 12 48  1  0  0  0
 14 49  1  0  0  0
 15 50  1  0  0  0
 16 51  1  0  0  0
 18 52  1  0  0  0
 22 53  1  0  0  0
 24 54  1  0  0  0
 24 55  1  0  0  0
 25 56  1  0  0  0
 26 57  1  0  0  0
 26 58  1  0  0  0
 27 59  1  0  0  0
 27 60  1  0  0  0
 28 61  1  0  0  0
 28 62  1  0  0  0
 35 63  1  0  0  0
 39 64  1  0  0  0
 39 65  1  0  0  0
M  END
$$$$
