16pk_ligand
  -I-interpret- 

 61 63  0  0  0  0  0  0  0  0999 V2000
  -10.9500   43.3720    1.3240 P   0  0  0  0  0
  -10.7050   44.1560    2.7080 O   0  0  0  0  0
  -12.3570   42.9850    1.0240 O   0  0  0  0  0
  -10.5430   44.7100   -1.2360 P   0  0  0  0  0
   -9.2280   44.3240   -1.7890 O   0  0  0  0  0
  -11.6620   44.1010   -1.9750 O   0  0  0  0  0
  -10.5050   44.4330    0.3040 O   0  0  0  0  0
  -10.6830   46.2930   -1.1960 O   0  0  0  0  0
   -9.7680   47.0560   -0.3860 C   0  0  0  0  0
   -9.2850   48.1550   -1.2910 C   0  0  0  0  0
  -10.3940   48.8990   -1.8350 O   0  0  0  0  0
   -8.3010   49.1040   -0.6250 C   0  0  0  0  0
   -7.0060   49.1130   -1.2160 O   0  0  0  0  0
   -9.0170   50.4470   -0.6620 C   0  0  0  0  0
   -8.1400   51.5930   -0.7490 O   0  0  0  0  0
   -9.9620   50.2590   -1.8420 C   0  0  0  0  0
  -11.0720   51.2710   -1.8030 N   0  0  0  0  0
  -11.9620   51.4490   -0.8210 C   0  0  0  0  0
  -12.7130   52.5090   -1.1270 N   0  0  0  0  0
  -12.3120   53.0210   -2.2690 C   0  0  0  0  0
  -12.6830   54.1210   -3.0360 C   0  0  0  0  0
  -13.6790   54.9520   -2.6120 N   0  0  0  0  0
  -12.0100   54.3360   -4.2050 N   0  0  0  0  0
  -11.0210   53.5330   -4.6310 C   0  0  0  0  0
  -10.6510   52.4780   -3.8870 N   0  0  0  0  0
  -11.2600   52.1990   -2.7250 C   0  0  0  0  0
   -9.8530   41.9250    1.2870 C   0  0  0  0  0
   -9.8770   41.4200    0.0380 F   0  0  0  0  0
  -10.3230   41.0660    2.1810 F   0  0  0  0  0
   -8.4430   42.3490    1.6950 C   0  0  0  0  0
   -7.4780   41.1570    1.6240 C   0  0  0  0  0
   -6.5430   41.1960    2.8350 C   0  0  0  0  0
   -5.2750   40.3280    2.6630 C   0  0  0  0  0
   -4.9130   40.0900    1.4110 F   0  0  0  0  0
   -4.2630   40.9560    3.2220 F   0  0  0  0  0
   -5.4520   38.7220    3.4960 P   0  0  0  0  0
   -6.3420   37.7990    2.6560 O   0  0  0  0  0
   -4.0650   38.0680    3.6150 O   0  0  0  0  0
   -5.9400   38.9810    4.9200 O   0  0  0  0  0
   -9.7705   44.3555    2.8004 H   0  0  0  0  0
   -8.5317   44.7428   -1.2777 H   0  0  0  0  0
   -8.9462   46.4443   -0.0138 H   0  0  0  0  0
  -10.2477   47.4482    0.5108 H   0  0  0  0  0
   -8.7458   47.6575   -2.0971 H   0  0  0  0  0
   -8.0601   48.7973    0.3928 H   0  0  0  0  0
   -6.4444   49.7322   -0.7440 H   0  0  0  0  0
   -9.5386   50.6901    0.2637 H   0  0  0  0  0
   -8.6656   52.3961   -0.7675 H   0  0  0  0  0
   -9.4642   50.4436   -2.7940 H   0  0  0  0  0
  -12.0576   50.8347    0.0743 H   0  0  0  0  0
  -14.1553   54.7681   -1.7290 H   0  0  0  0  0
  -13.9471   55.7570   -3.1781 H   0  0  0  0  0
  -10.5204   53.7371   -5.5775 H   0  0  0  0  0
   -8.4689   42.7218    2.7189 H   0  0  0  0  0
   -8.0963   43.1250    1.0125 H   0  0  0  0  0
   -6.8921   41.2140    0.7067 H   0  0  0  0  0
   -8.0447   40.2259    1.6285 H   0  0  0  0  0
   -7.0957   40.8033    3.6885 H   0  0  0  0  0
   -6.2183   42.2283    2.9652 H   0  0  0  0  0
   -5.9585   37.6950    1.7821 H   0  0  0  0  0
   -3.7210   37.8879    2.7370 H   0  0  0  0  0
  1  3  2  0  0  0
  1 27  1  0  0  0
  7  1  1  0  0  0
  1  2  1  0  0  0
  4  6  2  0  0  0
  4  7  1  0  0  0
  4  5  1  0  0  0
  8  4  1  0  0  0
  9  8  1  0  0  0
 10  9  1  0  0  0
 11 10  1  0  0  0
 12 10  1  0  0  0
 16 11  1  0  0  0
 14 12  1  0  0  0
 12 13  1  0  0  0
 16 14  1  0  0  0
 14 15  1  0  0  0
 17 16  1  0  0  0
 18 17  4  0  0  0
 19 18  4  0  0  0
 20 26  4  0  0  0
 20 21  4  0  0  0
 21 22  1  0  0  0
 21 23  4  0  0  0
 23 24  4  0  0  0
 25 24  4  0  0  0
 26 25  4  0  0  0
 27 28  1  0  0  0
 27 30  1  0  0  0
 27 29  1  0  0  0
 30 31  1  0  0  0
 31 32  1  0  0  0
 32 33  1  0  0  0
 33 36  1  0  0  0
 33 34  1  0  0  0
 33 35  1  0  0  0
 36 37  1  0  0  0
 36 39  2  0  0  0
 36 38  1  0  0  0
 19 20  4  0  0  0
 17 26  4  0  0  0
  2 40  1  0  0  0
  5 41  1  0  0  0
  9 42  1  0  0  0
  9 43  1  0  0  0
 10 44  1  0  0  0
 12 45  1  0  0  0
 13 46  1  0  0  0
 14 47  1  0  0  0
 15 48  1  0  0  0
 16 49  1  0  0  0
 18 50  1  0  0  0
 22 51  1  0  0  0
 22 52  1  0  0  0
 24 53  1  0  0  0
 30 54  1  0  0  0
 30 55  1  0  0  0
 31 56  1  0  0  0
 31 57  1  0  0  0
 32 58  1  0  0  0
 32 59  1  0  0  0
 37 60  1  0  0  0
 38 61  1  0  0  0
M  END
$$$$
