### 
### Created by X-TOOL on Mon Sep 10 21:12:46 2018
### 

@<TRIPOS>MOLECULE
16pk_ligand
   57    59     1     0     0
SMALL
GAST_HUCK


@<TRIPOS>ATOM
      1 PB        -10.9500   43.3720    1.3240 P.3       1 BIS         0.2335
      2 O2B       -10.7050   44.1560    2.7080 O.co2     1 BIS        -0.6114
      3 O3B       -12.3570   42.9850    1.0240 O.co2     1 BIS        -0.6114
      4 PA        -10.5430   44.7100   -1.2360 P.3       1 BIS         0.2954
      5 O1A        -9.2280   44.3240   -1.7890 O.co2     1 BIS        -0.6125
      6 O2A       -11.6620   44.1010   -1.9750 O.co2     1 BIS        -0.6125
      7 O3A       -10.5050   44.4330    0.3040 O.3       1 BIS        -0.1537
      8 O5'       -10.6830   46.2930   -1.1960 O.3       1 BIS        -0.2475
      9 C5'        -9.7680   47.0560   -0.3860 C.3       1 BIS         0.1128
     10 C4'        -9.2850   48.1550   -1.2910 C.3       1 BIS         0.1189
     11 O4'       -10.3940   48.8990   -1.8350 O.3       1 BIS        -0.3364
     12 C3'        -8.3010   49.1040   -0.6250 C.3       1 BIS         0.1149
     13 O3'        -7.0060   49.1130   -1.2160 O.3       1 BIS        -0.3864
     14 C2'        -9.0170   50.4470   -0.6620 C.3       1 BIS         0.1385
     15 O2'        -8.1400   51.5930   -0.7490 O.3       1 BIS        -0.3836
     16 C1'        -9.9620   50.2590   -1.8420 C.3       1 BIS         0.2010
     17 N9        -11.0720   51.2710   -1.8030 N.pl3     1 BIS        -0.1919
     18 C8        -11.9620   51.4490   -0.8210 C.2       1 BIS         0.1123
     19 N7        -12.7130   52.5090   -1.1270 N.2       1 BIS        -0.2958
     20 C5        -12.3120   53.0210   -2.2690 C.ar      1 BIS         0.1045
     21 C6        -12.6830   54.1210   -3.0360 C.ar      1 BIS         0.1298
     22 N6        -13.6790   54.9520   -2.6120 N.pl3     1 BIS        -0.3152
     23 N1        -12.0100   54.3360   -4.2050 N.ar      1 BIS        -0.2698
     24 C2        -11.0210   53.5330   -4.6310 C.ar      1 BIS         0.0533
     25 N3        -10.6510   52.4780   -3.8870 N.ar      1 BIS        -0.2714
     26 C4        -11.2600   52.1990   -2.7250 C.ar      1 BIS         0.1613
     27 C11        -9.8530   41.9250    1.2870 C.3       1 BIS         0.3372
     28 F11        -9.8770   41.4200    0.0380 F         1 BIS        -0.1828
     29 F12       -10.3230   41.0660    2.1810 F         1 BIS        -0.1828
     30 C12        -8.4430   42.3490    1.6950 C.3       1 BIS         0.0308
     31 C13        -7.4780   41.1570    1.6240 C.3       1 BIS        -0.0391
     32 C14        -6.5430   41.1960    2.8350 C.3       1 BIS         0.0271
     33 C15        -5.2750   40.3280    2.6630 C.3       1 BIS         0.3142
     34 F51        -4.9130   40.0900    1.4110 F         1 BIS        -0.1865
     35 F52        -4.2630   40.9560    3.2220 F         1 BIS        -0.1865
     36 PN         -5.4520   38.7220    3.4960 P.3       1 BIS         0.1320
     37 ON1        -6.3420   37.7990    2.6560 O.co2     1 BIS        -0.5584
     38 ON2        -4.0650   38.0680    3.6150 O.co2     1 BIS        -0.5584
     39 ON3        -5.9400   38.9810    4.9200 O.co2     1 BIS        -0.5584
     40 H1         -8.9274   46.4288   -0.0543 H         1 BIS         0.0648
     41 H2        -10.2824   47.4740    0.4918 H         1 BIS         0.0648
     42 H3         -8.7588   47.6750   -2.1293 H         1 BIS         0.0651
     43 H4         -8.1692   48.8006    0.4241 H         1 BIS         0.0648
     44 H5         -6.4540   49.7352   -0.7571 H         1 BIS         0.2100
     45 H6         -9.6076   50.5703    0.2577 H         1 BIS         0.0676
     46 H7         -7.5907   51.6296    0.0253 H         1 BIS         0.2101
     47 H8         -9.4000   50.4288   -2.7722 H         1 BIS         0.0996
     48 H9        -12.0575   50.8353    0.0735 H         1 BIS         0.1349
     49 H10       -13.9497   55.7649   -3.1836 H         1 BIS         0.1820
     50 H11       -14.1600   54.7663   -1.7203 H         1 BIS         0.1820
     51 H12       -10.5232   53.7359   -5.5723 H         1 BIS         0.0996
     52 H13        -8.4654   42.7350    2.7248 H         1 BIS         0.0341
     53 H14        -8.0921   43.1390    1.0148 H         1 BIS         0.0341
     54 H15        -6.8854   41.2175    0.6992 H         1 BIS         0.0270
     55 H16        -8.0512   40.2182    1.6315 H         1 BIS         0.0270
     56 H17        -7.0963   40.8338    3.7140 H         1 BIS         0.0338
     57 H18        -6.2318   42.2379    3.0013 H         1 BIS         0.0338
@<TRIPOS>BOND
     1    1    3 ar 
     2    1   27 1  
     3    7    1 1  
     4    1    2 ar 
     5    4    6 ar 
     6    4    7 1  
     7    4    5 ar 
     8    8    4 1  
     9    9    8 1  
    10   10    9 1  
    11   11   10 1  
    12   12   10 1  
    13   16   11 1  
    14   14   12 1  
    15   12   13 1  
    16   16   14 1  
    17   14   15 1  
    18   17   16 1  
    19   18   17 1  
    20   19   18 2  
    21   20   26 ar 
    22   20   21 ar 
    23   21   22 1  
    24   21   23 ar 
    25   23   24 ar 
    26   25   24 ar 
    27   26   25 ar 
    28   27   28 1  
    29   27   30 1  
    30   27   29 1  
    31   30   31 1  
    32   31   32 1  
    33   32   33 1  
    34   33   36 1  
    35   33   34 1  
    36   33   35 1  
    37   36   37 ar 
    38   36   39 ar 
    39   36   38 ar 
    40   19   20 1  
    41   17   26 1  
    42    9   40 1  
    43    9   41 1  
    44   10   42 1  
    45   12   43 1  
    46   13   44 1  
    47   14   45 1  
    48   15   46 1  
    49   16   47 1  
    50   18   48 1  
    51   22   49 1  
    52   22   50 1  
    53   24   51 1  
    54   30   52 1  
    55   30   53 1  
    56   31   54 1  
    57   31   55 1  
    58   32   56 1  
    59   32   57 1  
@<TRIPOS>SUBSTRUCTURE
     1 BIS         1

