### 
### Created by X-TOOL on Mon Sep 10 21:12:49 2018
### 

@<TRIPOS>MOLECULE
1ke3_ligand
   30    31     1     0     0
SMALL
GAST_HUCK


@<TRIPOS>ATOM
      1 B1         26.2970    5.0090   16.4010 B         1 BDB         0.7309
      2 OB1        25.3080    3.9330   16.7160 O.3       1 BDB        -0.4940
      3 OB2        26.4280    5.9110   17.5510 O.3       1 BDB        -0.4940
      4 CP1        25.7930    5.7760   15.1660 C.ar      1 BDB        -0.0529
      5 CP2        25.4890    5.0450   14.0440 C.ar      1 BDB        -0.0707
      6 CP3        24.9350    5.6270   12.9610 C.ar      1 BDB        -0.0551
      7 CP4        24.6510    7.0190   12.9650 C.ar      1 BDB        -0.0180
      8 CP5        25.0010    7.7770   14.1280 C.ar      1 BDB        -0.0551
      9 CP6        25.5620    7.1430   15.2030 C.ar      1 BDB        -0.0707
     10 CB1        23.9350    7.6190   11.8030 C.ar      1 BDB        -0.0180
     11 CB2        24.2260    7.2230   10.5120 C.ar      1 BDB        -0.0551
     12 CB3        23.5170    7.7050    9.4550 C.ar      1 BDB        -0.0707
     13 CB4        22.4610    8.6290    9.6730 C.ar      1 BDB        -0.0529
     14 CB5        22.1850    9.0440   10.9950 C.ar      1 BDB        -0.0707
     15 CB6        22.9180    8.5380   12.0240 C.ar      1 BDB        -0.0551
     16 B2         21.6480    9.1320    8.5420 B         1 BDB         0.7309
     17 OH1        22.0710   10.1950    7.6380 O.3       1 BDB        -0.4940
     18 OH2        20.3130    8.6220    8.1970 O.3       1 BDB        -0.4940
     19 H1         25.2260    3.3513   15.9693 H         1 BDB         0.1669
     20 H2         25.5842    6.3036   17.7418 H         1 BDB         0.1669
     21 H3         25.6980    3.9814   14.0286 H         1 BDB         0.0606
     22 H4         24.7057    5.0311   12.0850 H         1 BDB         0.0623
     23 H5         24.8228    8.8459   14.1568 H         1 BDB         0.0623
     24 H6         25.8270    7.7115   16.0871 H         1 BDB         0.0606
     25 H7         25.0309    6.5180   10.3383 H         1 BDB         0.0623
     26 H8         23.7581    7.3840    8.4481 H         1 BDB         0.0606
     27 H9         21.3949    9.7605   11.1884 H         1 BDB         0.0606
     28 H10        22.7034    8.8590   13.0369 H         1 BDB         0.0623
     29 H11        22.0990    9.8608    6.7491 H         1 BDB         0.1669
     30 H12        20.0715    7.9333    8.8051 H         1 BDB         0.1669
@<TRIPOS>BOND
     1    1    2 1  
     2    1    3 1  
     3    1    4 1  
     4    4    5 ar 
     5    4    9 ar 
     6    5    6 ar 
     7    6    7 ar 
     8    7    8 ar 
     9    7   10 1  
    10    8    9 ar 
    11   10   11 ar 
    12   10   15 ar 
    13   11   12 ar 
    14   12   13 ar 
    15   13   14 ar 
    16   13   16 1  
    17   14   15 ar 
    18   16   17 1  
    19   16   18 1  
    20    2   19 1  
    21    3   20 1  
    22    5   21 1  
    23    6   22 1  
    24    8   23 1  
    25    9   24 1  
    26   11   25 1  
    27   12   26 1  
    28   14   27 1  
    29   15   28 1  
    30   17   29 1  
    31   18   30 1  
@<TRIPOS>SUBSTRUCTURE
     1 BDB         1

