1ke3_ligand
  -I-interpret- 

 30 31  0  0  0  0  0  0  0  0999 V2000
   26.2970    5.0090   16.4010 B   0  0  0  0  0
   25.3080    3.9330   16.7160 O   0  0  0  0  0
   26.4280    5.9110   17.5510 O   0  0  0  0  0
   25.7930    5.7760   15.1660 C   0  0  0  0  0
   25.4890    5.0450   14.0440 C   0  0  0  0  0
   24.9350    5.6270   12.9610 C   0  0  0  0  0
   24.6510    7.0190   12.9650 C   0  0  0  0  0
   25.0010    7.7770   14.1280 C   0  0  0  0  0
   25.5620    7.1430   15.2030 C   0  0  0  0  0
   23.9350    7.6190   11.8030 C   0  0  0  0  0
   24.2260    7.2230   10.5120 C   0  0  0  0  0
   23.5170    7.7050    9.4550 C   0  0  0  0  0
   22.4610    8.6290    9.6730 C   0  0  0  0  0
   22.1850    9.0440   10.9950 C   0  0  0  0  0
   22.9180    8.5380   12.0240 C   0  0  0  0  0
   21.6480    9.1320    8.5420 B   0  0  0  0  0
   22.0710   10.1950    7.6380 O   0  0  0  0  0
   20.3130    8.6220    8.1970 O   0  0  0  0  0
   25.6053    3.4419   17.4855 H   0  0  0  0  0
   26.7429    5.4156   18.3106 H   0  0  0  0  0
   25.6992    3.9756   14.0285 H   0  0  0  0  0
   24.7045    5.0278   12.0801 H   0  0  0  0  0
   24.8218    8.8518   14.1569 H   0  0  0  0  0
   25.8284    7.7146   16.0920 H   0  0  0  0  0
   25.0353    6.5141   10.3373 H   0  0  0  0  0
   23.7594    7.3822    8.4425 H   0  0  0  0  0
   21.3905    9.7645   11.1894 H   0  0  0  0  0
   22.7022    8.8608   13.0425 H   0  0  0  0  0
   21.3842   10.3509    6.9856 H   0  0  0  0  0
   19.9791    9.0948    7.4311 H   0  0  0  0  0
  1  2  1  0  0  0
  1  3  1  0  0  0
  1  4  1  0  0  0
  4  5  4  0  0  0
  4  9  4  0  0  0
  5  6  4  0  0  0
  6  7  4  0  0  0
  7  8  4  0  0  0
  7 10  1  0  0  0
  8  9  4  0  0  0
 10 11  4  0  0  0
 10 15  4  0  0  0
 11 12  4  0  0  0
 12 13  4  0  0  0
 13 14  4  0  0  0
 13 16  1  0  0  0
 14 15  4  0  0  0
 16 17  1  0  0  0
 16 18  1  0  0  0
  2 19  1  0  0  0
  3 20  1  0  0  0
  5 21  1  0  0  0
  6 22  1  0  0  0
  8 23  1  0  0  0
  9 24  1  0  0  0
 11 25  1  0  0  0
 12 26  1  0  0  0
 14 27  1  0  0  0
 15 28  1  0  0  0
 17 29  1  0  0  0
 18 30  1  0  0  0
M  END
$$$$
