1meu_ligand
  -I-interpret- 

 80 84  0  0  0  0  0  0  0  0999 V2000
   -8.9480   15.3110   27.9210 C   0  0  0  0  0
   -8.6760   17.6560   27.2240 C   0  0  0  0  0
  -10.0640   18.2430   27.2450 C   0  0  0  0  0
  -10.7080   17.9730   28.5820 C   0  0  0  0  0
  -10.9750   16.4990   28.7890 C   0  0  0  0  0
   -7.8700   15.6920   25.8380 C   0  0  0  0  0
   -8.4010   16.0210   24.4780 C   0  0  0  0  0
   -9.7730   16.1280   24.1590 C   0  0  0  0  0
  -10.1730   16.4560   22.8430 C   0  0  0  0  0
   -9.1950   16.6400   21.8460 C   0  0  0  0  0
   -7.8230   16.5290   22.1780 C   0  0  0  0  0
   -7.4350   16.2030   23.4820 C   0  0  0  0  0
   -9.5970   17.0020   20.4320 C   0  0  0  0  0
   -7.7430   18.0420   28.3950 C   0  0  0  0  0
   -6.3540   18.3110   27.8950 C   0  0  0  0  0
   -5.4370   17.2620   27.6650 C   0  0  0  0  0
   -4.1790   17.5510   27.0960 C   0  0  0  0  0
   -3.8420   18.8820   26.7590 C   0  0  0  0  0
   -4.7540   19.9340   27.0010 C   0  0  0  0  0
   -6.0140   19.6420   27.5600 C   0  0  0  0  0
  -12.0060   15.8310   27.8720 C   0  0  0  0  0
  -12.7110   14.6720   28.5480 C   0  0  0  0  0
  -13.8040   14.9400   29.4110 C   0  0  0  0  0
  -14.4640   13.8730   30.0590 C   0  0  0  0  0
  -14.0350   12.5430   29.8410 C   0  0  0  0  0
  -12.9410   12.2760   28.9840 C   0  0  0  0  0
  -12.2890   13.3390   28.3240 C   0  0  0  0  0
   -9.7870   14.7330   30.0520 C   0  0  0  0  0
   -9.8780   15.3740   31.3940 C   0  0  0  0  0
  -10.7030   14.6960   32.3090 C   0  0  0  0  0
  -10.7340   15.1090   33.6420 C   0  0  0  0  0
   -9.9590   16.2170   34.0610 C   0  0  0  0  0
   -9.1390   16.9140   33.1290 C   0  0  0  0  0
   -9.1080   16.5000   31.7760 C   0  0  0  0  0
   -9.9760   16.6140   35.5210 C   0  0  0  0  0
   -8.5810   16.2070   27.0070 N   0  0  0  0  0
   -9.8390   15.5840   28.8890 N   0  0  0  0  0
   -8.4320   14.2080   27.8780 O   0  0  0  0  0
   -9.8800   19.6180   27.0300 O   0  0  0  0  0
  -11.9580   18.6050   28.6680 O   0  0  0  0  0
   -8.6890   17.9530   19.8460 O   0  0  0  0  0
  -11.2820   16.5130   36.0970 O   0  0  0  0  0
   -8.3121   18.1565   26.3267 H   0  0  0  0  0
  -10.7205   17.8113   26.4895 H   0  0  0  0  0
  -10.0110   18.3489   29.3310 H   0  0  0  0  0
  -11.3953   16.6289   29.7863 H   0  0  0  0  0
   -7.9399   14.6071   25.9167 H   0  0  0  0  0
   -6.8833   16.1533   25.8782 H   0  0  0  0  0
  -10.5252   15.9573   24.9292 H   0  0  0  0  0
  -11.2303   16.5657   22.6018 H   0  0  0  0  0
   -7.0649   16.6985   21.4133 H   0  0  0  0  0
   -6.3779   16.0905   23.7227 H   0  0  0  0  0
  -10.5904   17.4497   20.4618 H   0  0  0  0  0
   -9.5806   16.0949   19.8279 H   0  0  0  0  0
   -7.7092   17.2173   29.1069 H   0  0  0  0  0
   -8.1281   18.9434   28.8718 H   0  0  0  0  0
   -5.6993   16.2365   27.9252 H   0  0  0  0  0
   -3.4656   16.7468   26.9159 H   0  0  0  0  0
   -2.8727   19.0981   26.3097 H   0  0  0  0  0
   -4.4852   20.9619   26.7575 H   0  0  0  0  0
   -6.7296   20.4454   27.7349 H   0  0  0  0  0
  -11.4815   15.4447   26.9981 H   0  0  0  0  0
  -12.7566   16.5759   27.6077 H   0  0  0  0  0
  -14.1335   15.9662   29.5736 H   0  0  0  0  0
  -15.3024   14.0740   30.7259 H   0  0  0  0  0
  -14.5498   11.7194   30.3357 H   0  0  0  0  0
  -12.6026   11.2508   28.8340 H   0  0  0  0  0
  -11.4625   13.1346   27.6434 H   0  0  0  0  0
   -8.8038   14.2635   30.0224 H   0  0  0  0  0
  -10.6644   14.0904   29.9789 H   0  0  0  0  0
  -11.3132   13.8549   31.9800 H   0  0  0  0  0
  -11.3563   14.5772   34.3618 H   0  0  0  0  0
   -8.5379   17.7625   33.4559 H   0  0  0  0  0
   -8.5045   17.0361   31.0435 H   0  0  0  0  0
   -9.6548   17.6531   35.5923 H   0  0  0  0  0
   -9.3146   15.9378   36.0627 H   0  0  0  0  0
   -9.4694   19.7546   26.1730 H   0  0  0  0  0
  -11.8467   19.5503   28.5429 H   0  0  0  0  0
   -8.9747   18.1580   18.9527 H   0  0  0  0  0
  -11.2444   16.7736   37.0202 H   0  0  0  0  0
  1 38  2  0  0  0
  1 37  1  0  0  0
  1 36  1  0  0  0
 36  6  1  0  0  0
 36  2  1  0  0  0
  2 14  1  0  0  0
  2  3  1  0  0  0
  3 39  1  0  0  0
  3  4  1  0  0  0
  4 40  1  0  0  0
  4  5  1  0  0  0
  5 37  1  0  0  0
  5 21  1  0  0  0
 21 22  1  0  0  0
 22 27  4  0  0  0
 22 23  4  0  0  0
 23 24  4  0  0  0
 24 25  4  0  0  0
 25 26  4  0  0  0
 26 27  4  0  0  0
 37 28  1  0  0  0
 28 29  1  0  0  0
 29 34  4  0  0  0
 29 30  4  0  0  0
 30 31  4  0  0  0
 31 32  4  0  0  0
 32 35  1  0  0  0
 32 33  4  0  0  0
 33 34  4  0  0  0
 35 42  1  0  0  0
 14 15  1  0  0  0
 15 20  4  0  0  0
 15 16  4  0  0  0
 16 17  4  0  0  0
 17 18  4  0  0  0
 18 19  4  0  0  0
 19 20  4  0  0  0
  6  7  1  0  0  0
  7 12  4  0  0  0
  7  8  4  0  0  0
  8  9  4  0  0  0
  9 10  4  0  0  0
 10 13  1  0  0  0
 10 11  4  0  0  0
 11 12  4  0  0  0
 13 41  1  0  0  0
  2 43  1  0  0  0
  3 44  1  0  0  0
  4 45  1  0  0  0
  5 46  1  0  0  0
  6 47  1  0  0  0
  6 48  1  0  0  0
  8 49  1  0  0  0
  9 50  1  0  0  0
 11 51  1  0  0  0
 12 52  1  0  0  0
 13 53  1  0  0  0
 13 54  1  0  0  0
 14 55  1  0  0  0
 14 56  1  0  0  0
 16 57  1  0  0  0
 17 58  1  0  0  0
 18 59  1  0  0  0
 19 60  1  0  0  0
 20 61  1  0  0  0
 21 62  1  0  0  0
 21 63  1  0  0  0
 23 64  1  0  0  0
 24 65  1  0  0  0
 25 66  1  0  0  0
 26 67  1  0  0  0
 27 68  1  0  0  0
 28 69  1  0  0  0
 28 70  1  0  0  0
 30 71  1  0  0  0
 31 72  1  0  0  0
 33 73  1  0  0  0
 34 74  1  0  0  0
 35 75  1  0  0  0
 35 76  1  0  0  0
 39 77  1  0  0  0
 40 78  1  0  0  0
 41 79  1  0  0  0
 42 80  1  0  0  0
M  END
$$$$
