5obj_ligand
  -I-interpret- 

 30 32  0  0  0  0  0  0  0  0999 V2000
   -5.9670   13.7590  -15.8200 C   0  0  0  0  0
   -7.2750   11.5660  -11.7780 N   0  0  0  0  0
   -6.1640    7.6880  -13.2580 C   0  0  0  0  0
   -4.8920    7.4660  -13.4540 O   0  0  0  0  0
   -6.4590    9.0320  -12.6560 C   0  0  0  0  0
   -7.3370   10.4890  -10.9350 C   0  0  0  0  0
   -7.8400   10.6840   -9.6250 C   0  0  0  0  0
   -7.9210    9.6370   -8.7460 C   0  0  0  0  0
   -7.5080    8.3680   -9.1190 C   0  0  0  0  0
   -7.0220    8.1360  -10.3750 C   0  0  0  0  0
   -6.9280    9.1830  -11.3210 C   0  0  0  0  0
   -6.3860   10.1360  -13.4680 C   0  0  0  0  0
   -6.8150   11.3830  -13.0070 C   0  0  0  0  0
   -6.8220   12.5670  -13.9030 C   0  0  0  0  0
   -7.7270   13.6070  -13.6930 C   0  0  0  0  0
   -7.7230   14.6800  -14.5530 C   0  0  0  0  0
   -6.8670   14.7900  -15.6110 C   0  0  0  0  0
   -5.9450   12.6590  -14.9780 C   0  0  0  0  0
   -8.6210   15.6790  -14.3450 F   0  0  0  0  0
   -7.0630    6.8820  -13.5520 O   0  0  0  0  0
   -5.2688   13.8132  -16.6553 H   0  0  0  0  0
   -4.3858    8.2237  -13.1520 H   0  0  0  0  0
   -8.1656   11.6766   -9.3138 H   0  0  0  0  0
   -8.3142    9.8035   -7.7431 H   0  0  0  0  0
   -7.5713    7.5475   -8.4042 H   0  0  0  0  0
   -6.7027    7.1311  -10.6512 H   0  0  0  0  0
   -5.9907   10.0392  -14.4792 H   0  0  0  0  0
   -8.4277   13.5699  -12.8589 H   0  0  0  0  0
   -6.8914   15.6593  -16.2682 H   0  0  0  0  0
   -5.2313   11.8557  -15.1606 H   0  0  0  0  0
  1 17  4  0  0  0
 18  1  4  0  0  0
  2  6  4  0  0  0
 13  2  4  0  0  0
  3  4  1  0  0  0
  5  3  1  0  0  0
  3 20  2  0  0  0
  5 11  4  0  0  0
 12  5  4  0  0  0
  6  7  4  0  0  0
  6 11  4  0  0  0
  7  8  4  0  0  0
  8  9  4  0  0  0
 10  9  4  0  0  0
 11 10  4  0  0  0
 13 12  4  0  0  0
 14 13  1  0  0  0
 14 15  4  0  0  0
 14 18  4  0  0  0
 15 16  4  0  0  0
 16 17  4  0  0  0
 16 19  1  0  0  0
  1 21  1  0  0  0
  4 22  1  0  0  0
  7 23  1  0  0  0
  8 24  1  0  0  0
  9 25  1  0  0  0
 10 26  1  0  0  0
 12 27  1  0  0  0
 15 28  1  0  0  0
 17 29  1  0  0  0
 18 30  1  0  0  0
M  END
$$$$
