4zs9_ligand
  -I-interpret- 

 66 68  0  0  0  0  0  0  0  0999 V2000
   -4.1720   27.0870   51.1970 O   0  0  0  0  0
   -3.8230   28.3890   51.7660 C   0  0  0  0  0
   -5.0990   29.0080   52.2830 C   0  0  0  0  0
   -4.9660   30.2780   52.7880 C   0  0  0  0  0
   -5.2130   31.2850   51.7960 O   0  0  0  0  0
   -6.0910   30.3140   53.9410 C   0  0  0  0  0
   -5.9160   31.3920   54.8370 O   0  0  0  0  0
   -5.6500   28.1230   53.4780 O   0  0  0  0  0
   -6.0410   29.0470   54.5040 C   0  0  0  0  0
   -7.0750   28.4860   55.4030 C   0  0  0  0  0
   -8.2510   28.5650   54.5920 O   0  0  0  0  0
   -4.7800   29.1010   55.3140 O   0  0  0  0  0
   -4.2410   27.9280   55.9480 C   0  0  0  0  0
   -3.8730   28.2500   57.3750 C   0  0  0  0  0
   -5.0890   28.6100   58.1020 O   0  0  0  0  0
   -2.8940   29.3570   57.3720 C   0  0  0  0  0
   -2.5220   29.7520   58.7420 O   0  0  0  0  0
   -1.6390   28.9300   56.6900 C   0  0  0  0  0
   -0.7940   30.0690   56.5170 O   0  0  0  0  0
   -1.8890   28.3800   55.3060 C   0  0  0  0  0
   -3.0210   27.4830   55.2840 O   0  0  0  0  0
   -0.7020   27.5430   54.8820 C   0  0  0  0  0
   -0.7010   27.3160   53.4690 O   0  0  0  0  0
    0.1540   26.2560   53.0840 C   0  0  0  0  0
   -0.3790   24.9780   53.5380 O   0  0  0  0  0
   -1.6480   24.6100   52.8900 C   0  0  0  0  0
   -2.0230   23.2790   53.4650 C   0  0  0  0  0
   -1.0460   22.2960   53.2240 O   0  0  0  0  0
   -1.5470   24.6660   51.3760 C   0  0  0  0  0
   -0.7220   23.5690   50.9720 O   0  0  0  0  0
   -0.9690   25.9710   50.9280 C   0  0  0  0  0
   -0.7470   25.9580   49.4980 O   0  0  0  0  0
    0.3510   26.2300   51.5960 C   0  0  0  0  0
    0.8860   27.4900   51.1650 O   0  0  0  0  0
   -3.3796   26.6646   50.8576 H   0  0  0  0  0
   -3.3658   29.0276   51.0102 H   0  0  0  0  0
   -3.0988   28.2734   52.5724 H   0  0  0  0  0
   -5.7599   29.0561   51.4175 H   0  0  0  0  0
   -3.9580   30.4872   53.1460 H   0  0  0  0  0
   -4.5307   31.2428   51.1220 H   0  0  0  0  0
   -7.0930   30.5154   53.5621 H   0  0  0  0  0
   -5.9669   32.2199   54.3536 H   0  0  0  0  0
   -7.1647   29.0250   56.3462 H   0  0  0  0  0
   -6.8506   27.4738   55.7395 H   0  0  0  0  0
   -9.0007   28.2211   55.0831 H   0  0  0  0  0
   -5.0009   27.1484   55.8942 H   0  0  0  0  0
   -3.4191   27.3914   57.8699 H   0  0  0  0  0
   -4.8666   28.8172   59.0126 H   0  0  0  0  0
   -3.3646   30.1934   56.8551 H   0  0  0  0  0
   -1.8868   30.4709   58.7052 H   0  0  0  0  0
   -1.1916   28.1562   57.3139 H   0  0  0  0  0
    0.0166   29.8009   56.0781 H   0  0  0  0  0
   -2.0644   29.2337   54.6514 H   0  0  0  0  0
   -0.7601   26.5790   55.3874 H   0  0  0  0  0
    0.2105   28.0769   55.1474 H   0  0  0  0  0
    1.1227   26.4239   53.5548 H   0  0  0  0  0
   -2.4490   25.3205   53.0941 H   0  0  0  0  0
   -2.9501   22.9562   52.9913 H   0  0  0  0  0
   -2.1259   23.3947   54.5439 H   0  0  0  0  0
   -1.3292   21.4637   53.6095 H   0  0  0  0  0
   -2.5336   24.5903   50.9190 H   0  0  0  0  0
   -0.6343   23.5711   50.0160 H   0  0  0  0  0
   -1.6805   26.7519   51.1966 H   0  0  0  0  0
   -0.3764   26.8005   49.2252 H   0  0  0  0  0
    1.0494   25.4378   51.3263 H   0  0  0  0  0
    1.0123   27.4741   50.2135 H   0  0  0  0  0
  1  2  1  0  0  0
  2  3  1  0  0  0
  3  4  1  0  0  0
  3  8  1  0  0  0
  4  5  1  0  0  0
  4  6  1  0  0  0
  6  7  1  0  0  0
  6  9  1  0  0  0
  8  9  1  0  0  0
  9 10  1  0  0  0
  9 12  1  0  0  0
 10 11  1  0  0  0
 12 13  1  0  0  0
 13 14  1  0  0  0
 13 21  1  0  0  0
 14 15  1  0  0  0
 14 16  1  0  0  0
 16 17  1  0  0  0
 16 18  1  0  0  0
 18 19  1  0  0  0
 18 20  1  0  0  0
 20 21  1  0  0  0
 20 22  1  0  0  0
 22 23  1  0  0  0
 23 24  1  0  0  0
 24 25  1  0  0  0
 24 33  1  0  0  0
 25 26  1  0  0  0
 26 27  1  0  0  0
 26 29  1  0  0  0
 27 28  1  0  0  0
 29 30  1  0  0  0
 29 31  1  0  0  0
 31 32  1  0  0  0
 31 33  1  0  0  0
 33 34  1  0  0  0
  1 35  1  0  0  0
  2 36  1  0  0  0
  2 37  1  0  0  0
  3 38  1  0  0  0
  4 39  1  0  0  0
  5 40  1  0  0  0
  6 41  1  0  0  0
  7 42  1  0  0  0
 10 43  1  0  0  0
 10 44  1  0  0  0
 11 45  1  0  0  0
 13 46  1  0  0  0
 14 47  1  0  0  0
 15 48  1  0  0  0
 16 49  1  0  0  0
 17 50  1  0  0  0
 18 51  1  0  0  0
 19 52  1  0  0  0
 20 53  1  0  0  0
 22 54  1  0  0  0
 22 55  1  0  0  0
 24 56  1  0  0  0
 26 57  1  0  0  0
 27 58  1  0  0  0
 27 59  1  0  0  0
 28 60  1  0  0  0
 29 61  1  0  0  0
 30 62  1  0  0  0
 31 63  1  0  0  0
 32 64  1  0  0  0
 33 65  1  0  0  0
 34 66  1  0  0  0
M  END
$$$$
