5i83_ligand
  -I-interpret- 

 42 44  0  0  0  0  0  0  0  0999 V2000
    2.0480   -2.0670    3.3240 C   0  0  0  0  0
    3.4390   -2.1750    3.4300 C   0  0  0  0  0
    4.1590   -2.1160    2.2450 N   0  0  0  0  0
    5.3850   -1.2900    2.0350 C   0  0  0  0  0
    6.4050   -2.0110    1.1580 C   0  0  0  0  0
    6.0410   -0.8850    3.3720 C   0  0  0  0  0
    6.3570   -2.0440    4.1260 C   0  0  0  0  0
    7.5070   -2.4760    4.2760 O   0  0  0  0  0
    5.3780   -2.6940    4.8090 N   0  0  0  0  0
    4.0100   -2.4260    4.6440 C   0  0  0  0  0
    3.2340   -2.5360    5.7840 C   0  0  0  0  0
    1.8440   -2.5090    5.6780 C   0  0  0  0  0
    1.2400   -2.3010    4.4410 C   0  0  0  0  0
   -0.1380   -2.2200    4.3990 O   0  0  0  0  0
   -0.8070   -2.3890    3.1410 C   0  0  0  0  0
   -2.2870   -2.1090    3.3900 C   0  0  0  0  0
   -0.6990   -3.6960    2.5780 C   0  0  0  0  0
   -0.1460   -4.8140    3.2130 C   0  0  0  0  0
   -0.1600   -6.0620    2.5490 C   0  0  0  0  0
   -0.6440   -6.1630    1.2500 C   0  0  0  0  0
   -1.1630   -5.0360    0.6190 C   0  0  0  0  0
   -1.1930   -3.8280    1.2850 C   0  0  0  0  0
    1.5938   -1.8002    2.3698 H   0  0  0  0  0
    3.8267   -2.6774    1.4609 H   0  0  0  0  0
    5.0619   -0.3842    1.5219 H   0  0  0  0  0
    7.2468   -1.3471    0.9613 H   0  0  0  0  0
    6.7579   -2.9045    1.6729 H   0  0  0  0  0
    5.9362   -2.2944    0.2157 H   0  0  0  0  0
    5.3468   -0.2653    3.9396 H   0  0  0  0  0
    6.9557   -0.3279    3.1692 H   0  0  0  0  0
    5.6519   -3.4147    5.4768 H   0  0  0  0  0
    3.7069   -2.6432    6.7602 H   0  0  0  0  0
    1.2284   -2.6512    6.5662 H   0  0  0  0  0
   -0.3356   -1.7112    2.4293 H   0  0  0  0  0
   -2.6689   -2.8119    4.1304 H   0  0  0  0  0
   -2.4056   -1.0903    3.7591 H   0  0  0  0  0
   -2.8394   -2.2256    2.4576 H   0  0  0  0  0
    0.2903   -4.7235    4.2078 H   0  0  0  0  0
    0.2112   -6.9509    3.0591 H   0  0  0  0  0
   -0.6173   -7.1196    0.7282 H   0  0  0  0  0
   -1.5450   -5.1077   -0.3994 H   0  0  0  0  0
   -1.6143   -2.9557    0.7852 H   0  0  0  0  0
  1  2  4  0  0  0
  1 13  4  0  0  0
  2  3  1  0  0  0
  2 10  4  0  0  0
  3  4  1  0  0  0
  4  5  1  0  0  0
  4  6  1  0  0  0
  6  7  1  0  0  0
  7  8  2  0  0  0
  7  9  1  0  0  0
  9 10  1  0  0  0
 10 11  4  0  0  0
 11 12  4  0  0  0
 12 13  4  0  0  0
 13 14  1  0  0  0
 14 15  1  0  0  0
 15 16  1  0  0  0
 15 17  1  0  0  0
 17 18  4  0  0  0
 17 22  4  0  0  0
 18 19  4  0  0  0
 19 20  4  0  0  0
 20 21  4  0  0  0
 21 22  4  0  0  0
  1 23  1  0  0  0
  3 24  1  0  0  0
  4 25  1  0  0  0
  5 26  1  0  0  0
  5 27  1  0  0  0
  5 28  1  0  0  0
  6 29  1  0  0  0
  6 30  1  0  0  0
  9 31  1  0  0  0
 11 32  1  0  0  0
 12 33  1  0  0  0
 15 34  1  0  0  0
 16 35  1  0  0  0
 16 36  1  0  0  0
 16 37  1  0  0  0
 18 38  1  0  0  0
 19 39  1  0  0  0
 20 40  1  0  0  0
 21 41  1  0  0  0
 22 42  1  0  0  0
M  END
$$$$
