5tur_ligand
  -I-interpret- 

 44 47  0  0  0  0  0  0  0  0999 V2000
   25.8820   47.6780    3.2780 C   0  0  0  0  0
   26.3760   48.9270    3.6150 C   0  0  0  0  0
   25.6590   47.3710    1.9460 C   0  0  0  0  0
   26.1900   49.3850   -0.8100 C   0  0  0  0  0
   25.7890   48.2150   -0.3240 C   0  0  0  0  0
   25.9170   48.2700    1.0000 C   0  0  0  0  0
   26.3910   49.4770    1.3190 C   0  0  0  0  0
   25.1560   46.0940    1.6050 C   0  0  0  0  0
   26.1750   49.6570   -2.1220 C   0  0  0  0  0
   26.5540   50.8960   -2.6310 C   0  0  0  0  0
   26.5190   51.1530   -3.9910 C   0  0  0  0  0
   26.1030   50.1630   -4.8690 C   0  0  0  0  0
   25.7110   48.9220   -4.3790 C   0  0  0  0  0
   25.7490   48.6730   -3.0100 C   0  0  0  0  0
   26.4560   51.7520   -6.7080 C   0  0  0  0  0
   25.5650   52.1150   -7.8850 C   0  0  0  0  0
   25.1860   49.8740   -8.3880 C   0  0  0  0  0
   26.0630   49.4110   -7.2290 C   0  0  0  0  0
   27.0900   51.5560    0.4120 C   0  0  0  0  0
   26.6260   49.8290    2.5900 N   0  0  0  0  0
   26.5600   50.1750    0.2070 N   0  0  0  0  0
   24.7570   45.0790    1.3430 N   0  0  0  0  0
   26.0640   50.4380   -6.1790 N   0  0  0  0  0
   25.6390   51.1430   -8.9950 N   0  3  0  0  0
   25.6705   46.9428    4.0544 H   0  0  0  0  0
   26.5631   49.1941    4.6551 H   0  0  0  0  0
   25.4229   47.3669   -0.9026 H   0  0  0  0  0
   26.8841   51.6776   -1.9468 H   0  0  0  0  0
   26.8174   52.1302   -4.3706 H   0  0  0  0  0
   25.3745   48.1454   -5.0659 H   0  0  0  0  0
   25.4424   47.6986   -2.6297 H   0  0  0  0  0
   26.3474   52.5039   -5.9264 H   0  0  0  0  0
   27.4942   51.7143   -7.0380 H   0  0  0  0  0
   25.9010   53.0787   -8.2678 H   0  0  0  0  0
   24.5355   52.1288   -7.5271 H   0  0  0  0  0
   24.1820   50.0368   -7.9961 H   0  0  0  0  0
   25.2292   49.1061   -9.1604 H   0  0  0  0  0
   27.0813   49.2514   -7.5836 H   0  0  0  0  0
   25.6707   48.4776   -6.8254 H   0  0  0  0  0
   28.0424   51.6592   -0.1080 H   0  0  0  0  0
   26.3778   52.2797    0.0156 H   0  0  0  0  0
   27.2353   51.7336    1.4776 H   0  0  0  0  0
   26.5788   51.0717   -9.3851 H   0  0  0  0  0
   25.0630   51.4190   -9.7903 H   0  0  0  0  0
  2  1  4  0  0  0
  3  1  4  0  0  0
 20  2  4  0  0  0
  6  3  4  0  0  0
  3  8  1  0  0  0
  4  5  4  0  0  0
  9  4  1  0  0  0
  4 21  4  0  0  0
  5  6  4  0  0  0
  7  6  4  0  0  0
  7 20  4  0  0  0
 21  7  4  0  0  0
  8 22  3  0  0  0
 10  9  4  0  0  0
 14  9  4  0  0  0
 11 10  4  0  0  0
 12 11  4  0  0  0
 12 13  4  0  0  0
 23 12  1  0  0  0
 13 14  4  0  0  0
 16 15  1  0  0  0
 15 23  1  0  0  0
 24 16  1  0  0  0
 17 18  1  0  0  0
 17 24  1  0  0  0
 18 23  1  0  0  0
 21 19  1  0  0  0
  1 25  1  0  0  0
  2 26  1  0  0  0
  5 27  1  0  0  0
 10 28  1  0  0  0
 11 29  1  0  0  0
 13 30  1  0  0  0
 14 31  1  0  0  0
 15 32  1  0  0  0
 15 33  1  0  0  0
 16 34  1  0  0  0
 16 35  1  0  0  0
 17 36  1  0  0  0
 17 37  1  0  0  0
 18 38  1  0  0  0
 18 39  1  0  0  0
 19 40  1  0  0  0
 19 41  1  0  0  0
 19 42  1  0  0  0
 24 43  1  0  0  0
 24 44  1  0  0  0
M  END
$$$$
