3kc1_ligand
  -I-interpret- 

 32 34  0  0  0  0  0  0  0  0999 V2000
   21.4810   59.5520   17.1310 C   0  0  0  0  0
   20.1440   59.3110   17.3450 C   0  0  0  0  0
   19.1640   60.0040   16.6910 C   0  0  0  0  0
   19.5470   60.9980   15.7680 C   0  0  0  0  0
   20.9070   61.2580   15.5360 C   0  0  0  0  0
   21.8890   60.5260   16.2260 C   0  0  0  0  0
   22.3770   58.6250   18.0020 C   0  0  0  0  0
   21.2390   57.8850   18.6770 C   0  0  0  0  0
   20.0160   58.2580   18.3220 C   0  0  0  0  0
   21.1890   56.6540   19.8150 S   0  0  0  0  0
   19.4740   56.6610   19.7960 C   0  0  0  0  0
   18.9580   57.6030   18.9190 N   0  0  0  0  0
   17.8380   59.7180   16.9470 O   0  0  0  0  0
   17.0110   60.4050   16.0400 C   0  0  0  0  0
   14.9930   59.9330   17.7720 O   0  0  0  0  0
   23.3110   60.7870   15.9930 C   0  0  0  0  0
   23.5670   61.9400   15.3460 N   0  0  0  0  0
   24.2090   60.0260   16.3380 O   0  0  0  0  0
   15.2840   59.9270   16.3050 P   0  0  0  0  0
   14.3740   60.8930   15.6120 O   0  0  0  0  0
   15.0690   58.5500   15.7530 O   0  0  0  0  0
   18.7857   61.5660   15.2332 H   0  0  0  0  0
   21.2012   62.0268   14.8215 H   0  0  0  0  0
   23.0935   59.1184   18.6587 H   0  0  0  0  0
   23.1065   58.0142   17.4701 H   0  0  0  0  0
   18.8585   55.9990   20.4052 H   0  0  0  0  0
   17.3036   60.1515   15.0211 H   0  0  0  0  0
   17.1167   61.4785   16.1966 H   0  0  0  0  0
   24.5291   62.2009   15.1301 H   0  0  0  0  0
   22.7988   62.5524   15.0719 H   0  0  0  0  0
   14.5615   60.8884   14.6705 H   0  0  0  0  0
   15.2569   58.5509   14.8116 H   0  0  0  0  0
  1  2  4  0  0  0
  1  6  4  0  0  0
  1  7  1  0  0  0
  2  3  4  0  0  0
  2  9  1  0  0  0
  3  4  4  0  0  0
  3 13  1  0  0  0
  4  5  4  0  0  0
  5  6  4  0  0  0
  6 16  1  0  0  0
  7  8  1  0  0  0
  8  9  4  0  0  0
  8 10  4  0  0  0
  9 12  4  0  0  0
 10 11  4  0  0  0
 11 12  4  0  0  0
 13 14  1  0  0  0
 14 19  1  0  0  0
 19 15  2  0  0  0
 16 17  1  0  0  0
 16 18  2  0  0  0
 19 20  1  0  0  0
 19 21  1  0  0  0
  4 22  1  0  0  0
  5 23  1  0  0  0
  7 24  1  0  0  0
  7 25  1  0  0  0
 11 26  1  0  0  0
 14 27  1  0  0  0
 14 28  1  0  0  0
 17 29  1  0  0  0
 17 30  1  0  0  0
 20 31  1  0  0  0
 21 32  1  0  0  0
M  END
$$$$
