### 
### Created by X-TOOL on Mon Sep 10 21:13:04 2018
### 

@<TRIPOS>MOLECULE
3kc1_ligand
   30    32     1     0     0
SMALL
GAST_HUCK


@<TRIPOS>ATOM
      1 C1         21.4810   59.5520   17.1310 C.ar      1 2T6        -0.0158
      2 C2         20.1440   59.3110   17.3450 C.ar      1 2T6         0.0122
      3 C3         19.1640   60.0040   16.6910 C.ar      1 2T6         0.0955
      4 C4         19.5470   60.9980   15.7680 C.ar      1 2T6        -0.0374
      5 C5         20.9070   61.2580   15.5360 C.ar      1 2T6        -0.0616
      6 C6         21.8890   60.5260   16.2260 C.ar      1 2T6         0.0364
      7 C7         22.3770   58.6250   18.0020 C.3       1 2T6         0.0276
      8 C8         21.2390   57.8850   18.6770 C.2       1 2T6         0.0506
      9 C9         20.0160   58.2580   18.3220 C.2       1 2T6         0.0243
     10 S10        21.1890   56.6540   19.8150 S.3       1 2T6        -0.0005
     11 C11        19.4740   56.6610   19.7960 C.2       1 2T6         0.0695
     12 N12        18.9580   57.6030   18.9190 N.2       1 2T6        -0.3183
     13 O13        17.8380   59.7180   16.9470 O.3       1 2T6        -0.2991
     14 C14        17.0110   60.4050   16.0400 C.3       1 2T6         0.1409
     15 O15        14.9930   59.9330   17.7720 O.co2     1 2T6        -0.5605
     16 C16        23.3110   60.7870   15.9930 C.2       1 2T6         0.1887
     17 N17        23.5670   61.9400   15.3460 N.am      1 2T6        -0.3029
     18 O18        24.2090   60.0260   16.3380 O.2       1 2T6        -0.3936
     19 P19        15.2840   59.9270   16.3050 P.3       1 2T6         0.0900
     20 O20        14.3740   60.8930   15.6120 O.co2     1 2T6        -0.5605
     21 O21        15.0690   58.5500   15.7530 O.co2     1 2T6        -0.5605
     22 H1         18.7899   61.5629   15.2362 H         1 2T6         0.0482
     23 H2         21.1996   62.0225   14.8254 H         1 2T6         0.0584
     24 H3         23.0004   59.1851   18.7145 H         1 2T6         0.0667
     25 H4         23.0148   57.9625   17.3985 H         1 2T6         0.0667
     26 H5         18.8591   55.9996   20.4046 H         1 2T6         0.1121
     27 H6         17.3067   60.1514   15.0113 H         1 2T6         0.0811
     28 H7         17.1184   61.4886   16.1959 H         1 2T6         0.0811
     29 H8         24.5109   62.2008   15.1435 H         1 2T6         0.1802
     30 H9         22.8132   62.5354   15.0681 H         1 2T6         0.1802
@<TRIPOS>BOND
     1    1    2 ar 
     2    1    6 ar 
     3    1    7 1  
     4    2    3 ar 
     5    2    9 1  
     6    3    4 ar 
     7    3   13 1  
     8    4    5 ar 
     9    5    6 ar 
    10    6   16 1  
    11    7    8 1  
    12    8    9 2  
    13    8   10 1  
    14    9   12 1  
    15   10   11 1  
    16   11   12 2  
    17   13   14 1  
    18   14   19 1  
    19   19   15 ar 
    20   16   17 am 
    21   16   18 2  
    22   19   20 ar 
    23   19   21 ar 
    24    4   22 1  
    25    5   23 1  
    26    7   24 1  
    27    7   25 1  
    28   11   26 1  
    29   14   27 1  
    30   14   28 1  
    31   17   29 1  
    32   17   30 1  
@<TRIPOS>SUBSTRUCTURE
     1 2T6         1

