### 
### Created by X-TOOL on Mon Sep 10 21:13:05 2018
### 

@<TRIPOS>MOLECULE
2yj8_ligand
   60    64     1     0     0
SMALL
GAST_HUCK


@<TRIPOS>ATOM
      1 C1          8.2790   35.8240   20.9840 C.3       1 YJ8         0.1343
      2 N2          8.4580   36.2440   19.6210 N.am      1 YJ8        -0.2562
      3 C3          9.4670   35.4420   18.9610 C.3       1 YJ8         0.0588
      4 C4          9.6320   34.1740   19.8400 C.3       1 YJ8         0.1066
      5 C5          9.3830   34.7680   21.2090 C.3       1 YJ8         0.0125
      6 C6          8.4610   36.9540   22.0020 C.2       1 YJ8         0.1971
      7 O7          9.5230   37.6170   22.1010 O.2       1 YJ8        -0.3951
      8 S8          8.5180   32.8680   19.5370 S.o2      1 YJ8         0.0023
      9 C9          8.8470   32.3860   17.9480 C.ar      1 YJ8         0.1025
     10 C10         9.9860   31.7590   17.5150 C.ar      1 YJ8         0.0651
     11 C11        10.1980   31.3980   16.1920 C.ar      1 YJ8        -0.0460
     12 C12         9.2520   31.6850   15.2180 C.ar      1 YJ8        -0.0612
     13 C13         8.0840   32.3350   15.6070 C.ar      1 YJ8        -0.0598
     14 C14         7.8990   32.6720   16.9440 C.ar      1 YJ8        -0.0364
     15 CL         11.2000   31.3400   18.5700 Cl        1 YJ8        -0.0687
     16 N16         7.3700   37.0780   22.8110 N.am      1 YJ8        -0.2955
     17 C17         7.3400   37.9010   23.9450 C.3       1 YJ8         0.0783
     18 C18         7.8300   37.2730   25.1840 C.2       1 YJ8         0.0437
     19 C19         7.5930   39.3910   23.7160 C.3       1 YJ8        -0.0407
     20 C20         6.2230   38.9320   24.0810 C.3       1 YJ8        -0.0407
     21 C21         7.5630   37.1040   19.0260 C.2       1 YJ8         0.1727
     22 O22         6.6590   37.5590   19.7750 O.2       1 YJ8        -0.3646
     23 C23         7.7680   37.5270   17.5940 C.3       1 YJ8         0.0440
     24 C24         9.1090   38.0830   17.3810 C.ar      1 YJ8        -0.0357
     25 C25         9.5560   39.1540   18.1870 C.ar      1 YJ8        -0.0369
     26 C26        10.8280   39.6460   17.9920 C.ar      1 YJ8        -0.0220
     27 C27        11.6620   39.0610   17.0540 C.ar      1 YJ8         0.0373
     28 C28        11.2560   37.9880   16.2810 C.ar      1 YJ8        -0.0220
     29 C29         9.9710   37.4800   16.4460 C.ar      1 YJ8        -0.0369
     30 I30        13.5940   39.8320   16.8570 I         1 YJ8        -0.0256
     31 C31         7.0920   36.6500   16.5700 C.3       1 YJ8        -0.0688
     32 C32         6.6050   38.0510   16.8130 C.3       1 YJ8        -0.0688
     33 O33         8.8510   31.8500   20.4870 O.2       1 YJ8        -0.1690
     34 O34         7.1930   33.3490   19.6070 O.2       1 YJ8        -0.1690
     35 N35         7.7680   37.8560   26.3340 N.2       1 YJ8        -0.2686
     36 H           7.2631   35.4571   21.1302 H         1 YJ8         0.0804
     37 H          10.4072   35.9849   18.8639 H         1 YJ8         0.0544
     38 H           9.1704   35.1861   17.9438 H         1 YJ8         0.0544
     39 H          10.5921   33.6881   19.6664 H         1 YJ8         0.0563
     40 H           9.0796   34.0105   21.9316 H         1 YJ8         0.0332
     41 H          10.2863   35.2081   21.6315 H         1 YJ8         0.0332
     42 H          11.1179   30.8832   15.9147 H         1 YJ8         0.0624
     43 H           9.4189   31.4090   14.1768 H         1 YJ8         0.0618
     44 H           7.3196   32.5782   14.8690 H         1 YJ8         0.0620
     45 H           6.9782   33.1809   17.2288 H         1 YJ8         0.0636
     46 H           6.5325   36.5441   22.5787 H         1 YJ8         0.1774
     47 H           8.2630   36.2743   25.1274 H         1 YJ8         0.1090
     48 H           8.0626   40.0287   22.9671 H         1 YJ8         0.0220
     49 H           8.3059   40.1515   24.0347 H         1 YJ8         0.0220
     50 H           5.4450   39.1938   24.7981 H         1 YJ8         0.0220
     51 H           5.2011   39.0708   23.7280 H         1 YJ8         0.0220
     52 H           8.9060   39.5833   18.9495 H         1 YJ8         0.0853
     53 H          11.1783   40.4966   18.5767 H         1 YJ8         0.0723
     54 H          11.9345   37.5458   15.5515 H         1 YJ8         0.0723
     55 H           9.6361   36.6254   15.8582 H         1 YJ8         0.0853
     56 H           6.6859   35.6414   16.4925 H         1 YJ8         0.0163
     57 H           7.3627   36.0087   15.7312 H         1 YJ8         0.0163
     58 H           6.3473   38.9359   16.2311 H         1 YJ8         0.0163
     59 H           5.6620   38.5640   17.0020 H         1 YJ8         0.0163
     60 H           7.3669   38.7906   26.4110 H         1 YJ8         0.2165
@<TRIPOS>BOND
     1    1    2 1  
     2    1    5 1  
     3    1    6 1  
     4    2    3 1  
     5    2   21 am 
     6    3    4 1  
     7    4    5 1  
     8    4    8 1  
     9    6    7 2  
    10    6   16 am 
    11    8    9 1  
    12    8   33 2  
    13    8   34 2  
    14    9   10 ar 
    15    9   14 ar 
    16   10   11 ar 
    17   10   15 1  
    18   11   12 ar 
    19   12   13 ar 
    20   13   14 ar 
    21   16   17 1  
    22   17   18 1  
    23   17   19 1  
    24   17   20 1  
    25   18   35 2  
    26   19   20 1  
    27   21   22 2  
    28   21   23 1  
    29   23   24 1  
    30   23   31 1  
    31   23   32 1  
    32   24   25 ar 
    33   24   29 ar 
    34   25   26 ar 
    35   26   27 ar 
    36   27   28 ar 
    37   27   30 1  
    38   28   29 ar 
    39   31   32 1  
    40    1   36 1  
    41    3   37 1  
    42    3   38 1  
    43    4   39 1  
    44    5   40 1  
    45    5   41 1  
    46   11   42 1  
    47   12   43 1  
    48   13   44 1  
    49   14   45 1  
    50   16   46 1  
    51   18   47 1  
    52   19   48 1  
    53   19   49 1  
    54   20   50 1  
    55   20   51 1  
    56   25   52 1  
    57   26   53 1  
    58   28   54 1  
    59   29   55 1  
    60   31   56 1  
    61   31   57 1  
    62   32   58 1  
    63   32   59 1  
    64   35   60 1  
@<TRIPOS>SUBSTRUCTURE
     1 YJ8         1

