2yj8_ligand
  -I-interpret- 

 60 64  0  0  0  0  0  0  0  0999 V2000
    8.2790   35.8240   20.9840 C   0  0  0  0  0
    8.4580   36.2440   19.6210 N   0  0  0  0  0
    9.4670   35.4420   18.9610 C   0  0  0  0  0
    9.6320   34.1740   19.8400 C   0  0  0  0  0
    9.3830   34.7680   21.2090 C   0  0  0  0  0
    8.4610   36.9540   22.0020 C   0  0  0  0  0
    9.5230   37.6170   22.1010 O   0  0  0  0  0
    8.5180   32.8680   19.5370 S   0  0  0  0  0
    8.8470   32.3860   17.9480 C   0  0  0  0  0
    9.9860   31.7590   17.5150 C   0  0  0  0  0
   10.1980   31.3980   16.1920 C   0  0  0  0  0
    9.2520   31.6850   15.2180 C   0  0  0  0  0
    8.0840   32.3350   15.6070 C   0  0  0  0  0
    7.8990   32.6720   16.9440 C   0  0  0  0  0
   11.2000   31.3400   18.5700 Cl  0  0  0  0  0
    7.3700   37.0780   22.8110 N   0  0  0  0  0
    7.3400   37.9010   23.9450 C   0  0  0  0  0
    7.8300   37.2730   25.1840 C   0  0  0  0  0
    7.5930   39.3910   23.7160 C   0  0  0  0  0
    6.2230   38.9320   24.0810 C   0  0  0  0  0
    7.5630   37.1040   19.0260 C   0  0  0  0  0
    6.6590   37.5590   19.7750 O   0  0  0  0  0
    7.7680   37.5270   17.5940 C   0  0  0  0  0
    9.1090   38.0830   17.3810 C   0  0  0  0  0
    9.5560   39.1540   18.1870 C   0  0  0  0  0
   10.8280   39.6460   17.9920 C   0  0  0  0  0
   11.6620   39.0610   17.0540 C   0  0  0  0  0
   11.2560   37.9880   16.2810 C   0  0  0  0  0
    9.9710   37.4800   16.4460 C   0  0  0  0  0
   13.5940   39.8320   16.8570 I   0  0  0  0  0
    7.0920   36.6500   16.5700 C   0  0  0  0  0
    6.6050   38.0510   16.8130 C   0  0  0  0  0
    8.8510   31.8500   20.4870 O   0  0  0  0  0
    7.1930   33.3490   19.6070 O   0  0  0  0  0
    7.7680   37.8560   26.3340 N   0  0  0  0  0
    7.2631   35.4571   21.1302 H   0  0  0  0  0
   10.4072   35.9849   18.8639 H   0  0  0  0  0
    9.1704   35.1861   17.9438 H   0  0  0  0  0
   10.5921   33.6881   19.6664 H   0  0  0  0  0
    9.0796   34.0105   21.9316 H   0  0  0  0  0
   10.2863   35.2081   21.6315 H   0  0  0  0  0
   11.1179   30.8832   15.9147 H   0  0  0  0  0
    9.4189   31.4090   14.1768 H   0  0  0  0  0
    7.3196   32.5782   14.8690 H   0  0  0  0  0
    6.9782   33.1809   17.2288 H   0  0  0  0  0
    6.5325   36.5441   22.5787 H   0  0  0  0  0
    8.2630   36.2743   25.1274 H   0  0  0  0  0
    8.0626   40.0287   22.9671 H   0  0  0  0  0
    8.3059   40.1515   24.0347 H   0  0  0  0  0
    5.4450   39.1938   24.7981 H   0  0  0  0  0
    5.2011   39.0708   23.7280 H   0  0  0  0  0
    8.9060   39.5833   18.9495 H   0  0  0  0  0
   11.1783   40.4966   18.5767 H   0  0  0  0  0
   11.9345   37.5458   15.5515 H   0  0  0  0  0
    9.6361   36.6254   15.8582 H   0  0  0  0  0
    6.6859   35.6414   16.4925 H   0  0  0  0  0
    7.3627   36.0087   15.7312 H   0  0  0  0  0
    6.3473   38.9359   16.2311 H   0  0  0  0  0
    5.6620   38.5640   17.0020 H   0  0  0  0  0
    7.3669   38.7906   26.4110 H   0  0  0  0  0
  1  2  1  0  0  0
  1  5  1  0  0  0
  1  6  1  0  0  0
  2  3  1  0  0  0
  2 21  1  0  0  0
  3  4  1  0  0  0
  4  5  1  0  0  0
  4  8  1  0  0  0
  6  7  2  0  0  0
  6 16  1  0  0  0
  8  9  1  0  0  0
  8 33  2  0  0  0
  8 34  2  0  0  0
  9 10  4  0  0  0
  9 14  4  0  0  0
 10 11  4  0  0  0
 10 15  1  0  0  0
 11 12  4  0  0  0
 12 13  4  0  0  0
 13 14  4  0  0  0
 16 17  1  0  0  0
 17 18  1  0  0  0
 17 19  1  0  0  0
 17 20  1  0  0  0
 18 35  2  0  0  0
 19 20  1  0  0  0
 21 22  2  0  0  0
 21 23  1  0  0  0
 23 24  1  0  0  0
 23 31  1  0  0  0
 23 32  1  0  0  0
 24 25  4  0  0  0
 24 29  4  0  0  0
 25 26  4  0  0  0
 26 27  4  0  0  0
 27 28  4  0  0  0
 27 30  1  0  0  0
 28 29  4  0  0  0
 31 32  1  0  0  0
  1 36  1  0  0  0
  3 37  1  0  0  0
  3 38  1  0  0  0
  4 39  1  0  0  0
  5 40  1  0  0  0
  5 41  1  0  0  0
 11 42  1  0  0  0
 12 43  1  0  0  0
 13 44  1  0  0  0
 14 45  1  0  0  0
 16 46  1  0  0  0
 18 47  1  0  0  0
 19 48  1  0  0  0
 19 49  1  0  0  0
 20 50  1  0  0  0
 20 51  1  0  0  0
 25 52  1  0  0  0
 26 53  1  0  0  0
 28 54  1  0  0  0
 29 55  1  0  0  0
 31 56  1  0  0  0
 31 57  1  0  0  0
 32 58  1  0  0  0
 32 59  1  0  0  0
 35 60  1  0  0  0
M  END
$$$$
