### 
### Created by X-TOOL on Mon Sep 10 21:13:10 2018
### 

@<TRIPOS>MOLECULE
4ejf_ligand
  206   208     1     0     0
SMALL
GAST_HUCK


@<TRIPOS>ATOM
      1 N          25.4200  -11.5040   10.1260 N.4       1 ARG         0.2379
      2 CA         26.0670  -10.8670   11.2670 C.3       1 ARG         0.0651
      3 C          26.2360  -11.8360   12.4330 C.2       1 ARG         0.2267
      4 O          26.0500  -13.0440   12.2810 O.2       1 ARG        -0.3907
      5 CB         25.2800   -9.6320   11.7090 C.3       1 ARG         0.0110
      6 CG         23.7790   -9.8410   11.7190 C.3       1 ARG        -0.0125
      7 CD         23.1820   -9.5830   13.0900 C.3       1 ARG         0.0629
      8 NE         23.3890   -8.2100   13.5380 N.pl3     1 ARG        -0.2723
      9 CZ         22.8200   -7.1440   12.9850 C.cat     1 ARG         0.2882
     10 NH1        22.0120   -7.2770   11.9400 N.pl3     1 ARG        -0.2849
     11 NH2        23.0690   -5.9400   13.4780 N.pl3     1 ARG        -0.2849
     12 N          26.5850  -11.2970   13.5960 N.am      1 LEU        -0.2610
     13 CA         26.8770  -12.1160   14.7670 C.3       1 LEU         0.1313
     14 C          25.6090  -12.6390   15.4340 C.2       1 LEU         0.2040
     15 O          24.5850  -11.9560   15.4690 O.2       1 LEU        -0.3944
     16 CB         27.7110  -11.3230   15.7750 C.3       1 LEU        -0.0101
     17 CG         28.8920  -10.5530   15.1820 C.3       1 LEU        -0.0425
     18 CD1        28.5230   -9.0920   14.9650 C.3       1 LEU        -0.0625
     19 CD2        30.1100  -10.6660   16.0800 C.3       1 LEU        -0.0625
     20 N          25.6860  -13.8550   15.9640 N.am      1 HIS        -0.2625
     21 CA         24.5440  -14.4690   16.6290 C.3       1 HIS         0.1369
     22 C          24.9740  -15.3630   17.7880 C.2       1 HIS         0.2054
     23 O          25.8120  -16.2480   17.6250 O.2       1 HIS        -0.3942
     24 CB         23.7140  -15.2780   15.6290 C.3       1 HIS         0.0145
     25 CG         22.4220  -15.7870   16.1890 C.2       1 HIS        -0.0027
     26 ND1        22.2270  -17.1070   16.5360 N.2       1 HIS        -0.3252
     27 CD2        21.2590  -15.1510   16.4650 C.2       1 HIS         0.0291
     28 CE1        21.0000  -17.2620   16.9990 C.2       1 HIS         0.0907
     29 NE2        20.3910  -16.0900   16.9670 N.pl3     1 HIS        -0.2752
     30 N          24.3880  -15.1320   18.9570 N.am      1 CYS        -0.2628
     31 CA         24.6360  -15.9910   20.1030 C.3       1 CYS         0.1396
     32 C          23.7410  -17.2200   20.0100 C.2       1 CYS         0.2047
     33 O          22.5330  -17.1030   19.8060 O.2       1 CYS        -0.3944
     34 CB         24.3690  -15.2390   21.4080 C.3       1 CYS         0.0311
     35 SG         24.4300  -16.2720   22.8910 S.3       1 CYS        -0.1735
     36 N          24.3370  -18.3970   20.1600 N.am      1 VAL        -0.2634
     37 CA         23.5840  -19.6420   20.1030 C.3       1 VAL         0.1332
     38 C          23.3110  -20.1530   21.5140 C.2       1 VAL         0.2042
     39 O          22.3940  -20.9570   21.7370 O.2       1 VAL        -0.3944
     40 CB         24.3120  -20.7160   19.2900 C.3       1 VAL        -0.0063
     41 CG1        24.3950  -20.2960   17.8180 C.3       1 VAL        -0.0584
     42 CG2        25.6890  -20.9780   19.8780 C.3       1 VAL        -0.0584
     43 N          24.1020  -19.6710   22.4690 N.am      1 GLU        -0.2636
     44 CA         23.9030  -20.0310   23.8660 C.3       1 GLU         0.1325
     45 C          24.2520  -18.8870   24.8230 C.2       1 GLU         0.2041
     46 O          25.3210  -18.2760   24.7290 O.2       1 GLU        -0.3944
     47 CB         24.6880  -21.2940   24.2230 C.3       1 GLU        -0.0008
     48 CG         24.3930  -21.8070   25.6200 C.3       1 GLU         0.0044
     49 CD         25.1210  -23.0930   25.9310 C.2       1 GLU         0.0350
     50 OE1        26.0320  -23.4620   25.1610 O.co2     1 GLU        -0.5690
     51 OE2        24.7840  -23.7350   26.9450 O.co2     1 GLU        -0.5690
     52 N          23.3330  -18.5980   25.7380 N.am      1 TRP        -0.2627
     53 CA         23.5590  -17.5790   26.7500 C.3       1 TRP         0.1352
     54 C          23.7010  -18.2280   28.1180 C.2       1 TRP         0.2052
     55 O          23.0520  -19.2330   28.4110 O.2       1 TRP        -0.3942
     56 CB         22.3950  -16.5880   26.7860 C.3       1 TRP         0.0042
     57 CG         22.2660  -15.7250   25.5750 C.2       1 TRP        -0.0418
     58 CD1        21.5270  -15.9850   24.4580 C.2       1 TRP         0.0167
     59 CD2        22.8830  -14.4510   25.3620 C.ar      1 TRP        -0.0214
     60 NE1        21.6510  -14.9540   23.5590 N.pl3     1 TRP        -0.2890
     61 CE2        22.4780  -13.9990   24.0900 C.ar      1 TRP         0.0603
     62 CE3        23.7410  -13.6500   26.1220 C.ar      1 TRP        -0.0747
     63 CZ2        22.9030  -12.7820   23.5620 C.ar      1 TRP        -0.0443
     64 CZ3        24.1620  -12.4440   25.5960 C.ar      1 TRP        -0.0792
     65 CH2        23.7430  -12.0210   24.3270 C.ar      1 TRP        -0.0768
     66 N          24.5590  -17.6520   28.9510 N.am      1 THR        -0.2612
     67 CA         24.6460  -18.0520   30.3470 C.3       1 THR         0.1565
     68 C          24.3940  -16.8390   31.2250 C.2       1 THR         0.2065
     69 O          24.4470  -15.7000   30.7590 O.2       1 THR        -0.3943
     70 CB         26.0260  -18.6270   30.7020 C.3       1 THR         0.0924
     71 OG1        25.9630  -19.2570   31.9880 O.3       1 THR        -0.3874
     72 CG2        27.0680  -17.5200   30.7410 C.3       1 THR        -0.0346
     73 N          24.1120  -17.0860   32.4980 N.am      1 ILE        -0.2634
     74 CA         23.9980  -16.0060   33.4640 C.3       1 ILE         0.1335
     75 C          25.2250  -16.0040   34.3650 C.2       1 ILE         0.2042
     76 O          25.4400  -16.9400   35.1320 O.2       1 ILE        -0.3944
     77 CB         22.7280  -16.1290   34.3160 C.3       1 ILE        -0.0037
     78 CG1        21.4920  -16.1680   33.4150 C.3       1 ILE        -0.0491
     79 CG2        22.6370  -14.9690   35.2950 C.3       1 ILE        -0.0582
     80 CD1        20.1880  -16.1950   34.1720 C.3       1 ILE        -0.0648
     81 N          26.0290  -14.9510   34.2540 N.am      1 LEU        -0.2637
     82 CA         27.2790  -14.8270   35.0000 C.3       1 LEU         0.1312
     83 C          27.0800  -14.6530   36.4990 C.2       1 LEU         0.2039
     84 O          26.0290  -14.2060   36.9530 O.2       1 LEU        -0.3944
     85 CB         28.0750  -13.6320   34.4760 C.3       1 LEU        -0.0101
     86 CG         29.3390  -13.8560   33.6470 C.3       1 LEU        -0.0425
     87 CD1        29.3400  -15.2200   32.9810 C.3       1 LEU        -0.0625
     88 CD2        29.4820  -12.7340   32.6230 C.3       1 LEU        -0.0625
     89 N          28.1050  -15.0030   37.2690 N.am      1 GLU        -0.2636
     90 CA         28.0510  -14.8820   38.7210 C.3       1 GLU         0.1324
     91 C          28.6210  -13.5500   39.2000 C.2       1 GLU         0.2034
     92 O          28.2860  -13.0770   40.2850 O.2       1 GLU        -0.3944
     93 CB         28.7990  -16.0390   39.3850 C.3       1 GLU        -0.0008
     94 CG         27.9030  -17.1900   39.8050 C.3       1 GLU         0.0044
     95 CD         26.7800  -17.4380   38.8190 C.2       1 GLU         0.0350
     96 OE1        27.0740  -17.6210   37.6200 O.co2     1 GLU        -0.5690
     97 OE2        25.6060  -17.4470   39.2420 O.co2     1 GLU        -0.5690
     98 N          29.4850  -12.9500   38.3870 N.am      1 ARG        -0.2698
     99 CA         30.0980  -11.6740   38.7340 C.3       1 ARG         0.0916
    100 C          30.5170  -10.9040   37.4870 C.2       1 ARG         0.0598
    101 O          29.6533  -10.3815   36.7329 O.co2     1 ARG        -0.5666
    102 CB         31.3060  -11.8920   39.6480 C.3       1 ARG        -0.0300
    103 H          25.9579  -12.3241    9.8458 H         1 ARG         0.2015
    104 H          24.4758  -11.7882   10.3871 H         1 ARG         0.2015
    105 H          25.3753  -10.8438    9.3498 H         1 ARG         0.2015
    106 H          27.0622  -10.5561   10.9490 H         1 ARG         0.1098
    107 H          25.4944   -8.8354   10.9965 H         1 ARG         0.0347
    108 H          25.5843   -9.3982   12.7292 H         1 ARG         0.0347
    109 H          23.5759  -10.8767   11.4468 H         1 ARG         0.0302
    110 H          23.3313   -9.1409   11.0136 H         1 ARG         0.0302
    111 H          23.6724  -10.2473   13.8016 H         1 ARG         0.0689
    112 H          22.1081   -9.7592   13.0285 H         1 ARG         0.0689
    113 H          24.0134   -8.0579   14.3301 H         1 ARG         0.2642
    114 H          21.8238   -8.2028   11.5554 H         1 ARG         0.2615
    115 H          21.5794   -6.4534   11.5217 H         1 ARG         0.2615
    116 H          23.6941   -5.8354   14.2772 H         1 ARG         0.2615
    117 H          22.6356   -5.1175   13.0584 H         1 ARG         0.2615
    118 H          26.6506  -10.2820   13.6721 H         1 LEU         0.1884
    119 H          27.4468  -12.9793   14.4234 H         1 LEU         0.0800
    120 H          28.1294  -12.0477   16.4734 H         1 LEU         0.0315
    121 H          27.0452  -10.5820   16.2174 H         1 LEU         0.0315
    122 H          29.1367  -10.9938   14.2156 H         1 LEU         0.0298
    123 H          27.6790   -9.0299   14.2781 H         1 LEU         0.0232
    124 H          28.2501   -8.6419   15.9195 H         1 LEU         0.0232
    125 H          29.3766   -8.5619   14.5426 H         1 LEU         0.0232
    126 H          29.8760  -10.2530   17.0612 H         1 LEU         0.0232
    127 H          30.3880  -11.7149   16.1827 H         1 LEU         0.0232
    128 H          30.9378  -10.1109   15.6388 H         1 LEU         0.0232
    129 H          26.5642  -14.3703   15.9040 H         1 HIS         0.1885
    130 H          23.9348  -13.6621   17.0363 H         1 HIS         0.0817
    131 H          24.3075  -16.1454   15.3402 H         1 HIS         0.0420
    132 H          23.4700  -14.6161   14.7981 H         1 HIS         0.0420
    133 H          21.0504  -14.0915   16.3166 H         1 HIS         0.0729
    134 H          20.5638  -18.1979   17.3482 H         1 HIS         0.1199
    135 H          19.4324  -15.9114   17.2663 H         1 HIS         0.2361
    136 H          23.7536  -14.3390   19.0523 H         1 CYS         0.1884
    137 H          25.6813  -16.3000   20.0989 H         1 CYS         0.0808
    138 H          23.3597  -14.8327   21.3424 H         1 CYS         0.0422
    139 H          25.1513  -14.4868   21.5096 H         1 CYS         0.0422
    140 H          25.6370  -16.8203   22.9981 H         1 CYS         0.1019
    141 H          25.3441  -18.4298   20.3186 H         1 VAL         0.1883
    142 H          22.6400  -19.4315   19.6003 H         1 VAL         0.0802
    143 H          23.7494  -21.6483   19.3392 H         1 VAL         0.0343
    144 H          23.3881  -20.1669   17.4210 H         1 VAL         0.0234
    145 H          24.9410  -19.3558   17.7400 H         1 VAL         0.0234
    146 H          24.9147  -21.0677   17.2501 H         1 VAL         0.0234
    147 H          26.2727  -20.0577   19.8571 H         1 VAL         0.0234
    148 H          25.5839  -21.3198   20.9077 H         1 VAL         0.0234
    149 H          26.1943  -21.7437   19.2894 H         1 VAL         0.0234
    150 H          24.8614  -19.0380   22.2182 H         1 GLU         0.1883
    151 H          22.8393  -20.2348   23.9885 H         1 GLU         0.0801
    152 H          25.7487  -21.0467   24.1793 H         1 GLU         0.0330
    153 H          24.3987  -22.0729   23.5175 H         1 GLU         0.0330
    154 H          23.3227  -22.0023   25.6870 H         1 GLU         0.0433
    155 H          24.7259  -21.0520   26.3322 H         1 GLU         0.0433
    156 H          22.4471  -19.1035   25.7302 H         1 TRP         0.1884
    157 H          24.4752  -17.0453   26.4974 H         1 TRP         0.0815
    158 H          22.5738  -15.9221   27.6302 H         1 TRP         0.0397
    159 H          21.4807  -17.1777   26.8518 H         1 TRP         0.0397
    160 H          20.9257  -16.8806   24.3018 H         1 TRP         0.0795
    161 H          21.2008  -14.9069   22.6449 H         1 TRP         0.2216
    162 H          24.0711  -13.9709   27.1100 H         1 TRP         0.0540
    163 H          22.5782  -12.4489   22.5763 H         1 TRP         0.0541
    164 H          24.8315  -11.8104   26.1778 H         1 TRP         0.0510
    165 H          24.0946  -11.0641   23.9414 H         1 TRP         0.0530
    166 H          25.1707  -16.9128   28.6048 H         1 THR         0.1884
    167 H          23.8996  -18.8286   30.5139 H         1 THR         0.0826
    168 H          26.3083  -19.3553   29.9417 H         1 THR         0.0639
    169 H          26.8252  -19.6162   32.2097 H         1 THR         0.2101
    170 H          27.1235  -17.0404   29.7638 H         1 THR         0.0257
    171 H          26.7857  -16.7834   31.4932 H         1 THR         0.0257
    172 H          28.0391  -17.9456   30.9939 H         1 THR         0.0257
    173 H          23.9730  -18.0492   32.8034 H         1 ILE         0.1883
    174 H          23.9333  -15.0677   32.9131 H         1 ILE         0.0803
    175 H          22.7733  -17.0579   34.8845 H         1 ILE         0.0345
    176 H          21.5463  -17.0849   32.8280 H         1 ILE         0.0267
    177 H          21.4997  -15.2594   32.8129 H         1 ILE         0.0267
    178 H          23.5085  -14.9785   35.9496 H         1 ILE         0.0235
    179 H          22.6065  -14.0301   34.7421 H         1 ILE         0.0235
    180 H          21.7310  -15.0698   35.8926 H         1 ILE         0.0235
    181 H          20.1555  -17.0813   34.8057 H         1 ILE         0.0230
    182 H          20.1101  -15.3012   34.7909 H         1 ILE         0.0230
    183 H          19.3592  -16.2220   33.4646 H         1 ILE         0.0230
    184 H          25.7616  -14.1973   33.6208 H         1 LEU         0.1883
    185 H          27.8163  -15.7632   34.8484 H         1 LEU         0.0800
    186 H          28.4262  -13.1249   35.3746 H         1 LEU         0.0315
    187 H          27.3898  -13.1272   33.7950 H         1 LEU         0.0315
    188 H          30.2007  -13.8364   34.3142 H         1 LEU         0.0298
    189 H          29.2882  -15.9959   33.7448 H         1 LEU         0.0232
    190 H          28.4770  -15.3008   32.3201 H         1 LEU         0.0232
    191 H          30.2555  -15.3393   32.4015 H         1 LEU         0.0232
    192 H          28.6122  -12.7303   31.9661 H         1 LEU         0.0232
    193 H          29.5517  -11.7776   33.1412 H         1 LEU         0.0232
    194 H          30.3840  -12.8954   32.0327 H         1 LEU         0.0232
    195 H          28.9524  -15.3661   36.8325 H         1 GLU         0.1883
    196 H          27.0008  -14.9210   39.0103 H         1 GLU         0.0801
    197 H          29.2675  -15.6467   40.2876 H         1 GLU         0.0330
    198 H          29.5071  -16.4294   38.6540 H         1 GLU         0.0330
    199 H          27.4572  -16.9364   40.7668 H         1 GLU         0.0433
    200 H          28.5135  -18.0917   39.8543 H         1 GLU         0.0433
    201 H          29.7244  -13.3929   37.4999 H         1 ARG         0.1875
    202 H          29.3534  -11.0808   39.2649 H         1 ARG         0.0723
    203 O          31.7401  -10.7887   37.2073 O.co2     1 ARG        -0.5666
    204 H          30.9833  -12.3911   40.5617 H         1 ARG         0.0270
    205 H          32.0414  -12.5113   39.1345 H         1 ARG         0.0270
    206 H          31.7506  -10.9283   39.8965 H         1 ARG         0.0270
@<TRIPOS>BOND
     1    1    2 1  
     2    2    3 1  
     3    2    5 1  
     4    3    4 2  
     5    3   12 am 
     6    5    6 1  
     7    6    7 1  
     8    7    8 1  
     9    8    9 ar 
    10    9   10 ar 
    11    9   11 ar 
    12   12   13 1  
    13   13   14 1  
    14   13   16 1  
    15   14   15 2  
    16   14   20 am 
    17   16   17 1  
    18   17   18 1  
    19   17   19 1  
    20   20   21 1  
    21   21   22 1  
    22   21   24 1  
    23   22   23 2  
    24   22   30 am 
    25   24   25 1  
    26   25   26 1  
    27   25   27 2  
    28   26   28 2  
    29   27   29 1  
    30   28   29 1  
    31   30   31 1  
    32   31   32 1  
    33   31   34 1  
    34   32   33 2  
    35   32   36 am 
    36   34   35 1  
    37   36   37 1  
    38   37   38 1  
    39   37   40 1  
    40   38   39 2  
    41   38   43 am 
    42   40   41 1  
    43   40   42 1  
    44   43   44 1  
    45   44   45 1  
    46   44   47 1  
    47   45   46 2  
    48   45   52 am 
    49   47   48 1  
    50   48   49 1  
    51   49   50 ar 
    52   49   51 ar 
    53   52   53 1  
    54   53   54 1  
    55   53   56 1  
    56   54   55 2  
    57   54   66 am 
    58   56   57 1  
    59   57   58 2  
    60   57   59 1  
    61   58   60 1  
    62   59   61 ar 
    63   59   62 ar 
    64   60   61 1  
    65   61   63 ar 
    66   62   64 ar 
    67   63   65 ar 
    68   64   65 ar 
    69   66   67 1  
    70   67   68 1  
    71   67   70 1  
    72   68   69 2  
    73   68   73 am 
    74   70   71 1  
    75   70   72 1  
    76   73   74 1  
    77   74   75 1  
    78   74   77 1  
    79   75   76 2  
    80   75   81 am 
    81   77   78 1  
    82   77   79 1  
    83   78   80 1  
    84   81   82 1  
    85   82   83 1  
    86   82   85 1  
    87   83   84 2  
    88   83   89 am 
    89   85   86 1  
    90   86   87 1  
    91   86   88 1  
    92   89   90 1  
    93   90   91 1  
    94   90   93 1  
    95   91   92 2  
    96   91   98 am 
    97   93   94 1  
    98   94   95 1  
    99   95   96 ar 
   100   95   97 ar 
   101   98   99 1  
   102   99  100 1  
   103   99  102 1  
   104  100  101 ar 
   105    1  103 1  
   106    1  104 1  
   107    1  105 1  
   108    2  106 1  
   109    5  107 1  
   110    5  108 1  
   111    6  109 1  
   112    6  110 1  
   113    7  111 1  
   114    7  112 1  
   115    8  113 1  
   116   10  114 1  
   117   10  115 1  
   118   11  116 1  
   119   11  117 1  
   120   12  118 1  
   121   13  119 1  
   122   16  120 1  
   123   16  121 1  
   124   17  122 1  
   125   18  123 1  
   126   18  124 1  
   127   18  125 1  
   128   19  126 1  
   129   19  127 1  
   130   19  128 1  
   131   20  129 1  
   132   21  130 1  
   133   24  131 1  
   134   24  132 1  
   135   27  133 1  
   136   28  134 1  
   137   29  135 1  
   138   30  136 1  
   139   31  137 1  
   140   34  138 1  
   141   34  139 1  
   142   35  140 1  
   143   36  141 1  
   144   37  142 1  
   145   40  143 1  
   146   41  144 1  
   147   41  145 1  
   148   41  146 1  
   149   42  147 1  
   150   42  148 1  
   151   42  149 1  
   152   43  150 1  
   153   44  151 1  
   154   47  152 1  
   155   47  153 1  
   156   48  154 1  
   157   48  155 1  
   158   52  156 1  
   159   53  157 1  
   160   56  158 1  
   161   56  159 1  
   162   58  160 1  
   163   60  161 1  
   164   62  162 1  
   165   63  163 1  
   166   64  164 1  
   167   65  165 1  
   168   66  166 1  
   169   67  167 1  
   170   70  168 1  
   171   71  169 1  
   172   72  170 1  
   173   72  171 1  
   174   72  172 1  
   175   73  173 1  
   176   74  174 1  
   177   77  175 1  
   178   78  176 1  
   179   78  177 1  
   180   79  178 1  
   181   79  179 1  
   182   79  180 1  
   183   80  181 1  
   184   80  182 1  
   185   80  183 1  
   186   81  184 1  
   187   82  185 1  
   188   85  186 1  
   189   85  187 1  
   190   86  188 1  
   191   87  189 1  
   192   87  190 1  
   193   87  191 1  
   194   88  192 1  
   195   88  193 1  
   196   88  194 1  
   197   89  195 1  
   198   90  196 1  
   199   93  197 1  
   200   93  198 1  
   201   94  199 1  
   202   94  200 1  
   203   98  201 1  
   204   99  202 1  
   205  100  203 ar 
   206  102  204 1  
   207  102  205 1  
   208  102  206 1  
@<TRIPOS>SUBSTRUCTURE
     1 ARG         1

