4ejf_ligand
  -I-interpret- 

206208  0  0  0  0  0  0  0  0999 V2000
   25.4200  -11.5040   10.1260 N   0  3  0  0  0
   26.0670  -10.8670   11.2670 C   0  0  0  0  0
   26.2360  -11.8360   12.4330 C   0  0  0  0  0
   26.0500  -13.0440   12.2810 O   0  0  0  0  0
   25.2800   -9.6320   11.7090 C   0  0  0  0  0
   23.7790   -9.8410   11.7190 C   0  0  0  0  0
   23.1820   -9.5830   13.0900 C   0  0  0  0  0
   23.3890   -8.2100   13.5380 N   0  0  0  0  0
   22.8200   -7.1440   12.9850 C   0  0  0  0  0
   22.0120   -7.2770   11.9400 N   0  0  0  0  0
   23.0690   -5.9400   13.4780 N   0  0  0  0  0
   26.5850  -11.2970   13.5960 N   0  0  0  0  0
   26.8770  -12.1160   14.7670 C   0  0  0  0  0
   25.6090  -12.6390   15.4340 C   0  0  0  0  0
   24.5850  -11.9560   15.4690 O   0  0  0  0  0
   27.7110  -11.3230   15.7750 C   0  0  0  0  0
   28.8920  -10.5530   15.1820 C   0  0  0  0  0
   28.5230   -9.0920   14.9650 C   0  0  0  0  0
   30.1100  -10.6660   16.0800 C   0  0  0  0  0
   25.6860  -13.8550   15.9640 N   0  0  0  0  0
   24.5440  -14.4690   16.6290 C   0  0  0  0  0
   24.9740  -15.3630   17.7880 C   0  0  0  0  0
   25.8120  -16.2480   17.6250 O   0  0  0  0  0
   23.7140  -15.2780   15.6290 C   0  0  0  0  0
   22.4220  -15.7870   16.1890 C   0  0  0  0  0
   22.2270  -17.1070   16.5360 N   0  0  0  0  0
   21.2590  -15.1510   16.4650 C   0  0  0  0  0
   21.0000  -17.2620   16.9990 C   0  0  0  0  0
   20.3910  -16.0900   16.9670 N   0  0  0  0  0
   24.3880  -15.1320   18.9570 N   0  0  0  0  0
   24.6360  -15.9910   20.1030 C   0  0  0  0  0
   23.7410  -17.2200   20.0100 C   0  0  0  0  0
   22.5330  -17.1030   19.8060 O   0  0  0  0  0
   24.3690  -15.2390   21.4080 C   0  0  0  0  0
   24.4300  -16.2720   22.8910 S   0  0  0  0  0
   24.3370  -18.3970   20.1600 N   0  0  0  0  0
   23.5840  -19.6420   20.1030 C   0  0  0  0  0
   23.3110  -20.1530   21.5140 C   0  0  0  0  0
   22.3940  -20.9570   21.7370 O   0  0  0  0  0
   24.3120  -20.7160   19.2900 C   0  0  0  0  0
   24.3950  -20.2960   17.8180 C   0  0  0  0  0
   25.6890  -20.9780   19.8780 C   0  0  0  0  0
   24.1020  -19.6710   22.4690 N   0  0  0  0  0
   23.9030  -20.0310   23.8660 C   0  0  0  0  0
   24.2520  -18.8870   24.8230 C   0  0  0  0  0
   25.3210  -18.2760   24.7290 O   0  0  0  0  0
   24.6880  -21.2940   24.2230 C   0  0  0  0  0
   24.3930  -21.8070   25.6200 C   0  0  0  0  0
   25.1210  -23.0930   25.9310 C   0  0  0  0  0
   26.0320  -23.4620   25.1610 O   0  0  0  0  0
   24.7840  -23.7350   26.9450 O   0  0  0  0  0
   23.3330  -18.5980   25.7380 N   0  0  0  0  0
   23.5590  -17.5790   26.7500 C   0  0  0  0  0
   23.7010  -18.2280   28.1180 C   0  0  0  0  0
   23.0520  -19.2330   28.4110 O   0  0  0  0  0
   22.3950  -16.5880   26.7860 C   0  0  0  0  0
   22.2660  -15.7250   25.5750 C   0  0  0  0  0
   21.5270  -15.9850   24.4580 C   0  0  0  0  0
   22.8830  -14.4510   25.3620 C   0  0  0  0  0
   21.6510  -14.9540   23.5590 N   0  0  0  0  0
   22.4780  -13.9990   24.0900 C   0  0  0  0  0
   23.7410  -13.6500   26.1220 C   0  0  0  0  0
   22.9030  -12.7820   23.5620 C   0  0  0  0  0
   24.1620  -12.4440   25.5960 C   0  0  0  0  0
   23.7430  -12.0210   24.3270 C   0  0  0  0  0
   24.5590  -17.6520   28.9510 N   0  0  0  0  0
   24.6460  -18.0520   30.3470 C   0  0  0  0  0
   24.3940  -16.8390   31.2250 C   0  0  0  0  0
   24.4470  -15.7000   30.7590 O   0  0  0  0  0
   26.0260  -18.6270   30.7020 C   0  0  0  0  0
   25.9630  -19.2570   31.9880 O   0  0  0  0  0
   27.0680  -17.5200   30.7410 C   0  0  0  0  0
   24.1120  -17.0860   32.4980 N   0  0  0  0  0
   23.9980  -16.0060   33.4640 C   0  0  0  0  0
   25.2250  -16.0040   34.3650 C   0  0  0  0  0
   25.4400  -16.9400   35.1320 O   0  0  0  0  0
   22.7280  -16.1290   34.3160 C   0  0  0  0  0
   21.4920  -16.1680   33.4150 C   0  0  0  0  0
   22.6370  -14.9690   35.2950 C   0  0  0  0  0
   20.1880  -16.1950   34.1720 C   0  0  0  0  0
   26.0290  -14.9510   34.2540 N   0  0  0  0  0
   27.2790  -14.8270   35.0000 C   0  0  0  0  0
   27.0800  -14.6530   36.4990 C   0  0  0  0  0
   26.0290  -14.2060   36.9530 O   0  0  0  0  0
   28.0750  -13.6320   34.4760 C   0  0  0  0  0
   29.3390  -13.8560   33.6470 C   0  0  0  0  0
   29.3400  -15.2200   32.9810 C   0  0  0  0  0
   29.4820  -12.7340   32.6230 C   0  0  0  0  0
   28.1050  -15.0030   37.2690 N   0  0  0  0  0
   28.0510  -14.8820   38.7210 C   0  0  0  0  0
   28.6210  -13.5500   39.2000 C   0  0  0  0  0
   28.2860  -13.0770   40.2850 O   0  0  0  0  0
   28.7990  -16.0390   39.3850 C   0  0  0  0  0
   27.9030  -17.1900   39.8050 C   0  0  0  0  0
   26.7800  -17.4380   38.8190 C   0  0  0  0  0
   27.0740  -17.6210   37.6200 O   0  0  0  0  0
   25.6060  -17.4470   39.2420 O   0  0  0  0  0
   29.4850  -12.9500   38.3870 N   0  0  0  0  0
   30.0980  -11.6740   38.7340 C   0  0  0  0  0
   30.5170  -10.9040   37.4870 C   0  0  0  0  0
   29.6533  -10.3815   36.7329 O   0  0  0  0  0
   31.3060  -11.8920   39.6480 C   0  0  0  0  0
   31.7401  -10.7887   37.2073 O   0  0  0  0  0
   25.9579  -12.3241    9.8458 H   0  0  0  0  0
   24.4758  -11.7882   10.3871 H   0  0  0  0  0
   25.3753  -10.8438    9.3498 H   0  0  0  0  0
   27.0622  -10.5561   10.9490 H   0  0  0  0  0
   25.4944   -8.8354   10.9965 H   0  0  0  0  0
   25.5843   -9.3982   12.7292 H   0  0  0  0  0
   23.5759  -10.8767   11.4468 H   0  0  0  0  0
   23.3313   -9.1409   11.0136 H   0  0  0  0  0
   23.6724  -10.2473   13.8016 H   0  0  0  0  0
   22.1081   -9.7592   13.0285 H   0  0  0  0  0
   24.0134   -8.0579   14.3301 H   0  0  0  0  0
   21.5841   -6.4528   11.5181 H   0  0  0  0  0
   21.8192   -8.2033   11.5591 H   0  0  0  0  0
   23.6941   -5.8354   14.2772 H   0  0  0  0  0
   26.6506  -10.2820   13.6721 H   0  0  0  0  0
   27.4468  -12.9793   14.4234 H   0  0  0  0  0
   28.1294  -12.0477   16.4734 H   0  0  0  0  0
   27.0452  -10.5820   16.2174 H   0  0  0  0  0
   29.1367  -10.9938   14.2156 H   0  0  0  0  0
   27.6790   -9.0299   14.2781 H   0  0  0  0  0
   28.2501   -8.6419   15.9195 H   0  0  0  0  0
   29.3766   -8.5619   14.5426 H   0  0  0  0  0
   29.8760  -10.2530   17.0612 H   0  0  0  0  0
   30.3880  -11.7149   16.1827 H   0  0  0  0  0
   30.9378  -10.1109   15.6388 H   0  0  0  0  0
   26.5642  -14.3703   15.9040 H   0  0  0  0  0
   23.9348  -13.6621   17.0363 H   0  0  0  0  0
   24.3075  -16.1454   15.3402 H   0  0  0  0  0
   23.4700  -14.6161   14.7981 H   0  0  0  0  0
   21.0504  -14.0915   16.3166 H   0  0  0  0  0
   20.5638  -18.1979   17.3482 H   0  0  0  0  0
   23.7536  -14.3390   19.0523 H   0  0  0  0  0
   25.6813  -16.3000   20.0989 H   0  0  0  0  0
   23.3597  -14.8327   21.3424 H   0  0  0  0  0
   25.1513  -14.4868   21.5096 H   0  0  0  0  0
   24.1853  -15.5223   23.9620 H   0  0  0  0  0
   25.3441  -18.4298   20.3186 H   0  0  0  0  0
   22.6400  -19.4315   19.6003 H   0  0  0  0  0
   23.7494  -21.6483   19.3392 H   0  0  0  0  0
   23.3881  -20.1669   17.4210 H   0  0  0  0  0
   24.9410  -19.3558   17.7400 H   0  0  0  0  0
   24.9147  -21.0677   17.2501 H   0  0  0  0  0
   26.2727  -20.0577   19.8571 H   0  0  0  0  0
   25.5839  -21.3198   20.9077 H   0  0  0  0  0
   26.1943  -21.7437   19.2894 H   0  0  0  0  0
   24.8614  -19.0380   22.2182 H   0  0  0  0  0
   22.8393  -20.2348   23.9885 H   0  0  0  0  0
   25.7487  -21.0467   24.1793 H   0  0  0  0  0
   24.3987  -22.0729   23.5175 H   0  0  0  0  0
   23.3227  -22.0023   25.6870 H   0  0  0  0  0
   24.7259  -21.0520   26.3322 H   0  0  0  0  0
   26.1257  -22.8246   24.4493 H   0  0  0  0  0
   22.4471  -19.1035   25.7302 H   0  0  0  0  0
   24.4752  -17.0453   26.4974 H   0  0  0  0  0
   22.5738  -15.9221   27.6302 H   0  0  0  0  0
   21.4807  -17.1777   26.8518 H   0  0  0  0  0
   20.9257  -16.8806   24.3018 H   0  0  0  0  0
   24.0711  -13.9709   27.1100 H   0  0  0  0  0
   22.5782  -12.4489   22.5763 H   0  0  0  0  0
   24.8315  -11.8104   26.1778 H   0  0  0  0  0
   24.0946  -11.0641   23.9414 H   0  0  0  0  0
   25.1707  -16.9128   28.6048 H   0  0  0  0  0
   23.8996  -18.8286   30.5139 H   0  0  0  0  0
   26.3083  -19.3553   29.9417 H   0  0  0  0  0
   26.8252  -19.6162   32.2097 H   0  0  0  0  0
   27.1235  -17.0404   29.7638 H   0  0  0  0  0
   26.7857  -16.7834   31.4932 H   0  0  0  0  0
   28.0391  -17.9456   30.9939 H   0  0  0  0  0
   23.9730  -18.0492   32.8034 H   0  0  0  0  0
   23.9333  -15.0677   32.9131 H   0  0  0  0  0
   22.7733  -17.0579   34.8845 H   0  0  0  0  0
   21.5463  -17.0849   32.8280 H   0  0  0  0  0
   21.4997  -15.2594   32.8129 H   0  0  0  0  0
   23.5085  -14.9785   35.9496 H   0  0  0  0  0
   22.6065  -14.0301   34.7421 H   0  0  0  0  0
   21.7310  -15.0698   35.8926 H   0  0  0  0  0
   20.1555  -17.0813   34.8057 H   0  0  0  0  0
   20.1101  -15.3012   34.7909 H   0  0  0  0  0
   19.3592  -16.2220   33.4646 H   0  0  0  0  0
   25.7616  -14.1973   33.6208 H   0  0  0  0  0
   27.8163  -15.7632   34.8484 H   0  0  0  0  0
   28.4262  -13.1249   35.3746 H   0  0  0  0  0
   27.3898  -13.1272   33.7950 H   0  0  0  0  0
   30.2007  -13.8364   34.3142 H   0  0  0  0  0
   29.2882  -15.9959   33.7448 H   0  0  0  0  0
   28.4770  -15.3008   32.3201 H   0  0  0  0  0
   30.2555  -15.3393   32.4015 H   0  0  0  0  0
   28.6122  -12.7303   31.9661 H   0  0  0  0  0
   29.5517  -11.7776   33.1412 H   0  0  0  0  0
   30.3840  -12.8954   32.0327 H   0  0  0  0  0
   28.9524  -15.3661   36.8325 H   0  0  0  0  0
   27.0008  -14.9210   39.0103 H   0  0  0  0  0
   29.2675  -15.6467   40.2876 H   0  0  0  0  0
   29.5071  -16.4294   38.6540 H   0  0  0  0  0
   27.4572  -16.9364   40.7668 H   0  0  0  0  0
   28.5135  -18.0917   39.8543 H   0  0  0  0  0
   28.0270  -17.5734   37.5145 H   0  0  0  0  0
   29.7244  -13.3929   37.4999 H   0  0  0  0  0
   29.3534  -11.0808   39.2649 H   0  0  0  0  0
   28.7766  -10.5583   37.0817 H   0  0  0  0  0
   30.9833  -12.3911   40.5617 H   0  0  0  0  0
   32.0414  -12.5113   39.1345 H   0  0  0  0  0
   31.7506  -10.9283   39.8965 H   0  0  0  0  0
  1  2  1  0  0  0
  2  3  1  0  0  0
  2  5  1  0  0  0
  3  4  2  0  0  0
  3 12  1  0  0  0
  5  6  1  0  0  0
  6  7  1  0  0  0
  7  8  1  0  0  0
  8  9  1  0  0  0
  9 10  1  0  0  0
  9 11  2  0  0  0
 12 13  1  0  0  0
 13 14  1  0  0  0
 13 16  1  0  0  0
 14 15  2  0  0  0
 14 20  1  0  0  0
 16 17  1  0  0  0
 17 18  1  0  0  0
 17 19  1  0  0  0
 20 21  1  0  0  0
 21 22  1  0  0  0
 21 24  1  0  0  0
 22 23  2  0  0  0
 22 30  1  0  0  0
 24 25  1  0  0  0
 25 26  4  0  0  0
 25 27  4  0  0  0
 26 28  4  0  0  0
 27 29  4  0  0  0
 28 29  4  0  0  0
 30 31  1  0  0  0
 31 32  1  0  0  0
 31 34  1  0  0  0
 32 33  2  0  0  0
 32 36  1  0  0  0
 34 35  1  0  0  0
 36 37  1  0  0  0
 37 38  1  0  0  0
 37 40  1  0  0  0
 38 39  2  0  0  0
 38 43  1  0  0  0
 40 41  1  0  0  0
 40 42  1  0  0  0
 43 44  1  0  0  0
 44 45  1  0  0  0
 44 47  1  0  0  0
 45 46  2  0  0  0
 45 52  1  0  0  0
 47 48  1  0  0  0
 48 49  1  0  0  0
 49 50  1  0  0  0
 49 51  2  0  0  0
 52 53  1  0  0  0
 53 54  1  0  0  0
 53 56  1  0  0  0
 54 55  2  0  0  0
 54 66  1  0  0  0
 56 57  1  0  0  0
 57 58  4  0  0  0
 57 59  4  0  0  0
 58 60  4  0  0  0
 59 61  4  0  0  0
 59 62  4  0  0  0
 60 61  4  0  0  0
 61 63  4  0  0  0
 62 64  4  0  0  0
 63 65  4  0  0  0
 64 65  4  0  0  0
 66 67  1  0  0  0
 67 68  1  0  0  0
 67 70  1  0  0  0
 68 69  2  0  0  0
 68 73  1  0  0  0
 70 71  1  0  0  0
 70 72  1  0  0  0
 73 74  1  0  0  0
 74 75  1  0  0  0
 74 77  1  0  0  0
 75 76  2  0  0  0
 75 81  1  0  0  0
 77 78  1  0  0  0
 77 79  1  0  0  0
 78 80  1  0  0  0
 81 82  1  0  0  0
 82 83  1  0  0  0
 82 85  1  0  0  0
 83 84  2  0  0  0
 83 89  1  0  0  0
 85 86  1  0  0  0
 86 87  1  0  0  0
 86 88  1  0  0  0
 89 90  1  0  0  0
 90 91  1  0  0  0
 90 93  1  0  0  0
 91 92  2  0  0  0
 91 98  1  0  0  0
 93 94  1  0  0  0
 94 95  1  0  0  0
 95 96  1  0  0  0
 95 97  2  0  0  0
 98 99  1  0  0  0
 99100  1  0  0  0
 99102  1  0  0  0
100101  1  0  0  0
100103  2  0  0  0
  1104  1  0  0  0
  1105  1  0  0  0
  1106  1  0  0  0
  2107  1  0  0  0
  5108  1  0  0  0
  5109  1  0  0  0
  6110  1  0  0  0
  6111  1  0  0  0
  7112  1  0  0  0
  7113  1  0  0  0
  8114  1  0  0  0
 10115  1  0  0  0
 10116  1  0  0  0
 11117  1  0  0  0
 12118  1  0  0  0
 13119  1  0  0  0
 16120  1  0  0  0
 16121  1  0  0  0
 17122  1  0  0  0
 18123  1  0  0  0
 18124  1  0  0  0
 18125  1  0  0  0
 19126  1  0  0  0
 19127  1  0  0  0
 19128  1  0  0  0
 20129  1  0  0  0
 21130  1  0  0  0
 24131  1  0  0  0
 24132  1  0  0  0
 27133  1  0  0  0
 28134  1  0  0  0
 30135  1  0  0  0
 31136  1  0  0  0
 34137  1  0  0  0
 34138  1  0  0  0
 35139  1  0  0  0
 36140  1  0  0  0
 37141  1  0  0  0
 40142  1  0  0  0
 41143  1  0  0  0
 41144  1  0  0  0
 41145  1  0  0  0
 42146  1  0  0  0
 42147  1  0  0  0
 42148  1  0  0  0
 43149  1  0  0  0
 44150  1  0  0  0
 47151  1  0  0  0
 47152  1  0  0  0
 48153  1  0  0  0
 48154  1  0  0  0
 50155  1  0  0  0
 52156  1  0  0  0
 53157  1  0  0  0
 56158  1  0  0  0
 56159  1  0  0  0
 58160  1  0  0  0
 62161  1  0  0  0
 63162  1  0  0  0
 64163  1  0  0  0
 65164  1  0  0  0
 66165  1  0  0  0
 67166  1  0  0  0
 70167  1  0  0  0
 71168  1  0  0  0
 72169  1  0  0  0
 72170  1  0  0  0
 72171  1  0  0  0
 73172  1  0  0  0
 74173  1  0  0  0
 77174  1  0  0  0
 78175  1  0  0  0
 78176  1  0  0  0
 79177  1  0  0  0
 79178  1  0  0  0
 79179  1  0  0  0
 80180  1  0  0  0
 80181  1  0  0  0
 80182  1  0  0  0
 81183  1  0  0  0
 82184  1  0  0  0
 85185  1  0  0  0
 85186  1  0  0  0
 86187  1  0  0  0
 87188  1  0  0  0
 87189  1  0  0  0
 87190  1  0  0  0
 88191  1  0  0  0
 88192  1  0  0  0
 88193  1  0  0  0
 89194  1  0  0  0
 90195  1  0  0  0
 93196  1  0  0  0
 93197  1  0  0  0
 94198  1  0  0  0
 94199  1  0  0  0
 96200  1  0  0  0
 98201  1  0  0  0
 99202  1  0  0  0
101203  1  0  0  0
102204  1  0  0  0
102205  1  0  0  0
102206  1  0  0  0
M  END
$$$$
