3ut5_ligand
  -I-interpret- 

 70 71  0  0  0  0  0  0  0  0999 V2000
    8.8290   86.0640  104.5240 O   0  0  0  0  0
    8.6010   86.3730  105.9110 C   0  0  0  0  0
    7.3030   86.6770  106.4580 C   0  0  0  0  0
    9.6620   86.3950  106.8620 C   0  0  0  0  0
   10.8440   86.1570  106.4970 O   0  0  0  0  0
    9.5310   86.6680  108.2240 C   0  0  0  0  0
    8.2650   86.9770  108.7250 C   0  0  0  0  0
    7.1340   86.9850  107.8580 C   0  0  0  0  0
    5.7520   87.3540  108.4430 C   0  0  0  0  0
    5.5610   86.8880  109.8300 O   0  0  0  0  0
    5.7700   88.9460  108.4150 C   0  0  0  0  0
    4.6480   89.5440  109.1760 N   0  3  0  0  0
    5.0150   90.9020  109.6230 C   0  0  0  0  0
    6.1150   89.6730  107.0270 C   0  0  0  0  0
    5.2510   89.7760  106.0810 O   0  0  0  0  0
    7.4330   90.1440  106.9930 N   0  0  0  0  0
    8.1420   90.8570  105.9250 C   0  0  0  0  0
    9.2130   89.9720  105.2740 C   0  0  0  0  0
   10.3920   90.0120  105.6360 O   0  0  0  0  0
    8.7120   92.2200  106.3800 C   0  0  0  0  0
    9.0140   93.1080  105.1790 C   0  0  0  0  0
    7.7700   92.9170  107.3520 C   0  0  0  0  0
    9.1980   84.8630  101.9140 C   0  0  0  0  0
    9.2400   86.3800  101.9960 C   0  0  0  0  0
    8.6580   86.9860  103.3080 C   0  0  0  0  0
    7.1240   87.2250  103.0480 C   0  0  0  0  0
    8.7280   89.2120  104.3220 N   0  0  0  0  0
    9.5350   88.2700  103.5530 C   0  0  0  0  0
   10.5580   88.9320  102.5390 C   0  0  0  0  0
   11.7810   88.8210  102.8470 O   0  0  0  0  0
   10.0910   89.5580  101.4360 N   0  0  0  0  0
   10.9280   90.1910  100.4240 C   0  0  0  0  0
   11.3540   89.2300   99.3340 C   0  0  0  0  0
   12.4240   89.3850   98.7420 O   0  0  0  0  0
   10.7750   88.0670   99.1880 O   0  0  0  0  0
    6.4324   86.6743  105.8022 H   0  0  0  0  0
   10.3988   86.6406  108.8830 H   0  0  0  0  0
    8.1413   87.2127  109.7820 H   0  0  0  0  0
    6.5522   86.2859  107.2573 H   0  0  0  0  0
    4.9440   86.8905  107.8769 H   0  0  0  0  0
    4.6884   87.1461  110.1358 H   0  0  0  0  0
    6.6812   89.1816  108.9648 H   0  0  0  0  0
    4.4457   88.9640  109.9903 H   0  0  0  0  0
    3.8244   89.5972  108.5767 H   0  0  0  0  0
    5.8962   90.8470  110.2622 H   0  0  0  0  0
    5.2332   91.5226  108.7539 H   0  0  0  0  0
    4.1857   91.3357  110.1818 H   0  0  0  0  0
    7.9808   89.9650  107.8346 H   0  0  0  0  0
    7.3982   91.0880  105.1624 H   0  0  0  0  0
    9.6477   92.0317  106.9064 H   0  0  0  0  0
    9.7468   92.6156  104.5398 H   0  0  0  0  0
    8.0965   93.2802  104.6162 H   0  0  0  0  0
    9.4139   94.0612  105.5249 H   0  0  0  0  0
    6.8093   93.0871  106.8661 H   0  0  0  0  0
    7.6277   92.2890  108.2315 H   0  0  0  0  0
    8.2010   93.8722  107.6519 H   0  0  0  0  0
    9.7749   84.4399  102.7364 H   0  0  0  0  0
    8.1639   84.5252  101.9823 H   0  0  0  0  0
    9.6252   84.5398  100.9647 H   0  0  0  0  0
    8.6268   86.7561  101.1771 H   0  0  0  0  0
   10.2905   86.6679  101.9558 H   0  0  0  0  0
    7.0015   87.9139  102.2122 H   0  0  0  0  0
    6.6447   86.2752  102.8109 H   0  0  0  0  0
    6.6674   87.6508  103.9415 H   0  0  0  0  0
    7.7334   89.2829  104.1073 H   0  0  0  0  0
   10.3923   87.8138  104.0480 H   0  0  0  0  0
    9.0803   89.5899  101.3020 H   0  0  0  0  0
   11.8281   90.5592  100.9164 H   0  0  0  0  0
   10.3471   90.9878   99.9596 H   0  0  0  0  0
    9.9552   88.0540   99.6873 H   0  0  0  0  0
  1  2  1  0  0  0
 25  1  1  0  0  0
  2  3  2  0  0  0
  2  4  1  0  0  0
  3  8  1  0  0  0
  4  5  2  0  0  0
  4  6  1  0  0  0
  6  7  2  0  0  0
  8  7  1  0  0  0
  8  9  1  0  0  0
  9 10  1  0  0  0
  9 11  1  0  0  0
 11 12  1  0  0  0
 11 14  1  0  0  0
 12 13  1  0  0  0
 14 15  2  0  0  0
 14 16  1  0  0  0
 16 17  1  0  0  0
 17 18  1  0  0  0
 17 20  1  0  0  0
 18 19  2  0  0  0
 18 27  1  0  0  0
 20 21  1  0  0  0
 20 22  1  0  0  0
 24 23  1  0  0  0
 24 25  1  0  0  0
 25 26  1  0  0  0
 25 28  1  0  0  0
 27 28  1  0  0  0
 28 29  1  0  0  0
 29 30  2  0  0  0
 29 31  1  0  0  0
 31 32  1  0  0  0
 32 33  1  0  0  0
 33 34  2  0  0  0
 33 35  1  0  0  0
  3 36  1  0  0  0
  6 37  1  0  0  0
  7 38  1  0  0  0
  8 39  1  0  0  0
  9 40  1  0  0  0
 10 41  1  0  0  0
 11 42  1  0  0  0
 12 43  1  0  0  0
 12 44  1  0  0  0
 13 45  1  0  0  0
 13 46  1  0  0  0
 13 47  1  0  0  0
 16 48  1  0  0  0
 17 49  1  0  0  0
 20 50  1  0  0  0
 21 51  1  0  0  0
 21 52  1  0  0  0
 21 53  1  0  0  0
 22 54  1  0  0  0
 22 55  1  0  0  0
 22 56  1  0  0  0
 23 57  1  0  0  0
 23 58  1  0  0  0
 23 59  1  0  0  0
 24 60  1  0  0  0
 24 61  1  0  0  0
 26 62  1  0  0  0
 26 63  1  0  0  0
 26 64  1  0  0  0
 27 65  1  0  0  0
 28 66  1  0  0  0
 31 67  1  0  0  0
 32 68  1  0  0  0
 32 69  1  0  0  0
 35 70  1  0  0  0
M  END
$$$$
