3psl_ligand
  -I-interpret- 

 68 67  0  0  0  0  0  0  0  0999 V2000
  -18.9150   12.5540   21.5670 C   0  0  0  0  0
  -19.4090   13.7270   21.6660 O   0  0  0  0  0
  -19.4250   11.5570   20.5420 C   0  0  0  0  0
  -17.6510   12.2730   22.2910 N   0  0  0  0  0
  -17.1460   13.2260   23.2980 C   0  0  0  0  0
  -16.9540   14.6400   22.8080 C   0  0  0  0  0
  -17.0660   15.6080   23.5980 O   0  0  0  0  0
  -15.8940   12.7080   23.8920 C   0  0  0  0  0
  -16.5610   14.8260   21.5070 N   0  0  0  0  0
  -16.3920   16.1800   21.0120 C   0  0  0  0  0
  -17.6560   17.0710   21.1450 C   0  0  0  0  0
  -17.5610   18.2760   21.2510 O   0  0  0  0  0
  -15.8350   16.1420   19.5270 C   0  0  0  0  0
  -15.5080   17.5470   19.0120 C   0  0  0  0  0
  -15.1330   17.4540   17.4910 C   0  0  0  0  0
  -14.0560   16.5030   17.2060 N   0  0  0  0  0
  -12.7480   16.8530   17.2140 C   0  0  0  0  0
  -12.3900   18.1330   17.3640 N   0  0  0  0  0
  -11.8290   15.9870   16.8910 N   0  0  0  0  0
  -18.8380   16.4860   21.1670 N   0  0  0  0  0
  -20.0340   17.2500   21.1900 C   0  0  0  0  0
  -20.5070   17.6140   22.6190 C   0  0  0  0  0
  -21.5170   18.3150   22.7740 O   0  0  0  0  0
  -21.1700   16.4690   20.5130 C   0  0  0  0  0
  -21.5780   15.3290   21.3490 O   0  0  0  0  0
  -20.7150   16.0200   19.0650 C   0  0  0  0  0
  -19.7550   17.2080   23.6080 N   0  0  0  0  0
  -20.1450   17.4610   25.0160 C   0  0  0  0  0
  -19.2250   18.4630   25.7370 C   0  0  0  0  0
  -18.0050   18.5310   25.3720 O   0  0  0  0  0
  -20.1390   16.1280   25.7340 C   0  0  0  0  0
  -21.0000   15.0330   25.0600 C   0  0  0  0  0
  -19.6654   19.1959   26.6625 O   0  0  0  0  0
  -20.4833   11.3651   20.7190 H   0  0  0  0  0
  -19.2912   11.9666   19.5408 H   0  0  0  0  0
  -18.8654   10.6260   20.6329 H   0  0  0  0  0
  -17.1298   11.4190   22.0922 H   0  0  0  0  0
  -17.9307   13.2991   24.0509 H   0  0  0  0  0
  -15.1051   12.7184   23.1399 H   0  0  0  0  0
  -15.6044   13.3382   24.7329 H   0  0  0  0  0
  -16.0533   11.6872   24.2393 H   0  0  0  0  0
  -16.3904   14.0261   20.8975 H   0  0  0  0  0
  -15.6584   16.6643   21.6565 H   0  0  0  0  0
  -16.6000   15.7083   18.8830 H   0  0  0  0  0
  -14.9200   15.5498   19.5172 H   0  0  0  0  0
  -14.6707   17.9607   19.5741 H   0  0  0  0  0
  -16.3730   18.1977   19.1399 H   0  0  0  0  0
  -14.7874   18.4399   17.1801 H   0  0  0  0  0
  -16.0196   17.1112   16.9575 H   0  0  0  0  0
  -14.3017   15.5363   16.9925 H   0  0  0  0  0
  -11.4182   18.4103   17.2259 H   0  0  0  0  0
  -13.0888   18.8318   17.6165 H   0  0  0  0  0
  -12.0928   15.0370   16.6295 H   0  0  0  0  0
  -18.8935   15.4675   21.1675 H   0  0  0  0  0
  -19.8035   18.1741   20.6598 H   0  0  0  0  0
  -22.0445   17.1104   20.4032 H   0  0  0  0  0
  -22.2876   14.8516   20.9129 H   0  0  0  0  0
  -20.4763   16.9020   18.4707 H   0  0  0  0  0
  -19.8334   15.3838   19.1435 H   0  0  0  0  0
  -21.5230   15.4661   18.5871 H   0  0  0  0  0
  -18.8875   16.7100   23.4084 H   0  0  0  0  0
  -21.1341   17.9189   25.0241 H   0  0  0  0  0
  -17.8496   17.9053   24.6607 H   0  0  0  0  0
  -20.5577   16.2978   26.7260 H   0  0  0  0  0
  -19.1095   15.7699   25.7337 H   0  0  0  0  0
  -22.0372   15.3649   25.0145 H   0  0  0  0  0
  -20.6305   14.8521   24.0506 H   0  0  0  0  0
  -20.9366   14.1134   25.6418 H   0  0  0  0  0
  1  2  2  0  0  0
  1  3  1  0  0  0
  1  4  1  0  0  0
  4  5  1  0  0  0
  5  6  1  0  0  0
  5  8  1  0  0  0
  6  7  2  0  0  0
  6  9  1  0  0  0
  9 10  1  0  0  0
 10 11  1  0  0  0
 10 13  1  0  0  0
 11 12  2  0  0  0
 11 20  1  0  0  0
 13 14  1  0  0  0
 14 15  1  0  0  0
 15 16  1  0  0  0
 16 17  1  0  0  0
 17 18  1  0  0  0
 17 19  2  0  0  0
 20 21  1  0  0  0
 21 22  1  0  0  0
 21 24  1  0  0  0
 22 23  2  0  0  0
 22 27  1  0  0  0
 24 25  1  0  0  0
 24 26  1  0  0  0
 27 28  1  0  0  0
 28 29  1  0  0  0
 28 31  1  0  0  0
 29 30  1  0  0  0
 31 32  1  0  0  0
 29 33  2  0  0  0
  3 34  1  0  0  0
  3 35  1  0  0  0
  3 36  1  0  0  0
  4 37  1  0  0  0
  5 38  1  0  0  0
  8 39  1  0  0  0
  8 40  1  0  0  0
  8 41  1  0  0  0
  9 42  1  0  0  0
 10 43  1  0  0  0
 13 44  1  0  0  0
 13 45  1  0  0  0
 14 46  1  0  0  0
 14 47  1  0  0  0
 15 48  1  0  0  0
 15 49  1  0  0  0
 16 50  1  0  0  0
 18 51  1  0  0  0
 18 52  1  0  0  0
 19 53  1  0  0  0
 20 54  1  0  0  0
 21 55  1  0  0  0
 24 56  1  0  0  0
 25 57  1  0  0  0
 26 58  1  0  0  0
 26 59  1  0  0  0
 26 60  1  0  0  0
 27 61  1  0  0  0
 28 62  1  0  0  0
 30 63  1  0  0  0
 31 64  1  0  0  0
 31 65  1  0  0  0
 32 66  1  0  0  0
 32 67  1  0  0  0
 32 68  1  0  0  0
M  END
$$$$
