1vjc_ligand
  -I-interpret- 

 47 49  0  0  0  0  0  0  0  0999 V2000
    8.8290   -0.7400   23.5190 P   0  0  0  0  0
   10.2840   -0.6010   23.8230 O   0  0  0  0  0
    8.3370   -2.1300   23.4440 O   0  0  0  0  0
    7.9700    0.2250   24.2740 O   0  0  0  0  0
    9.3940    0.8970   21.2100 P   0  0  0  0  0
   10.8330    0.7800   21.3730 O   0  0  0  0  0
    8.8570    0.9830   19.8930 O   0  0  0  0  0
    8.7190   -0.3170   21.9830 O   0  0  0  0  0
    9.3240    3.6380   22.4940 P   0  0  0  0  0
   10.6370    3.6520   23.1500 O   0  0  0  0  0
    9.1170    4.4860   21.3390 O   0  0  0  0  0
    8.9180    2.1590   22.2050 O   0  0  0  0  0
    8.3250    3.9390   23.5210 O   0  0  0  0  0
    6.9160    3.9860   23.2330 C   0  0  0  0  0
    6.1440    3.7760   24.4910 C   0  0  0  0  0
    6.3980    4.9330   25.3270 O   0  0  0  0  0
    4.6490    3.7630   24.3000 C   0  0  0  0  0
    4.1560    2.4350   24.5440 O   0  0  0  0  0
    4.1160    4.7940   25.2710 C   0  0  0  0  0
    3.0380    4.3380   26.0780 O   0  0  0  0  0
    5.2980    5.0750   26.2160 C   0  0  0  0  0
    5.2580    6.4560   26.7800 N   0  0  0  0  0
    5.0370    7.6490   26.1280 C   0  0  0  0  0
    5.0470    8.7000   26.8800 N   0  0  0  0  0
    5.2970    8.1720   28.1320 C   0  0  0  0  0
    5.4310    8.7700   29.4170 C   0  0  0  0  0
    5.3130   10.0860   29.5700 N   0  0  0  0  0
    5.6810    7.9690   30.4910 N   0  0  0  0  0
    5.7940    6.6440   30.3180 C   0  0  0  0  0
    5.6840    5.9510   29.1630 N   0  0  0  0  0
    5.4310    6.7970   28.0880 C   0  0  0  0  0
   10.5160    0.3301   23.8527 H   0  0  0  0  0
    8.3790    1.0934   24.2614 H   0  0  0  0  0
   11.0451    0.7320   22.3080 H   0  0  0  0  0
   10.6279    3.0462   23.8946 H   0  0  0  0  0
    6.6651    3.2026   22.5178 H   0  0  0  0  0
    6.6639    4.9585   22.8102 H   0  0  0  0  0
    6.4532    2.8135   24.8986 H   0  0  0  0  0
    4.3292    4.0151   23.2889 H   0  0  0  0  0
    3.2037    2.4213   24.4236 H   0  0  0  0  0
    3.7388    5.6480   24.7084 H   0  0  0  0  0
    2.7572    5.0447   26.6640 H   0  0  0  0  0
    5.3192    4.4231   27.0893 H   0  0  0  0  0
    4.8656    7.7029   25.0529 H   0  0  0  0  0
    5.1244   10.6786   28.7615 H   0  0  0  0  0
    5.4111   10.5026   30.4959 H   0  0  0  0  0
    5.9985    6.0574   31.2136 H   0  0  0  0  0
  1  2  1  0  0  0
  1  3  2  0  0  0
  1  4  1  0  0  0
  8  1  1  0  0  0
  5  6  1  0  0  0
  5  7  2  0  0  0
  5  8  1  0  0  0
 12  5  1  0  0  0
  9 10  1  0  0  0
  9 11  2  0  0  0
  9 12  1  0  0  0
  9 13  1  0  0  0
 13 14  1  0  0  0
 14 15  1  0  0  0
 15 16  1  0  0  0
 15 17  1  0  0  0
 16 21  1  0  0  0
 17 18  1  0  0  0
 17 19  1  0  0  0
 19 20  1  0  0  0
 19 21  1  0  0  0
 21 22  1  0  0  0
 22 23  4  0  0  0
 22 31  4  0  0  0
 23 24  4  0  0  0
 24 25  4  0  0  0
 25 26  4  0  0  0
 25 31  4  0  0  0
 26 27  1  0  0  0
 26 28  4  0  0  0
 28 29  4  0  0  0
 29 30  4  0  0  0
 30 31  4  0  0  0
  2 32  1  0  0  0
  4 33  1  0  0  0
  6 34  1  0  0  0
 10 35  1  0  0  0
 14 36  1  0  0  0
 14 37  1  0  0  0
 15 38  1  0  0  0
 17 39  1  0  0  0
 18 40  1  0  0  0
 19 41  1  0  0  0
 20 42  1  0  0  0
 21 43  1  0  0  0
 23 44  1  0  0  0
 27 45  1  0  0  0
 27 46  1  0  0  0
 29 47  1  0  0  0
M  END
$$$$
