### 
### Created by X-TOOL on Mon Sep 10 21:12:51 2018
### 

@<TRIPOS>MOLECULE
1vjc_ligand
   43    45     1     0     0
SMALL
GAST_HUCK


@<TRIPOS>ATOM
      1 PG          8.8290   -0.7400   23.5190 P.3       1 ATP         0.1879
      2 O1G        10.2840   -0.6010   23.8230 O.co2     1 ATP        -0.6091
      3 O2G         8.3370   -2.1300   23.4440 O.co2     1 ATP        -0.6091
      4 O3G         7.9700    0.2250   24.2740 O.co2     1 ATP        -0.6091
      5 PB          9.3940    0.8970   21.2100 P.3       1 ATP         0.3553
      6 O1B        10.8330    0.7800   21.3730 O.co2     1 ATP        -0.5652
      7 O2B         8.8570    0.9830   19.8930 O.co2     1 ATP        -0.5652
      8 O3B         8.7190   -0.3170   21.9830 O.3       1 ATP        -0.1546
      9 PA          9.3240    3.6380   22.4940 P.3       1 ATP         0.3266
     10 O1A        10.6370    3.6520   23.1500 O.co2     1 ATP        -0.5692
     11 O2A         9.1170    4.4860   21.3390 O.co2     1 ATP        -0.5692
     12 O3A         8.9180    2.1590   22.2050 O.3       1 ATP        -0.1171
     13 O5          8.3250    3.9390   23.5210 O.3       1 ATP        -0.2441
     14 C5          6.9160    3.9860   23.2330 C.3       1 ATP         0.1131
     15 C4          6.1440    3.7760   24.4910 C.3       1 ATP         0.1189
     16 O4          6.3980    4.9330   25.3270 O.3       1 ATP        -0.3364
     17 C3          4.6490    3.7630   24.3000 C.3       1 ATP         0.1149
     18 O3          4.1560    2.4350   24.5440 O.3       1 ATP        -0.3864
     19 C2          4.1160    4.7940   25.2710 C.3       1 ATP         0.1385
     20 O2          3.0380    4.3380   26.0780 O.3       1 ATP        -0.3836
     21 C1          5.2980    5.0750   26.2160 C.3       1 ATP         0.2010
     22 N9          5.2580    6.4560   26.7800 N.pl3     1 ATP        -0.1919
     23 C8          5.0370    7.6490   26.1280 C.2       1 ATP         0.1123
     24 N7          5.0470    8.7000   26.8800 N.2       1 ATP        -0.2958
     25 C5          5.2970    8.1720   28.1320 C.ar      1 ATP         0.1045
     26 C6          5.4310    8.7700   29.4170 C.ar      1 ATP         0.1298
     27 N6          5.3130   10.0860   29.5700 N.pl3     1 ATP        -0.3152
     28 N1          5.6810    7.9690   30.4910 N.ar      1 ATP        -0.2698
     29 C2          5.7940    6.6440   30.3180 C.ar      1 ATP         0.0533
     30 N3          5.6840    5.9510   29.1630 N.ar      1 ATP        -0.2714
     31 C4          5.4310    6.7970   28.0880 C.ar      1 ATP         0.1613
     32 H1          6.6628    3.1955   22.5112 H         1 ATP         0.0648
     33 H2          6.6616    4.9674   22.8063 H         1 ATP         0.0648
     34 H3          6.4708    2.8446   24.9765 H         1 ATP         0.0651
     35 H4          4.3889    4.0553   23.2719 H         1 ATP         0.0648
     36 H5          3.2136    2.4214   24.4249 H         1 ATP         0.2100
     37 H6          3.8097    5.6998   24.7273 H         1 ATP         0.0676
     38 H7          2.3132    4.0807   25.5204 H         1 ATP         0.2101
     39 H8          5.3386    4.3433   27.0363 H         1 ATP         0.0996
     40 H9          4.8658    7.7028   25.0539 H         1 ATP         0.1349
     41 H10         5.4120   10.5067   30.5049 H         1 ATP         0.1820
     42 H11         5.1226   10.6844   28.7535 H         1 ATP         0.1820
     43 H12         5.9973    6.0606   31.2087 H         1 ATP         0.0996
@<TRIPOS>BOND
     1    1    2 ar 
     2    1    3 ar 
     3    1    4 ar 
     4    8    1 1  
     5    5    6 ar 
     6    5    7 ar 
     7    5    8 1  
     8   12    5 1  
     9    9   10 ar 
    10    9   11 ar 
    11    9   12 1  
    12    9   13 1  
    13   13   14 1  
    14   14   15 1  
    15   15   16 1  
    16   15   17 1  
    17   16   21 1  
    18   17   18 1  
    19   17   19 1  
    20   19   20 1  
    21   19   21 1  
    22   21   22 1  
    23   22   23 1  
    24   22   31 1  
    25   23   24 2  
    26   24   25 1  
    27   25   26 ar 
    28   25   31 ar 
    29   26   27 1  
    30   26   28 ar 
    31   28   29 ar 
    32   29   30 ar 
    33   30   31 ar 
    34   14   32 1  
    35   14   33 1  
    36   15   34 1  
    37   17   35 1  
    38   18   36 1  
    39   19   37 1  
    40   20   38 1  
    41   21   39 1  
    42   23   40 1  
    43   27   41 1  
    44   27   42 1  
    45   29   43 1  
@<TRIPOS>SUBSTRUCTURE
     1 ATP         1

