6r8q_ligand
  -I-interpret- 

 34 36  0  0  0  0  0  0  0  0999 V2000
    0.7720    5.3210    4.0760 C   0  0  0  0  0
   -0.3840    4.7580    4.5940 C   0  0  0  0  0
   -1.0410    5.4050    5.6310 C   0  0  0  0  0
   -2.9510    3.9570    5.5420 C   0  0  0  0  0
   -4.3410    3.9940    6.1260 C   0  0  0  0  0
   -5.7150    6.4880    8.4860 C   0  0  0  0  0
   -8.1100    5.1620    8.0920 C   0  0  0  0  0
   -0.5730    6.6050    6.1640 C   0  0  0  0  0
    0.6040    7.1280    5.6400 C   0  0  0  0  0
    1.2660    6.4970    4.6000 C   0  0  0  0  0
   -5.7690    5.3860    7.6310 C   0  0  0  0  0
   -8.0550    6.2590    8.9410 C   0  0  0  0  0
   -4.5660    5.0100    6.9880 N   0  0  0  0  0
   -1.3550    7.3460    7.2170 C   0  0  0  0  0
   -2.1860    4.9460    6.2240 O   0  0  0  0  0
   -6.8520    6.9320    9.1400 C   0  0  0  0  0
   -6.9730    4.7140    7.4260 C   0  0  0  0  0
   -9.3170    6.4740    9.4620 N   0  0  0  0  0
  -10.1140    5.5590    8.9670 N   0  0  0  0  0
   -9.4070    4.7620    8.1420 N   0  0  0  0  0
   -5.1650    3.1400    5.8080 O   0  0  0  0  0
    1.2921    4.8326    3.2519 H   0  0  0  0  0
   -0.7710    3.8213    4.1928 H   0  0  0  0  0
   -2.9771    4.1602    4.4714 H   0  0  0  0  0
   -2.5058    2.9701    5.6685 H   0  0  0  0  0
   -4.7677    7.0046    8.6405 H   0  0  0  0  0
    1.0123    8.0497    6.0546 H   0  0  0  0  0
    2.1799    6.9311    4.1946 H   0  0  0  0  0
   -3.7539    5.5874    7.2059 H   0  0  0  0  0
   -2.3355    7.6102    6.8209 H   0  0  0  0  0
   -1.4753    6.7094    8.0936 H   0  0  0  0  0
   -0.8180    8.2527    7.4957 H   0  0  0  0  0
   -6.8061    7.7968    9.8018 H   0  0  0  0  0
   -7.0230    3.8547    6.7573 H   0  0  0  0  0
  2  1  4  0  0  0
  1 10  4  0  0  0
  3  2  4  0  0  0
  3  8  4  0  0  0
 15  3  1  0  0  0
  5  4  1  0  0  0
  4 15  1  0  0  0
 13  5  1  0  0  0
  5 21  2  0  0  0
 11  6  4  0  0  0
  6 16  4  0  0  0
  7 12  4  0  0  0
 17  7  4  0  0  0
  7 20  4  0  0  0
  8  9  4  0  0  0
  8 14  1  0  0  0
  9 10  4  0  0  0
 11 13  1  0  0  0
 11 17  4  0  0  0
 12 16  4  0  0  0
 12 18  4  0  0  0
 18 19  4  0  0  0
 19 20  4  0  0  0
  1 22  1  0  0  0
  2 23  1  0  0  0
  4 24  1  0  0  0
  4 25  1  0  0  0
  6 26  1  0  0  0
  9 27  1  0  0  0
 10 28  1  0  0  0
 13 29  1  0  0  0
 14 30  1  0  0  0
 14 31  1  0  0  0
 14 32  1  0  0  0
 16 33  1  0  0  0
 17 34  1  0  0  0
M  END
$$$$
