1czo_ligand
  -I-interpret- 

 54 56  0  0  0  0  0  0  0  0999 V2000
   61.4720   33.2570  -17.0310 N   0  0  0  0  0
   62.0390   34.4530  -17.3950 C   0  0  0  0  0
   62.1880   35.3460  -16.5650 O   0  0  0  0  0
   62.4330   34.6670  -18.7730 N   0  0  0  0  0
   62.1540   33.8320  -19.8540 C   0  0  0  0  0
   62.5380   34.1120  -21.0100 O   0  0  0  0  0
   61.4140   32.5890  -19.4780 C   0  0  0  0  0
   61.0660   31.7250  -20.4190 N   0  0  0  0  0
   60.5820   30.5140  -19.9860 C   0  0  0  0  0
   60.4980   29.4440  -20.9310 C   0  0  0  0  0
   60.1910   28.1330  -20.5330 C   0  0  0  0  0
   60.0200   27.0340  -21.5550 C   0  0  0  0  0
   60.0030   27.8610  -19.1210 C   0  0  0  0  0
   59.6320   26.4900  -18.6330 C   0  0  0  0  0
   60.1190   28.8960  -18.1800 C   0  0  0  0  0
   60.3750   30.2090  -18.5910 C   0  0  0  0  0
   60.5730   31.2240  -17.6530 N   0  0  0  0  0
   61.1450   32.4050  -18.0120 C   0  0  0  0  0
   60.1780   31.0000  -16.2510 C   0  0  0  0  0
   58.6970   31.2840  -16.0130 C   0  0  0  0  0
   58.3370   32.6530  -16.2160 O   0  0  0  0  0
   58.3210   30.8650  -14.5930 C   0  0  0  0  0
   58.4310   29.4400  -14.4630 O   0  0  0  0  0
   56.9850   31.3400  -14.0250 C   0  0  0  0  0
   56.8440   30.8650  -12.6830 O   0  0  0  0  0
   55.8220   30.9360  -14.9320 C   0  0  0  0  0
   54.6350   31.5910  -14.4600 O   0  0  0  0  0
   53.1460   31.1510  -14.7440 P   0  0  0  0  0
   52.9890   29.8940  -14.0270 O   0  0  0  0  0
   52.2380   32.2380  -14.3280 O   0  0  0  0  0
   52.9460   30.8630  -16.2740 O   0  0  0  0  0
   61.3060   33.0258  -16.0515 H   0  0  0  0  0
   62.9676   35.5126  -18.9718 H   0  0  0  0  0
   61.1524   31.9462  -21.4110 H   0  0  0  0  0
   60.6767   29.6513  -21.9861 H   0  0  0  0  0
   59.2063   27.2930  -22.2325 H   0  0  0  0  0
   60.9440   26.9197  -22.1218 H   0  0  0  0  0
   59.7867   26.0990  -21.0456 H   0  0  0  0  0
   58.6805   26.1937  -19.0746 H   0  0  0  0  0
   60.4061   25.7802  -18.9245 H   0  0  0  0  0
   59.5410   26.5046  -17.5469 H   0  0  0  0  0
   60.0086   28.6748  -17.1184 H   0  0  0  0  0
   60.7571   31.6783  -15.6243 H   0  0  0  0  0
   60.3642   29.9533  -16.0106 H   0  0  0  0  0
   58.1449   30.7029  -16.7517 H   0  0  0  0  0
   57.3978   32.7636  -16.0511 H   0  0  0  0  0
   59.0457   31.4003  -13.9795 H   0  0  0  0  0
   58.1937   29.1821  -13.5693 H   0  0  0  0  0
   56.9663   32.4294  -13.9927 H   0  0  0  0  0
   56.0044   31.1634  -12.3257 H   0  0  0  0  0
   55.6872   29.8546  -14.9085 H   0  0  0  0  0
   56.0291   31.2321  -15.9604 H   0  0  0  0  0
   52.4159   33.0210  -14.8542 H   0  0  0  0  0
   53.0454   31.6802  -16.7679 H   0  0  0  0  0
  1  2  1  0  0  0
  1 18  1  0  0  0
  2  3  2  0  0  0
  2  4  1  0  0  0
  4  5  1  0  0  0
  5  6  2  0  0  0
  5  7  1  0  0  0
  7  8  1  0  0  0
  7 18  2  0  0  0
  8  9  1  0  0  0
  9 10  4  0  0  0
  9 16  4  0  0  0
 10 11  4  0  0  0
 11 12  1  0  0  0
 11 13  4  0  0  0
 13 14  1  0  0  0
 13 15  4  0  0  0
 15 16  4  0  0  0
 16 17  1  0  0  0
 17 18  1  0  0  0
 17 19  1  0  0  0
 19 20  1  0  0  0
 20 21  1  0  0  0
 20 22  1  0  0  0
 22 23  1  0  0  0
 22 24  1  0  0  0
 24 25  1  0  0  0
 24 26  1  0  0  0
 26 27  1  0  0  0
 27 28  1  0  0  0
 28 29  2  0  0  0
 28 30  1  0  0  0
 28 31  1  0  0  0
  1 32  1  0  0  0
  4 33  1  0  0  0
  8 34  1  0  0  0
 10 35  1  0  0  0
 12 36  1  0  0  0
 12 37  1  0  0  0
 12 38  1  0  0  0
 14 39  1  0  0  0
 14 40  1  0  0  0
 14 41  1  0  0  0
 15 42  1  0  0  0
 19 43  1  0  0  0
 19 44  1  0  0  0
 20 45  1  0  0  0
 21 46  1  0  0  0
 22 47  1  0  0  0
 23 48  1  0  0  0
 24 49  1  0  0  0
 25 50  1  0  0  0
 26 51  1  0  0  0
 26 52  1  0  0  0
 30 53  1  0  0  0
 31 54  1  0  0  0
M  END
$$$$
