### 
### Created by X-TOOL on Fri Nov 18 12:22:46 2016
### 

@<TRIPOS>MOLECULE
1czo_ligand
   52    54     1     0     0
SMALL
GAST_HUCK


@<TRIPOS>ATOM
      1 N1         61.4720   33.2570  -17.0310 N.am      1 FMN        -0.1875
      2 C2         62.0390   34.4530  -17.3950 C.2       1 FMN         0.3206
      3 O2         62.1880   35.3460  -16.5650 O.2       1 FMN        -0.3857
      4 N3         62.4330   34.6670  -18.7730 N.am      1 FMN        -0.1901
      5 C4         62.1540   33.8320  -19.8540 C.2       1 FMN         0.1976
      6 O4         62.5380   34.1120  -21.0100 O.2       1 FMN        -0.4219
      7 C4A        61.4140   32.5890  -19.4780 C.2       1 FMN         0.1340
      8 N5         61.0660   31.7250  -20.4190 N.pl3     1 FMN        -0.3171
      9 C5A        60.5820   30.5140  -19.9860 C.ar      1 FMN         0.0554
     10 C6         60.4980   29.4440  -20.9310 C.ar      1 FMN        -0.0584
     11 C7         60.1910   28.1330  -20.5330 C.ar      1 FMN        -0.0699
     12 C7M        60.0200   27.0340  -21.5550 C.3       1 FMN        -0.0427
     13 C8         60.0030   27.8610  -19.1210 C.ar      1 FMN        -0.0696
     14 C8M        59.6320   26.4900  -18.6330 C.3       1 FMN        -0.0433
     15 C9         60.1190   28.8960  -18.1800 C.ar      1 FMN        -0.0557
     16 C9A        60.3750   30.2090  -18.5910 C.ar      1 FMN         0.0731
     17 N10        60.5730   31.2240  -17.6530 N.pl3     1 FMN        -0.2416
     18 C10        61.1450   32.4050  -18.0120 C.2       1 FMN         0.1907
     19 C1         60.1780   31.0000  -16.2510 C.3       1 FMN         0.0728
     20 C2         58.6970   31.2840  -16.0130 C.3       1 FMN         0.1065
     21 O2         58.3370   32.6530  -16.2160 O.3       1 FMN        -0.3868
     22 C3         58.3210   30.8650  -14.5930 C.3       1 FMN         0.1114
     23 O3         58.4310   29.4400  -14.4630 O.3       1 FMN        -0.3865
     24 C4         56.9850   31.3400  -14.0250 C.3       1 FMN         0.1111
     25 O4         56.8440   30.8650  -12.6830 O.3       1 FMN        -0.3865
     26 C5         55.8220   30.9360  -14.9320 C.3       1 FMN         0.1068
     27 O5         54.6350   31.5910  -14.4600 O.3       1 FMN        -0.2734
     28 P          53.1460   31.1510  -14.7440 P.3       1 FMN         0.2008
     29 O1P        52.9890   29.8940  -14.0270 O.co2     1 FMN        -0.5537
     30 O2P        52.2380   32.2380  -14.3280 O.co2     1 FMN        -0.5537
     31 O3P        52.9460   30.8630  -16.2740 O.co2     1 FMN        -0.5537
     32 H1         61.3093   33.0304  -16.0707 H         1 FMN         0.2371
     33 H2         62.9571   35.4960  -18.9679 H         1 FMN         0.2244
     34 H3         61.1533   31.9484  -21.4207 H         1 FMN         0.1796
     35 H4         60.6757   29.6501  -21.9803 H         1 FMN         0.0381
     36 H5         60.2037   27.4376  -22.5616 H         1 FMN         0.0352
     37 H6         58.9951   26.6384  -21.5001 H         1 FMN         0.0352
     38 H7         60.7367   26.2257  -21.3477 H         1 FMN         0.0352
     39 H8         59.5399   26.5034  -17.5369 H         1 FMN         0.0348
     40 H9         60.4125   25.7726  -18.9265 H         1 FMN         0.0348
     41 H10        58.6719   26.1898  -19.0779 H         1 FMN         0.0348
     42 H11        60.0092   28.6760  -17.1242 H         1 FMN         0.0398
     43 H12        60.7732   31.6628  -15.6057 H         1 FMN         0.0584
     44 H13        60.3835   29.9516  -15.9889 H         1 FMN         0.0584
     45 H14        58.1191   30.6751  -16.7239 H         1 FMN         0.0643
     46 H15        58.5338   32.9016  -17.1115 H         1 FMN         0.2100
     47 H16        59.0891   31.3097  -13.9432 H         1 FMN         0.0647
     48 H17        58.1962   29.1848  -13.5785 H         1 FMN         0.2100
     49 H18        57.0030   32.4392  -13.9885 H         1 FMN         0.0646
     50 H19        56.8712   29.9154  -12.6799 H         1 FMN         0.2100
     51 H20        55.6841   29.8453  -14.8968 H         1 FMN         0.0639
     52 H21        56.0317   31.2459  -15.9664 H         1 FMN         0.0639
@<TRIPOS>BOND
     1    1    2 am 
     2    1   18 am 
     3    2    3 2  
     4    2    4 am 
     5    4    5 am 
     6    5    6 2  
     7    5    7 1  
     8    7    8 1  
     9    7   18 2  
    10    8    9 1  
    11    9   10 ar 
    12    9   16 ar 
    13   10   11 ar 
    14   11   12 1  
    15   11   13 ar 
    16   13   14 1  
    17   13   15 ar 
    18   15   16 ar 
    19   16   17 1  
    20   17   18 1  
    21   17   19 1  
    22   19   20 1  
    23   20   21 1  
    24   20   22 1  
    25   22   23 1  
    26   22   24 1  
    27   24   25 1  
    28   24   26 1  
    29   26   27 1  
    30   27   28 1  
    31   28   29 ar 
    32   28   30 ar 
    33   28   31 ar 
    34    1   32 1  
    35    4   33 1  
    36    8   34 1  
    37   10   35 1  
    38   12   36 1  
    39   12   37 1  
    40   12   38 1  
    41   14   39 1  
    42   14   40 1  
    43   14   41 1  
    44   15   42 1  
    45   19   43 1  
    46   19   44 1  
    47   20   45 1  
    48   21   46 1  
    49   22   47 1  
    50   23   48 1  
    51   24   49 1  
    52   25   50 1  
    53   26   51 1  
    54   26   52 1  
@<TRIPOS>SUBSTRUCTURE
     1 FMN         1

