1o2j_ligand
  -I-interpret- 

 43 45  0  0  0  0  0  0  0  0999 V2000
   44.4610   -3.0870   26.2460 C   0  0  0  0  0
   44.8400   -1.7260   26.2880 C   0  0  0  0  0
   44.8030   -0.9970   27.4770 C   0  0  0  0  0
   44.3900   -1.6430   28.6030 C   0  0  0  0  0
   44.0230   -2.9290   28.6190 C   0  0  0  0  0
   44.0470   -3.6950   27.4480 C   0  0  0  0  0
   44.5060   -3.7930   25.0180 C   0  0  0  0  0
   44.2940   -5.0920   24.9750 N   0  0  0  0  0
   44.7510   -3.1160   23.9130 N   0  0  0  0  0
   44.2630   -1.2310   29.8090 N   0  0  0  0  0
   43.6650   -3.3360   29.8220 N   0  0  0  0  0
   43.8390   -2.2260   30.5160 C   0  0  0  0  0
   43.6170   -2.1050   31.8900 C   0  0  0  0  0
   43.2830   -3.2260   32.6440 C   0  0  0  0  0
   43.0740   -3.1190   34.0150 C   0  0  0  0  0
   43.1990   -1.8980   34.6380 C   0  0  0  0  0
   43.5340   -0.7690   33.9010 C   0  0  0  0  0
   43.7390   -0.8670   32.5360 C   0  0  0  0  0
   44.0500    0.2870   31.8360 O   0  0  0  0  0
   43.6980    0.4700   34.4900 O   0  0  0  0  0
   43.5500    0.7790   35.8620 C   0  0  0  0  0
   44.0610    2.2330   36.0550 C   0  0  0  0  0
   42.8710    3.0850   36.4270 C   0  0  0  0  0
   45.0200    2.2750   37.2680 C   0  0  0  0  0
   45.1683   -1.2354   25.3717 H   0  0  0  0  0
   45.0944    0.0530   27.5040 H   0  0  0  0  0
   43.7506   -4.7438   27.4654 H   0  0  0  0  0
   44.3185   -5.5834   24.0815 H   0  0  0  0  0
   44.7776   -3.5984   23.0147 H   0  0  0  0  0
   44.9139   -2.1100   23.9567 H   0  0  0  0  0
   43.1844   -4.1958   32.1562 H   0  0  0  0  0
   42.8110   -4.0027   34.5964 H   0  0  0  0  0
   43.0347   -1.8167   35.7125 H   0  0  0  0  0
   44.0894    1.0283   32.4447 H   0  0  0  0  0
   44.1200    0.0839   36.4785 H   0  0  0  0  0
   42.5073    0.6919   36.1676 H   0  0  0  0  0
   44.5582    2.5779   35.1484 H   0  0  0  0  0
   42.1315    3.0430   35.6273 H   0  0  0  0  0
   42.4310    2.7089   37.3506 H   0  0  0  0  0
   43.1945    4.1159   36.5706 H   0  0  0  0  0
   44.4873    1.9510   38.1621 H   0  0  0  0  0
   45.8641    1.6100   37.0854 H   0  0  0  0  0
   45.3819    3.2935   37.4083 H   0  0  0  0  0
  1  2  4  0  0  0
  1  6  4  0  0  0
  1  7  1  0  0  0
  2  3  4  0  0  0
  3  4  4  0  0  0
  4  5  4  0  0  0
  4 10  4  0  0  0
  5  6  4  0  0  0
  5 11  4  0  0  0
  7  8  2  0  0  0
  7  9  1  0  0  0
 10 12  4  0  0  0
 11 12  4  0  0  0
 12 13  1  0  0  0
 13 14  4  0  0  0
 13 18  4  0  0  0
 14 15  4  0  0  0
 15 16  4  0  0  0
 16 17  4  0  0  0
 17 18  4  0  0  0
 17 20  1  0  0  0
 18 19  1  0  0  0
 20 21  1  0  0  0
 21 22  1  0  0  0
 22 23  1  0  0  0
 22 24  1  0  0  0
  2 25  1  0  0  0
  3 26  1  0  0  0
  6 27  1  0  0  0
  8 28  1  0  0  0
  9 29  1  0  0  0
  9 30  1  0  0  0
 14 31  1  0  0  0
 15 32  1  0  0  0
 16 33  1  0  0  0
 19 34  1  0  0  0
 21 35  1  0  0  0
 21 36  1  0  0  0
 22 37  1  0  0  0
 23 38  1  0  0  0
 23 39  1  0  0  0
 23 40  1  0  0  0
 24 41  1  0  0  0
 24 42  1  0  0  0
 24 43  1  0  0  0
M  END
$$$$
