3cqu_ligand
  -I-interpret- 

 33 36  0  0  0  0  0  0  0  0999 V2000
    4.9390    3.9800   17.4130 N   0  0  0  0  0
    6.0130    4.5650   18.1050 C   0  0  0  0  0
    2.3590    2.4730   16.3870 C   0  0  0  0  0
    6.3450    5.9000   18.0010 C   0  0  0  0  0
    6.5670    0.2390   19.8470 C   0  0  0  0  0
    2.6400    6.5180   16.2000 C   0  0  0  0  0
    7.3870    6.4430   18.7080 C   0  0  0  0  0
    8.1690    5.6720   19.5160 C   0  0  0  0  0
    6.8740   -0.8950   20.7590 C   0  0  0  0  0
    7.0080    1.4850   20.1000 N   0  0  0  0  0
    5.8760    0.2380   18.7270 N   0  0  0  0  0
    5.8840    1.4720   18.2900 N   0  0  0  0  0
    6.5580    2.2810   19.0950 C   0  0  0  0  0
    6.7990    3.7510   18.9540 C   0  0  0  0  0
    7.8620    4.3360   19.6360 C   0  0  0  0  0
    3.8220    4.6370   16.8820 C   0  0  0  0  0
    2.6960    3.8720   16.4190 C   0  0  0  0  0
    1.5760    4.5290   15.8360 C   0  0  0  0  0
    0.6620    3.5870   15.5230 N   0  0  0  0  0
    1.1290    2.3520   15.8560 C   0  0  0  0  0
    1.5900    5.8560   15.7640 N   0  0  0  0  0
    3.7020    5.9600   16.7740 N   0  0  0  0  0
    4.9770    2.9690   17.2836 H   0  0  0  0  0
    2.9903    1.6544   16.7327 H   0  0  0  0  0
    5.7630    6.5408   17.3386 H   0  0  0  0  0
    2.6395    7.6016   16.0823 H   0  0  0  0  0
    7.5937    7.5098   18.6225 H   0  0  0  0  0
    9.0146    6.1023   20.0525 H   0  0  0  0  0
    7.9544   -1.0225   20.8272 H   0  0  0  0  0
    6.4686   -0.6838   21.7485 H   0  0  0  0  0
    6.4232   -1.8069   20.3673 H   0  0  0  0  0
    8.4735    3.7132   20.2889 H   0  0  0  0  0
    0.5915    1.4143   15.7147 H   0  0  0  0  0
  1  2  1  0  0  0
 16  1  1  0  0  0
  2  4  4  0  0  0
  2 14  4  0  0  0
 17  3  4  0  0  0
  3 20  4  0  0  0
  4  7  4  0  0  0
  5  9  1  0  0  0
 10  5  4  0  0  0
 11  5  4  0  0  0
  6 21  4  0  0  0
 22  6  4  0  0  0
  7  8  4  0  0  0
 15  8  4  0  0  0
 13 10  4  0  0  0
 12 11  4  0  0  0
 13 12  4  0  0  0
 14 13  1  0  0  0
 14 15  4  0  0  0
 16 17  4  0  0  0
 16 22  4  0  0  0
 17 18  4  0  0  0
 18 19  4  0  0  0
 18 21  4  0  0  0
 19 20  4  0  0  0
  1 23  1  0  0  0
  3 24  1  0  0  0
  4 25  1  0  0  0
  6 26  1  0  0  0
  7 27  1  0  0  0
  8 28  1  0  0  0
  9 29  1  0  0  0
  9 30  1  0  0  0
  9 31  1  0  0  0
 15 32  1  0  0  0
 20 33  1  0  0  0
M  END
$$$$
