5tyj_ligand
  -I-interpret- 

 27 28  0  0  0  0  0  0  0  0999 V2000
  -16.8500  -10.9040  -18.0620 Br  0  0  0  0  0
  -16.7710   -9.5460  -19.3890 C   0  0  0  0  0
  -17.6320   -9.6620  -20.4640 C   0  0  0  0  0
  -17.6010   -8.7020  -21.4560 C   0  0  0  0  0
  -18.6570   -8.8330  -22.7240 B   0  0  0  0  0
  -18.1390   -7.9420  -23.9980 O   0  0  0  0  0
  -20.0650   -8.1210  -22.2380 O   0  0  0  0  0
  -16.7180   -7.6450  -21.3820 C   0  0  0  0  0
  -15.8600   -7.5200  -20.3070 C   0  0  0  0  0
  -14.9880   -6.4130  -20.3090 O   0  0  0  0  0
  -14.3040   -6.1580  -19.1220 C   0  0  0  0  0
  -12.9350   -6.3490  -19.1110 C   0  0  0  0  0
  -12.2030   -6.0590  -17.9660 C   0  0  0  0  0
  -12.8620   -5.5650  -16.8430 C   0  0  0  0  0
  -14.2400   -5.3620  -16.8550 C   0  0  0  0  0
  -14.9570   -5.6530  -18.0110 C   0  0  0  0  0
  -15.8710   -8.4920  -19.3150 C   0  0  0  0  0
  -18.3261  -10.5000  -20.5278 H   0  0  0  0  0
  -17.3159   -8.3082  -24.3296 H   0  0  0  0  0
  -20.4224   -8.6008  -21.4872 H   0  0  0  0  0
  -16.6972   -6.9017  -22.1790 H   0  0  0  0  0
  -12.4300   -6.7269  -20.0000 H   0  0  0  0  0
  -11.1246   -6.2165  -17.9470 H   0  0  0  0  0
  -12.2921   -5.3342  -15.9430 H   0  0  0  0  0
  -14.7497   -4.9802  -15.9704 H   0  0  0  0  0
  -16.0333   -5.4833  -18.0419 H   0  0  0  0  0
  -15.1739   -8.4272  -18.4796 H   0  0  0  0  0
  1  2  1  0  0  0
  2  3  4  0  0  0
  2 17  4  0  0  0
  3  4  4  0  0  0
  4  5  1  0  0  0
  4  8  4  0  0  0
  5  6  1  0  0  0
  5  7  1  0  0  0
  8  9  4  0  0  0
  9 10  1  0  0  0
  9 17  4  0  0  0
 10 11  1  0  0  0
 11 12  4  0  0  0
 11 16  4  0  0  0
 12 13  4  0  0  0
 13 14  4  0  0  0
 14 15  4  0  0  0
 15 16  4  0  0  0
  3 18  1  0  0  0
  6 19  1  0  0  0
  7 20  1  0  0  0
  8 21  1  0  0  0
 12 22  1  0  0  0
 13 23  1  0  0  0
 14 24  1  0  0  0
 15 25  1  0  0  0
 16 26  1  0  0  0
 17 27  1  0  0  0
M  END
$$$$
