### 
### Created by X-TOOL on Fri Nov  2 10:13:59 2018
### 

@<TRIPOS>MOLECULE
5tyj_ligand
   27    28     1     0     0
SMALL
GAST_HUCK


@<TRIPOS>ATOM
      1 BR        -16.8500  -10.9040  -18.0620 Br        1 7ND        -0.0526
      2 C02       -16.7710   -9.5460  -19.3890 C.ar      1 7ND         0.0053
      3 C03       -17.6320   -9.6620  -20.4640 C.ar      1 7ND        -0.0627
      4 C04       -17.6010   -8.7020  -21.4560 C.ar      1 7ND        -0.0669
      5 B05       -18.6570   -8.8330  -22.7240 B         1 7ND         3.0000
      6 O06       -18.1390   -7.9420  -23.9980 O.3       1 7ND        -0.4105
      7 O07       -20.0650   -8.1210  -22.2380 O.3       1 7ND        -0.4105
      8 C09       -16.7180   -7.6450  -21.3820 C.ar      1 7ND        -0.0256
      9 C10       -15.8600   -7.5200  -20.3070 C.ar      1 7ND         0.1188
     10 O11       -14.9880   -6.4130  -20.3090 O.3       1 7ND        -0.2572
     11 C12       -14.3040   -6.1580  -19.1220 C.ar      1 7ND         0.1161
     12 C13       -12.9350   -6.3490  -19.1110 C.ar      1 7ND        -0.0285
     13 C14       -12.2030   -6.0590  -17.9660 C.ar      1 7ND        -0.0697
     14 C15       -12.8620   -5.5650  -16.8430 C.ar      1 7ND        -0.0723
     15 C16       -14.2400   -5.3620  -16.8550 C.ar      1 7ND        -0.0697
     16 C17       -14.9570   -5.6530  -18.0110 C.ar      1 7ND        -0.0285
     17 C18       -15.8710   -8.4920  -19.3150 C.ar      1 7ND        -0.0188
     18 H1        -18.3223  -10.4954  -20.5275 H         1 7ND         0.0554
     19 H3        -17.9981   -7.0448  -23.7192 H         1 7ND         0.2052
     20 H6        -20.4187   -8.5958  -21.4950 H         1 7ND         0.2052
     21 H7        -16.6973   -6.9058  -22.1746 H         1 7ND         0.0576
     22 H8        -12.4327   -6.7248  -19.9951 H         1 7ND         0.0552
     23 H9        -11.1305   -6.2156  -17.9471 H         1 7ND         0.0590
     24 H10       -12.2952   -5.3355  -15.9479 H         1 7ND         0.0528
     25 H11       -14.7469   -4.9823  -15.9753 H         1 7ND         0.0590
     26 H12       -16.0273   -5.4842  -18.0417 H         1 7ND         0.0552
     27 H13       -15.1777   -8.4275  -18.4842 H         1 7ND         0.0579
@<TRIPOS>BOND
     1    1    2 1  
     2    2    3 ar 
     3    2   17 ar 
     4    3    4 ar 
     5    4    5 1  
     6    4    8 ar 
     7    5    6 1  
     8    5    7 1  
     9    8    9 ar 
    10    9   10 1  
    11    9   17 ar 
    12   10   11 1  
    13   11   12 ar 
    14   11   16 ar 
    15   12   13 ar 
    16   13   14 ar 
    17   14   15 ar 
    18   15   16 ar 
    19    3   18 1  
    20    6   19 1  
    21    7   20 1  
    22    8   21 1  
    23   12   22 1  
    24   13   23 1  
    25   14   24 1  
    26   15   25 1  
    27   16   26 1  
    28   17   27 1  
@<TRIPOS>SUBSTRUCTURE
     1 7ND         1

