6jb0_ligand
  -I-interpret- 

 45 46  0  0  0  0  0  0  0  0999 V2000
   -6.3580  -32.3420  -13.9980 C   0  0  0  0  0
   -7.6940  -32.0830  -13.2660 C   0  0  0  0  0
   -8.5260  -31.0500  -14.0750 C   0  0  0  0  0
   -7.7360  -29.7670  -14.2710 C   0  0  0  0  0
   -6.4310  -30.1450  -14.9940 C   0  0  0  0  0
   -5.5530  -28.9520  -15.1900 C   0  0  0  0  0
   -6.5610  -33.0380  -15.2040 O   0  0  0  0  0
   -8.4350  -33.3250  -13.1380 O   0  0  0  0  0
   -9.7480  -30.7700  -13.3100 O   0  0  0  0  0
   -8.5090  -28.8210  -15.0150 O   0  0  0  0  0
   -5.6850  -31.0750  -14.1980 O   0  0  0  0  0
   -4.4060  -29.2490  -16.0580 O   0  0  0  0  0
   -5.3590  -33.5300  -15.7880 C   0  0  0  0  0
   -5.7160  -34.0560  -17.1410 C   0  0  0  0  0
   -6.5920  -35.2900  -17.0450 C   0  0  0  0  0
   -5.9340  -36.2640  -16.0960 C   0  0  0  0  0
   -5.6910  -35.6550  -14.7480 C   0  0  0  0  0
   -5.0550  -36.7790  -13.8590 C   0  0  0  0  0
   -6.3450  -33.0720  -17.9440 O   0  0  0  0  0
   -6.7230  -35.8910  -18.3570 O   0  0  0  0  0
   -6.8750  -37.2980  -15.9320 O   0  0  0  0  0
   -4.8300  -34.5180  -14.9390 O   0  0  0  0  0
   -5.0440  -36.1800  -12.6110 O   0  0  0  0  0
   -5.7213  -32.9827  -13.3880 H   0  0  0  0  0
   -7.4946  -31.6891  -12.2694 H   0  0  0  0  0
   -8.7671  -31.4496  -15.0600 H   0  0  0  0  0
   -7.5009  -29.2926  -13.3182 H   0  0  0  0  0
   -6.7113  -30.5710  -15.9573 H   0  0  0  0  0
   -5.1725  -28.6453  -14.2157 H   0  0  0  0  0
   -6.1442  -28.1680  -15.6631 H   0  0  0  0  0
   -7.9140  -33.9570  -12.6372 H   0  0  0  0  0
  -10.2424  -31.5841  -13.1896 H   0  0  0  0  0
   -9.3113  -28.6133  -14.5304 H   0  0  0  0  0
   -3.8690  -28.4595  -16.1581 H   0  0  0  0  0
   -4.5941  -32.7624  -15.9058 H   0  0  0  0  0
   -4.7785  -34.3343  -17.6223 H   0  0  0  0  0
   -7.5841  -35.0259  -16.6789 H   0  0  0  0  0
   -4.9714  -36.5874  -16.4921 H   0  0  0  0  0
   -6.5926  -35.2984  -14.2500 H   0  0  0  0  0
   -4.0679  -37.0935  -14.1979 H   0  0  0  0  0
   -5.6086  -37.7176  -13.8847 H   0  0  0  0  0
   -6.5574  -33.4481  -18.8013 H   0  0  0  0  0
   -7.2776  -36.6722  -18.2960 H   0  0  0  0  0
   -6.5202  -37.9602  -15.3344 H   0  0  0  0  0
   -4.6677  -36.7869  -11.9693 H   0  0  0  0  0
  1  2  1  0  0  0
  7  1  1  0  0  0
  1 11  1  0  0  0
  2  3  1  0  0  0
  2  8  1  0  0  0
  3  4  1  0  0  0
  3  9  1  0  0  0
  5  4  1  0  0  0
  4 10  1  0  0  0
  5  6  1  0  0  0
 11  5  1  0  0  0
  6 12  1  0  0  0
 13  7  1  0  0  0
 13 14  1  0  0  0
 22 13  1  0  0  0
 15 14  1  0  0  0
 14 19  1  0  0  0
 16 15  1  0  0  0
 15 20  1  0  0  0
 17 16  1  0  0  0
 16 21  1  0  0  0
 18 17  1  0  0  0
 17 22  1  0  0  0
 23 18  1  0  0  0
  1 24  1  0  0  0
  2 25  1  0  0  0
  3 26  1  0  0  0
  4 27  1  0  0  0
  5 28  1  0  0  0
  6 29  1  0  0  0
  6 30  1  0  0  0
  8 31  1  0  0  0
  9 32  1  0  0  0
 10 33  1  0  0  0
 12 34  1  0  0  0
 13 35  1  0  0  0
 14 36  1  0  0  0
 15 37  1  0  0  0
 16 38  1  0  0  0
 17 39  1  0  0  0
 18 40  1  0  0  0
 18 41  1  0  0  0
 19 42  1  0  0  0
 20 43  1  0  0  0
 21 44  1  0  0  0
 23 45  1  0  0  0
M  END
$$$$
