2qrm_ligand
  -I-interpret- 

 40 42  0  0  0  0  0  0  0  0999 V2000
   36.6780   24.5020   31.1920 C   0  0  0  0  0
   37.3420   24.9560   32.3400 C   0  0  0  0  0
   36.6090   25.4560   33.4240 C   0  0  0  0  0
   37.2180   25.8980   34.5350 N   0  0  0  0  0
   38.6190   26.1100   34.5570 O   0  0  0  0  0
   36.4580   26.1600   35.7100 O   0  0  0  0  0
   35.2160   25.4980   33.3520 C   0  0  0  0  0
   34.5570   25.0440   32.2090 C   0  0  0  0  0
   35.2780   24.5430   31.1280 C   0  0  0  0  0
   34.5840   24.1120   29.9890 C   0  0  0  0  0
   35.1790   23.4320   28.7600 C   0  0  0  0  0
   33.2710   24.2520   29.7820 N   0  0  0  0  0
   32.8500   23.7430   28.5110 O   0  0  0  0  0
   33.9420   22.9760   27.9790 C   0  0  0  0  0
   33.7100   21.5730   28.2340 O   0  0  0  0  0
   32.5160   21.0510   27.5850 C   0  0  0  0  0
   32.3730   19.5830   28.0010 C   0  0  0  0  0
   33.4110   18.8130   27.3890 O   0  0  0  0  0
   32.6240   21.2220   26.0500 C   0  0  0  0  0
   31.4130   20.7890   25.4240 O   0  0  0  0  0
   32.9120   22.6730   25.6560 C   0  0  0  0  0
   33.1810   22.7210   24.2440 O   0  0  0  0  0
   34.1110   23.2240   26.4560 C   0  0  0  0  0
   34.3030   24.6190   26.1700 O   0  0  0  0  0
   37.2506   24.1167   30.3483 H   0  0  0  0  0
   38.4303   24.9199   32.3893 H   0  0  0  0  0
   34.6405   25.8870   34.1920 H   0  0  0  0  0
   33.4687   25.0818   32.1618 H   0  0  0  0  0
   35.8426   22.6061   29.0163 H   0  0  0  0  0
   35.8205   24.0964   28.1811 H   0  0  0  0  0
   31.6246   21.5981   27.8918 H   0  0  0  0  0
   31.4021   19.2063   27.6791 H   0  0  0  0  0
   32.4509   19.5025   29.0852 H   0  0  0  0  0
   33.3216   17.8933   27.6494 H   0  0  0  0  0
   33.4589   20.6091   25.7102 H   0  0  0  0  0
   31.4887   20.8984   24.4733 H   0  0  0  0  0
   32.0466   23.2946   25.8857 H   0  0  0  0  0
   33.3633   23.6272   23.9847 H   0  0  0  0  0
   35.0048   22.6845   26.1427 H   0  0  0  0  0
   34.4041   24.7394   25.2230 H   0  0  0  0  0
  1  2  4  0  0  0
  1  9  4  0  0  0
  2  3  4  0  0  0
  3  4  1  0  0  0
  3  7  4  0  0  0
  4  5  2  0  0  0
  4  6  2  0  0  0
  7  8  4  0  0  0
  8  9  4  0  0  0
  9 10  1  0  0  0
 10 11  1  0  0  0
 10 12  2  0  0  0
 11 14  1  0  0  0
 12 13  1  0  0  0
 13 14  1  0  0  0
 14 15  1  0  0  0
 14 23  1  0  0  0
 15 16  1  0  0  0
 16 17  1  0  0  0
 16 19  1  0  0  0
 17 18  1  0  0  0
 19 20  1  0  0  0
 19 21  1  0  0  0
 21 22  1  0  0  0
 21 23  1  0  0  0
 23 24  1  0  0  0
  1 25  1  0  0  0
  2 26  1  0  0  0
  7 27  1  0  0  0
  8 28  1  0  0  0
 11 29  1  0  0  0
 11 30  1  0  0  0
 16 31  1  0  0  0
 17 32  1  0  0  0
 17 33  1  0  0  0
 18 34  1  0  0  0
 19 35  1  0  0  0
 20 36  1  0  0  0
 21 37  1  0  0  0
 22 38  1  0  0  0
 23 39  1  0  0  0
 24 40  1  0  0  0
M  END
$$$$
