4ye3_ligand
  -I-interpret- 

 81 84  0  0  0  0  0  0  0  0999 V2000
   -9.3750  -14.8420   -8.2680 C   0  0  0  0  0
   -8.8310  -15.9310   -7.6360 C   0  0  0  0  0
   -8.3740  -15.8280   -6.3320 C   0  0  0  0  0
   -8.5040  -14.5990   -5.6510 C   0  0  0  0  0
   -9.0800  -13.5160   -6.2980 C   0  0  0  0  0
   -9.5340  -13.6230   -7.6120 C   0  0  0  0  0
   -8.1420  -14.5310   -4.0200 S   0  0  0  0  0
   -7.0100  -15.3970   -3.8170 O   0  0  0  0  0
   -7.9830  -13.1590   -3.6840 O   0  0  0  0  0
   -9.3740  -15.1130   -3.2640 N   0  0  0  0  0
  -10.6020  -14.2630   -3.3230 C   0  0  0  0  0
  -11.5250  -14.2850   -2.1110 C   0  0  0  0  0
  -10.8590  -13.5230   -0.9320 C   0  0  0  0  0
  -12.8730  -13.6680   -2.4280 C   0  0  0  0  0
   -9.3920  -16.5330   -2.9030 C   0  0  0  0  0
   -9.2670  -16.8690   -1.4300 C   0  0  0  0  0
   -9.5920  -18.2790   -1.2490 O   0  0  0  0  0
   -7.8360  -16.6140   -0.9170 C   0  0  0  0  0
   -7.7110  -16.7240    0.5880 N   0  0  0  0  0
   -7.7640  -15.5650    1.3660 C   0  0  0  0  0
   -8.4560  -14.4220    1.1210 O   0  0  0  0  0
   -7.6120  -16.1240    2.7030 O   0  0  0  0  0
   -7.4130  -15.1780    3.7500 C   0  0  0  0  0
   -8.4760  -15.3760    4.8180 C   0  0  0  0  0
   -8.1010  -16.5590    5.4770 O   0  0  0  0  0
   -6.6840  -16.6050    5.5290 C   0  0  0  0  0
   -6.2390  -17.8620    5.0070 O   0  0  0  0  0
   -5.4410  -17.7190    3.7930 C   0  0  0  0  0
   -5.0510  -16.2560    3.8070 C   0  0  0  0  0
   -6.1680  -15.5440    4.5610 C   0  0  0  0  0
   -6.8070  -17.6360   -1.3920 C   0  0  0  0  0
   -4.8810  -18.2130    0.1150 C   0  0  0  0  0
   -3.6430  -17.8960    0.6870 C   0  0  0  0  0
   -2.9380  -16.7290    0.3550 C   0  0  0  0  0
   -3.5100  -15.8490   -0.5690 C   0  0  0  0  0
   -4.7540  -16.1130   -1.1210 C   0  0  0  0  0
   -5.4280  -17.3040   -0.8100 C   0  0  0  0  0
   -9.7870  -14.9990   -9.5710 O   0  0  0  0  0
  -10.4840  -13.9170  -10.1650 C   0  0  0  0  0
   -3.9120  -16.1370    4.6020 O   0  0  0  0  0
   -2.8690  -15.7380    3.7710 C   0  0  0  0  0
   -8.7578  -16.8826   -8.1624 H   0  0  0  0  0
   -7.9192  -16.6866   -5.8379 H   0  0  0  0  0
   -9.1793  -12.5668   -5.7714 H   0  0  0  0  0
  -10.0011  -12.7751   -8.1130 H   0  0  0  0  0
  -11.1927  -14.6545   -4.1512 H   0  0  0  0  0
  -10.2465  -13.2358   -3.4049 H   0  0  0  0  0
  -11.6907  -15.3252   -1.8306 H   0  0  0  0  0
   -9.9150  -14.0045   -0.6769 H   0  0  0  0  0
  -10.6735  -12.4902   -1.2271 H   0  0  0  0  0
  -11.5230  -13.5416   -0.0678 H   0  0  0  0  0
  -12.7333  -12.6322   -2.7373 H   0  0  0  0  0
  -13.3472  -14.2284   -3.2338 H   0  0  0  0  0
  -13.5043  -13.7014   -1.5400 H   0  0  0  0  0
   -8.5191  -16.9740   -3.3844 H   0  0  0  0  0
  -10.3681  -16.9068   -3.2121 H   0  0  0  0  0
   -9.9498  -16.2336   -0.8660 H   0  0  0  0  0
   -9.5170  -18.5067   -0.3194 H   0  0  0  0  0
   -7.6467  -15.6124   -1.3030 H   0  0  0  0  0
   -7.5893  -17.6355    1.0294 H   0  0  0  0  0
   -7.3888  -14.1963    3.2769 H   0  0  0  0  0
   -9.4756  -15.4478    4.3894 H   0  0  0  0  0
   -8.5297  -14.5285    5.5014 H   0  0  0  0  0
   -6.3383  -16.4567    6.5520 H   0  0  0  0  0
   -5.9890  -17.9999    2.8936 H   0  0  0  0  0
   -4.5779  -18.3845    3.7759 H   0  0  0  0  0
   -4.8862  -15.8629    2.8038 H   0  0  0  0  0
   -5.7477  -14.6177    4.9527 H   0  0  0  0  0
   -6.7520  -17.6093   -2.4803 H   0  0  0  0  0
   -7.1074  -18.6287   -1.0568 H   0  0  0  0  0
   -5.4037  -19.1329    0.3772 H   0  0  0  0  0
   -3.2110  -18.5807    1.4169 H   0  0  0  0  0
   -1.9692  -16.5140    0.8059 H   0  0  0  0  0
   -2.9722  -14.9461   -0.8582 H   0  0  0  0  0
   -5.2106  -15.3924   -1.7995 H   0  0  0  0  0
  -11.3905  -13.7136   -9.5949 H   0  0  0  0  0
   -9.8471  -13.0324  -10.1650 H   0  0  0  0  0
  -10.7484  -14.1759  -11.1903 H   0  0  0  0  0
   -2.7181  -16.4875    2.9941 H   0  0  0  0  0
   -3.1179  -14.7815    3.3115 H   0  0  0  0  0
   -1.9572  -15.6337    4.3590 H   0  0  0  0  0
  2  1  4  0  0  0
  6  1  4  0  0  0
  1 38  1  0  0  0
  3  2  4  0  0  0
  4  3  4  0  0  0
  4  5  4  0  0  0
  7  4  1  0  0  0
  5  6  4  0  0  0
  7  8  2  0  0  0
  7  9  2  0  0  0
 10  7  1  0  0  0
 10 11  1  0  0  0
 15 10  1  0  0  0
 11 12  1  0  0  0
 12 13  1  0  0  0
 12 14  1  0  0  0
 16 15  1  0  0  0
 16 17  1  0  0  0
 18 16  1  0  0  0
 18 19  1  0  0  0
 31 18  1  0  0  0
 19 20  1  0  0  0
 20 21  2  0  0  0
 20 22  1  0  0  0
 22 23  1  0  0  0
 23 24  1  0  0  0
 23 30  1  0  0  0
 24 25  1  0  0  0
 26 25  1  0  0  0
 26 27  1  0  0  0
 30 26  1  0  0  0
 28 27  1  0  0  0
 29 28  1  0  0  0
 30 29  1  0  0  0
 29 40  1  0  0  0
 37 31  1  0  0  0
 32 33  4  0  0  0
 32 37  4  0  0  0
 33 34  4  0  0  0
 34 35  4  0  0  0
 35 36  4  0  0  0
 36 37  4  0  0  0
 38 39  1  0  0  0
 40 41  1  0  0  0
  2 42  1  0  0  0
  3 43  1  0  0  0
  5 44  1  0  0  0
  6 45  1  0  0  0
 11 46  1  0  0  0
 11 47  1  0  0  0
 12 48  1  0  0  0
 13 49  1  0  0  0
 13 50  1  0  0  0
 13 51  1  0  0  0
 14 52  1  0  0  0
 14 53  1  0  0  0
 14 54  1  0  0  0
 15 55  1  0  0  0
 15 56  1  0  0  0
 16 57  1  0  0  0
 17 58  1  0  0  0
 18 59  1  0  0  0
 19 60  1  0  0  0
 23 61  1  0  0  0
 24 62  1  0  0  0
 24 63  1  0  0  0
 26 64  1  0  0  0
 28 65  1  0  0  0
 28 66  1  0  0  0
 29 67  1  0  0  0
 30 68  1  0  0  0
 31 69  1  0  0  0
 31 70  1  0  0  0
 32 71  1  0  0  0
 33 72  1  0  0  0
 34 73  1  0  0  0
 35 74  1  0  0  0
 36 75  1  0  0  0
 39 76  1  0  0  0
 39 77  1  0  0  0
 39 78  1  0  0  0
 41 79  1  0  0  0
 41 80  1  0  0  0
 41 81  1  0  0  0
M  END
$$$$
