6qr9_ligand
  -I-interpret- 

 55 59  0  0  0  0  0  0  0  0999 V2000
  -24.6360  -18.6370   11.3560 C   0  0  0  0  0
  -25.7000  -22.0970   10.5280 C   0  0  0  0  0
  -23.6410  -23.4040   10.8720 C   0  0  0  0  0
  -23.3130  -23.5100    8.3380 C   0  0  0  0  0
  -20.3040  -24.5130    6.1450 C   0  0  0  0  0
  -20.5530  -26.7330    6.5450 C   0  0  0  0  0
  -18.9820  -25.9090    5.0280 C   0  0  0  0  0
  -21.4840  -24.0960    9.8120 C   0  0  0  0  0
  -18.0520  -16.6830   12.9630 N   0  0  0  0  0
  -19.0060  -17.7040   12.7020 C   0  0  0  0  0
  -18.7560  -19.0310   12.6600 N   0  0  0  0  0
  -19.9130  -19.6700   12.3850 N   0  0  0  0  0
  -20.9100  -18.7970   12.2780 C   0  0  0  0  0
  -22.3380  -19.1920   11.9040 C   0  0  0  0  0
  -22.5930  -20.5400   11.5850 C   0  0  0  0  0
  -23.9020  -20.9470   11.1910 C   0  0  0  0  0
  -24.9080  -20.0130   11.0770 C   0  0  0  0  0
  -23.3480  -18.2320   11.7600 C   0  0  0  0  0
  -26.0720  -20.7600   10.6530 C   0  0  0  0  0
  -24.4060  -22.1790   10.8410 N   0  0  0  0  0
  -22.7930  -23.6540    9.6300 C   0  0  0  0  0
  -22.4990  -23.7810    7.2210 C   0  0  0  0  0
  -21.1830  -24.2170    7.3910 C   0  0  0  0  0
  -19.7470  -25.6720    6.1530 N   0  3  0  0  0
  -20.3690  -28.0360    5.7910 C   0  0  0  0  0
  -20.2960  -27.8940    4.4240 O   0  0  0  0  0
  -19.7180  -26.7250    3.9810 C   0  0  0  0  0
  -20.6770  -24.3650    8.7020 C   0  0  0  0  0
  -20.3730  -17.5370   12.4500 C   0  0  0  0  0
  -21.0900  -16.1930   12.4120 C   0  0  0  0  0
  -21.6120  -15.1780   12.3860 N   0  0  0  0  0
  -25.4298  -17.8968   11.2556 H   0  0  0  0  0
  -26.3463  -22.9225   10.2298 H   0  0  0  0  0
  -24.3559  -24.2240   10.9395 H   0  0  0  0  0
  -22.9551  -23.3296   11.7159 H   0  0  0  0  0
  -24.3451  -23.1890    8.1970 H   0  0  0  0  0
  -19.5038  -23.7729    6.1341 H   0  0  0  0  0
  -20.9595  -24.4784    5.2748 H   0  0  0  0  0
  -21.5795  -26.4179    6.3577 H   0  0  0  0  0
  -20.2913  -26.9443    7.5818 H   0  0  0  0  0
  -18.1016  -26.4737    5.3346 H   0  0  0  0  0
  -18.7301  -24.9453    4.5853 H   0  0  0  0  0
  -21.0894  -24.2320   10.8189 H   0  0  0  0  0
  -17.0780  -16.9284   13.1403 H   0  0  0  0  0
  -18.3415  -15.7050   12.9730 H   0  0  0  0  0
  -21.7885  -21.2735   11.6393 H   0  0  0  0  0
  -23.1395  -17.1808   11.9587 H   0  0  0  0  0
  -27.0641  -20.3497   10.4647 H   0  0  0  0  0
  -22.8993  -23.6494    6.2157 H   0  0  0  0  0
  -19.0858  -25.6227    6.9281 H   0  0  0  0  0
  -21.2407  -28.6550    6.0030 H   0  0  0  0  0
  -19.4228  -28.4659    6.1197 H   0  0  0  0  0
  -18.9739  -27.0134    3.2386 H   0  0  0  0  0
  -20.5333  -26.0975    3.6209 H   0  0  0  0  0
  -19.6477  -24.6920    8.8496 H   0  0  0  0  0
 17  1  4  0  0  0
  1 18  4  0  0  0
  2 19  4  0  0  0
 20  2  4  0  0  0
  3 20  1  0  0  0
 21  3  1  0  0  0
  4 21  4  0  0  0
 22  4  4  0  0  0
 23  5  1  0  0  0
  5 24  1  0  0  0
 24  6  1  0  0  0
  6 25  1  0  0  0
 24  7  1  0  0  0
  7 27  1  0  0  0
 21  8  4  0  0  0
  8 28  4  0  0  0
 10  9  1  0  0  0
 10 11  4  0  0  0
 29 10  4  0  0  0
 12 11  4  0  0  0
 13 12  4  0  0  0
 14 13  1  0  0  0
 13 29  4  0  0  0
 15 14  4  0  0  0
 14 18  4  0  0  0
 16 15  4  0  0  0
 16 17  4  0  0  0
 20 16  4  0  0  0
 17 19  4  0  0  0
 22 23  4  0  0  0
 23 28  4  0  0  0
 25 26  1  0  0  0
 26 27  1  0  0  0
 29 30  1  0  0  0
 30 31  3  0  0  0
  1 32  1  0  0  0
  2 33  1  0  0  0
  3 34  1  0  0  0
  3 35  1  0  0  0
  4 36  1  0  0  0
  5 37  1  0  0  0
  5 38  1  0  0  0
  6 39  1  0  0  0
  6 40  1  0  0  0
  7 41  1  0  0  0
  7 42  1  0  0  0
  8 43  1  0  0  0
  9 44  1  0  0  0
  9 45  1  0  0  0
 15 46  1  0  0  0
 18 47  1  0  0  0
 19 48  1  0  0  0
 22 49  1  0  0  0
 24 50  1  0  0  0
 25 51  1  0  0  0
 25 52  1  0  0  0
 27 53  1  0  0  0
 27 54  1  0  0  0
 28 55  1  0  0  0
M  END
$$$$
