5abp_ligand
  -I-interpret- 

 24 24  0  0  0  0  0  0  0  0999 V2000
   14.4720   56.9750   55.3190 C   0  0  0  0  0
   13.0680   57.2990   54.9590 C   0  0  0  0  0
   12.5200   56.4060   53.8800 C   0  0  0  0  0
   13.4660   56.4640   52.6520 C   0  0  0  0  0
   14.8860   56.1970   53.0820 C   0  0  0  0  0
   15.8590   56.5790   51.9250 C   0  0  0  0  0
   14.6450   55.7290   55.8740 O   0  0  0  0  0
   12.2520   57.2490   56.2020 O   0  0  0  0  0
   11.2010   56.7160   53.5980 O   0  0  0  0  0
   13.2190   57.7380   52.0030 O   0  0  0  0  0
   15.3160   57.1410   54.1220 O   0  0  0  0  0
   17.0720   56.0530   52.3160 O   0  0  0  0  0
   14.7700   57.6695   56.1045 H   0  0  0  0  0
   13.0295   58.3011   54.5318 H   0  0  0  0  0
   12.4944   55.3697   54.2169 H   0  0  0  0  0
   13.2761   55.6854   51.9132 H   0  0  0  0  0
   14.9107   55.1532   53.3950 H   0  0  0  0  0
   15.9091   57.6565   51.7684 H   0  0  0  0  0
   15.5301   56.1843   50.9637 H   0  0  0  0  0
   14.0862   55.6452   56.6501 H   0  0  0  0  0
   12.6375   57.8319   56.8602 H   0  0  0  0  0
   10.6809   56.6587   54.4029 H   0  0  0  0  0
   12.2894   57.8036   51.7726 H   0  0  0  0  0
   17.7340   56.2475   51.6485 H   0  0  0  0  0
  1  2  1  0  0  0
  1  7  1  0  0  0
 11  1  1  0  0  0
  3  2  1  0  0  0
  2  8  1  0  0  0
  4  3  1  0  0  0
  3  9  1  0  0  0
  5  4  1  0  0  0
  4 10  1  0  0  0
  6  5  1  0  0  0
  5 11  1  0  0  0
  6 12  1  0  0  0
  1 13  1  0  0  0
  2 14  1  0  0  0
  3 15  1  0  0  0
  4 16  1  0  0  0
  5 17  1  0  0  0
  6 18  1  0  0  0
  6 19  1  0  0  0
  7 20  1  0  0  0
  8 21  1  0  0  0
  9 22  1  0  0  0
 10 23  1  0  0  0
 12 24  1  0  0  0
M  END
$$$$
