2pk6_ligand
  -I-interpret- 

 99104  0  0  0  0  0  0  0  0999 V2000
   18.0340  -23.9650  -17.1730 C   0  0  0  0  0
   15.9530  -23.8890  -18.3860 C   0  0  0  0  0
   14.8850  -22.8850  -18.0680 C   0  0  0  0  0
   14.3500  -20.6270  -17.4120 C   0  0  0  0  0
   14.2200  -19.7600  -18.6590 C   0  0  0  0  0
   12.9240  -19.0080  -18.5910 C   0  0  0  0  0
   14.8850  -19.8750  -16.1840 C   0  0  0  0  0
   15.1550  -20.8940  -15.0960 C   0  0  0  0  0
   16.4800  -21.1440  -14.7330 C   0  0  0  0  0
   15.6760  -22.7400  -13.1320 C   0  0  0  0  0
   14.3480  -22.4880  -13.4600 C   0  0  0  0  0
   11.8660  -20.7700  -19.9840 C   0  0  0  0  0
   10.6470  -18.7390  -19.2290 C   0  0  0  0  0
    8.2690  -19.0930  -20.2450 C   0  0  0  0  0
   10.2150  -18.6350  -21.6640 C   0  0  0  0  0
   15.3020  -25.1590  -18.9590 C   0  0  0  0  0
   18.8150  -24.3370  -15.9260 C   0  0  0  0  0
   16.4100  -25.1930  -21.4310 C   0  0  0  0  0
   18.1800  -26.0730  -11.4690 C   0  0  0  0  0
   17.6920  -25.8110  -12.7590 C   0  0  0  0  0
   17.3810  -26.7980  -10.5840 C   0  0  0  0  0
   15.6860  -26.9940  -12.1950 C   0  0  0  0  0
   16.4260  -26.2590  -13.1290 C   0  0  0  0  0
    8.3460  -17.3970  -16.5450 C   0  0  0  0  0
    9.8570  -19.7290  -17.1390 O   0  0  0  0  0
    9.8800  -18.7330  -17.9150 C   0  0  0  0  0
    9.2240  -17.5840  -17.7020 N   0  0  0  0  0
    8.8980  -16.7880  -15.3180 C   0  0  0  0  0
   10.1330  -17.0720  -14.7230 C   0  0  0  0  0
   10.4680  -16.4100  -13.5350 C   0  0  0  0  0
    9.5750  -15.4670  -13.0060 C   0  0  0  0  0
    8.3320  -15.2140  -13.6010 C   0  0  0  0  0
    8.0200  -15.9010  -14.7710 C   0  0  0  0  0
    6.7650  -15.7780  -15.6070 C   0  0  0  0  0
    7.2160  -16.4220  -16.9170 C   0  0  0  0  0
    7.7350  -15.4080  -17.7910 O   0  0  0  0  0
    9.7800  -19.3170  -20.3610 C   0  0  0  0  0
   10.1810  -21.0640  -20.3530 S   0  0  0  0  0
   11.8850  -19.5130  -19.2340 N   0  0  0  0  0
   12.8560  -17.9940  -17.9400 O   0  0  0  0  0
   15.3170  -18.8320  -18.7190 O   0  0  0  0  0
   16.7370  -22.0920  -13.7590 C   0  0  0  0  0
   14.0840  -21.5410  -14.4570 C   0  0  0  0  0
   15.3240  -21.6550  -17.7640 N   0  0  0  0  0
   13.6970  -23.2180  -18.0810 O   0  0  0  0  0
   14.8720  -24.8170  -20.6480 S   0  0  0  0  0
   16.7260  -24.2570  -17.2110 N   0  0  0  0  0
   18.6350  -23.3970  -18.0630 O   0  0  0  0  0
   17.9720  -24.8750  -14.9170 O   0  0  0  0  0
   18.4790  -25.1030  -13.6620 C   0  0  0  0  0
   19.7420  -24.6320  -13.2880 C   0  0  0  0  0
   20.2290  -24.8940  -11.9930 C   0  0  0  0  0
   19.4510  -25.6170  -11.0820 C   0  0  0  0  0
   16.1700  -27.2340  -10.9730 N   0  0  0  0  0
   16.6275  -23.4313  -19.1097 H   0  0  0  0  0
   13.3642  -21.0019  -17.1367 H   0  0  0  0  0
   14.2373  -20.3870  -19.5505 H   0  0  0  0  0
   14.1544  -19.1419  -15.8421 H   0  0  0  0  0
   15.8010  -19.3413  -16.4374 H   0  0  0  0  0
   17.2972  -20.6018  -15.2087 H   0  0  0  0  0
   15.8943  -23.4724  -12.3548 H   0  0  0  0  0
   13.5365  -23.0125  -12.9556 H   0  0  0  0  0
   12.4691  -20.7054  -20.8896 H   0  0  0  0  0
   12.2983  -21.5874  -19.4070 H   0  0  0  0  0
   10.9027  -17.6894  -19.3739 H   0  0  0  0  0
    7.7667  -19.5688  -21.0873 H   0  0  0  0  0
    7.9090  -19.5281  -19.3127 H   0  0  0  0  0
    8.0599  -18.0233  -20.2528 H   0  0  0  0  0
   11.2934  -18.7384  -21.7842 H   0  0  0  0  0
    9.7075  -19.1057  -22.5060 H   0  0  0  0  0
    9.9522  -17.5779  -21.6246 H   0  0  0  0  0
   14.4149  -25.4267  -18.3849 H   0  0  0  0  0
   15.9915  -26.0013  -18.9027 H   0  0  0  0  0
   19.2856  -23.4351  -15.5345 H   0  0  0  0  0
   19.5521  -25.0932  -16.1960 H   0  0  0  0  0
   17.1887  -24.5443  -21.0298 H   0  0  0  0  0
   16.6686  -26.2344  -21.2396 H   0  0  0  0  0
   16.3185  -25.0315  -22.5051 H   0  0  0  0  0
   17.7388  -27.0110   -9.5767 H   0  0  0  0  0
   14.7022  -27.3754  -12.4683 H   0  0  0  0  0
   16.0226  -26.0433  -14.1184 H   0  0  0  0  0
    8.0778  -18.4290  -16.3190 H   0  0  0  0  0
    9.3396  -16.8175  -18.3650 H   0  0  0  0  0
   10.8174  -17.7910  -15.1734 H   0  0  0  0  0
   11.4092  -16.6247  -13.0290 H   0  0  0  0  0
    9.8553  -14.9162  -12.1081 H   0  0  0  0  0
    7.6323  -14.5027  -13.1623 H   0  0  0  0  0
    6.4119  -14.7530  -15.7205 H   0  0  0  0  0
    5.8921  -16.2549  -15.1612 H   0  0  0  0  0
    6.3933  -16.9293  -17.4209 H   0  0  0  0  0
    7.0316  -14.7980  -18.0248 H   0  0  0  0  0
   16.1438  -19.3180  -18.7624 H   0  0  0  0  0
   17.7644  -22.3304  -13.4839 H   0  0  0  0  0
   13.0562  -21.3077  -14.7351 H   0  0  0  0  0
   16.3213  -21.4417  -17.7785 H   0  0  0  0  0
   16.2792  -24.7310  -16.4261 H   0  0  0  0  0
   20.3464  -24.0648  -13.9958 H   0  0  0  0  0
   21.2146  -24.5327  -11.6995 H   0  0  0  0  0
   19.8280  -25.8246  -10.0806 H   0  0  0  0  0
 17  1  1  0  0  0
  1 47  1  0  0  0
  1 48  2  0  0  0
  2  3  1  0  0  0
  2 16  1  0  0  0
 47  2  1  0  0  0
  3 44  1  0  0  0
  3 45  2  0  0  0
  4  5  1  0  0  0
  4  7  1  0  0  0
 44  4  1  0  0  0
  5  6  1  0  0  0
  5 41  1  0  0  0
  6 39  1  0  0  0
  6 40  2  0  0  0
  7  8  1  0  0  0
  8  9  4  0  0  0
  8 43  4  0  0  0
  9 42  4  0  0  0
 11 10  4  0  0  0
 42 10  4  0  0  0
 43 11  4  0  0  0
 12 38  1  0  0  0
 39 12  1  0  0  0
 13 26  1  0  0  0
 13 37  1  0  0  0
 39 13  1  0  0  0
 37 14  1  0  0  0
 37 15  1  0  0  0
 16 46  1  0  0  0
 49 17  1  0  0  0
 46 18  1  0  0  0
 20 19  4  0  0  0
 19 21  4  0  0  0
 19 53  4  0  0  0
 20 23  4  0  0  0
 50 20  4  0  0  0
 21 54  4  0  0  0
 23 22  4  0  0  0
 22 54  4  0  0  0
 27 24  1  0  0  0
 24 28  1  0  0  0
 24 35  1  0  0  0
 26 25  2  0  0  0
 26 27  1  0  0  0
 28 29  4  0  0  0
 28 33  4  0  0  0
 29 30  4  0  0  0
 30 31  4  0  0  0
 32 31  4  0  0  0
 33 32  4  0  0  0
 34 33  1  0  0  0
 35 34  1  0  0  0
 35 36  1  0  0  0
 37 38  1  0  0  0
 49 50  1  0  0  0
 50 51  4  0  0  0
 51 52  4  0  0  0
 52 53  4  0  0  0
  2 55  1  0  0  0
  4 56  1  0  0  0
  5 57  1  0  0  0
  7 58  1  0  0  0
  7 59  1  0  0  0
  9 60  1  0  0  0
 10 61  1  0  0  0
 11 62  1  0  0  0
 12 63  1  0  0  0
 12 64  1  0  0  0
 13 65  1  0  0  0
 14 66  1  0  0  0
 14 67  1  0  0  0
 14 68  1  0  0  0
 15 69  1  0  0  0
 15 70  1  0  0  0
 15 71  1  0  0  0
 16 72  1  0  0  0
 16 73  1  0  0  0
 17 74  1  0  0  0
 17 75  1  0  0  0
 18 76  1  0  0  0
 18 77  1  0  0  0
 18 78  1  0  0  0
 21 79  1  0  0  0
 22 80  1  0  0  0
 23 81  1  0  0  0
 24 82  1  0  0  0
 27 83  1  0  0  0
 29 84  1  0  0  0
 30 85  1  0  0  0
 31 86  1  0  0  0
 32 87  1  0  0  0
 34 88  1  0  0  0
 34 89  1  0  0  0
 35 90  1  0  0  0
 36 91  1  0  0  0
 41 92  1  0  0  0
 42 93  1  0  0  0
 43 94  1  0  0  0
 44 95  1  0  0  0
 47 96  1  0  0  0
 51 97  1  0  0  0
 52 98  1  0  0  0
 53 99  1  0  0  0
M  END
$$$$
