3eyf_ligand
  -I-interpret- 

163164  0  0  0  0  0  0  0  0999 V2000
  -23.6550   22.2350   -4.4690 N   0  3  0  0  0
  -22.7900   23.4430   -4.6230 C   0  0  0  0  0
  -22.3240   23.8360   -3.2520 C   0  0  0  0  0
  -23.1100   24.1290   -2.3230 O   0  0  0  0  0
  -23.4190   24.5720   -5.3850 C   0  0  0  0  0
  -22.5130   25.6880   -5.3890 O   0  0  0  0  0
  -24.7640   24.9370   -4.7840 C   0  0  0  0  0
  -21.0200   24.0620   -3.2670 N   0  0  0  0  0
  -20.2580   24.1470   -2.0750 C   0  0  0  0  0
  -18.8630   24.6770   -2.5000 C   0  0  0  0  0
  -18.1890   24.1160   -3.3640 O   0  0  0  0  0
  -20.2970   22.6410   -1.6680 C   0  0  0  0  0
  -19.7470   22.3810   -0.3360 C   0  0  0  0  0
  -19.6700   21.7280   -2.7940 C   0  0  0  0  0
  -18.4040   21.8010   -0.5300 C   0  0  0  0  0
  -18.4100   25.7120   -1.8170 N   0  0  0  0  0
  -17.1750   26.3940   -2.1560 C   0  0  0  0  0
  -15.9510   25.9470   -1.4010 C   0  0  0  0  0
  -16.0500   25.4260   -0.2880 O   0  0  0  0  0
  -17.4180   27.8930   -2.0090 C   0  0  0  0  0
  -18.6440   28.3190   -2.7880 C   0  0  0  0  0
  -18.5250   28.7340   -4.1280 C   0  0  0  0  0
  -19.9460   28.2400   -2.2200 C   0  0  0  0  0
  -19.6670   29.0630   -4.8960 C   0  0  0  0  0
  -21.1110   28.5690   -2.9890 C   0  0  0  0  0
  -20.9510   28.9820   -4.3260 C   0  0  0  0  0
  -22.0200   29.3430   -5.0970 O   0  0  0  0  0
  -14.7890   26.2050   -1.9950 N   0  0  0  0  0
  -13.5170   25.8140   -1.4030 C   0  0  0  0  0
  -13.2320   26.5780   -0.1180 C   0  0  0  0  0
  -13.6980   27.7050    0.0320 O   0  0  0  0  0
  -12.3790   26.0200   -2.4120 C   0  0  0  0  0
  -12.4830   25.0920   -3.6400 C   0  0  0  0  0
  -13.5480   24.5340   -3.9510 O   0  0  0  0  0
  -11.3700   24.9470   -4.3530 N   0  0  0  0  0
  -12.5600   25.9350    0.8420 N   0  0  0  0  0
  -12.2340   26.6220    2.0870 C   0  0  0  0  0
  -11.0020   27.4860    2.0130 C   0  0  0  0  0
  -10.0000   27.1790    1.3510 O   0  0  0  0  0
  -12.2220   25.7550    3.3850 C   0  0  0  0  0
  -10.8990   25.3180    3.6930 O   0  0  0  0  0
  -13.1720   24.5830    3.2880 C   0  0  0  0  0
  -11.1640   28.6450    2.6320 N   0  0  0  0  0
  -10.1350   29.6630    2.6600 C   0  0  0  0  0
   -9.7660   30.0390    4.0880 C   0  0  0  0  0
   -8.7630   30.7030    4.2980 O   0  0  0  0  0
  -10.5530   30.9130    1.8110 C   0  0  0  0  0
  -11.6030   31.6270    2.4690 O   0  0  0  0  0
  -11.0500   30.5060    0.3950 C   0  0  0  0  0
  -10.6600   29.7640    5.0360 N   0  0  0  0  0
  -10.3500   29.9690    6.4460 C   0  0  0  0  0
  -10.9740   28.9470    7.3450 C   0  0  0  0  0
  -12.0350   28.3690    7.0800 O   0  0  0  0  0
  -10.4700   31.3940    6.9850 C   0  0  0  0  0
   -9.3170   31.6240    7.9930 C   0  0  0  0  0
   -8.0470   32.1290    7.3550 C   0  0  0  0  0
   -9.7730   32.5540    9.0300 C   0  0  0  0  0
  -10.1670   28.6670    8.3590 N   0  0  0  0  0
  -10.3630   27.6530    9.3530 C   0  0  0  0  0
  -10.1430   28.1080   10.7810 C   0  0  0  0  0
   -9.3430   28.9940   11.0500 O   0  0  0  0  0
   -9.3470   26.5690    9.0540 C   0  0  0  0  0
   -9.6850   25.6750    7.9180 C   0  0  0  0  0
   -8.9450   24.4100    8.1700 C   0  0  0  0  0
   -9.5060   23.2740    7.3770 C   0  0  0  0  0
   -8.4030   22.6620    6.5870 N   0  3  0  0  0
  -10.7330   27.3540   11.7020 N   0  0  0  0  0
  -10.6390   27.6570   13.1190 C   0  0  0  0  0
  -10.5520   26.4080   14.0080 C   0  0  0  0  0
  -10.8110   26.4710   15.2160 O   0  0  0  0  0
  -11.8240   28.5480   13.5170 C   0  0  0  0  0
  -13.1990   27.9860   13.2190 C   0  0  0  0  0
  -13.8160   28.1870   11.9670 C   0  0  0  0  0
  -13.9050   27.2670   14.2000 C   0  0  0  0  0
  -15.1060   27.6740   11.7060 C   0  0  0  0  0
  -15.1800   26.7570   13.9530 C   0  0  0  0  0
  -15.7690   26.9530   12.7080 C   0  0  0  0  0
  -16.9690   26.3620   12.4310 O   0  0  0  0  0
  -10.2090   25.2720   13.4040 N   0  0  0  0  0
  -23.1507   21.5222   -3.9418 H   0  0  0  0  0
  -24.5070   22.4898   -3.9695 H   0  0  0  0  0
  -23.8959   21.8710   -5.3909 H   0  0  0  0  0
  -21.9381   23.1882   -5.2534 H   0  0  0  0  0
  -23.6058   24.2697   -6.4155 H   0  0  0  0  0
  -21.6766   25.4183   -5.7753 H   0  0  0  0  0
  -24.6231   25.2668   -3.7547 H   0  0  0  0  0
  -25.2144   25.7410   -5.3660 H   0  0  0  0  0
  -25.4170   24.0644   -4.8012 H   0  0  0  0  0
  -20.5489   24.1786   -4.1641 H   0  0  0  0  0
  -20.5784   24.7979   -1.2615 H   0  0  0  0  0
  -21.3481   22.3650   -1.5835 H   0  0  0  0  0
  -20.3872   21.6949    0.2186 H   0  0  0  0  0
  -19.6894   23.3020    0.2442 H   0  0  0  0  0
  -20.2344   21.8536   -3.7180 H   0  0  0  0  0
  -18.6321   22.0174   -2.9585 H   0  0  0  0  0
  -19.7123   20.6851   -2.4798 H   0  0  0  0  0
  -18.4881   20.8758   -1.1001 H   0  0  0  0  0
  -17.7790   22.5091   -1.0741 H   0  0  0  0  0
  -17.9564   21.5912    0.4415 H   0  0  0  0  0
  -18.9501   26.0457   -1.0187 H   0  0  0  0  0
  -16.9305   26.1273   -3.1842 H   0  0  0  0  0
  -16.5518   28.4288   -2.3972 H   0  0  0  0  0
  -17.5750   28.1214   -0.9548 H   0  0  0  0  0
  -17.5363   28.8031   -4.5816 H   0  0  0  0  0
  -20.0600   27.9241   -1.1830 H   0  0  0  0  0
  -19.5517   29.3802   -5.9324 H   0  0  0  0  0
  -22.1045   28.5005   -2.5458 H   0  0  0  0  0
  -22.8283   29.2408   -4.5893 H   0  0  0  0  0
  -14.7888   26.6911   -2.8917 H   0  0  0  0  0
  -13.5818   24.7566   -1.1464 H   0  0  0  0  0
  -11.4414   25.7935   -1.9043 H   0  0  0  0  0
  -12.4349   27.0485   -2.7686 H   0  0  0  0  0
  -11.3718   24.3609   -5.1878 H   0  0  0  0  0
  -10.5144   25.4219   -4.0652 H   0  0  0  0  0
  -12.2755   24.9652    0.7043 H   0  0  0  0  0
  -13.1012   27.2744    2.1893 H   0  0  0  0  0
  -12.5716   26.3868    4.2015 H   0  0  0  0  0
  -10.9165   24.7879    4.4932 H   0  0  0  0  0
  -14.1860   24.9509    3.1315 H   0  0  0  0  0
  -12.8808   23.9492    2.4504 H   0  0  0  0  0
  -13.1318   24.0068    4.2124 H   0  0  0  0  0
  -12.0477   28.8277    3.1074 H   0  0  0  0  0
   -9.2387   29.2470    2.1999 H   0  0  0  0  0
   -9.6686   31.5419    1.7088 H   0  0  0  0  0
  -11.8502   32.3893    1.9404 H   0  0  0  0  0
  -10.2520   29.9834   -0.1324 H   0  0  0  0  0
  -11.9152   29.8498    0.4897 H   0  0  0  0  0
  -11.3300   31.4005   -0.1614 H   0  0  0  0  0
  -11.5769   29.4040    4.7713 H   0  0  0  0  0
   -9.2730   29.8027    6.4671 H   0  0  0  0  0
  -11.4329   31.5303    7.4772 H   0  0  0  0  0
  -10.4042   32.1122    6.1677 H   0  0  0  0  0
   -9.0650   30.6556    8.4252 H   0  0  0  0  0
   -7.6974   31.4034    6.6205 H   0  0  0  0  0
   -8.2433   33.0811    6.8620 H   0  0  0  0  0
   -7.2857   32.2661    8.1230 H   0  0  0  0  0
  -10.0550   33.5005    8.5689 H   0  0  0  0  0
  -10.6344   32.1283    9.5447 H   0  0  0  0  0
   -8.9676   32.7223    9.7449 H   0  0  0  0  0
   -9.3206   29.2304    8.4400 H   0  0  0  0  0
  -11.4036   27.3334    9.2962 H   0  0  0  0  0
   -9.2947   25.9383    9.9414 H   0  0  0  0  0
   -8.4204   27.0765    8.7856 H   0  0  0  0  0
   -9.4014   26.1190    6.9638 H   0  0  0  0  0
  -10.7592   25.5019    7.8534 H   0  0  0  0  0
   -9.0325   24.1660    9.2287 H   0  0  0  0  0
   -7.9060   24.5552    7.8743 H   0  0  0  0  0
  -10.2871   23.6359    6.7084 H   0  0  0  0  0
   -9.9418   22.5318    8.0458 H   0  0  0  0  0
   -8.7700   21.8837    6.0392 H   0  0  0  0  0
   -8.0056   23.3624    5.9610 H   0  0  0  0  0
   -7.6802   22.3219    7.2213 H   0  0  0  0  0
  -11.2680   26.5379   11.4049 H   0  0  0  0  0
   -9.7015   28.1878   13.2844 H   0  0  0  0  0
  -11.7316   29.4632   12.9322 H   0  0  0  0  0
  -11.7685   28.6698   14.5988 H   0  0  0  0  0
  -13.2912   28.7449   11.1914 H   0  0  0  0  0
  -13.4459   27.1045   15.1751 H   0  0  0  0  0
  -15.5795   27.8369   10.7378 H   0  0  0  0  0
  -15.7113   26.2084   14.7307 H   0  0  0  0  0
  -17.2906   25.9106   13.2148 H   0  0  0  0  0
  -10.1513   24.4064   13.9405 H   0  0  0  0  0
  -10.0040   25.2674   12.4048 H   0  0  0  0  0
  1  2  1  0  0  0
  2  3  1  0  0  0
  2  5  1  0  0  0
  3  4  2  0  0  0
  3  8  1  0  0  0
  5  6  1  0  0  0
  5  7  1  0  0  0
  8  9  1  0  0  0
  9 10  1  0  0  0
  9 12  1  0  0  0
 10 11  2  0  0  0
 10 16  1  0  0  0
 12 13  1  0  0  0
 12 14  1  0  0  0
 13 15  1  0  0  0
 16 17  1  0  0  0
 17 18  1  0  0  0
 17 20  1  0  0  0
 18 19  2  0  0  0
 18 28  1  0  0  0
 20 21  1  0  0  0
 21 22  4  0  0  0
 21 23  4  0  0  0
 22 24  4  0  0  0
 23 25  4  0  0  0
 24 26  4  0  0  0
 25 26  4  0  0  0
 26 27  1  0  0  0
 28 29  1  0  0  0
 29 30  1  0  0  0
 29 32  1  0  0  0
 30 31  2  0  0  0
 30 36  1  0  0  0
 32 33  1  0  0  0
 33 34  2  0  0  0
 33 35  1  0  0  0
 36 37  1  0  0  0
 37 38  1  0  0  0
 37 40  1  0  0  0
 38 39  2  0  0  0
 38 43  1  0  0  0
 40 41  1  0  0  0
 40 42  1  0  0  0
 43 44  1  0  0  0
 44 45  1  0  0  0
 44 47  1  0  0  0
 45 46  2  0  0  0
 45 50  1  0  0  0
 47 48  1  0  0  0
 47 49  1  0  0  0
 50 51  1  0  0  0
 51 52  1  0  0  0
 51 54  1  0  0  0
 52 53  2  0  0  0
 52 58  1  0  0  0
 54 55  1  0  0  0
 55 56  1  0  0  0
 55 57  1  0  0  0
 58 59  1  0  0  0
 59 60  1  0  0  0
 59 62  1  0  0  0
 60 61  2  0  0  0
 60 67  1  0  0  0
 62 63  1  0  0  0
 63 64  1  0  0  0
 64 65  1  0  0  0
 65 66  1  0  0  0
 67 68  1  0  0  0
 68 69  1  0  0  0
 68 71  1  0  0  0
 69 70  2  0  0  0
 69 79  1  0  0  0
 71 72  1  0  0  0
 72 73  4  0  0  0
 72 74  4  0  0  0
 73 75  4  0  0  0
 74 76  4  0  0  0
 75 77  4  0  0  0
 76 77  4  0  0  0
 77 78  1  0  0  0
  1 80  1  0  0  0
  1 81  1  0  0  0
  1 82  1  0  0  0
  2 83  1  0  0  0
  5 84  1  0  0  0
  6 85  1  0  0  0
  7 86  1  0  0  0
  7 87  1  0  0  0
  7 88  1  0  0  0
  8 89  1  0  0  0
  9 90  1  0  0  0
 12 91  1  0  0  0
 13 92  1  0  0  0
 13 93  1  0  0  0
 14 94  1  0  0  0
 14 95  1  0  0  0
 14 96  1  0  0  0
 15 97  1  0  0  0
 15 98  1  0  0  0
 15 99  1  0  0  0
 16100  1  0  0  0
 17101  1  0  0  0
 20102  1  0  0  0
 20103  1  0  0  0
 22104  1  0  0  0
 23105  1  0  0  0
 24106  1  0  0  0
 25107  1  0  0  0
 27108  1  0  0  0
 28109  1  0  0  0
 29110  1  0  0  0
 32111  1  0  0  0
 32112  1  0  0  0
 35113  1  0  0  0
 35114  1  0  0  0
 36115  1  0  0  0
 37116  1  0  0  0
 40117  1  0  0  0
 41118  1  0  0  0
 42119  1  0  0  0
 42120  1  0  0  0
 42121  1  0  0  0
 43122  1  0  0  0
 44123  1  0  0  0
 47124  1  0  0  0
 48125  1  0  0  0
 49126  1  0  0  0
 49127  1  0  0  0
 49128  1  0  0  0
 50129  1  0  0  0
 51130  1  0  0  0
 54131  1  0  0  0
 54132  1  0  0  0
 55133  1  0  0  0
 56134  1  0  0  0
 56135  1  0  0  0
 56136  1  0  0  0
 57137  1  0  0  0
 57138  1  0  0  0
 57139  1  0  0  0
 58140  1  0  0  0
 59141  1  0  0  0
 62142  1  0  0  0
 62143  1  0  0  0
 63144  1  0  0  0
 63145  1  0  0  0
 64146  1  0  0  0
 64147  1  0  0  0
 65148  1  0  0  0
 65149  1  0  0  0
 66150  1  0  0  0
 66151  1  0  0  0
 66152  1  0  0  0
 67153  1  0  0  0
 68154  1  0  0  0
 71155  1  0  0  0
 71156  1  0  0  0
 73157  1  0  0  0
 74158  1  0  0  0
 75159  1  0  0  0
 76160  1  0  0  0
 78161  1  0  0  0
 79162  1  0  0  0
 79163  1  0  0  0
M  END
$$$$
