### 
### Created by X-TOOL on Mon Sep 10 21:12:58 2018
### 

@<TRIPOS>MOLECULE
3eyf_ligand
  163   164     1     0     0
SMALL
GAST_HUCK


@<TRIPOS>ATOM
      1 N         -23.6550   22.2350   -4.4690 N.4       1 THR         0.2398
      2 CA        -22.7900   23.4430   -4.6230 C.3       1 THR         0.0910
      3 C         -22.3240   23.8360   -3.2520 C.2       1 THR         0.2293
      4 O         -23.1100   24.1290   -2.3230 O.2       1 THR        -0.3906
      5 CB        -23.4190   24.5720   -5.3850 C.3       1 THR         0.1120
      6 OG1       -22.5130   25.6880   -5.3890 O.3       1 THR        -0.3840
      7 CG2       -24.7640   24.9370   -4.7840 C.3       1 THR        -0.0314
      8 N         -21.0200   24.0620   -3.2670 N.am      1 ILE        -0.2607
      9 CA        -20.2580   24.1470   -2.0750 C.3       1 ILE         0.1336
     10 C         -18.8630   24.6770   -2.5000 C.2       1 ILE         0.2043
     11 O         -18.1890   24.1160   -3.3640 O.2       1 ILE        -0.3944
     12 CB        -20.2970   22.6410   -1.6680 C.3       1 ILE        -0.0037
     13 CG1       -19.7470   22.3810   -0.3360 C.3       1 ILE        -0.0491
     14 CG2       -19.6700   21.7280   -2.7940 C.3       1 ILE        -0.0582
     15 CD1       -18.4040   21.8010   -0.5300 C.3       1 ILE        -0.0648
     16 N         -18.4100   25.7120   -1.8170 N.am      1 TYR        -0.2621
     17 CA        -17.1750   26.3940   -2.1560 C.3       1 TYR         0.1390
     18 C         -15.9510   25.9470   -1.4010 C.2       1 TYR         0.2059
     19 O         -16.0500   25.4260   -0.2880 O.2       1 TYR        -0.3942
     20 CB        -17.4180   27.8930   -2.0090 C.3       1 TYR         0.0163
     21 CG        -18.6440   28.3190   -2.7880 C.ar      1 TYR        -0.0493
     22 CD1       -18.5250   28.7340   -4.1280 C.ar      1 TYR        -0.0685
     23 CD2       -19.9460   28.2400   -2.2200 C.ar      1 TYR        -0.0685
     24 CE1       -19.6670   29.0630   -4.8960 C.ar      1 TYR        -0.0398
     25 CE2       -21.1110   28.5690   -2.9890 C.ar      1 TYR        -0.0398
     26 CZ        -20.9510   28.9820   -4.3260 C.ar      1 TYR         0.0805
     27 OH        -22.0200   29.3430   -5.0970 O.3       1 TYR        -0.3376
     28 N         -14.7890   26.2050   -1.9950 N.am      1 ASN        -0.2615
     29 CA        -13.5170   25.8140   -1.4030 C.3       1 ASN         0.1476
     30 C         -13.2320   26.5780   -0.1180 C.2       1 ASN         0.2063
     31 O         -13.6980   27.7050    0.0320 O.2       1 ASN        -0.3942
     32 CB        -12.3790   26.0200   -2.4120 C.3       1 ASN         0.0773
     33 CG        -12.4830   25.0920   -3.6400 C.2       1 ASN         0.1780
     34 OD1       -13.5480   24.5340   -3.9510 O.2       1 ASN        -0.3970
     35 ND2       -11.3700   24.9470   -4.3530 N.am      1 ASN        -0.3007
     36 N         -12.5600   25.9350    0.8420 N.am      1 THR        -0.2612
     37 CA        -12.2340   26.6220    2.0870 C.3       1 THR         0.1565
     38 C         -11.0020   27.4860    2.0130 C.2       1 THR         0.2065
     39 O         -10.0000   27.1790    1.3510 O.2       1 THR        -0.3943
     40 CB        -12.2220   25.7550    3.3850 C.3       1 THR         0.0924
     41 OG1       -10.8990   25.3180    3.6930 O.3       1 THR        -0.3874
     42 CG2       -13.1720   24.5830    3.2880 C.3       1 THR        -0.0346
     43 N         -11.1640   28.6450    2.6320 N.am      1 THR        -0.2613
     44 CA        -10.1350   29.6630    2.6600 C.3       1 THR         0.1565
     45 C          -9.7660   30.0390    4.0880 C.2       1 THR         0.2065
     46 O          -8.7630   30.7030    4.2980 O.2       1 THR        -0.3943
     47 CB        -10.5530   30.9130    1.8110 C.3       1 THR         0.0924
     48 OG1       -11.6030   31.6270    2.4690 O.3       1 THR        -0.3874
     49 CG2       -11.0500   30.5060    0.3950 C.3       1 THR        -0.0346
     50 N         -10.6600   29.7640    5.0360 N.am      1 LEU        -0.2636
     51 CA        -10.3500   29.9690    6.4460 C.3       1 LEU         0.1312
     52 C         -10.9740   28.9470    7.3450 C.2       1 LEU         0.2039
     53 O         -12.0350   28.3690    7.0800 O.2       1 LEU        -0.3944
     54 CB        -10.4700   31.3940    6.9850 C.3       1 LEU        -0.0101
     55 CG         -9.3170   31.6240    7.9930 C.3       1 LEU        -0.0425
     56 CD1        -8.0470   32.1290    7.3550 C.3       1 LEU        -0.0625
     57 CD2        -9.7730   32.5540    9.0300 C.3       1 LEU        -0.0625
     58 N         -10.1670   28.6670    8.3590 N.am      1 LYS        -0.2637
     59 CA        -10.3630   27.6530    9.3530 C.3       1 LYS         0.1310
     60 C         -10.1430   28.1080   10.7810 C.2       1 LYS         0.2040
     61 O          -9.3430   28.9940   11.0500 O.2       1 LYS        -0.3944
     62 CB         -9.3470   26.5690    9.0540 C.3       1 LYS        -0.0122
     63 CG         -9.6850   25.6750    7.9180 C.3       1 LYS        -0.0440
     64 CD         -8.9450   24.4100    8.1700 C.3       1 LYS        -0.0124
     65 CE         -9.5060   23.2740    7.3770 C.3       1 LYS        -0.0354
     66 NZ         -8.4030   22.6620    6.5870 N.4       1 LYS         0.2185
     67 N         -10.7330   27.3540   11.7020 N.am      1 TYR        -0.2621
     68 CA        -10.6390   27.6570   13.1190 C.3       1 TYR         0.1387
     69 C         -10.5520   26.4080   14.0080 C.2       1 TYR         0.2010
     70 O         -10.8110   26.4710   15.2160 O.2       1 TYR        -0.3946
     71 CB        -11.8240   28.5480   13.5170 C.3       1 TYR         0.0163
     72 CG        -13.1990   27.9860   13.2190 C.ar      1 TYR        -0.0493
     73 CD1       -13.8160   28.1870   11.9670 C.ar      1 TYR        -0.0685
     74 CD2       -13.9050   27.2670   14.2000 C.ar      1 TYR        -0.0685
     75 CE1       -15.1060   27.6740   11.7060 C.ar      1 TYR        -0.0398
     76 CE2       -15.1800   26.7570   13.9530 C.ar      1 TYR        -0.0398
     77 CZ        -15.7690   26.9530   12.7080 C.ar      1 TYR         0.0805
     78 OH        -16.9690   26.3620   12.4310 O.3       1 TYR        -0.3376
     79 N         -10.2090   25.2720   13.4040 N.am      1 NH2        -0.2988
     80 H1        -23.1576   21.5298   -3.9481 H         1 THR         0.2016
     81 H2        -23.8937   21.8743   -5.3795 H         1 THR         0.2016
     82 H3        -24.4974   22.4856   -3.9754 H         1 THR         0.2016
     83 H4        -21.9044   23.1401   -5.2009 H         1 THR         0.1125
     84 H5        -23.5831   24.2507   -6.4242 H         1 THR         0.0674
     85 H6        -22.9025   26.4089   -5.8696 H         1 THR         0.2102
     86 H7        -25.2084   25.7652   -5.3556 H         1 THR         0.0258
     87 H8        -24.6262   25.2463   -3.7374 H         1 THR         0.0258
     88 H9        -25.4323   24.0642   -4.8235 H         1 THR         0.0258
     89 H10       -20.5581   24.1763   -4.1466 H         1 ILE         0.1885
     90 H11       -20.7012   24.7949   -1.3044 H         1 ILE         0.0803
     91 H12       -21.3609   22.3677   -1.6095 H         1 ILE         0.0345
     92 H13       -20.3899   21.6722    0.2065 H         1 ILE         0.0267
     93 H14       -19.6746   23.3197    0.2328 H         1 ILE         0.0267
     94 H15       -20.1268   21.9758   -3.7635 H         1 ILE         0.0235
     95 H16       -19.8616   20.6709   -2.5579 H         1 ILE         0.0235
     96 H17       -18.5850   21.9015   -2.8449 H         1 ILE         0.0235
     97 H18       -17.9512   21.5888    0.4498 H         1 ILE         0.0230
     98 H19       -17.7722   22.5147   -1.0790 H         1 ILE         0.0230
     99 H20       -18.4875   20.8671   -1.1053 H         1 ILE         0.0230
    100 H21       -18.9395   26.0392   -1.0343 H         1 TYR         0.1885
    101 H22       -16.9738   26.1879   -3.2176 H         1 TYR         0.0821
    102 H23       -16.5420   28.4391   -2.3889 H         1 TYR         0.0453
    103 H24       -17.5660   28.1315   -0.9454 H         1 TYR         0.0453
    104 H25       -17.5417   28.8027   -4.5791 H         1 TYR         0.0530
    105 H26       -20.0594   27.9259   -1.1887 H         1 TYR         0.0530
    106 H27       -19.5524   29.3784   -5.9267 H         1 TYR         0.0525
    107 H28       -22.0990   28.5009   -2.5482 H         1 TYR         0.0525
    108 H29       -22.4646   30.0800   -4.6948 H         1 TYR         0.2458
    109 H30       -14.7888   26.6816   -2.8741 H         1 ASN         0.1885
    110 H31       -13.5709   24.7433   -1.1566 H         1 ASN         0.0826
    111 H32       -11.4224   25.8243   -1.9055 H         1 ASN         0.0551
    112 H33       -12.4034   27.0636   -2.7589 H         1 ASN         0.0551
    113 H34       -11.3675   24.3594   -5.1621 H         1 ASN         0.1814
    114 H35       -10.5354   25.4256   -4.0801 H         1 ASN         0.1814
    115 H36       -12.2811   24.9842    0.7070 H         1 THR         0.1884
    116 H37       -13.0689   27.3239    2.2292 H         1 THR         0.0826
    117 H38       -12.5655   26.3923    4.2131 H         1 THR         0.0639
    118 H39       -10.9163   24.7934    4.4848 H         1 THR         0.2101
    119 H40       -13.1323   24.0007    4.2204 H         1 THR         0.0257
    120 H41       -12.8791   23.9425    2.4430 H         1 THR         0.0257
    121 H42       -14.1958   24.9529    3.1301 H         1 THR         0.0257
    122 H43       -12.0304   28.8242    3.0981 H         1 THR         0.1884
    123 H44        -9.2357   29.2358    2.1923 H         1 THR         0.0826
    124 H45        -9.6786   31.5720    1.7054 H         1 THR         0.0639
    125 H46       -12.3549   31.0561    2.5745 H         1 THR         0.2101
    126 H47       -11.3329   31.4079   -0.1676 H         1 THR         0.0257
    127 H48       -11.9232   29.8437    0.4892 H         1 THR         0.0257
    128 H49       -10.2455   29.9785   -0.1384 H         1 THR         0.0257
    129 H50       -11.5589   29.4110    4.7765 H         1 LEU         0.1883
    130 H51        -9.2715   29.7607    6.5051 H         1 LEU         0.0800
    131 H52       -11.4386   31.5214    7.4906 H         1 LEU         0.0315
    132 H53       -10.3910   32.1140    6.1571 H         1 LEU         0.0315
    133 H54        -9.0875   30.6586    8.4676 H         1 LEU         0.0298
    134 H55        -7.2779   32.2678    8.1291 H         1 LEU         0.0232
    135 H56        -8.2437   33.0900    6.8572 H         1 LEU         0.0232
    136 H57        -7.6931   31.3976    6.6136 H         1 LEU         0.0232
    137 H58       -10.6987   32.1712    9.4844 H         1 LEU         0.0232
    138 H59        -9.9655   33.5391    8.5801 H         1 LEU         0.0232
    139 H60        -8.9971   32.6495    9.8038 H         1 LEU         0.0232
    140 H61        -9.3372   29.2194    8.4384 H         1 LYS         0.1883
    141 H62       -11.3853   27.2570    9.2631 H         1 LYS         0.0800
    142 H63        -9.2393   25.9470    9.9548 H         1 LYS         0.0312
    143 H64        -8.3872   27.0565    8.8281 H         1 LYS         0.0312
    144 H65        -9.3638   26.1246    6.9669 H         1 LYS         0.0269
    145 H66       -10.7683   25.4864    7.8871 H         1 LYS         0.0269
    146 H67        -9.0120   24.1649    9.2403 H         1 LYS         0.0317
    147 H68        -7.8904   24.5524    7.8917 H         1 LYS         0.0317
    148 H69       -10.2875   23.6454    6.6978 H         1 LYS         0.0813
    149 H70        -9.9368   22.5238    8.0564 H         1 LYS         0.0813
    150 H71        -8.7645   21.8927    6.0452 H         1 LYS         0.1994
    151 H72        -7.6881   22.3255    7.2128 H         1 LYS         0.1994
    152 H73        -8.0095   23.3533    5.9679 H         1 LYS         0.1994
    153 H74       -11.2575   26.5539   11.4108 H         1 TYR         0.1885
    154 H75        -9.7139   28.2311   13.2759 H         1 TYR         0.0821
    155 H76       -11.7251   29.5020   12.9785 H         1 TYR         0.0453
    156 H77       -11.7610   28.7300   14.6000 H         1 TYR         0.0453
    157 H78       -13.2941   28.7418   11.1957 H         1 TYR         0.0530
    158 H79       -13.4484   27.1054   15.1698 H         1 TYR         0.0530
    159 H80       -15.5769   27.8360   10.7431 H         1 TYR         0.0525
    160 H81       -15.7084   26.2114   14.7264 H         1 TYR         0.0525
    161 H82       -17.6216   26.6677   13.0499 H         1 TYR         0.2458
    162 H83       -10.1365   24.4265   13.9331 H         1 NH2         0.1815
    163 H84       -10.0239   25.2643   12.4213 H         1 NH2         0.1815
@<TRIPOS>BOND
     1    1    2 1  
     2    2    3 1  
     3    2    5 1  
     4    3    4 2  
     5    3    8 am 
     6    5    6 1  
     7    5    7 1  
     8    8    9 1  
     9    9   10 1  
    10    9   12 1  
    11   10   11 2  
    12   10   16 am 
    13   12   13 1  
    14   12   14 1  
    15   13   15 1  
    16   16   17 1  
    17   17   18 1  
    18   17   20 1  
    19   18   19 2  
    20   18   28 am 
    21   20   21 1  
    22   21   22 ar 
    23   21   23 ar 
    24   22   24 ar 
    25   23   25 ar 
    26   24   26 ar 
    27   25   26 ar 
    28   26   27 1  
    29   28   29 1  
    30   29   30 1  
    31   29   32 1  
    32   30   31 2  
    33   30   36 am 
    34   32   33 1  
    35   33   34 2  
    36   33   35 am 
    37   36   37 1  
    38   37   38 1  
    39   37   40 1  
    40   38   39 2  
    41   38   43 am 
    42   40   41 1  
    43   40   42 1  
    44   43   44 1  
    45   44   45 1  
    46   44   47 1  
    47   45   46 2  
    48   45   50 am 
    49   47   48 1  
    50   47   49 1  
    51   50   51 1  
    52   51   52 1  
    53   51   54 1  
    54   52   53 2  
    55   52   58 am 
    56   54   55 1  
    57   55   56 1  
    58   55   57 1  
    59   58   59 1  
    60   59   60 1  
    61   59   62 1  
    62   60   61 2  
    63   60   67 am 
    64   62   63 1  
    65   63   64 1  
    66   64   65 1  
    67   65   66 1  
    68   67   68 1  
    69   68   69 1  
    70   68   71 1  
    71   69   70 2  
    72   69   79 am 
    73   71   72 1  
    74   72   73 ar 
    75   72   74 ar 
    76   73   75 ar 
    77   74   76 ar 
    78   75   77 ar 
    79   76   77 ar 
    80   77   78 1  
    81    1   80 1  
    82    1   81 1  
    83    1   82 1  
    84    2   83 1  
    85    5   84 1  
    86    6   85 1  
    87    7   86 1  
    88    7   87 1  
    89    7   88 1  
    90    8   89 1  
    91    9   90 1  
    92   12   91 1  
    93   13   92 1  
    94   13   93 1  
    95   14   94 1  
    96   14   95 1  
    97   14   96 1  
    98   15   97 1  
    99   15   98 1  
   100   15   99 1  
   101   16  100 1  
   102   17  101 1  
   103   20  102 1  
   104   20  103 1  
   105   22  104 1  
   106   23  105 1  
   107   24  106 1  
   108   25  107 1  
   109   27  108 1  
   110   28  109 1  
   111   29  110 1  
   112   32  111 1  
   113   32  112 1  
   114   35  113 1  
   115   35  114 1  
   116   36  115 1  
   117   37  116 1  
   118   40  117 1  
   119   41  118 1  
   120   42  119 1  
   121   42  120 1  
   122   42  121 1  
   123   43  122 1  
   124   44  123 1  
   125   47  124 1  
   126   48  125 1  
   127   49  126 1  
   128   49  127 1  
   129   49  128 1  
   130   50  129 1  
   131   51  130 1  
   132   54  131 1  
   133   54  132 1  
   134   55  133 1  
   135   56  134 1  
   136   56  135 1  
   137   56  136 1  
   138   57  137 1  
   139   57  138 1  
   140   57  139 1  
   141   58  140 1  
   142   59  141 1  
   143   62  142 1  
   144   62  143 1  
   145   63  144 1  
   146   63  145 1  
   147   64  146 1  
   148   64  147 1  
   149   65  148 1  
   150   65  149 1  
   151   66  150 1  
   152   66  151 1  
   153   66  152 1  
   154   67  153 1  
   155   68  154 1  
   156   71  155 1  
   157   71  156 1  
   158   73  157 1  
   159   74  158 1  
   160   75  159 1  
   161   76  160 1  
   162   78  161 1  
   163   79  162 1  
   164   79  163 1  
@<TRIPOS>SUBSTRUCTURE
     1 THR         1

