6azl_ligand
  -I-interpret- 

194194  0  0  0  0  0  0  0  0999 V2000
  -17.8720   34.1560  -28.5470 N   0  3  0  0  0
  -18.3000   35.5390  -28.7500 C   0  0  0  0  0
  -19.7770   35.6300  -29.1480 C   0  0  0  0  0
  -20.2340   34.9240  -30.0460 O   0  0  0  0  0
  -17.4290   36.2150  -29.8100 C   0  0  0  0  0
  -17.9160   37.5940  -30.2220 C   0  0  0  0  0
  -17.0250   38.7100  -29.7150 C   0  0  0  0  0
  -16.2750   38.5370  -28.7540 O   0  0  0  0  0
  -17.0980   39.8650  -30.3670 N   0  0  0  0  0
  -20.5060   36.5230  -28.4800 N   0  0  0  0  0
  -21.9540   36.6160  -28.6260 C   0  0  0  0  0
  -22.3450   37.4130  -29.8670 C   0  0  0  0  0
  -21.7930   38.4830  -30.1370 O   0  0  0  0  0
  -22.5560   37.2620  -27.3770 C   0  0  0  0  0
  -24.0450   37.4200  -27.4300 C   0  0  0  0  0
  -24.8770   36.3210  -27.2870 C   0  0  0  0  0
  -24.6170   38.6700  -27.6060 C   0  0  0  0  0
  -26.2500   36.4640  -27.3280 C   0  0  0  0  0
  -25.9960   38.8180  -27.6510 C   0  0  0  0  0
  -26.8110   37.7160  -27.5120 C   0  0  0  0  0
  -23.3240   36.8940  -30.6090 N   0  0  0  0  0
  -23.7510   37.4650  -31.8840 C   0  0  0  0  0
  -25.1720   37.9970  -31.7560 C   0  0  0  0  0
  -26.1090   37.2240  -31.5280 O   0  0  0  0  0
  -23.6640   36.4200  -32.9990 C   0  0  0  0  0
  -24.2710   36.9010  -34.3000 C   0  0  0  0  0
  -23.9530   38.0320  -34.7260 O   0  0  0  0  0
  -25.0560   36.1410  -34.9050 O   0  0  0  0  0
  -25.3300   39.3140  -31.9310 N   0  0  0  0  0
  -26.6190   39.9630  -31.6980 C   0  0  0  0  0
  -27.6860   39.5190  -32.6900 C   0  0  0  0  0
  -28.8770   39.5310  -32.3590 O   0  0  0  0  0
  -26.4530   41.4800  -31.7580 C   0  0  0  0  0
  -25.4810   42.0260  -30.7160 C   0  0  0  0  0
  -25.0960   43.4460  -31.0490 C   0  0  0  0  0
  -26.1030   41.9460  -29.3350 C   0  0  0  0  0
  -27.2890   39.1330  -33.9040 N   0  0  0  0  0
  -28.2690   38.7200  -34.9030 C   0  0  0  0  0
  -28.9910   37.4430  -34.4860 C   0  0  0  0  0
  -30.2160   37.3420  -34.6310 O   0  0  0  0  0
  -27.5870   38.5280  -36.2570 C   0  0  0  0  0
  -27.0200   39.7410  -36.7220 O   0  0  0  0  0
  -28.2570   36.4700  -33.9530 N   0  0  0  0  0
  -28.8190   35.1600  -33.6390 C   0  0  0  0  0
  -29.0520   34.9510  -32.1460 C   0  0  0  0  0
  -29.7570   34.0250  -31.7500 O   0  0  0  0  0
  -27.9040   34.0330  -34.1480 C   0  0  0  0  0
  -26.6340   34.1100  -33.4860 O   0  0  0  0  0
  -27.6930   34.1550  -35.6480 C   0  0  0  0  0
  -28.4510   35.8150  -31.3330 N   0  0  0  0  0
  -28.4960   35.6990  -29.8370 C   0  0  0  0  0
  -27.7860   34.4030  -29.4050 C   0  0  0  0  0
  -28.1200   33.7740  -28.4160 O   0  0  0  0  0
  -29.9140   35.6950  -29.2520 C   0  0  0  0  0
  -30.6640   37.0090  -29.4440 C   0  0  0  0  0
  -31.8560   37.0590  -28.4880 C   0  0  0  0  0
  -32.6740   38.3040  -28.6960 N   0  0  0  0  0
  -33.5590   38.6960  -27.9210 C   0  0  0  0  0
  -33.8260   38.0360  -26.8760 N   0  0  0  0  0
  -34.2960   39.9230  -28.2200 N   0  0  0  0  0
  -35.3020   40.9370  -30.2080 C   0  0  0  0  0
  -34.0040   40.6970  -29.4230 C   0  0  0  0  0
  -35.7010   42.3540  -30.3520 C   0  0  0  0  0
  -34.7660   43.2730  -30.3070 O   0  0  0  0  0
  -36.8560   42.6600  -30.5070 O   0  0  0  0  0
  -26.7770   34.0190  -30.1750 N   0  0  0  0  0
  -26.0240   32.8120  -29.8740 C   0  0  0  0  0
  -24.5280   33.0890  -29.8720 C   0  0  0  0  0
  -24.0610   34.0300  -30.5130 O   0  0  0  0  0
  -26.3540   31.7070  -30.8820 C   0  0  0  0  0
  -27.8030   31.2420  -30.8520 C   0  0  0  0  0
  -28.1490   30.5400  -29.5430 C   0  0  0  0  0
  -27.2100   29.4640  -29.2340 N   0  0  0  0  0
  -27.2440   28.2550  -29.7850 C   0  0  0  0  0
  -28.1730   27.9550  -30.6860 N   0  0  0  0  0
  -26.3440   27.3440  -29.4380 N   0  0  0  0  0
  -23.7820   32.2770  -29.1300 N   0  0  0  0  0
  -22.3300   32.3210  -29.2220 C   0  0  0  0  0
  -21.8930   31.7460  -30.5640 C   0  0  0  0  0
  -22.4130   30.7230  -31.0180 O   0  0  0  0  0
  -21.6970   31.5420  -28.0660 C   0  0  0  0  0
  -22.0640   31.9940  -26.6450 C   0  0  0  0  0
  -21.5820   30.9920  -25.5980 C   0  0  0  0  0
  -21.5090   33.3810  -26.3510 C   0  0  0  0  0
  -20.9510   32.4210  -31.2140 N   0  0  0  0  0
  -20.4840   31.9890  -32.5260 C   0  0  0  0  0
  -19.0300   31.5320  -32.4630 C   0  0  0  0  0
  -18.1440   32.3070  -32.1120 O   0  0  0  0  0
  -20.6450   33.1140  -33.5540 C   0  0  0  0  0
  -20.8380   32.6260  -34.9850 C   0  0  0  0  0
  -21.1730   33.7750  -35.9300 C   0  0  0  0  0
  -21.5590   33.2610  -37.3100 C   0  0  0  0  0
  -21.7700   34.3730  -38.2810 N   0  3  0  0  0
  -18.7210   30.3810  -32.7620 O   0  0  0  0  0
  -18.4616   33.7194  -27.8383 H   0  0  0  0  0
  -17.9565   33.6429  -29.4245 H   0  0  0  0  0
  -16.9003   34.1441  -28.2370 H   0  0  0  0  0
  -18.1813   36.0585  -27.7991 H   0  0  0  0  0
  -17.4534   35.5845  -30.6988 H   0  0  0  0  0
  -16.4345   36.3380  -29.3811 H   0  0  0  0  0
  -18.9075   37.7388  -29.7930 H   0  0  0  0  0
  -17.9147   37.6358  -31.3112 H   0  0  0  0  0
  -16.5184   40.6523  -30.0762 H   0  0  0  0  0
  -17.7337   39.9646  -31.1584 H   0  0  0  0  0
  -20.0341   37.1650  -27.8432 H   0  0  0  0  0
  -22.3473   35.6063  -28.7444 H   0  0  0  0  0
  -22.1278   38.2607  -27.2912 H   0  0  0  0  0
  -22.3300   36.6087  -26.5342 H   0  0  0  0  0
  -24.4426   35.3321  -27.1404 H   0  0  0  0  0
  -23.9769   39.5461  -27.7102 H   0  0  0  0  0
  -26.8922   35.5905  -27.2154 H   0  0  0  0  0
  -26.4341   39.8055  -27.7962 H   0  0  0  0  0
  -27.8945   37.8297  -27.5468 H   0  0  0  0  0
  -23.7980   36.0571  -30.2695 H   0  0  0  0  0
  -23.0865   38.2890  -32.1439 H   0  0  0  0  0
  -24.2194   35.5394  -32.6762 H   0  0  0  0  0
  -22.6097   36.2101  -33.1792 H   0  0  0  0  0
  -23.3428   38.4446  -34.1104 H   0  0  0  0  0
  -24.5348   39.8767  -32.2332 H   0  0  0  0  0
  -26.9572   39.6622  -30.7064 H   0  0  0  0  0
  -27.4285   41.9249  -31.5618 H   0  0  0  0  0
  -26.0533   41.7278  -32.7413 H   0  0  0  0  0
  -24.5756   41.4191  -30.7239 H   0  0  0  0  0
  -24.6185   43.4714  -32.0285 H   0  0  0  0  0
  -25.9898   44.0697  -31.0628 H   0  0  0  0  0
  -24.4025   43.8193  -30.2955 H   0  0  0  0  0
  -27.0193   42.5361  -29.3159 H   0  0  0  0  0
  -26.3337   40.9066  -29.1015 H   0  0  0  0  0
  -25.4014   42.3380  -28.5987 H   0  0  0  0  0
  -26.2955   39.1266  -34.1348 H   0  0  0  0  0
  -29.0167   39.5087  -34.9866 H   0  0  0  0  0
  -28.3330   38.1938  -36.9780 H   0  0  0  0  0
  -26.7905   37.7924  -36.1442 H   0  0  0  0  0
  -26.5995   39.5912  -37.5719 H   0  0  0  0  0
  -27.2712   36.6447  -33.7577 H   0  0  0  0  0
  -29.7844   35.1275  -34.1441 H   0  0  0  0  0
  -28.3786   33.0756  -33.9330 H   0  0  0  0  0
  -26.0648   33.4059  -33.8052 H   0  0  0  0  0
  -28.6552   34.0872  -36.1557 H   0  0  0  0  0
  -27.2298   35.1160  -35.8715 H   0  0  0  0  0
  -27.0432   33.3490  -35.9890 H   0  0  0  0  0
  -27.9355   36.5927  -31.7451 H   0  0  0  0  0
  -27.9949   36.5862  -29.4500 H   0  0  0  0  0
  -29.8220   35.5275  -28.1789 H   0  0  0  0  0
  -30.4776   34.9205  -29.7722 H   0  0  0  0  0
  -31.0194   37.0779  -30.4721 H   0  0  0  0  0
  -29.9948   37.8435  -29.2347 H   0  0  0  0  0
  -31.4797   37.0588  -27.4650 H   0  0  0  0  0
  -32.4894   36.1926  -28.6787 H   0  0  0  0  0
  -32.4886   38.8624  -29.5292 H   0  0  0  0  0
  -33.3129   37.1791  -26.6690 H   0  0  0  0  0
  -35.0233   40.2422  -27.5800 H   0  0  0  0  0
  -36.0989   40.4434  -29.6517 H   0  0  0  0  0
  -35.1323   40.5567  -31.2153 H   0  0  0  0  0
  -33.3000   40.1459  -30.0465 H   0  0  0  0  0
  -33.5688   41.6556  -29.1405 H   0  0  0  0  0
  -33.9122   42.8532  -30.1791 H   0  0  0  0  0
  -26.5255   34.5783  -30.9901 H   0  0  0  0  0
  -26.3123   32.4767  -28.8777 H   0  0  0  0  0
  -25.7361   30.8460  -30.6270 H   0  0  0  0  0
  -26.1691   32.1146  -31.8759 H   0  0  0  0  0
  -27.9517   30.5351  -31.6682 H   0  0  0  0  0
  -28.4447   32.1177  -30.9498 H   0  0  0  0  0
  -29.1440   30.1061  -29.6416 H   0  0  0  0  0
  -28.1017   31.2748  -28.7393 H   0  0  0  0  0
  -26.4786   29.6536  -28.5488 H   0  0  0  0  0
  -28.1928   27.0269  -31.1086 H   0  0  0  0  0
  -28.8665   28.6528  -30.9552 H   0  0  0  0  0
  -25.6271   27.5719  -28.7491 H   0  0  0  0  0
  -24.2297   31.6189  -28.4921 H   0  0  0  0  0
  -21.9943   33.3556  -29.1517 H   0  0  0  0  0
  -20.6210   31.6895  -28.1589 H   0  0  0  0  0
  -22.0618   30.5190  -28.1587 H   0  0  0  0  0
  -23.1516   32.0407  -26.5897 H   0  0  0  0  0
  -22.0458   30.0232  -25.7835 H   0  0  0  0  0
  -20.4981   30.8954  -25.6612 H   0  0  0  0  0
  -21.8593   31.3447  -24.6046 H   0  0  0  0  0
  -20.4230   33.3633  -26.4425 H   0  0  0  0  0
  -21.9233   34.0951  -27.0627 H   0  0  0  0  0
  -21.7848   33.6741  -25.3380 H   0  0  0  0  0
  -20.5477   33.2554  -30.7880 H   0  0  0  0  0
  -21.0953   31.1426  -32.8390 H   0  0  0  0  0
  -19.7276   33.7023  -33.5347 H   0  0  0  0  0
  -21.5389   33.6749  -33.2811 H   0  0  0  0  0
  -21.6657   31.9169  -34.9982 H   0  0  0  0  0
  -19.9088   32.1648  -35.3197 H   0  0  0  0  0
  -20.2929   34.4102  -36.0298 H   0  0  0  0  0
  -22.0162   34.3291  -35.5176 H   0  0  0  0  0
  -22.4929   32.7065  -37.2184 H   0  0  0  0  0
  -20.7472   32.6347  -37.6800 H   0  0  0  0  0
  -22.0261   33.9857  -39.1892 H   0  0  0  0  0
  -22.5188   34.9787  -37.9450 H   0  0  0  0  0
  -20.9090   34.9125  -38.3706 H   0  0  0  0  0
  -19.5093   29.8945  -33.0141 H   0  0  0  0  0
  1  2  1  0  0  0
  2  3  1  0  0  0
  2  5  1  0  0  0
  3  4  2  0  0  0
  3 10  1  0  0  0
  5  6  1  0  0  0
  6  7  1  0  0  0
  7  8  2  0  0  0
  7  9  1  0  0  0
 10 11  1  0  0  0
 11 12  1  0  0  0
 11 14  1  0  0  0
 12 13  2  0  0  0
 12 21  1  0  0  0
 14 15  1  0  0  0
 15 16  4  0  0  0
 15 17  4  0  0  0
 16 18  4  0  0  0
 17 19  4  0  0  0
 18 20  4  0  0  0
 19 20  4  0  0  0
 21 22  1  0  0  0
 22 23  1  0  0  0
 22 25  1  0  0  0
 23 24  2  0  0  0
 23 29  1  0  0  0
 25 26  1  0  0  0
 26 27  1  0  0  0
 26 28  2  0  0  0
 29 30  1  0  0  0
 30 31  1  0  0  0
 30 33  1  0  0  0
 31 32  2  0  0  0
 31 37  1  0  0  0
 33 34  1  0  0  0
 34 35  1  0  0  0
 34 36  1  0  0  0
 37 38  1  0  0  0
 38 39  1  0  0  0
 38 41  1  0  0  0
 39 40  2  0  0  0
 39 43  1  0  0  0
 41 42  1  0  0  0
 43 44  1  0  0  0
 44 45  1  0  0  0
 44 47  1  0  0  0
 45 46  2  0  0  0
 45 50  1  0  0  0
 47 48  1  0  0  0
 47 49  1  0  0  0
 50 51  1  0  0  0
 51 52  1  0  0  0
 51 54  1  0  0  0
 52 53  2  0  0  0
 52 66  1  0  0  0
 54 55  1  0  0  0
 55 56  1  0  0  0
 56 57  1  0  0  0
 57 58  1  0  0  0
 58 59  2  0  0  0
 58 60  1  0  0  0
 60 62  1  0  0  0
 62 61  1  0  0  0
 61 63  1  0  0  0
 63 64  1  0  0  0
 63 65  2  0  0  0
 66 67  1  0  0  0
 67 68  1  0  0  0
 67 70  1  0  0  0
 68 69  2  0  0  0
 68 77  1  0  0  0
 70 71  1  0  0  0
 71 72  1  0  0  0
 72 73  1  0  0  0
 73 74  1  0  0  0
 74 75  1  0  0  0
 74 76  2  0  0  0
 77 78  1  0  0  0
 78 79  1  0  0  0
 78 81  1  0  0  0
 79 80  2  0  0  0
 79 85  1  0  0  0
 81 82  1  0  0  0
 82 83  1  0  0  0
 82 84  1  0  0  0
 85 86  1  0  0  0
 86 87  1  0  0  0
 86 89  1  0  0  0
 87 88  2  0  0  0
 87 94  1  0  0  0
 89 90  1  0  0  0
 90 91  1  0  0  0
 91 92  1  0  0  0
 92 93  1  0  0  0
  1 95  1  0  0  0
  1 96  1  0  0  0
  1 97  1  0  0  0
  2 98  1  0  0  0
  5 99  1  0  0  0
  5100  1  0  0  0
  6101  1  0  0  0
  6102  1  0  0  0
  9103  1  0  0  0
  9104  1  0  0  0
 10105  1  0  0  0
 11106  1  0  0  0
 14107  1  0  0  0
 14108  1  0  0  0
 16109  1  0  0  0
 17110  1  0  0  0
 18111  1  0  0  0
 19112  1  0  0  0
 20113  1  0  0  0
 21114  1  0  0  0
 22115  1  0  0  0
 25116  1  0  0  0
 25117  1  0  0  0
 27118  1  0  0  0
 29119  1  0  0  0
 30120  1  0  0  0
 33121  1  0  0  0
 33122  1  0  0  0
 34123  1  0  0  0
 35124  1  0  0  0
 35125  1  0  0  0
 35126  1  0  0  0
 36127  1  0  0  0
 36128  1  0  0  0
 36129  1  0  0  0
 37130  1  0  0  0
 38131  1  0  0  0
 41132  1  0  0  0
 41133  1  0  0  0
 42134  1  0  0  0
 43135  1  0  0  0
 44136  1  0  0  0
 47137  1  0  0  0
 48138  1  0  0  0
 49139  1  0  0  0
 49140  1  0  0  0
 49141  1  0  0  0
 50142  1  0  0  0
 51143  1  0  0  0
 54144  1  0  0  0
 54145  1  0  0  0
 55146  1  0  0  0
 55147  1  0  0  0
 56148  1  0  0  0
 56149  1  0  0  0
 57150  1  0  0  0
 59151  1  0  0  0
 60152  1  0  0  0
 61153  1  0  0  0
 61154  1  0  0  0
 62155  1  0  0  0
 62156  1  0  0  0
 64157  1  0  0  0
 66158  1  0  0  0
 67159  1  0  0  0
 70160  1  0  0  0
 70161  1  0  0  0
 71162  1  0  0  0
 71163  1  0  0  0
 72164  1  0  0  0
 72165  1  0  0  0
 73166  1  0  0  0
 75167  1  0  0  0
 75168  1  0  0  0
 76169  1  0  0  0
 77170  1  0  0  0
 78171  1  0  0  0
 81172  1  0  0  0
 81173  1  0  0  0
 82174  1  0  0  0
 83175  1  0  0  0
 83176  1  0  0  0
 83177  1  0  0  0
 84178  1  0  0  0
 84179  1  0  0  0
 84180  1  0  0  0
 85181  1  0  0  0
 86182  1  0  0  0
 89183  1  0  0  0
 89184  1  0  0  0
 90185  1  0  0  0
 90186  1  0  0  0
 91187  1  0  0  0
 91188  1  0  0  0
 92189  1  0  0  0
 92190  1  0  0  0
 93191  1  0  0  0
 93192  1  0  0  0
 93193  1  0  0  0
 94194  1  0  0  0
M  END
$$$$
