### 
### Created by X-TOOL on Mon Sep 10 21:13:31 2018
### 

@<TRIPOS>MOLECULE
6azl_ligand
  193   193     1     0     0
SMALL
GAST_HUCK


@<TRIPOS>ATOM
      1 N         -17.8720   34.1560  -28.5470 N.4       1 GLN         0.2380
      2 CA        -18.3000   35.5390  -28.7500 C.3       1 GLN         0.0671
      3 C         -19.7770   35.6300  -29.1480 C.2       1 GLN         0.2270
      4 O         -20.2340   34.9240  -30.0460 O.2       1 GLN        -0.3907
      5 CB        -17.4290   36.2150  -29.8100 C.3       1 GLN         0.0247
      6 CG        -17.9160   37.5940  -30.2220 C.3       1 GLN         0.0443
      7 CD        -17.0250   38.7100  -29.7150 C.2       1 GLN         0.1738
      8 OE1       -16.2750   38.5370  -28.7540 O.2       1 GLN        -0.3973
      9 NE2       -17.0980   39.8650  -30.3670 N.am      1 GLN        -0.3009
     10 N         -20.5060   36.5230  -28.4800 N.am      1 PHE        -0.2592
     11 CA        -21.9540   36.6160  -28.6260 C.3       1 PHE         0.1406
     12 C         -22.3450   37.4130  -29.8670 C.2       1 PHE         0.2060
     13 O         -21.7930   38.4830  -30.1370 O.2       1 PHE        -0.3942
     14 CB        -22.5560   37.2620  -27.3770 C.3       1 PHE         0.0214
     15 CG        -24.0450   37.4200  -27.4300 C.ar      1 PHE        -0.0386
     16 CD1       -24.8770   36.3210  -27.2870 C.ar      1 PHE        -0.0601
     17 CD2       -24.6170   38.6700  -27.6060 C.ar      1 PHE        -0.0601
     18 CE1       -26.2500   36.4640  -27.3280 C.ar      1 PHE        -0.0686
     19 CE2       -25.9960   38.8180  -27.6510 C.ar      1 PHE        -0.0686
     20 CZ        -26.8110   37.7160  -27.5120 C.ar      1 PHE        -0.0687
     21 N         -23.3240   36.8940  -30.6090 N.am      1 ASP        -0.2620
     22 CA        -23.7510   37.4650  -31.8840 C.3       1 ASP         0.1423
     23 C         -25.1720   37.9970  -31.7560 C.2       1 ASP         0.2056
     24 O         -26.1090   37.2240  -31.5280 O.2       1 ASP        -0.3943
     25 CB        -23.6640   36.4200  -32.9990 C.3       1 ASP         0.0406
     26 CG        -24.2710   36.9010  -34.3000 C.2       1 ASP         0.0393
     27 OD1       -23.9530   38.0320  -34.7260 O.co2     1 ASP        -0.5688
     28 OD2       -25.0560   36.1410  -34.9050 O.co2     1 ASP        -0.5688
     29 N         -25.3300   39.3140  -31.9310 N.am      1 LEU        -0.2636
     30 CA        -26.6190   39.9630  -31.6980 C.3       1 LEU         0.1312
     31 C         -27.6860   39.5190  -32.6900 C.2       1 LEU         0.2040
     32 O         -28.8770   39.5310  -32.3590 O.2       1 LEU        -0.3944
     33 CB        -26.4530   41.4800  -31.7580 C.3       1 LEU        -0.0101
     34 CG        -25.4810   42.0260  -30.7160 C.3       1 LEU        -0.0425
     35 CD1       -25.0960   43.4460  -31.0490 C.3       1 LEU        -0.0625
     36 CD2       -26.1030   41.9460  -29.3350 C.3       1 LEU        -0.0625
     37 N         -27.2890   39.1330  -33.9040 N.am      1 SER        -0.2616
     38 CA        -28.2690   38.7200  -34.9030 C.3       1 SER         0.1539
     39 C         -28.9910   37.4430  -34.4860 C.2       1 SER         0.2063
     40 O         -30.2160   37.3420  -34.6310 O.2       1 SER        -0.3943
     41 CB        -27.5870   38.5280  -36.2570 C.3       1 SER         0.0843
     42 OG        -27.0200   39.7410  -36.7220 O.3       1 SER        -0.3903
     43 N         -28.2570   36.4700  -33.9530 N.am      1 THR        -0.2613
     44 CA        -28.8190   35.1600  -33.6390 C.3       1 THR         0.1565
     45 C         -29.0520   34.9510  -32.1460 C.2       1 THR         0.2065
     46 O         -29.7570   34.0250  -31.7500 O.2       1 THR        -0.3943
     47 CB        -27.9040   34.0330  -34.1480 C.3       1 THR         0.0924
     48 OG1       -26.6340   34.1100  -33.4860 O.3       1 THR        -0.3874
     49 CG2       -27.6930   34.1550  -35.6480 C.3       1 THR        -0.0346
     50 N         -28.4510   35.8150  -31.3330 N.am      1 C67        -0.2636
     51 CA        -28.4960   35.6990  -29.8370 C.3       1 C67         0.1311
     52 C         -27.7860   34.4030  -29.4050 C.2       1 C67         0.2039
     53 O         -28.1200   33.7740  -28.4160 O.2       1 C67        -0.3944
     54 CB        -29.9140   35.6950  -29.2520 C.3       1 C67        -0.0092
     55 CG        -30.6640   37.0090  -29.4440 C.3       1 C67        -0.0156
     56 CD        -31.8560   37.0590  -28.4880 C.3       1 C67         0.0627
     57 NE        -32.6740   38.3040  -28.6960 N.pl3     1 C67        -0.2722
     58 CZ        -33.5590   38.6960  -27.9210 C.cat     1 C67         0.2904
     59 NH1       -33.8260   38.0360  -26.8760 N.pl3     1 C67        -0.2847
     60 NH2       -34.2960   39.9230  -28.2200 N.pl3     1 C67        -0.2707
     61 C01       -35.3020   40.9370  -30.2080 C.3       1 C67         0.0333
     62 C02       -34.0040   40.6970  -29.4230 C.3       1 C67         0.0739
     63 C03       -35.7010   42.3540  -30.3520 C.2       1 C67         0.0381
     64 O02       -34.7660   43.2730  -30.3070 O.co2     1 C67        -0.5689
     65 O03       -36.8560   42.6600  -30.5070 O.co2     1 C67        -0.5689
     66 N         -26.7770   34.0190  -30.1750 N.am      1 ARG        -0.2637
     67 CA        -26.0240   32.8120  -29.8740 C.3       1 ARG         0.1311
     68 C         -24.5280   33.0890  -29.8720 C.2       1 ARG         0.2039
     69 O         -24.0610   34.0300  -30.5130 O.2       1 ARG        -0.3944
     70 CB        -26.3540   31.7070  -30.8820 C.3       1 ARG        -0.0092
     71 CG        -27.8030   31.2420  -30.8520 C.3       1 ARG        -0.0156
     72 CD        -28.1490   30.5400  -29.5430 C.3       1 ARG         0.0627
     73 NE        -27.2100   29.4640  -29.2340 N.pl3     1 ARG        -0.2723
     74 CZ        -27.2440   28.2550  -29.7850 C.cat     1 ARG         0.2882
     75 NH1       -28.1730   27.9550  -30.6860 N.pl3     1 ARG        -0.2849
     76 NH2       -26.3440   27.3440  -29.4380 N.pl3     1 ARG        -0.2849
     77 N         -23.7820   32.2770  -29.1300 N.am      1 LEU        -0.2637
     78 CA        -22.3300   32.3210  -29.2220 C.3       1 LEU         0.1312
     79 C         -21.8930   31.7460  -30.5640 C.2       1 LEU         0.2033
     80 O         -22.4130   30.7230  -31.0180 O.2       1 LEU        -0.3944
     81 CB        -21.6970   31.5420  -28.0660 C.3       1 LEU        -0.0101
     82 CG        -22.0640   31.9940  -26.6450 C.3       1 LEU        -0.0425
     83 CD1       -21.5820   30.9920  -25.5980 C.3       1 LEU        -0.0625
     84 CD2       -21.5090   33.3810  -26.3510 C.3       1 LEU        -0.0625
     85 N         -20.9510   32.4210  -31.2140 N.am      1 LYS        -0.2695
     86 CA        -20.4840   31.9890  -32.5260 C.3       1 LYS         0.0944
     87 C         -19.0300   31.5320  -32.4630 C.2       1 LYS         0.0601
     88 O         -18.1440   32.3070  -32.1120 O.co2     1 LYS        -0.5666
     89 CB        -20.6450   33.1140  -33.5540 C.3       1 LYS        -0.0177
     90 CG        -20.8380   32.6260  -34.9850 C.3       1 LYS        -0.0446
     91 CD        -21.1730   33.7750  -35.9300 C.3       1 LYS        -0.0125
     92 CE        -21.5590   33.2610  -37.3100 C.3       1 LYS        -0.0354
     93 NZ        -21.7700   34.3730  -38.2810 N.4       1 LYS         0.2185
     94 OXT       -18.7210   30.3810  -32.7620 O.co2     1 LYS        -0.5666
     95 H1        -16.8981   34.1404  -28.2874 H         1 GLN         0.2015
     96 H2        -18.0006   33.6357  -29.4007 H         1 GLN         0.2015
     97 H3        -18.4221   33.7383  -27.8129 H         1 GLN         0.2015
     98 H4        -18.1697   36.0775  -27.7997 H         1 GLN         0.1100
     99 H5        -17.4107   35.5734  -30.7033 H         1 GLN         0.0370
    100 H6        -16.4096   36.3138  -29.4086 H         1 GLN         0.0370
    101 H7        -18.9288   37.7433  -29.8196 H         1 GLN         0.0506
    102 H8        -17.9472   37.6415  -31.3205 H         1 GLN         0.0506
    103 H9        -16.5337   40.6385  -30.0786 H         1 GLN         0.1814
    104 H10       -17.7173   39.9610  -31.1463 H         1 GLN         0.1814
    105 H11       -20.0433   37.1525  -27.8557 H         1 PHE         0.1886
    106 H12       -22.3588   35.5982  -28.7270 H         1 PHE         0.0823
    107 H13       -22.1067   38.2583  -27.2521 H         1 PHE         0.0474
    108 H14       -22.3054   36.6353  -26.5084 H         1 PHE         0.0474
    109 H15       -24.4450   35.3375  -27.1412 H         1 PHE         0.0557
    110 H16       -23.9805   39.5413  -27.7096 H         1 PHE         0.0557
    111 H17       -26.8887   35.5953  -27.2160 H         1 PHE         0.0599
    112 H18       -26.4317   39.8000  -27.7954 H         1 PHE         0.0599
    113 H19       -27.8885   37.8290  -27.5466 H         1 PHE         0.0559
    114 H20       -23.7887   36.0735  -30.2762 H         1 ASP         0.1884
    115 H21       -23.0830   38.3015  -32.1371 H         1 ASP         0.0819
    116 H22       -24.1982   35.5146  -32.6751 H         1 ASP         0.0478
    117 H23       -22.6051   36.1785  -33.1730 H         1 ASP         0.0478
    118 H24       -24.5503   39.8657  -32.2273 H         1 LEU         0.1883
    119 H25       -26.9594   39.6887  -30.6886 H         1 LEU         0.0800
    120 H26       -27.4364   41.9449  -31.5946 H         1 LEU         0.0315
    121 H27       -26.0809   41.7506  -32.7572 H         1 LEU         0.0315
    122 H28       -24.5715   41.4073  -30.7261 H         1 LEU         0.0298
    123 H29       -24.3961   43.8239  -30.2892 H         1 LEU         0.0232
    124 H30       -25.9972   44.0766  -31.0632 H         1 LEU         0.0232
    125 H31       -24.6139   43.4731  -32.0373 H         1 LEU         0.0232
    126 H32       -26.3749   40.9030  -29.1152 H         1 LEU         0.0232
    127 H33       -27.0050   42.5747  -29.3021 H         1 LEU         0.0232
    128 H34       -25.3803   42.3021  -28.5861 H         1 LEU         0.0232
    129 H35       -26.3150   39.1267  -34.1303 H         1 SER         0.1884
    130 H36       -29.0176   39.5199  -35.0010 H         1 SER         0.0823
    131 H37       -28.3311   38.1768  -36.9870 H         1 SER         0.0606
    132 H38       -26.7908   37.7760  -36.1543 H         1 SER         0.0606
    133 H39       -27.7041   40.3933  -36.8165 H         1 SER         0.2097
    134 H40       -27.2906   36.6413  -33.7616 H         1 THR         0.1884
    135 H41       -29.7892   35.0821  -34.1514 H         1 THR         0.0826
    136 H42       -28.3720   33.0623  -33.9271 H         1 THR         0.0639
    137 H43       -26.2327   34.9511  -33.6701 H         1 THR         0.2101
    138 H44       -27.0373   33.3421  -35.9933 H         1 THR         0.0257
    139 H45       -27.2255   35.1245  -35.8749 H         1 THR         0.0257
    140 H46       -28.6633   34.0866  -36.1616 H         1 THR         0.0257
    141 H47       -27.9456   36.5774  -31.7371 H         1 C67         0.1883
    142 H48       -27.9565   36.5600  -29.4155 H         1 C67         0.0800
    143 H49       -29.8434   35.4907  -28.1735 H         1 C67         0.0313
    144 H50       -30.4881   34.8938  -29.7402 H         1 C67         0.0313
    145 H51       -31.0228   37.0783  -30.4815 H         1 C67         0.0301
    146 H52       -29.9887   37.8511  -29.2325 H         1 C67         0.0301
    147 H53       -31.4853   37.0432  -27.4525 H         1 C67         0.0689
    148 H54       -32.4925   36.1791  -28.6631 H         1 C67         0.0689
    149 H55       -32.4867   38.8679  -29.5373 H         1 C67         0.2642
    150 H56       -34.5616   38.3637  -26.2338 H         1 C67         0.2615
    151 H57       -33.3079   37.1707  -26.6670 H         1 C67         0.2615
    152 H58       -35.0304   40.2453  -27.5738 H         1 C67         0.2643
    153 H59       -36.1149   40.4060  -29.6911 H         1 C67         0.0465
    154 H60       -35.1722   40.5165  -31.2161 H         1 C67         0.0465
    155 H61       -33.2929   40.1416  -30.0522 H         1 C67         0.0707
    156 H62       -33.5640   41.6642  -29.1384 H         1 C67         0.0707
    157 H63       -26.5304   34.5673  -30.9741 H         1 ARG         0.1883
    158 H64       -26.3136   32.4659  -28.8709 H         1 ARG         0.0800
    159 H65       -25.7103   30.8414  -30.6669 H         1 ARG         0.0313
    160 H66       -26.1348   32.0852  -31.8914 H         1 ARG         0.0313
    161 H67       -27.9693   30.5430  -31.6849 H         1 ARG         0.0301
    162 H68       -28.4595   32.1166  -30.9706 H         1 ARG         0.0301
    163 H69       -29.1607   30.1160  -29.6241 H         1 ARG         0.0689
    164 H70       -28.1248   31.2776  -28.7273 H         1 ARG         0.0689
    165 H71       -26.4714   29.6555  -28.5421 H         1 ARG         0.2642
    166 H72       -28.1951   27.0166  -31.1101 H         1 ARG         0.2615
    167 H73       -28.8712   28.6608  -30.9605 H         1 ARG         0.2615
    168 H74       -25.6222   27.5730  -28.7398 H         1 ARG         0.2615
    169 H75       -26.3671   26.4078  -29.8668 H         1 ARG         0.2615
    170 H76       -24.2210   31.6318  -28.5046 H         1 LEU         0.1883
    171 H77       -22.0009   33.3688  -29.1606 H         1 LEU         0.0800
    172 H78       -20.6048   31.6219  -28.1692 H         1 LEU         0.0315
    173 H79       -21.9990   30.4893  -28.1690 H         1 LEU         0.0315
    174 H80       -23.1609   32.0472  -26.5822 H         1 LEU         0.0298
    175 H81       -21.8613   31.3469  -24.5950 H         1 LEU         0.0232
    176 H82       -20.4882   30.8937  -25.6607 H         1 LEU         0.0232
    177 H83       -22.0494   30.0138  -25.7841 H         1 LEU         0.0232
    178 H84       -21.8662   34.0881  -27.1141 H         1 LEU         0.0232
    179 H85       -20.4097   33.3473  -26.3683 H         1 LEU         0.0232
    180 H86       -21.8503   33.7097  -25.3583 H         1 LEU         0.0232
    181 H87       -20.5557   33.2391  -30.7963 H         1 LYS         0.1875
    182 H88       -21.1002   31.1362  -32.8469 H         1 LYS         0.0726
    183 H89       -19.7430   33.7428  -33.5221 H         1 LYS         0.0305
    184 H90       -21.5218   33.7159  -33.2731 H         1 LYS         0.0305
    185 H91       -21.6605   31.8959  -35.0053 H         1 LYS         0.0269
    186 H92       -19.9103   32.1428  -35.3255 H         1 LYS         0.0269
    187 H93       -20.2939   34.4294  -36.0243 H         1 LYS         0.0317
    188 H94       -22.0140   34.3484  -35.5130 H         1 LYS         0.0317
    189 H95       -22.4903   32.6817  -37.2256 H         1 LYS         0.0813
    190 H96       -20.7550   32.6103  -37.6844 H         1 LYS         0.0813
    191 H97       -22.0231   33.9914  -39.1790 H         1 LYS         0.1994
    192 H98       -20.9197   34.9069  -38.3704 H         1 LYS         0.1994
    193 H99       -22.5098   34.9723  -37.9500 H         1 LYS         0.1994
@<TRIPOS>BOND
     1    1    2 1  
     2    2    3 1  
     3    2    5 1  
     4    3    4 2  
     5    3   10 am 
     6    5    6 1  
     7    6    7 1  
     8    7    8 2  
     9    7    9 am 
    10   10   11 1  
    11   11   12 1  
    12   11   14 1  
    13   12   13 2  
    14   12   21 am 
    15   14   15 1  
    16   15   16 ar 
    17   15   17 ar 
    18   16   18 ar 
    19   17   19 ar 
    20   18   20 ar 
    21   19   20 ar 
    22   21   22 1  
    23   22   23 1  
    24   22   25 1  
    25   23   24 2  
    26   23   29 am 
    27   25   26 1  
    28   26   27 ar 
    29   26   28 ar 
    30   29   30 1  
    31   30   31 1  
    32   30   33 1  
    33   31   32 2  
    34   31   37 am 
    35   33   34 1  
    36   34   35 1  
    37   34   36 1  
    38   37   38 1  
    39   38   39 1  
    40   38   41 1  
    41   39   40 2  
    42   39   43 am 
    43   41   42 1  
    44   43   44 1  
    45   44   45 1  
    46   44   47 1  
    47   45   46 2  
    48   45   50 am 
    49   47   48 1  
    50   47   49 1  
    51   50   51 1  
    52   51   52 1  
    53   51   54 1  
    54   52   53 2  
    55   52   66 am 
    56   54   55 1  
    57   55   56 1  
    58   56   57 1  
    59   57   58 ar 
    60   58   59 ar 
    61   58   60 ar 
    62   60   62 1  
    63   62   61 1  
    64   61   63 1  
    65   63   64 ar 
    66   63   65 ar 
    67   66   67 1  
    68   67   68 1  
    69   67   70 1  
    70   68   69 2  
    71   68   77 am 
    72   70   71 1  
    73   71   72 1  
    74   72   73 1  
    75   73   74 ar 
    76   74   75 ar 
    77   74   76 ar 
    78   77   78 1  
    79   78   79 1  
    80   78   81 1  
    81   79   80 2  
    82   79   85 am 
    83   81   82 1  
    84   82   83 1  
    85   82   84 1  
    86   85   86 1  
    87   86   87 1  
    88   86   89 1  
    89   87   88 ar 
    90   87   94 ar 
    91   89   90 1  
    92   90   91 1  
    93   91   92 1  
    94   92   93 1  
    95    1   95 1  
    96    1   96 1  
    97    1   97 1  
    98    2   98 1  
    99    5   99 1  
   100    5  100 1  
   101    6  101 1  
   102    6  102 1  
   103    9  103 1  
   104    9  104 1  
   105   10  105 1  
   106   11  106 1  
   107   14  107 1  
   108   14  108 1  
   109   16  109 1  
   110   17  110 1  
   111   18  111 1  
   112   19  112 1  
   113   20  113 1  
   114   21  114 1  
   115   22  115 1  
   116   25  116 1  
   117   25  117 1  
   118   29  118 1  
   119   30  119 1  
   120   33  120 1  
   121   33  121 1  
   122   34  122 1  
   123   35  123 1  
   124   35  124 1  
   125   35  125 1  
   126   36  126 1  
   127   36  127 1  
   128   36  128 1  
   129   37  129 1  
   130   38  130 1  
   131   41  131 1  
   132   41  132 1  
   133   42  133 1  
   134   43  134 1  
   135   44  135 1  
   136   47  136 1  
   137   48  137 1  
   138   49  138 1  
   139   49  139 1  
   140   49  140 1  
   141   50  141 1  
   142   51  142 1  
   143   54  143 1  
   144   54  144 1  
   145   55  145 1  
   146   55  146 1  
   147   56  147 1  
   148   56  148 1  
   149   57  149 1  
   150   59  150 1  
   151   59  151 1  
   152   60  152 1  
   153   61  153 1  
   154   61  154 1  
   155   62  155 1  
   156   62  156 1  
   157   66  157 1  
   158   67  158 1  
   159   70  159 1  
   160   70  160 1  
   161   71  161 1  
   162   71  162 1  
   163   72  163 1  
   164   72  164 1  
   165   73  165 1  
   166   75  166 1  
   167   75  167 1  
   168   76  168 1  
   169   76  169 1  
   170   77  170 1  
   171   78  171 1  
   172   81  172 1  
   173   81  173 1  
   174   82  174 1  
   175   83  175 1  
   176   83  176 1  
   177   83  177 1  
   178   84  178 1  
   179   84  179 1  
   180   84  180 1  
   181   85  181 1  
   182   86  182 1  
   183   89  183 1  
   184   89  184 1  
   185   90  185 1  
   186   90  186 1  
   187   91  187 1  
   188   91  188 1  
   189   92  189 1  
   190   92  190 1  
   191   93  191 1  
   192   93  192 1  
   193   93  193 1  
@<TRIPOS>SUBSTRUCTURE
     1 GLN         1

