4ish_ligand
  -I-interpret- 

 65 70  0  0  0  0  0  0  0  0999 V2000
    9.4490   34.2270   28.5980 C   0  0  0  0  0
    9.8130   33.8700   27.2800 C   0  0  0  0  0
    9.2480   34.5450   26.1900 C   0  0  0  0  0
    8.3180   35.5900   26.3910 C   0  0  0  0  0
    7.9460   35.9530   27.7130 C   0  0  0  0  0
    8.5350   35.2810   28.7970 C   0  0  0  0  0
    9.9680   33.4930   29.7610 C   0  0  0  0  0
   10.5080   32.2760   29.6510 N   0  0  0  0  0
    9.8820   34.0840   30.9840 N   0  0  0  0  0
    7.7360   36.1770   25.2930 N   0  0  0  0  0
    6.9150   37.3820   25.4000 C   0  0  0  0  0
    6.1010   37.5070   26.7180 C   0  0  0  0  0
    6.8510   36.9860   27.9280 C   0  0  0  0  0
    5.3100   38.7490   27.0590 C   0  0  0  0  0
    6.3800   39.3190   27.9450 C   0  0  0  0  0
    7.2530   38.3410   28.4640 C   0  0  0  0  0
    6.5600   40.6850   28.2540 C   0  0  0  0  0
    7.6240   41.0460   29.1050 C   0  0  0  0  0
    8.4960   40.0720   29.6360 C   0  0  0  0  0
    8.3170   38.7090   29.3160 C   0  0  0  0  0
    5.9190   37.5040   24.2520 C   0  0  0  0  0
    5.7870   38.7350   23.5420 C   0  0  0  0  0
    4.7640   38.8100   22.5890 C   0  0  0  0  0
    3.9370   37.7120   22.2860 C   0  0  0  0  0
    4.0850   36.4620   22.9300 C   0  0  0  0  0
    5.0880   36.3930   23.9350 C   0  0  0  0  0
    6.6970   39.9050   23.6670 C   0  0  0  0  0
    6.2760   41.1670   24.1240 C   0  0  0  0  0
    7.1780   42.2670   24.1800 C   0  0  0  0  0
    8.5340   42.1310   23.7800 C   0  0  0  0  0
    8.9530   40.8600   23.3330 C   0  0  0  0  0
    8.0420   39.7710   23.2850 C   0  0  0  0  0
    9.4800   43.2500   23.8410 C   0  0  0  0  0
    9.0620   44.2980   24.5890 O   0  0  0  0  0
   10.5350   43.1990   23.2770 O   0  0  0  0  0
    3.2670   35.4260   22.5010 O   0  0  0  0  0
    3.3970   34.1840   23.1710 C   0  0  0  0  0
    2.9750   37.8640   21.3090 O   0  0  0  0  0
   10.5333   33.0695   27.1114 H   0  0  0  0  0
    9.5288   34.2610   25.1758 H   0  0  0  0  0
    8.2797   35.5811   29.8133 H   0  0  0  0  0
   10.8534   31.7944   30.4811 H   0  0  0  0  0
   10.2289   33.5979   31.8109 H   0  0  0  0  0
    9.4706   35.0130   31.0737 H   0  0  0  0  0
    7.8815   35.7586   24.3742 H   0  0  0  0  0
    7.6559   38.1811   25.3736 H   0  0  0  0  0
    5.2819   36.8493   26.4273 H   0  0  0  0  0
    6.2859   36.3410   28.6009 H   0  0  0  0  0
    4.3170   38.6143   27.4878 H   0  0  0  0  0
    4.9559   39.3657   26.2329 H   0  0  0  0  0
    5.8919   41.4424   27.8441 H   0  0  0  0  0
    7.7758   42.0955   29.3572 H   0  0  0  0  0
    9.3102   40.3731   30.2952 H   0  0  0  0  0
    8.9896   37.9525   29.7203 H   0  0  0  0  0
    4.6024   39.7512   22.0635 H   0  0  0  0  0
    5.2250   35.4592   24.4803 H   0  0  0  0  0
    5.2421   41.3050   24.4405 H   0  0  0  0  0
    6.8208   43.2329   24.5370 H   0  0  0  0  0
    9.9869   40.7121   23.0211 H   0  0  0  0  0
    8.3983   38.8001   22.9406 H   0  0  0  0  0
    8.1880   44.1112   24.9394 H   0  0  0  0  0
    4.4176   33.8177   23.0598 H   0  0  0  0  0
    3.1709   34.3179   24.2289 H   0  0  0  0  0
    2.7021   33.4645   22.7379 H   0  0  0  0  0
    2.4896   37.0418   21.2088 H   0  0  0  0  0
  1  2  4  0  0  0
  1  6  4  0  0  0
  1  7  1  0  0  0
  2  3  4  0  0  0
  3  4  4  0  0  0
  4  5  4  0  0  0
  4 10  1  0  0  0
  5  6  4  0  0  0
  5 13  1  0  0  0
  7  8  2  0  0  0
  7  9  1  0  0  0
 10 11  1  0  0  0
 11 12  1  0  0  0
 11 21  1  0  0  0
 12 13  1  0  0  0
 12 14  1  0  0  0
 13 16  1  0  0  0
 14 15  1  0  0  0
 15 16  4  0  0  0
 15 17  4  0  0  0
 16 20  4  0  0  0
 17 18  4  0  0  0
 18 19  4  0  0  0
 19 20  4  0  0  0
 21 22  4  0  0  0
 21 26  4  0  0  0
 22 23  4  0  0  0
 22 27  1  0  0  0
 23 24  4  0  0  0
 24 25  4  0  0  0
 24 38  1  0  0  0
 25 26  4  0  0  0
 25 36  1  0  0  0
 27 28  4  0  0  0
 27 32  4  0  0  0
 28 29  4  0  0  0
 29 30  4  0  0  0
 30 31  4  0  0  0
 30 33  1  0  0  0
 31 32  4  0  0  0
 33 34  1  0  0  0
 33 35  2  0  0  0
 36 37  1  0  0  0
  2 39  1  0  0  0
  3 40  1  0  0  0
  6 41  1  0  0  0
  8 42  1  0  0  0
  9 43  1  0  0  0
  9 44  1  0  0  0
 10 45  1  0  0  0
 11 46  1  0  0  0
 12 47  1  0  0  0
 13 48  1  0  0  0
 14 49  1  0  0  0
 14 50  1  0  0  0
 17 51  1  0  0  0
 18 52  1  0  0  0
 19 53  1  0  0  0
 20 54  1  0  0  0
 23 55  1  0  0  0
 26 56  1  0  0  0
 28 57  1  0  0  0
 29 58  1  0  0  0
 31 59  1  0  0  0
 32 60  1  0  0  0
 34 61  1  0  0  0
 37 62  1  0  0  0
 37 63  1  0  0  0
 37 64  1  0  0  0
 38 65  1  0  0  0
M  END
$$$$
