3i6c_ligand
  -I-interpret- 

 41 43  0  0  0  0  0  0  0  0999 V2000
   18.4940  -12.3540   10.9830 F   0  0  0  0  0
   19.1940  -11.9510   12.0720 C   0  0  0  0  0
   18.5530  -12.0360   13.2970 C   0  0  0  0  0
   19.2250  -11.5890   14.4330 C   0  0  0  0  0
   20.4280  -10.9350   14.2960 C   0  0  0  0  0
   21.0130  -10.7390   13.0400 C   0  0  0  0  0
   20.3400  -11.1990   11.9060 C   0  0  0  0  0
   22.2990   -9.9390   12.8250 C   0  0  0  0  0
   22.0010   -8.5030   12.4350 C   0  0  0  0  0
   21.0200   -7.8400   13.3790 C   0  0  0  0  0
   21.3380   -7.5600   14.4910 O   0  0  0  0  0
   19.7940   -7.6230   12.9050 O   0  0  0  0  0
   21.4250   -8.3450   11.0860 N   0  0  0  0  0
   22.2310   -8.5070   10.0070 C   0  0  0  0  0
   23.3920   -8.8720   10.1930 O   0  0  0  0  0
   21.7050   -8.2470    8.6530 C   0  0  0  0  0
   20.6820   -7.3430    8.4730 C   0  0  0  0  0
   20.2540   -7.0600    7.1650 C   0  0  0  0  0
   20.8480   -7.6680    6.0330 C   0  0  0  0  0
   21.9480   -8.5240    6.2350 C   0  0  0  0  0
   22.3150   -8.8300    7.5180 C   0  0  0  0  0
   19.2170   -6.1180    6.9660 C   0  0  0  0  0
   18.8470   -5.7740    5.6860 C   0  0  0  0  0
   19.4100   -6.4230    4.5840 C   0  0  0  0  0
   20.4060   -7.3400    4.7510 C   0  0  0  0  0
   17.5448  -12.4437   13.3708 H   0  0  0  0  0
   18.8008  -11.7562   15.4230 H   0  0  0  0  0
   20.9362  -10.5616   15.1850 H   0  0  0  0  0
   20.7127  -10.9685   10.9080 H   0  0  0  0  0
   22.8656  -10.4055   12.0191 H   0  0  0  0  0
   22.8628   -9.9339   13.7578 H   0  0  0  0  0
   22.9843   -8.0343   12.4747 H   0  0  0  0  0
   19.7478   -7.9189   11.9929 H   0  0  0  0  0
   20.4378   -8.1179   10.9667 H   0  0  0  0  0
   20.2134   -6.8565    9.3285 H   0  0  0  0  0
   22.4961   -8.9346    5.3870 H   0  0  0  0  0
   23.1135   -9.5558    7.6717 H   0  0  0  0  0
   18.7142   -5.6674    7.8217 H   0  0  0  0  0
   18.1080   -4.9881    5.5303 H   0  0  0  0  0
   19.0497   -6.1943    3.5810 H   0  0  0  0  0
   20.8574   -7.8174    3.8812 H   0  0  0  0  0
  1  2  1  0  0  0
  2  3  4  0  0  0
  2  7  4  0  0  0
  3  4  4  0  0  0
  4  5  4  0  0  0
  5  6  4  0  0  0
  6  7  4  0  0  0
  6  8  1  0  0  0
  8  9  1  0  0  0
  9 10  1  0  0  0
  9 13  1  0  0  0
 10 11  2  0  0  0
 10 12  1  0  0  0
 13 14  1  0  0  0
 14 15  2  0  0  0
 14 16  1  0  0  0
 16 17  4  0  0  0
 16 21  4  0  0  0
 17 18  4  0  0  0
 18 19  4  0  0  0
 18 22  4  0  0  0
 19 20  4  0  0  0
 19 25  4  0  0  0
 20 21  4  0  0  0
 22 23  4  0  0  0
 23 24  4  0  0  0
 24 25  4  0  0  0
  3 26  1  0  0  0
  4 27  1  0  0  0
  5 28  1  0  0  0
  7 29  1  0  0  0
  8 30  1  0  0  0
  8 31  1  0  0  0
  9 32  1  0  0  0
 12 33  1  0  0  0
 13 34  1  0  0  0
 17 35  1  0  0  0
 20 36  1  0  0  0
 21 37  1  0  0  0
 22 38  1  0  0  0
 23 39  1  0  0  0
 24 40  1  0  0  0
 25 41  1  0  0  0
M  END
$$$$
