2oaz_ligand
  -I-interpret- 

 39 41  0  0  0  0  0  0  0  0999 V2000
   16.6680   29.9440   18.3680 C   0  0  0  0  0
   16.1300   30.4250   19.6350 C   0  0  0  0  0
   17.4290   28.7750   18.2590 N   0  0  0  0  0
   16.4010   30.6830   17.1740 C   0  0  0  0  0
   15.3500   31.6400   19.6160 C   0  0  0  0  0
   16.3310   29.7310   21.0090 C   0  0  0  0  0
   18.6610   28.5920   17.7740 C   0  0  0  0  0
   15.6300   31.8750   17.1770 C   0  0  0  0  0
   15.1100   32.3500   18.3870 C   0  0  0  0  0
   17.6240   30.1520   21.7100 C   0  0  0  0  0
   16.2360   28.1920   20.9620 C   0  0  0  0  0
   19.5580   29.4260   17.2650 N   0  0  0  0  0
   19.1690   27.3360   17.7660 N   0  0  0  0  0
   20.6040   28.6050   16.9660 C   0  0  0  0  0
   20.4090   27.3150   17.2520 N   0  0  0  0  0
   22.1380   29.0570   16.2620 S   0  0  0  0  0
   22.2900   30.8690   15.9020 C   0  0  0  0  0
   21.1950   31.8930   16.1430 C   0  0  0  0  0
   21.2560   32.9760   16.9930 C   0  0  0  0  0
   19.6800   31.8580   15.3360 S   0  0  0  0  0
   20.0720   33.7640   16.9840 C   0  0  0  0  0
   19.1290   33.2750   16.1290 C   0  0  0  0  0
   16.9723   27.9305   18.6035 H   0  0  0  0  0
   16.8032   30.3188   16.2287 H   0  0  0  0  0
   14.9361   32.0259   20.5476 H   0  0  0  0  0
   15.4866   30.0865   21.5994 H   0  0  0  0  0
   15.4450   32.4142   16.2480 H   0  0  0  0  0
   14.5183   33.2653   18.3985 H   0  0  0  0  0
   17.6287   29.7598   22.7270 H   0  0  0  0  0
   18.4786   29.7551   21.1621 H   0  0  0  0  0
   17.6826   31.2400   21.7386 H   0  0  0  0  0
   17.0893   27.7932   20.4134 H   0  0  0  0  0
   16.2394   27.7978   21.9782 H   0  0  0  0  0
   15.3125   27.9014   20.4613 H   0  0  0  0  0
   22.3917   30.8850   14.8169 H   0  0  0  0  0
   23.0637   31.1834   16.6024 H   0  0  0  0  0
   22.1245   33.2057   17.6103 H   0  0  0  0  0
   19.9340   34.6581   17.5920 H   0  0  0  0  0
   18.1500   33.7271   15.9699 H   0  0  0  0  0
  1  2  4  0  0  0
  1  3  1  0  0  0
  1  4  4  0  0  0
  2  5  4  0  0  0
  2  6  1  0  0  0
  3  7  1  0  0  0
  4  8  4  0  0  0
  5  9  4  0  0  0
  6 10  1  0  0  0
  6 11  1  0  0  0
  7 12  4  0  0  0
  7 13  4  0  0  0
  8  9  4  0  0  0
 12 14  4  0  0  0
 13 15  4  0  0  0
 14 15  4  0  0  0
 14 16  1  0  0  0
 16 17  1  0  0  0
 17 18  1  0  0  0
 18 19  4  0  0  0
 18 20  4  0  0  0
 19 21  4  0  0  0
 20 22  4  0  0  0
 21 22  4  0  0  0
  3 23  1  0  0  0
  4 24  1  0  0  0
  5 25  1  0  0  0
  6 26  1  0  0  0
  8 27  1  0  0  0
  9 28  1  0  0  0
 10 29  1  0  0  0
 10 30  1  0  0  0
 10 31  1  0  0  0
 11 32  1  0  0  0
 11 33  1  0  0  0
 11 34  1  0  0  0
 17 35  1  0  0  0
 17 36  1  0  0  0
 19 37  1  0  0  0
 21 38  1  0  0  0
 22 39  1  0  0  0
M  END
$$$$
