5v35_ligand
  -I-interpret- 

 41 40  0  0  0  0  0  0  0  0999 V2000
    7.0960    8.6860    5.5100 C   0  0  0  0  0
    5.6730    9.1360    5.6530 C   0  0  0  0  0
    4.7450    8.3660    6.2860 C   0  0  0  0  0
    3.3030    8.8680    6.4290 C   0  0  0  0  0
    3.0450    8.9350    7.9660 C   0  0  0  0  0
    2.0060    9.9860    8.3400 C   0  0  0  0  0
    1.7090   10.2770    9.6370 C   0  0  0  0  0
    0.6550   11.3090    9.9660 C   0  0  0  0  0
    1.2150   12.2960   11.0320 C   0  0  0  0  0
    0.2650   12.3670   12.2020 C   0  0  0  0  0
   -0.4710   13.4490   12.5320 C   0  0  0  0  0
   -0.5100   14.7300   11.7930 C   0  0  0  0  0
   -1.3510   13.4160   13.6750 C   0  0  0  0  0
    5.0400    7.0050    6.9100 C   0  0  0  0  0
    2.3600    9.6080   10.8470 C   0  0  0  0  0
    7.5291    8.5349    6.4988 H   0  0  0  0  0
    7.1254    7.7500    4.9522 H   0  0  0  0  0
    7.6644    9.4471    4.9754 H   0  0  0  0  0
    5.3748   10.1002    5.2415 H   0  0  0  0  0
    2.5950    8.2059    5.9305 H   0  0  0  0  0
    3.1663    9.8401    5.9552 H   0  0  0  0  0
    3.9831    9.2023    8.4525 H   0  0  0  0  0
    2.6696    7.9630    8.2860 H   0  0  0  0  0
    1.4852   10.5206    7.5456 H   0  0  0  0  0
   -0.2316   10.8119   10.3596 H   0  0  0  0  0
    0.3894   11.8594    9.0634 H   0  0  0  0  0
    1.3202   13.2866   10.5895 H   0  0  0  0  0
    2.1881   11.9451   11.3756 H   0  0  0  0  0
    0.1659   11.4792   12.8266 H   0  0  0  0  0
    0.4897   15.1635   11.7669 H   0  0  0  0  0
   -0.8562   14.5504   10.7752 H   0  0  0  0  0
   -1.1922   15.4166   12.2944 H   0  0  0  0  0
   -2.0935   12.6299   13.5377 H   0  0  0  0  0
   -0.7690   13.2147   14.5743 H   0  0  0  0  0
   -1.8530   14.3785   13.7734 H   0  0  0  0  0
    5.4038    6.3248    6.1399 H   0  0  0  0  0
    5.7987    7.1185    7.6843 H   0  0  0  0  0
    4.1274    6.6030    7.3500 H   0  0  0  0  0
    2.1676    8.5356   10.8149 H   0  0  0  0  0
    3.4351    9.7864   10.8245 H   0  0  0  0  0
    1.9400   10.0265   11.7616 H   0  0  0  0  0
  1  2  1  0  0  0
  2  3  2  0  0  0
  3  4  1  0  0  0
  3 14  1  0  0  0
  4  5  1  0  0  0
  5  6  1  0  0  0
  6  7  2  0  0  0
  7  8  1  0  0  0
  7 15  1  0  0  0
  8  9  1  0  0  0
  9 10  1  0  0  0
 10 11  2  0  0  0
 11 12  1  0  0  0
 11 13  1  0  0  0
  1 16  1  0  0  0
  1 17  1  0  0  0
  1 18  1  0  0  0
  2 19  1  0  0  0
  4 20  1  0  0  0
  4 21  1  0  0  0
  5 22  1  0  0  0
  5 23  1  0  0  0
  6 24  1  0  0  0
  8 25  1  0  0  0
  8 26  1  0  0  0
  9 27  1  0  0  0
  9 28  1  0  0  0
 10 29  1  0  0  0
 12 30  1  0  0  0
 12 31  1  0  0  0
 12 32  1  0  0  0
 13 33  1  0  0  0
 13 34  1  0  0  0
 13 35  1  0  0  0
 14 36  1  0  0  0
 14 37  1  0  0  0
 14 38  1  0  0  0
 15 39  1  0  0  0
 15 40  1  0  0  0
 15 41  1  0  0  0
M  END
$$$$
