6aji_ligand
  -I-interpret- 

 52 55  0  0  0  0  0  0  0  0999 V2000
   35.7420    1.0540  -14.5280 N   0  0  0  0  0
   38.6230    3.1270  -13.4050 C   0  0  0  0  0
   37.4710    5.2280  -15.5510 O   0  0  0  0  0
   37.3980    2.4880  -14.0470 C   0  0  0  0  0
   34.8310   -0.0380  -14.5590 C   0  0  0  0  0
   33.5780    0.1000  -14.0310 C   0  0  0  0  0
   32.6750   -0.9550  -14.0490 C   0  0  0  0  0
   33.0510   -2.1580  -14.6130 C   0  0  0  0  0
   34.3030   -2.3040  -15.1460 C   0  0  0  0  0
   35.2130   -1.2520  -15.1330 C   0  0  0  0  0
   37.1840    0.2210  -12.6470 C   0  0  0  0  0
   36.2890   -0.4180  -11.7730 C   0  0  0  0  0
   36.7570   -1.3130  -10.8380 C   0  0  0  0  0
   38.1470   -1.6070  -10.7660 C   0  0  0  0  0
   36.7390    1.2060  -13.7100 C   0  0  0  0  0
   39.0200   -0.9960  -11.6250 C   0  0  0  0  0
   38.5410   -0.0860  -12.5720 C   0  0  0  0  0
   36.6070    2.9870  -15.1100 C   0  0  0  0  0
   36.7810    4.2960  -15.9400 C   0  0  0  0  0
   36.5020    4.6440  -19.2590 C   0  0  0  0  0
   36.3930    5.6110  -20.4390 C   0  0  0  0  0
   35.1460    6.2800  -20.4810 C   0  0  0  0  0
   34.8250    6.8790  -19.2230 C   0  0  0  0  0
   34.8730    5.8700  -18.0970 C   0  0  0  0  0
   35.6580    2.1020  -15.3550 N   0  0  0  0  0
   36.1000    4.3070  -17.2350 N   0  0  0  0  0
   36.1450    5.2180  -18.0210 N   0  3  0  0  0
   31.9170   -3.4670  -14.6260 Cl  0  0  0  0  0
   33.0730    1.6020  -13.3070 Cl  0  0  0  0  0
   38.7580   -2.7300   -9.6180 Cl  0  0  0  0  0
   38.4267    3.3040  -12.3475 H   0  0  0  0  0
   39.4773    2.4583  -13.5103 H   0  0  0  0  0
   38.8383    4.0743  -13.8994 H   0  0  0  0  0
   31.6793   -0.8346  -13.6221 H   0  0  0  0  0
   34.5912   -3.2582  -15.5870 H   0  0  0  0  0
   36.2070   -1.3734  -15.5635 H   0  0  0  0  0
   35.2219   -0.2046  -11.8354 H   0  0  0  0  0
   36.0619   -1.7970  -10.1520 H   0  0  0  0  0
   40.0857   -1.2183  -11.5709 H   0  0  0  0  0
   39.2387    0.3899  -13.2611 H   0  0  0  0  0
   37.5446    4.3346  -19.1863 H   0  0  0  0  0
   35.8129    3.8207  -19.4474 H   0  0  0  0  0
   36.4945    5.0326  -21.3573 H   0  0  0  0  0
   37.1739    6.3635  -20.3293 H   0  0  0  0  0
   34.3727    5.5505  -20.7215 H   0  0  0  0  0
   35.2040    7.0680  -21.2319 H   0  0  0  0  0
   33.8138    7.2817  -19.2815 H   0  0  0  0  0
   35.5569    7.6600  -19.0168 H   0  0  0  0  0
   34.1108    5.1132  -18.2825 H   0  0  0  0  0
   34.7012    6.3962  -17.1580 H   0  0  0  0  0
   35.5495    3.4868  -17.4893 H   0  0  0  0  0
   36.8208    5.9291  -17.7418 H   0  0  0  0  0
  1  5  1  0  0  0
  1 15  4  0  0  0
 25  1  4  0  0  0
  4  2  1  0  0  0
 19  3  2  0  0  0
  4 15  4  0  0  0
 18  4  4  0  0  0
  5  6  4  0  0  0
  5 10  4  0  0  0
  6  7  4  0  0  0
  6 29  1  0  0  0
  7  8  4  0  0  0
  9  8  4  0  0  0
  8 28  1  0  0  0
 10  9  4  0  0  0
 11 12  4  0  0  0
 15 11  1  0  0  0
 11 17  4  0  0  0
 12 13  4  0  0  0
 13 14  4  0  0  0
 16 14  4  0  0  0
 14 30  1  0  0  0
 17 16  4  0  0  0
 19 18  1  0  0  0
 18 25  4  0  0  0
 26 19  1  0  0  0
 20 21  1  0  0  0
 27 20  1  0  0  0
 21 22  1  0  0  0
 23 22  1  0  0  0
 24 23  1  0  0  0
 27 24  1  0  0  0
 26 27  1  0  0  0
  2 31  1  0  0  0
  2 32  1  0  0  0
  2 33  1  0  0  0
  7 34  1  0  0  0
  9 35  1  0  0  0
 10 36  1  0  0  0
 12 37  1  0  0  0
 13 38  1  0  0  0
 16 39  1  0  0  0
 17 40  1  0  0  0
 20 41  1  0  0  0
 20 42  1  0  0  0
 21 43  1  0  0  0
 21 44  1  0  0  0
 22 45  1  0  0  0
 22 46  1  0  0  0
 23 47  1  0  0  0
 23 48  1  0  0  0
 24 49  1  0  0  0
 24 50  1  0  0  0
 26 51  1  0  0  0
 27 52  1  0  0  0
M  END
$$$$
