2nsx_ligand
  -I-interpret- 

 24 24  0  0  0  0  0  0  0  0999 V2000
   10.8720  -12.0990   39.6530 O   0  0  0  0  0
   10.8210  -10.8350   40.2930 C   0  0  0  0  0
   12.2240  -10.3220   40.6370 C   0  0  0  0  0
   12.8950  -11.2290   41.5170 O   0  0  0  0  0
   12.1170   -8.9760   41.3250 C   0  0  0  0  0
   11.2170   -8.1220   40.5420 N   0  3  0  0  0
    9.9040   -8.5670   40.0790 C   0  0  0  0  0
   10.0890   -9.8890   39.3520 C   0  0  0  0  0
    8.7370  -10.4570   38.8760 C   0  0  0  0  0
    7.9790  -10.8460   40.0370 O   0  0  0  0  0
   11.3289  -12.7250   40.2195 H   0  0  0  0  0
   10.2923  -10.9077   41.2434 H   0  0  0  0  0
   12.7911  -10.2338   39.7103 H   0  0  0  0  0
   12.9701  -12.0873   41.0936 H   0  0  0  0  0
   13.1019   -8.5141   41.3931 H   0  0  0  0  0
   11.7238   -9.1043   42.3335 H   0  0  0  0  0
   11.7323   -7.9740   39.6743 H   0  0  0  0  0
   10.9922   -7.3657   41.1884 H   0  0  0  0  0
    9.4683   -7.8254   39.4094 H   0  0  0  0  0
    9.2278   -8.6924   40.9247 H   0  0  0  0  0
   10.6827   -9.7511   38.4484 H   0  0  0  0  0
    8.8995  -11.3186   38.2284 H   0  0  0  0  0
    8.1924   -9.7025   38.3083 H   0  0  0  0  0
    7.1320  -11.2029   39.7599 H   0  0  0  0  0
  1  2  1  0  0  0
  2  3  1  0  0  0
  2  8  1  0  0  0
  3  4  1  0  0  0
  3  5  1  0  0  0
  5  6  1  0  0  0
  6  7  1  0  0  0
  7  8  1  0  0  0
  8  9  1  0  0  0
  9 10  1  0  0  0
  1 11  1  0  0  0
  2 12  1  0  0  0
  3 13  1  0  0  0
  4 14  1  0  0  0
  5 15  1  0  0  0
  5 16  1  0  0  0
  6 17  1  0  0  0
  6 18  1  0  0  0
  7 19  1  0  0  0
  7 20  1  0  0  0
  8 21  1  0  0  0
  9 22  1  0  0  0
  9 23  1  0  0  0
 10 24  1  0  0  0
M  END
$$$$
