1iky_ligand
  -I-interpret- 

 45 47  0  0  0  0  0  0  0  0999 V2000
   -6.7450  144.9320  173.0870 C   0  0  0  0  0
   -8.0380  144.4230  173.4340 C   0  0  0  0  0
   -8.6910  143.5870  172.5340 N   0  0  0  0  0
   -8.1540  143.2040  171.2900 C   0  0  0  0  0
   -6.8630  143.6820  170.9020 C   0  0  0  0  0
   -6.1610  144.5490  171.8060 C   0  0  0  0  0
   -8.9220  142.3440  170.4380 N   0  0  0  0  0
  -10.2420  142.0310  170.5760 C   0  0  0  0  0
  -10.8040  141.2360  169.7250 S   0  0  0  0  0
  -10.9120  142.5950  171.6400 N   0  0  0  0  0
  -12.2980  142.3220  171.8730 C   0  0  0  0  0
  -13.0660  143.3560  172.7010 C   0  0  0  0  0
  -13.0230  141.8170  173.0670 C   0  0  0  0  0
  -12.2260  141.4410  174.3570 C   0  0  0  0  0
  -12.4060  140.1020  174.8280 C   0  0  0  0  0
  -11.7190  139.6550  176.0280 C   0  0  0  0  0
  -10.8620  140.5310  176.7570 C   0  0  0  0  0
  -10.6430  141.8860  176.3210 C   0  0  0  0  0
  -11.3270  142.3570  175.1080 C   0  0  0  0  0
  -11.1430  143.6500  174.6600 O   0  0  0  0  0
   -9.7100  142.8040  177.1290 C   0  0  0  0  0
   -9.5340  143.9540  176.7340 O   0  0  0  0  0
   -8.9920  142.3540  178.3970 C   0  0  0  0  0
  -13.2240  139.2690  174.1470 O   0  0  0  0  0
   -5.9200  145.8590  173.9610 C   0  0  0  0  0
   -5.4110  146.6420  174.6890 N   0  0  0  0  0
  -12.9980  138.0490  173.9420 C   0  0  0  0  0
   -8.5015  144.6856  174.3850 H   0  0  0  0  0
   -6.4240  143.3959  169.9462 H   0  0  0  0  0
   -5.1763  144.9270  171.5309 H   0  0  0  0  0
   -8.4314  141.9237  169.6487 H   0  0  0  0  0
  -10.4112  143.2184  172.2732 H   0  0  0  0  0
  -12.2798  141.8789  170.8773 H   0  0  0  0  0
  -13.7771  144.1730  172.5786 H   0  0  0  0  0
  -12.9313  144.3351  173.1607 H   0  0  0  0  0
  -13.7473  141.0176  173.2232 H   0  0  0  0  0
  -11.8613  138.6322  176.3769 H   0  0  0  0  0
  -10.3653  140.1698  177.6575 H   0  0  0  0  0
  -10.5396  144.1087  175.2491 H   0  0  0  0  0
   -7.9149  142.4384  178.2525 H   0  0  0  0  0
   -9.2987  142.9860  179.2304 H   0  0  0  0  0
   -9.2510  141.3171  178.6112 H   0  0  0  0  0
  -12.0683  137.9419  173.3831 H   0  0  0  0  0
  -12.9108  137.5314  174.8973 H   0  0  0  0  0
  -13.8196  137.6200  173.3685 H   0  0  0  0  0
  1  2  4  0  0  0
  1  6  4  0  0  0
  1 25  1  0  0  0
  2  3  4  0  0  0
  3  4  4  0  0  0
  4  5  4  0  0  0
  4  7  1  0  0  0
  5  6  4  0  0  0
  7  8  1  0  0  0
  8  9  2  0  0  0
  8 10  1  0  0  0
 10 11  1  0  0  0
 11 12  1  0  0  0
 11 13  1  0  0  0
 12 13  1  0  0  0
 13 14  1  0  0  0
 14 15  4  0  0  0
 14 19  4  0  0  0
 15 16  4  0  0  0
 15 24  1  0  0  0
 16 17  4  0  0  0
 17 18  4  0  0  0
 18 19  4  0  0  0
 18 21  1  0  0  0
 19 20  1  0  0  0
 21 22  2  0  0  0
 21 23  1  0  0  0
 24 27  1  0  0  0
 25 26  3  0  0  0
  2 28  1  0  0  0
  5 29  1  0  0  0
  6 30  1  0  0  0
  7 31  1  0  0  0
 10 32  1  0  0  0
 11 33  1  0  0  0
 12 34  1  0  0  0
 12 35  1  0  0  0
 13 36  1  0  0  0
 16 37  1  0  0  0
 17 38  1  0  0  0
 20 39  1  0  0  0
 23 40  1  0  0  0
 23 41  1  0  0  0
 23 42  1  0  0  0
 27 43  1  0  0  0
 27 44  1  0  0  0
 27 45  1  0  0  0
M  END
$$$$
