### 
### Created by X-TOOL on Mon Sep 10 21:12:48 2018
### 

@<TRIPOS>MOLECULE
1fsw_ligand
   23    23     1     0     0
SMALL
GAST_HUCK


@<TRIPOS>ATOM
      1 B          26.6470    4.9870   16.4360 B         1 CTB         0.7129
      2 O1         25.4890    4.0140   16.5890 O.3       1 CTB        -0.4968
      3 O2         26.7990    5.8050   17.6650 O.3       1 CTB        -0.4968
      4 C3         26.4140    5.9160   15.2130 C.3       1 CTB         0.0419
      5 N4         25.1870    6.7370   15.3720 N.am      1 CTB        -0.2949
      6 C5         24.5250    7.1750   14.2720 C.2       1 CTB         0.1884
      7 O6         24.9200    6.8790   13.1250 O.2       1 CTB        -0.3937
      8 C7         23.2610    8.0240   14.4350 C.3       1 CTB         0.0817
      9 C8         22.1300    7.2390   14.6630 C.2       1 CTB         0.0307
     10 C9         21.8250    6.8610   15.9410 C.2       1 CTB        -0.0791
     11 C10        20.6920    6.0780   15.9320 C.2       1 CTB        -0.0924
     12 C11        20.1970    5.8990   14.6420 C.2       1 CTB        -0.0189
     13 S1         21.1100    6.6930   13.3940 S.3       1 CTB        -0.0419
     14 H1         25.4037    3.4979   15.7960 H         1 CTB         0.1667
     15 H2         27.5252    6.4075   17.5552 H         1 CTB         0.1667
     16 H3         26.3139    5.2970   14.3092 H         1 CTB         0.0396
     17 H4         27.2795    6.5861   15.1045 H         1 CTB         0.0396
     18 H5         24.8504    6.9659   16.2854 H         1 CTB         0.1837
     19 H6         23.1067    8.6111   13.5177 H         1 CTB         0.0685
     20 H7         23.3982    8.7052   15.2877 H         1 CTB         0.0685
     21 H8         22.3910    7.1367   16.8296 H         1 CTB         0.0284
     22 H9         20.2381    5.6506   16.8249 H         1 CTB         0.0373
     23 H10        19.3071    5.3075   14.4319 H         1 CTB         0.0603
@<TRIPOS>BOND
     1    1    2 1  
     2    1    3 1  
     3    1    4 1  
     4    4    5 1  
     5    5    6 am 
     6    6    7 2  
     7    6    8 1  
     8    8    9 1  
     9    9   10 2  
    10    9   13 1  
    11   10   11 1  
    12   11   12 2  
    13   12   13 1  
    14    2   14 1  
    15    3   15 1  
    16    4   16 1  
    17    4   17 1  
    18    5   18 1  
    19    8   19 1  
    20    8   20 1  
    21   10   21 1  
    22   11   22 1  
    23   12   23 1  
@<TRIPOS>SUBSTRUCTURE
     1 CTB         1

