1fsw_ligand
  -I-interpret- 

 23 23  0  0  0  0  0  0  0  0999 V2000
   26.6470    4.9870   16.4360 B   0  0  0  0  0
   25.4890    4.0140   16.5890 O   0  0  0  0  0
   26.7990    5.8050   17.6650 O   0  0  0  0  0
   26.4140    5.9160   15.2130 C   0  0  0  0  0
   25.1870    6.7370   15.3720 N   0  0  0  0  0
   24.5250    7.1750   14.2720 C   0  0  0  0  0
   24.9200    6.8790   13.1250 O   0  0  0  0  0
   23.2610    8.0240   14.4350 C   0  0  0  0  0
   22.1300    7.2390   14.6630 C   0  0  0  0  0
   21.8250    6.8610   15.9410 C   0  0  0  0  0
   20.6920    6.0780   15.9320 C   0  0  0  0  0
   20.1970    5.8990   14.6420 C   0  0  0  0  0
   21.1100    6.6930   13.3940 S   0  0  0  0  0
   25.6468    3.4473   17.3476 H   0  0  0  0  0
   26.9427    5.2264   18.4174 H   0  0  0  0  0
   26.2976    5.2931   14.3261 H   0  0  0  0  0
   27.2676    6.5881   15.1250 H   0  0  0  0  0
   24.8436    6.9704   16.3037 H   0  0  0  0  0
   23.1062    8.5854   13.5136 H   0  0  0  0  0
   23.3995    8.6801   15.2943 H   0  0  0  0  0
   22.3915    7.1369   16.8304 H   0  0  0  0  0
   20.2377    5.6502   16.8257 H   0  0  0  0  0
   19.3063    5.3070   14.4317 H   0  0  0  0  0
  1  2  1  0  0  0
  1  3  1  0  0  0
  1  4  1  0  0  0
  4  5  1  0  0  0
  5  6  1  0  0  0
  6  7  2  0  0  0
  6  8  1  0  0  0
  8  9  1  0  0  0
  9 10  4  0  0  0
  9 13  4  0  0  0
 10 11  4  0  0  0
 11 12  4  0  0  0
 12 13  4  0  0  0
  2 14  1  0  0  0
  3 15  1  0  0  0
  4 16  1  0  0  0
  4 17  1  0  0  0
  5 18  1  0  0  0
  8 19  1  0  0  0
  8 20  1  0  0  0
 10 21  1  0  0  0
 11 22  1  0  0  0
 12 23  1  0  0  0
M  END
$$$$
