### 
### Created by X-TOOL on Mon Sep 10 21:13:05 2018
### 

@<TRIPOS>MOLECULE
2kup_ligand
  322   327     1     0     0
SMALL
GAST_HUCK


@<TRIPOS>ATOM
      1 N         -21.9410   -6.0980    3.1550 N.4       1 LEU         0.2379
      2 CA        -20.9310   -5.1710    3.7390 C.3       1 LEU         0.0652
      3 C         -21.3180   -4.8180    5.1810 C.2       1 LEU         0.2268
      4 O         -22.0950   -3.8910    5.4150 O.2       1 LEU        -0.3907
      5 CB        -20.7280   -3.8900    2.8830 C.3       1 LEU         0.0102
      6 CG        -19.7140   -3.9660    1.7200 C.3       1 LEU        -0.0394
      7 CD1       -18.2940   -4.2440    2.2080 C.3       1 LEU        -0.0623
      8 CD2       -20.0440   -5.0230    0.6670 C.3       1 LEU        -0.0623
      9 N         -20.7880   -5.5610    6.1560 N.am      1 PHE        -0.2592
     10 CA        -21.0290   -5.3310    7.5860 C.3       1 PHE         0.1406
     11 C         -20.1730   -4.1710    8.1120 C.2       1 PHE         0.2060
     12 O         -18.9600   -4.1580    7.8980 O.2       1 PHE        -0.3942
     13 CB        -20.7310   -6.6260    8.3510 C.3       1 PHE         0.0214
     14 CG        -21.2520   -6.6320    9.7750 C.ar      1 PHE        -0.0386
     15 CD1       -20.4850   -6.0850   10.8240 C.ar      1 PHE        -0.0601
     16 CD2       -22.5180   -7.1820   10.0500 C.ar      1 PHE        -0.0601
     17 CE1       -20.9940   -6.0750   12.1360 C.ar      1 PHE        -0.0686
     18 CE2       -23.0200   -7.1830   11.3630 C.ar      1 PHE        -0.0686
     19 CZ        -22.2610   -6.6230   12.4060 C.ar      1 PHE        -0.0687
     20 N         -20.7980   -3.2230    8.8230 N.am      1 ARG        -0.2636
     21 CA        -20.1190   -2.0950    9.4740 C.3       1 ARG         0.1311
     22 C         -19.7360   -2.4830   10.9090 C.2       1 ARG         0.2039
     23 O         -20.6090   -2.6230   11.7710 O.2       1 ARG        -0.3944
     24 CB        -21.0170   -0.8410    9.4800 C.3       1 ARG        -0.0092
     25 CG        -21.1430   -0.1070    8.1340 C.3       1 ARG        -0.0156
     26 CD        -21.9970   -0.8280    7.0820 C.3       1 ARG         0.0627
     27 NE        -22.2420    0.0480    5.9200 N.pl3     1 ARG        -0.2723
     28 CZ        -22.9620   -0.2470    4.8450 C.cat     1 ARG         0.2882
     29 NH1       -23.4530   -1.4520    4.6390 N.pl3     1 ARG        -0.2849
     30 NH2       -23.1980    0.6850    3.9470 N.pl3     1 ARG        -0.2849
     31 N         -18.4390   -2.6590   11.1780 N.am      1 LEU        -0.2637
     32 CA        -17.9130   -2.9750   12.5140 C.3       1 LEU         0.1312
     33 C         -17.9200   -1.7690   13.4620 C.2       1 LEU         0.2039
     34 O         -17.8780   -0.6120   13.0340 O.2       1 LEU        -0.3944
     35 CB        -16.4880   -3.5440   12.3930 C.3       1 LEU        -0.0101
     36 CG        -16.4100   -5.0110   11.9540 C.3       1 LEU        -0.0425
     37 CD1       -14.9380   -5.3720   11.7510 C.3       1 LEU        -0.0625
     38 CD2       -16.9830   -5.9560   13.0110 C.3       1 LEU        -0.0625
     39 N         -17.9250   -2.0720   14.7660 N.am      1 ARG        -0.2637
     40 CA        -17.9220   -1.0900   15.8640 C.3       1 ARG         0.1311
     41 C         -16.5320   -0.5010   16.1590 C.2       1 ARG         0.2040
     42 O         -16.4270    0.6060   16.6880 O.2       1 ARG        -0.3944
     43 CB        -18.4670   -1.7500   17.1430 C.3       1 ARG        -0.0092
     44 CG        -19.9130   -2.2550   16.9980 C.3       1 ARG        -0.0156
     45 CD        -20.4450   -2.8280   18.3180 C.3       1 ARG         0.0627
     46 NE        -19.7500   -4.0720   18.7040 N.pl3     1 ARG        -0.2723
     47 CZ        -19.6130   -4.5530   19.9340 C.cat     1 ARG         0.2882
     48 NH1       -20.0340   -3.9010   20.9990 N.pl3     1 ARG        -0.2849
     49 NH2       -19.0460   -5.7250   20.1090 N.pl3     1 ARG        -0.2849
     50 N         -15.4690   -1.2320   15.8170 N.am      1 HIS        -0.2625
     51 CA        -14.0580   -0.8910   16.0560 C.3       1 HIS         0.1369
     52 C         -13.1180   -1.7220   15.1540 C.2       1 HIS         0.2055
     53 O         -13.5590   -2.6660   14.4890 O.2       1 HIS        -0.3942
     54 CB        -13.7190   -1.0630   17.5500 C.3       1 HIS         0.0145
     55 CG        -13.4550   -2.4880   17.9640 C.2       1 HIS        -0.0027
     56 ND1       -12.2000   -3.0000   18.2990 N.2       1 HIS        -0.3252
     57 CD2       -14.3740   -3.4940   18.0230 C.2       1 HIS         0.0291
     58 CE1       -12.3940   -4.3040   18.5520 C.2       1 HIS         0.0907
     59 NE2       -13.6900   -4.6310   18.3950 N.pl3     1 HIS        -0.2752
     60 N         -11.8270   -1.3740   15.1100 N.am      1 PHE        -0.2618
     61 CA        -10.8650   -2.0130   14.2090 C.3       1 PHE         0.1406
     62 C         -10.3690   -3.3620   14.7830 C.2       1 PHE         0.2085
     63 O          -9.8630   -3.3780   15.9090 O.2       1 PHE        -0.3940
     64 CB         -9.7250   -1.0230   13.9060 C.3       1 PHE         0.0214
     65 CG         -8.9840   -1.3340   12.6240 C.ar      1 PHE        -0.0386
     66 CD1        -9.6970   -1.4140   11.4140 C.ar      1 PHE        -0.0601
     67 CD2        -7.5920   -1.5360   12.6240 C.ar      1 PHE        -0.0601
     68 CE1        -9.0370   -1.7500   10.2270 C.ar      1 PHE        -0.0686
     69 CE2        -6.9260   -1.8450   11.4270 C.ar      1 PHE        -0.0686
     70 CZ         -7.6510   -1.9640   10.2300 C.ar      1 PHE        -0.0687
     71 N         -10.4890   -4.4900   14.0450 N.am      1 PRO        -0.2497
     72 CA        -10.2060   -5.8340   14.5560 C.3       1 PRO         0.1338
     73 C          -8.7070   -6.1970   14.5550 C.2       1 PRO         0.2041
     74 O          -8.3620   -7.3430   14.8420 O.2       1 PRO        -0.3944
     75 CB        -11.0140   -6.7680   13.6480 C.3       1 PRO        -0.0104
     76 CG        -10.9220   -6.0670   12.2970 C.3       1 PRO        -0.0281
     77 CD        -11.0190   -4.5940   12.6880 C.3       1 PRO         0.0369
     78 N          -7.8160   -5.2520   14.2280 N.am      1 CYS        -0.2629
     79 CA         -6.3880   -5.4850   14.0070 C.3       1 CYS         0.1396
     80 C          -5.5100   -4.5330   14.8420 C.2       1 CYS         0.2045
     81 O          -5.7290   -3.3180   14.8500 O.2       1 CYS        -0.3944
     82 CB         -6.1570   -5.3410   12.4970 C.3       1 CYS         0.0311
     83 SG         -4.4050   -5.5900   12.1380 S.3       1 CYS        -0.1735
     84 N          -4.5020   -5.0870   15.5320 N.am      1 GLY        -0.2664
     85 CA         -3.5670   -4.3480   16.3990 C.3       1 GLY         0.1201
     86 C          -2.2590   -3.9110   15.7240 C.2       1 GLY         0.2009
     87 O          -1.5830   -3.0220   16.2420 O.2       1 GLY        -0.3947
     88 N          -1.9040   -4.5030   14.5780 N.am      1 ASN        -0.2618
     89 CA         -0.6840   -4.2030   13.8110 C.3       1 ASN         0.1476
     90 C          -1.0470   -3.5660   12.4600 C.2       1 ASN         0.2063
     91 O          -1.6390   -4.2220   11.6030 O.2       1 ASN        -0.3942
     92 CB          0.1290   -5.4950   13.6100 C.3       1 ASN         0.0773
     93 CG          0.7340   -6.0160   14.9130 C.2       1 ASN         0.1780
     94 OD1         1.3760   -5.2890   15.6620 O.2       1 ASN        -0.3970
     95 ND2         0.5560   -7.2890   15.2200 N.am      1 ASN        -0.3007
     96 N          -0.7100   -2.2900   12.2620 N.am      1 VAL        -0.2633
     97 CA         -1.1810   -1.4960   11.1200 C.3       1 VAL         0.1333
     98 C          -0.2240   -0.3480   10.7860 C.2       1 VAL         0.2043
     99 O           0.2430    0.3800   11.6590 O.2       1 VAL        -0.3944
    100 CB         -2.6320   -1.0080   11.3550 C.3       1 VAL        -0.0063
    101 CG1        -2.8260   -0.1840   12.6390 C.3       1 VAL        -0.0584
    102 CG2        -3.1400   -0.1950   10.1640 C.3       1 VAL        -0.0584
    103 N           0.0470   -0.2130    9.4890 N.am      1 ASN        -0.2616
    104 CA          0.7710    0.8830    8.8510 C.3       1 ASN         0.1476
    105 C          -0.2170    1.9540    8.3470 C.2       1 ASN         0.2064
    106 O          -1.0900    1.6880    7.5210 O.2       1 ASN        -0.3942
    107 CB          1.6960    0.3520    7.7290 C.3       1 ASN         0.0773
    108 CG          1.1430   -0.7350    6.7940 C.2       1 ASN         0.1780
    109 OD1         0.0270   -1.2240    6.9110 O.2       1 ASN        -0.3970
    110 ND2         1.9480   -1.1960    5.8520 N.am      1 ASN        -0.3007
    111 N          -0.0820    3.1840    8.8530 N.am      1 TYR        -0.2620
    112 CA         -0.9090    4.3280    8.4500 C.3       1 TYR         0.1390
    113 C          -0.3410    4.9720    7.1710 C.2       1 TYR         0.2055
    114 O           0.7540    5.5430    7.1840 O.2       1 TYR        -0.3942
    115 CB         -1.0030    5.3270    9.6110 C.3       1 TYR         0.0163
    116 CG         -1.5540    4.7360   10.8980 C.ar      1 TYR        -0.0493
    117 CD1        -2.9230    4.4200   10.9950 C.ar      1 TYR        -0.0685
    118 CD2        -0.7030    4.4880   11.9920 C.ar      1 TYR        -0.0685
    119 CE1        -3.4430    3.8560   12.1750 C.ar      1 TYR        -0.0398
    120 CE2        -1.2150    3.9270   13.1790 C.ar      1 TYR        -0.0398
    121 CZ         -2.5900    3.6080   13.2730 C.ar      1 TYR         0.0805
    122 OH         -3.0970    3.0700   14.4170 O.3       1 TYR        -0.3376
    123 N          -1.0720    4.8420    6.0580 N.am      1 GLY        -0.2663
    124 CA         -0.6180    5.2410    4.7180 C.3       1 GLY         0.1201
    125 C          -0.9100    6.7070    4.4150 C.2       1 GLY         0.2009
    126 O           0.0090    7.5170    4.2880 O.2       1 GLY        -0.3947
    127 N          -2.1950    7.0450    4.2940 N.am      1 TYR        -0.2624
    128 CA         -2.6650    8.3730    3.8850 C.3       1 TYR         0.1390
    129 C          -3.0650    9.2220    5.1060 C.2       1 TYR         0.2057
    130 O          -3.9570    8.8550    5.8730 O.2       1 TYR        -0.3942
    131 CB         -3.8160    8.2180    2.8710 C.3       1 TYR         0.0163
    132 CG         -3.3700    7.7170    1.5040 C.ar      1 TYR        -0.0493
    133 CD1        -3.0160    6.3660    1.3230 C.ar      1 TYR        -0.0685
    134 CD2        -3.3010    8.6000    0.4080 C.ar      1 TYR        -0.0685
    135 CE1        -2.5920    5.9030    0.0640 C.ar      1 TYR        -0.0398
    136 CE2        -2.8760    8.1440   -0.8540 C.ar      1 TYR        -0.0398
    137 CZ         -2.5240    6.7870   -1.0330 C.ar      1 TYR         0.0805
    138 OH         -2.1480    6.3230   -2.2570 O.3       1 TYR        -0.3376
    139 N          -2.4130   10.3780    5.2710 N.am      1 GLN        -0.2634
    140 CA         -2.6210   11.3290    6.3760 C.3       1 GLN         0.1330
    141 C          -3.6150   12.4570    6.0110 C.2       1 GLN         0.2040
    142 O          -3.5300   13.5700    6.5320 O.2       1 GLN        -0.3944
    143 CB         -1.2540   11.8450    6.8790 C.3       1 GLN         0.0045
    144 CG         -0.4370   12.6270    5.8320 C.3       1 GLN         0.0412
    145 CD          0.7970   13.2930    6.4470 C.2       1 GLN         0.1737
    146 OE1         0.8510   14.5030    6.6420 O.2       1 GLN        -0.3973
    147 NE2         1.8330   12.5450    6.7760 N.am      1 GLN        -0.3009
    148 N          -4.5490   12.1800    5.0950 N.am      1 GLN        -0.2636
    149 CA         -5.5380   13.1210    4.5600 C.3       1 GLN         0.1330
    150 C          -6.9540   12.5260    4.7110 C.2       1 GLN         0.2035
    151 O          -7.1210   11.3030    4.7150 O.2       1 GLN        -0.3944
    152 CB         -5.1570   13.4330    3.1000 C.3       1 GLN         0.0045
    153 CG         -5.9210   14.6260    2.5040 C.3       1 GLN         0.0412
    154 CD         -5.4000   14.9830    1.1080 C.2       1 GLN         0.1737
    155 OE1        -5.8720   14.4920    0.0900 O.2       1 GLN        -0.3973
    156 NE2        -4.3970   15.8340    1.0000 N.am      1 GLN        -0.3009
    157 N          -7.9630   13.3920    4.8850 N.am      1 GLN        -0.2693
    158 CA         -9.3440   13.0330    5.2580 C.3       1 GLN         0.0964
    159 C         -10.0570   12.1340    4.2290 C.2       1 GLN         0.0602
    160 O         -10.1360   12.5110    3.0400 O.co2     1 GLN        -0.5666
    161 CB        -10.1160   14.3350    5.5510 C.3       1 GLN        -0.0010
    162 CG        -11.4520   14.1390    6.2970 C.3       1 GLN         0.0407
    163 CD        -12.6210   13.6350    5.4410 C.2       1 GLN         0.1737
    164 OE1       -13.2540   12.6250    5.7260 O.2       1 GLN        -0.3973
    165 NE2       -12.9980   14.3420    4.3930 N.am      1 GLN        -0.3009
    166 OXT       -10.5430   11.0450    4.6030 O.co2     1 GLN        -0.5666
    167 H1        -21.6805   -6.3255    2.2082 H         1 LEU         0.2015
    168 H2        -22.8458   -5.6536    3.1570 H         1 LEU         0.2015
    169 H3        -21.9800   -6.9420    3.7047 H         1 LEU         0.2015
    170 H4        -19.9685   -5.7027    3.7675 H         1 LEU         0.1098
    171 H5        -20.3941   -3.0900    3.5601 H         1 LEU         0.0348
    172 H6        -21.7043   -3.6225    2.4526 H         1 LEU         0.0348
    173 H7        -19.7220   -2.9836    1.2252 H         1 LEU         0.0299
    174 H8        -17.6122   -4.2886    1.3459 H         1 LEU         0.0232
    175 H9        -18.2717   -5.2048    2.7432 H         1 LEU         0.0232
    176 H10       -17.9752   -3.4389    2.8863 H         1 LEU         0.0232
    177 H11       -21.0634   -4.8574    0.2882 H         1 LEU         0.0232
    178 H12       -19.9789   -6.0237    1.1190 H         1 LEU         0.0232
    179 H13       -19.3274   -4.9487   -0.1643 H         1 LEU         0.0232
    180 H14       -20.1908   -6.3200    5.8964 H         1 PHE         0.1886
    181 H15       -22.0883   -5.0712    7.7289 H         1 PHE         0.0823
    182 H16       -19.6406   -6.7677    8.3806 H         1 PHE         0.0474
    183 H17       -21.1950   -7.4631    7.8089 H         1 PHE         0.0474
    184 H18       -19.5036   -5.6723   10.6200 H         1 PHE         0.0557
    185 H19       -23.1083   -7.6065    9.2460 H         1 PHE         0.0557
    186 H20       -20.4085   -5.6441   12.9401 H         1 PHE         0.0599
    187 H21       -23.9919   -7.6153   11.5715 H         1 PHE         0.0599
    188 H22       -22.6519   -6.6137   13.4170 H         1 PHE         0.0559
    189 H23       -21.7915   -3.2876    8.9166 H         1 ARG         0.1883
    190 H24       -19.2015   -1.8650    8.9125 H         1 ARG         0.0800
    191 H25       -20.6048   -0.1331   10.2141 H         1 ARG         0.0313
    192 H26       -22.0256   -1.1485    9.7934 H         1 ARG         0.0313
    193 H27       -20.1321    0.0254    7.7211 H         1 ARG         0.0301
    194 H28       -21.5938    0.8784    8.3231 H         1 ARG         0.0301
    195 H29       -22.9607   -1.1104    7.5309 H         1 ARG         0.0689
    196 H30       -21.4693   -1.7331    6.7470 H         1 ARG         0.0689
    197 H31       -21.8105    0.9829    5.9459 H         1 ARG         0.2642
    198 H32       -24.0076   -1.6444    3.7926 H         1 ARG         0.2615
    199 H33       -23.2823   -2.2018    5.3243 H         1 ARG         0.2615
    200 H34       -22.8265    1.6361    4.0820 H         1 ARG         0.2615
    201 H35       -23.7543    0.4636    3.1089 H         1 ARG         0.2615
    202 H36       -17.7868   -2.5704   10.4251 H         1 LEU         0.1883
    203 H37       -18.5584   -3.7496   12.9538 H         1 LEU         0.0800
    204 H38       -16.0010   -3.4557   13.3753 H         1 LEU         0.0315
    205 H39       -15.9402   -2.9380   11.6563 H         1 LEU         0.0315
    206 H40       -16.9641   -5.1384   11.0123 H         1 LEU         0.0298
    207 H41       -14.8584   -6.4226   11.4350 H         1 LEU         0.0232
    208 H42       -14.3922   -5.2308   12.6955 H         1 LEU         0.0232
    209 H43       -14.5046   -4.7223   10.9764 H         1 LEU         0.0232
    210 H44       -18.0441   -5.7189   13.1782 H         1 LEU         0.0232
    211 H45       -16.4272   -5.8335   13.9523 H         1 LEU         0.0232
    212 H46       -16.8900   -6.9953   12.6628 H         1 LEU         0.0232
    213 H47       -17.9313   -3.0407   15.0141 H         1 ARG         0.1883
    214 H48       -18.5886   -0.2625   15.5797 H         1 ARG         0.0800
    215 H49       -18.4350   -1.0117   17.9578 H         1 ARG         0.0313
    216 H50       -17.8225   -2.6045   17.3969 H         1 ARG         0.0313
    217 H51       -19.9412   -3.0420   16.2300 H         1 ARG         0.0301
    218 H52       -20.5546   -1.4170   16.6881 H         1 ARG         0.0301
    219 H53       -21.5181   -3.0418   18.2049 H         1 ARG         0.0689
    220 H54       -20.3017   -2.0807   19.1123 H         1 ARG         0.0689
    221 H55       -19.3288   -4.6225   17.9421 H         1 ARG         0.2642
    222 H56       -19.9083   -4.3096   21.9361 H         1 ARG         0.2615
    223 H57       -20.4887   -2.9828   20.8943 H         1 ARG         0.2615
    224 H58       -18.7065   -6.2593   19.2965 H         1 ARG         0.2615
    225 H59       -18.9410   -6.1096   21.0587 H         1 ARG         0.2615
    226 H60       -15.6498   -2.0984   15.3516 H         1 HIS         0.1885
    227 H61       -13.9164    0.1688   15.7975 H         1 HIS         0.0817
    228 H62       -14.5650   -0.6831   18.1416 H         1 HIS         0.0420
    229 H63       -12.8207   -0.4678   17.7706 H         1 HIS         0.0420
    230 H64       -15.4403   -3.4143   17.8164 H         1 HIS         0.0729
    231 H65       -11.6103   -5.0014   18.8442 H         1 HIS         0.1199
    232 H66       -14.0989   -5.5668   18.5293 H         1 HIS         0.2361
    233 H67       -11.5054   -0.6476   15.7174 H         1 PHE         0.1885
    234 H68       -11.3782   -2.2312   13.2609 H         1 PHE         0.0823
    235 H69        -9.0074   -1.0518   14.7392 H         1 PHE         0.0474
    236 H70       -10.1527   -0.0128   13.8252 H         1 PHE         0.0474
    237 H71       -10.7624   -1.2145   11.4012 H         1 PHE         0.0557
    238 H72        -7.0328   -1.4531   13.5489 H         1 PHE         0.0557
    239 H73        -9.5975   -1.8450    9.3040 H         1 PHE         0.0599
    240 H74        -5.8520   -1.9917   11.4268 H         1 PHE         0.0599
    241 H75        -7.1397   -2.2210    9.3093 H         1 PHE         0.0559
    242 H76       -10.5722   -5.9137   15.5902 H         1 PRO         0.0802
    243 H77       -12.0579   -6.8470   13.9856 H         1 PRO         0.0313
    244 H78       -10.5648   -7.7713   13.6076 H         1 PRO         0.0313
    245 H79       -11.7531   -6.3600   11.6386 H         1 PRO         0.0287
    246 H80        -9.9656   -6.2849   11.7993 H         1 PRO         0.0287
    247 H81       -10.4229   -3.9778   11.9988 H         1 PRO         0.0524
    248 H82       -12.0675   -4.2624   12.6630 H         1 PRO         0.0524
    249 H83        -8.1521   -4.3156   14.1271 H         1 CYS         0.1884
    250 H84        -6.1429   -6.5146   14.3066 H         1 CYS         0.0808
    251 H85        -6.4595   -4.3343   12.1729 H         1 CYS         0.0422
    252 H86        -6.7531   -6.0936   11.9602 H         1 CYS         0.0422
    253 H87        -4.1299   -6.5127   12.4364 H         1 CYS         0.1019
    254 H88        -4.3754   -6.0757   15.4521 H         1 GLY         0.1881
    255 H89        -3.3109   -4.9934   17.2521 H         1 GLY         0.0763
    256 H90        -4.0805   -3.4458   16.7629 H         1 GLY         0.0763
    257 H91        -2.5160   -5.2049   14.2136 H         1 ASN         0.1885
    258 H92        -0.0733   -3.4879   14.3817 H         1 ASN         0.0826
    259 H93         0.9438   -5.2919   12.8995 H         1 ASN         0.0551
    260 H94        -0.5346   -6.2682   13.1956 H         1 ASN         0.0551
    261 H95         0.9405   -7.6577   16.0663 H         1 ASN         0.1814
    262 H96         0.0368   -7.8835   14.6060 H         1 ASN         0.1814
    263 H97        -0.1048   -1.8514   12.9264 H         1 VAL         0.1883
    264 H98        -1.2000   -2.1619   10.2447 H         1 VAL         0.0802
    265 H99        -3.2602   -1.9065   11.4449 H         1 VAL         0.0343
    266 H100       -3.8800    0.1189   12.7245 H         1 VAL         0.0234
    267 H101       -2.1891    0.7120   12.5995 H         1 VAL         0.0234
    268 H102       -2.5477   -0.7935   13.5114 H         1 VAL         0.0234
    269 H103       -3.0057   -0.7759    9.2396 H         1 VAL         0.0234
    270 H104       -2.5723    0.7444   10.0924 H         1 VAL         0.0234
    271 H105       -4.2074    0.0313   10.3030 H         1 VAL         0.0234
    272 H106       -0.2808   -0.9410    8.8869 H         1 ASN         0.1885
    273 H107        1.4114    1.3537    9.6115 H         1 ASN         0.0826
    274 H108        2.5948   -0.0584    8.2125 H         1 ASN         0.0551
    275 H109        1.9767    1.2112    7.1021 H         1 ASN         0.0551
    276 H110        1.6273   -1.9038    5.2226 H         1 ASN         0.1814
    277 H111        2.8776   -0.8369    5.7689 H         1 ASN         0.1814
    278 H112        0.6231    3.3334    9.5461 H         1 TYR         0.1885
    279 H113       -1.9233    3.9655    8.2268 H         1 TYR         0.0821
    280 H114       -1.6595    6.1539    9.3024 H         1 TYR         0.0453
    281 H115        0.0057    5.7158    9.8141 H         1 TYR         0.0453
    282 H116       -3.5807    4.6125   10.1551 H         1 TYR         0.0530
    283 H117        0.3513    4.7298   11.9208 H         1 TYR         0.0530
    284 H118       -4.4972    3.6122   12.2410 H         1 TYR         0.0525
    285 H119       -0.5560    3.7401   14.0191 H         1 TYR         0.0525
    286 H120       -4.0286    2.9190   14.3088 H         1 TYR         0.2458
    287 H121       -1.9870    4.4476    6.1432 H         1 GLY         0.1881
    288 H122       -1.1314    4.6174    3.9713 H         1 GLY         0.0763
    289 H123        0.4674    5.0761    4.6496 H         1 GLY         0.0763
    290 H124       -2.8827    6.3474    4.4953 H         1 TYR         0.1885
    291 H125       -1.8360    8.8895    3.3791 H         1 TYR         0.0821
    292 H126       -4.2972    9.1985    2.7405 H         1 TYR         0.0453
    293 H127       -4.5450    7.5035    3.2809 H         1 TYR         0.0453
    294 H128       -3.0706    5.6784    2.1592 H         1 TYR         0.0530
    295 H129       -3.5778    9.6400    0.5380 H         1 TYR         0.0530
    296 H130       -2.3164    4.8624   -0.0636 H         1 TYR         0.0525
    297 H131       -2.8187    8.8335   -1.6885 H         1 TYR         0.0525
    298 H132       -1.9480    5.3963   -2.1954 H         1 TYR         0.2458
    299 H133       -1.7254   10.6170    4.5854 H         1 GLN         0.1883
    300 H134       -3.0779   10.7691    7.2053 H         1 GLN         0.0801
    301 H135       -0.6580   10.9785    7.2014 H         1 GLN         0.0337
    302 H136       -1.4328   12.5074    7.7388 H         1 GLN         0.0337
    303 H137       -1.0774   13.4049    5.3907 H         1 GLN         0.0504
    304 H138       -0.1099   11.9314    5.0451 H         1 GLN         0.0504
    305 H139        2.6459   12.9659    7.1786 H         1 GLN         0.1814
    306 H140        1.8053   11.5572    6.6228 H         1 GLN         0.1814
    307 H141       -4.5754   11.2446    4.7423 H         1 GLN         0.1883
    308 H142       -5.4967   14.0563    5.1375 H         1 GLN         0.0801
    309 H143       -5.3692   12.5439    2.4880 H         1 GLN         0.0337
    310 H144       -4.0805   13.6559    3.0620 H         1 GLN         0.0337
    311 H145       -5.7977   15.4963    3.1653 H         1 GLN         0.0504
    312 H146       -6.9879   14.3680    2.4325 H         1 GLN         0.0504
    313 H147       -4.0439   16.0787    0.0970 H         1 GLN         0.1814
    314 H148       -3.9901   16.2341    1.8212 H         1 GLN         0.1814
    315 H149       -7.7623   14.3624    4.7506 H         1 GLN         0.1875
    316 H150       -9.2933   12.4575    6.1940 H         1 GLN         0.0727
    317 H151      -10.3286   14.8303    4.5921 H         1 GLN         0.0330
    318 H152       -9.4733   14.9837    6.1643 H         1 GLN         0.0330
    319 H153      -11.7428   15.1072    6.7306 H         1 GLN         0.0504
    320 H154      -11.2852   13.4109    7.1044 H         1 GLN         0.0504
    321 H155      -13.7583   14.0272    3.8248 H         1 GLN         0.1814
    322 H156      -12.5235   15.1927    4.1668 H         1 GLN         0.1814
@<TRIPOS>BOND
     1    1    2 1  
     2    2    3 1  
     3    2    5 1  
     4    3    4 2  
     5    3    9 am 
     6    5    6 1  
     7    6    7 1  
     8    6    8 1  
     9    9   10 1  
    10   10   11 1  
    11   10   13 1  
    12   11   12 2  
    13   11   20 am 
    14   13   14 1  
    15   14   15 ar 
    16   14   16 ar 
    17   15   17 ar 
    18   16   18 ar 
    19   17   19 ar 
    20   18   19 ar 
    21   20   21 1  
    22   21   22 1  
    23   21   24 1  
    24   22   23 2  
    25   22   31 am 
    26   24   25 1  
    27   25   26 1  
    28   26   27 1  
    29   27   28 ar 
    30   28   29 ar 
    31   28   30 ar 
    32   31   32 1  
    33   32   33 1  
    34   32   35 1  
    35   33   34 2  
    36   33   39 am 
    37   35   36 1  
    38   36   37 1  
    39   36   38 1  
    40   39   40 1  
    41   40   41 1  
    42   40   43 1  
    43   41   42 2  
    44   41   50 am 
    45   43   44 1  
    46   44   45 1  
    47   45   46 1  
    48   46   47 ar 
    49   47   48 ar 
    50   47   49 ar 
    51   50   51 1  
    52   51   52 1  
    53   51   54 1  
    54   52   53 2  
    55   52   60 am 
    56   54   55 1  
    57   55   56 1  
    58   55   57 2  
    59   56   58 2  
    60   57   59 1  
    61   58   59 1  
    62   60   61 1  
    63   61   62 1  
    64   61   64 1  
    65   62   63 2  
    66   62   71 am 
    67   64   65 1  
    68   65   66 ar 
    69   65   67 ar 
    70   66   68 ar 
    71   67   69 ar 
    72   68   70 ar 
    73   69   70 ar 
    74   71   72 1  
    75   71   77 1  
    76   72   73 1  
    77   72   75 1  
    78   73   74 2  
    79   73   78 am 
    80   75   76 1  
    81   76   77 1  
    82   78   79 1  
    83   79   80 1  
    84   79   82 1  
    85   80   81 2  
    86   80   84 am 
    87   82   83 1  
    88   84   85 1  
    89   85   86 1  
    90   86   87 2  
    91   86   88 am 
    92   88   89 1  
    93   89   90 1  
    94   89   92 1  
    95   90   91 2  
    96   90   96 am 
    97   92   93 1  
    98   93   94 2  
    99   93   95 am 
   100   96   97 1  
   101   97   98 1  
   102   97  100 1  
   103   98   99 2  
   104   98  103 am 
   105  100  101 1  
   106  100  102 1  
   107  103  104 1  
   108  104  105 1  
   109  104  107 1  
   110  105  106 2  
   111  105  111 am 
   112  107  108 1  
   113  108  109 2  
   114  108  110 am 
   115  111  112 1  
   116  112  113 1  
   117  112  115 1  
   118  113  114 2  
   119  113  123 am 
   120  115  116 1  
   121  116  117 ar 
   122  116  118 ar 
   123  117  119 ar 
   124  118  120 ar 
   125  119  121 ar 
   126  120  121 ar 
   127  121  122 1  
   128  123  124 1  
   129  124  125 1  
   130  125  126 2  
   131  125  127 am 
   132  127  128 1  
   133  128  129 1  
   134  128  131 1  
   135  129  130 2  
   136  129  139 am 
   137  131  132 1  
   138  132  133 ar 
   139  132  134 ar 
   140  133  135 ar 
   141  134  136 ar 
   142  135  137 ar 
   143  136  137 ar 
   144  137  138 1  
   145  139  140 1  
   146  140  141 1  
   147  140  143 1  
   148  141  142 2  
   149  141  148 am 
   150  143  144 1  
   151  144  145 1  
   152  145  146 2  
   153  145  147 am 
   154  148  149 1  
   155  149  150 1  
   156  149  152 1  
   157  150  151 2  
   158  150  157 am 
   159  152  153 1  
   160  153  154 1  
   161  154  155 2  
   162  154  156 am 
   163  157  158 1  
   164  158  159 1  
   165  158  161 1  
   166  159  160 ar 
   167  159  166 ar 
   168  161  162 1  
   169  162  163 1  
   170  163  164 2  
   171  163  165 am 
   172    1  167 1  
   173    1  168 1  
   174    1  169 1  
   175    2  170 1  
   176    5  171 1  
   177    5  172 1  
   178    6  173 1  
   179    7  174 1  
   180    7  175 1  
   181    7  176 1  
   182    8  177 1  
   183    8  178 1  
   184    8  179 1  
   185    9  180 1  
   186   10  181 1  
   187   13  182 1  
   188   13  183 1  
   189   15  184 1  
   190   16  185 1  
   191   17  186 1  
   192   18  187 1  
   193   19  188 1  
   194   20  189 1  
   195   21  190 1  
   196   24  191 1  
   197   24  192 1  
   198   25  193 1  
   199   25  194 1  
   200   26  195 1  
   201   26  196 1  
   202   27  197 1  
   203   29  198 1  
   204   29  199 1  
   205   30  200 1  
   206   30  201 1  
   207   31  202 1  
   208   32  203 1  
   209   35  204 1  
   210   35  205 1  
   211   36  206 1  
   212   37  207 1  
   213   37  208 1  
   214   37  209 1  
   215   38  210 1  
   216   38  211 1  
   217   38  212 1  
   218   39  213 1  
   219   40  214 1  
   220   43  215 1  
   221   43  216 1  
   222   44  217 1  
   223   44  218 1  
   224   45  219 1  
   225   45  220 1  
   226   46  221 1  
   227   48  222 1  
   228   48  223 1  
   229   49  224 1  
   230   49  225 1  
   231   50  226 1  
   232   51  227 1  
   233   54  228 1  
   234   54  229 1  
   235   57  230 1  
   236   58  231 1  
   237   59  232 1  
   238   60  233 1  
   239   61  234 1  
   240   64  235 1  
   241   64  236 1  
   242   66  237 1  
   243   67  238 1  
   244   68  239 1  
   245   69  240 1  
   246   70  241 1  
   247   72  242 1  
   248   75  243 1  
   249   75  244 1  
   250   76  245 1  
   251   76  246 1  
   252   77  247 1  
   253   77  248 1  
   254   78  249 1  
   255   79  250 1  
   256   82  251 1  
   257   82  252 1  
   258   83  253 1  
   259   84  254 1  
   260   85  255 1  
   261   85  256 1  
   262   88  257 1  
   263   89  258 1  
   264   92  259 1  
   265   92  260 1  
   266   95  261 1  
   267   95  262 1  
   268   96  263 1  
   269   97  264 1  
   270  100  265 1  
   271  101  266 1  
   272  101  267 1  
   273  101  268 1  
   274  102  269 1  
   275  102  270 1  
   276  102  271 1  
   277  103  272 1  
   278  104  273 1  
   279  107  274 1  
   280  107  275 1  
   281  110  276 1  
   282  110  277 1  
   283  111  278 1  
   284  112  279 1  
   285  115  280 1  
   286  115  281 1  
   287  117  282 1  
   288  118  283 1  
   289  119  284 1  
   290  120  285 1  
   291  122  286 1  
   292  123  287 1  
   293  124  288 1  
   294  124  289 1  
   295  127  290 1  
   296  128  291 1  
   297  131  292 1  
   298  131  293 1  
   299  133  294 1  
   300  134  295 1  
   301  135  296 1  
   302  136  297 1  
   303  138  298 1  
   304  139  299 1  
   305  140  300 1  
   306  143  301 1  
   307  143  302 1  
   308  144  303 1  
   309  144  304 1  
   310  147  305 1  
   311  147  306 1  
   312  148  307 1  
   313  149  308 1  
   314  152  309 1  
   315  152  310 1  
   316  153  311 1  
   317  153  312 1  
   318  156  313 1  
   319  156  314 1  
   320  157  315 1  
   321  158  316 1  
   322  161  317 1  
   323  161  318 1  
   324  162  319 1  
   325  162  320 1  
   326  165  321 1  
   327  165  322 1  
@<TRIPOS>SUBSTRUCTURE
     1 LEU         1

