2kup_ligand
  -I-interpret- 

320325  0  0  0  0  0  0  0  0999 V2000
  -21.9410   -6.0980    3.1550 N   0  3  0  0  0
  -20.9310   -5.1710    3.7390 C   0  0  0  0  0
  -21.3180   -4.8180    5.1810 C   0  0  0  0  0
  -22.0950   -3.8910    5.4150 O   0  0  0  0  0
  -20.7280   -3.8900    2.8830 C   0  0  0  0  0
  -19.7140   -3.9660    1.7200 C   0  0  0  0  0
  -18.2940   -4.2440    2.2080 C   0  0  0  0  0
  -20.0440   -5.0230    0.6670 C   0  0  0  0  0
  -20.7880   -5.5610    6.1560 N   0  0  0  0  0
  -21.0290   -5.3310    7.5860 C   0  0  0  0  0
  -20.1730   -4.1710    8.1120 C   0  0  0  0  0
  -18.9600   -4.1580    7.8980 O   0  0  0  0  0
  -20.7310   -6.6260    8.3510 C   0  0  0  0  0
  -21.2520   -6.6320    9.7750 C   0  0  0  0  0
  -20.4850   -6.0850   10.8240 C   0  0  0  0  0
  -22.5180   -7.1820   10.0500 C   0  0  0  0  0
  -20.9940   -6.0750   12.1360 C   0  0  0  0  0
  -23.0200   -7.1830   11.3630 C   0  0  0  0  0
  -22.2610   -6.6230   12.4060 C   0  0  0  0  0
  -20.7980   -3.2230    8.8230 N   0  0  0  0  0
  -20.1190   -2.0950    9.4740 C   0  0  0  0  0
  -19.7360   -2.4830   10.9090 C   0  0  0  0  0
  -20.6090   -2.6230   11.7710 O   0  0  0  0  0
  -21.0170   -0.8410    9.4800 C   0  0  0  0  0
  -21.1430   -0.1070    8.1340 C   0  0  0  0  0
  -21.9970   -0.8280    7.0820 C   0  0  0  0  0
  -22.2420    0.0480    5.9200 N   0  0  0  0  0
  -22.9620   -0.2470    4.8450 C   0  0  0  0  0
  -23.4530   -1.4520    4.6390 N   0  0  0  0  0
  -23.1980    0.6850    3.9470 N   0  0  0  0  0
  -18.4390   -2.6590   11.1780 N   0  0  0  0  0
  -17.9130   -2.9750   12.5140 C   0  0  0  0  0
  -17.9200   -1.7690   13.4620 C   0  0  0  0  0
  -17.8780   -0.6120   13.0340 O   0  0  0  0  0
  -16.4880   -3.5440   12.3930 C   0  0  0  0  0
  -16.4100   -5.0110   11.9540 C   0  0  0  0  0
  -14.9380   -5.3720   11.7510 C   0  0  0  0  0
  -16.9830   -5.9560   13.0110 C   0  0  0  0  0
  -17.9250   -2.0720   14.7660 N   0  0  0  0  0
  -17.9220   -1.0900   15.8640 C   0  0  0  0  0
  -16.5320   -0.5010   16.1590 C   0  0  0  0  0
  -16.4270    0.6060   16.6880 O   0  0  0  0  0
  -18.4670   -1.7500   17.1430 C   0  0  0  0  0
  -19.9130   -2.2550   16.9980 C   0  0  0  0  0
  -20.4450   -2.8280   18.3180 C   0  0  0  0  0
  -19.7500   -4.0720   18.7040 N   0  0  0  0  0
  -19.6130   -4.5530   19.9340 C   0  0  0  0  0
  -20.0340   -3.9010   20.9990 N   0  0  0  0  0
  -19.0460   -5.7250   20.1090 N   0  0  0  0  0
  -15.4690   -1.2320   15.8170 N   0  0  0  0  0
  -14.0580   -0.8910   16.0560 C   0  0  0  0  0
  -13.1180   -1.7220   15.1540 C   0  0  0  0  0
  -13.5590   -2.6660   14.4890 O   0  0  0  0  0
  -13.7190   -1.0630   17.5500 C   0  0  0  0  0
  -13.4550   -2.4880   17.9640 C   0  0  0  0  0
  -12.2000   -3.0000   18.2990 N   0  0  0  0  0
  -14.3740   -3.4940   18.0230 C   0  0  0  0  0
  -12.3940   -4.3040   18.5520 C   0  0  0  0  0
  -13.6900   -4.6310   18.3950 N   0  0  0  0  0
  -11.8270   -1.3740   15.1100 N   0  0  0  0  0
  -10.8650   -2.0130   14.2090 C   0  0  0  0  0
  -10.3690   -3.3620   14.7830 C   0  0  0  0  0
   -9.8630   -3.3780   15.9090 O   0  0  0  0  0
   -9.7250   -1.0230   13.9060 C   0  0  0  0  0
   -8.9840   -1.3340   12.6240 C   0  0  0  0  0
   -9.6970   -1.4140   11.4140 C   0  0  0  0  0
   -7.5920   -1.5360   12.6240 C   0  0  0  0  0
   -9.0370   -1.7500   10.2270 C   0  0  0  0  0
   -6.9260   -1.8450   11.4270 C   0  0  0  0  0
   -7.6510   -1.9640   10.2300 C   0  0  0  0  0
  -10.4890   -4.4900   14.0450 N   0  0  0  0  0
  -10.2060   -5.8340   14.5560 C   0  0  0  0  0
   -8.7070   -6.1970   14.5550 C   0  0  0  0  0
   -8.3620   -7.3430   14.8420 O   0  0  0  0  0
  -11.0140   -6.7680   13.6480 C   0  0  0  0  0
  -10.9220   -6.0670   12.2970 C   0  0  0  0  0
  -11.0190   -4.5940   12.6880 C   0  0  0  0  0
   -7.8160   -5.2520   14.2280 N   0  0  0  0  0
   -6.3880   -5.4850   14.0070 C   0  0  0  0  0
   -5.5100   -4.5330   14.8420 C   0  0  0  0  0
   -5.7290   -3.3180   14.8500 O   0  0  0  0  0
   -6.1570   -5.3410   12.4970 C   0  0  0  0  0
   -4.4050   -5.5900   12.1380 S   0  0  0  0  0
   -4.5020   -5.0870   15.5320 N   0  0  0  0  0
   -3.5670   -4.3480   16.3990 C   0  0  0  0  0
   -2.2590   -3.9110   15.7240 C   0  0  0  0  0
   -1.5830   -3.0220   16.2420 O   0  0  0  0  0
   -1.9040   -4.5030   14.5780 N   0  0  0  0  0
   -0.6840   -4.2030   13.8110 C   0  0  0  0  0
   -1.0470   -3.5660   12.4600 C   0  0  0  0  0
   -1.6390   -4.2220   11.6030 O   0  0  0  0  0
    0.1290   -5.4950   13.6100 C   0  0  0  0  0
    0.7340   -6.0160   14.9130 C   0  0  0  0  0
    1.3760   -5.2890   15.6620 O   0  0  0  0  0
    0.5560   -7.2890   15.2200 N   0  0  0  0  0
   -0.7100   -2.2900   12.2620 N   0  0  0  0  0
   -1.1810   -1.4960   11.1200 C   0  0  0  0  0
   -0.2240   -0.3480   10.7860 C   0  0  0  0  0
    0.2430    0.3800   11.6590 O   0  0  0  0  0
   -2.6320   -1.0080   11.3550 C   0  0  0  0  0
   -2.8260   -0.1840   12.6390 C   0  0  0  0  0
   -3.1400   -0.1950   10.1640 C   0  0  0  0  0
    0.0470   -0.2130    9.4890 N   0  0  0  0  0
    0.7710    0.8830    8.8510 C   0  0  0  0  0
   -0.2170    1.9540    8.3470 C   0  0  0  0  0
   -1.0900    1.6880    7.5210 O   0  0  0  0  0
    1.6960    0.3520    7.7290 C   0  0  0  0  0
    1.1430   -0.7350    6.7940 C   0  0  0  0  0
    0.0270   -1.2240    6.9110 O   0  0  0  0  0
    1.9480   -1.1960    5.8520 N   0  0  0  0  0
   -0.0820    3.1840    8.8530 N   0  0  0  0  0
   -0.9090    4.3280    8.4500 C   0  0  0  0  0
   -0.3410    4.9720    7.1710 C   0  0  0  0  0
    0.7540    5.5430    7.1840 O   0  0  0  0  0
   -1.0030    5.3270    9.6110 C   0  0  0  0  0
   -1.5540    4.7360   10.8980 C   0  0  0  0  0
   -2.9230    4.4200   10.9950 C   0  0  0  0  0
   -0.7030    4.4880   11.9920 C   0  0  0  0  0
   -3.4430    3.8560   12.1750 C   0  0  0  0  0
   -1.2150    3.9270   13.1790 C   0  0  0  0  0
   -2.5900    3.6080   13.2730 C   0  0  0  0  0
   -3.0970    3.0700   14.4170 O   0  0  0  0  0
   -1.0720    4.8420    6.0580 N   0  0  0  0  0
   -0.6180    5.2410    4.7180 C   0  0  0  0  0
   -0.9100    6.7070    4.4150 C   0  0  0  0  0
    0.0090    7.5170    4.2880 O   0  0  0  0  0
   -2.1950    7.0450    4.2940 N   0  0  0  0  0
   -2.6650    8.3730    3.8850 C   0  0  0  0  0
   -3.0650    9.2220    5.1060 C   0  0  0  0  0
   -3.9570    8.8550    5.8730 O   0  0  0  0  0
   -3.8160    8.2180    2.8710 C   0  0  0  0  0
   -3.3700    7.7170    1.5040 C   0  0  0  0  0
   -3.0160    6.3660    1.3230 C   0  0  0  0  0
   -3.3010    8.6000    0.4080 C   0  0  0  0  0
   -2.5920    5.9030    0.0640 C   0  0  0  0  0
   -2.8760    8.1440   -0.8540 C   0  0  0  0  0
   -2.5240    6.7870   -1.0330 C   0  0  0  0  0
   -2.1480    6.3230   -2.2570 O   0  0  0  0  0
   -2.4130   10.3780    5.2710 N   0  0  0  0  0
   -2.6210   11.3290    6.3760 C   0  0  0  0  0
   -3.6150   12.4570    6.0110 C   0  0  0  0  0
   -3.5300   13.5700    6.5320 O   0  0  0  0  0
   -1.2540   11.8450    6.8790 C   0  0  0  0  0
   -0.4370   12.6270    5.8320 C   0  0  0  0  0
    0.7970   13.2930    6.4470 C   0  0  0  0  0
    0.8510   14.5030    6.6420 O   0  0  0  0  0
    1.8330   12.5450    6.7760 N   0  0  0  0  0
   -4.5490   12.1800    5.0950 N   0  0  0  0  0
   -5.5380   13.1210    4.5600 C   0  0  0  0  0
   -6.9540   12.5260    4.7110 C   0  0  0  0  0
   -7.1210   11.3030    4.7150 O   0  0  0  0  0
   -5.1570   13.4330    3.1000 C   0  0  0  0  0
   -5.9210   14.6260    2.5040 C   0  0  0  0  0
   -5.4000   14.9830    1.1080 C   0  0  0  0  0
   -5.8720   14.4920    0.0900 O   0  0  0  0  0
   -4.3970   15.8340    1.0000 N   0  0  0  0  0
   -7.9630   13.3920    4.8850 N   0  0  0  0  0
   -9.3440   13.0330    5.2580 C   0  0  0  0  0
  -10.0570   12.1340    4.2290 C   0  0  0  0  0
  -10.1360   12.5110    3.0400 O   0  0  0  0  0
  -10.1160   14.3350    5.5510 C   0  0  0  0  0
  -11.4520   14.1390    6.2970 C   0  0  0  0  0
  -12.6210   13.6350    5.4410 C   0  0  0  0  0
  -13.2540   12.6250    5.7260 O   0  0  0  0  0
  -12.9980   14.3420    4.3930 N   0  0  0  0  0
  -10.5430   11.0450    4.6030 O   0  0  0  0  0
  -22.0344   -6.9182    3.7541 H   0  0  0  0  0
  -22.8399   -5.6207    3.0874 H   0  0  0  0  0
  -21.6376   -6.3874    2.2252 H   0  0  0  0  0
  -19.9722   -5.6895    3.7424 H   0  0  0  0  0
  -20.3353   -3.1379    3.5673 H   0  0  0  0  0
  -21.6938   -3.6900    2.4189 H   0  0  0  0  0
  -19.7829   -2.9795    1.2615 H   0  0  0  0  0
  -18.2488   -5.2438    2.6398 H   0  0  0  0  0
  -17.6030   -4.1781    1.3676 H   0  0  0  0  0
  -18.0202   -3.5078    2.9637 H   0  0  0  0  0
  -19.3333   -4.9484   -0.1560 H   0  0  0  0  0
  -19.9791   -6.0141    1.1161 H   0  0  0  0  0
  -21.0542   -4.8579    0.2925 H   0  0  0  0  0
  -20.1789   -6.3351    5.8912 H   0  0  0  0  0
  -22.0718   -5.0518    7.7365 H   0  0  0  0  0
  -19.6472   -6.7304    8.4018 H   0  0  0  0  0
  -21.2284   -7.4378    7.8203 H   0  0  0  0  0
  -19.4982   -5.6700   10.6189 H   0  0  0  0  0
  -23.1116   -7.6089    9.2416 H   0  0  0  0  0
  -20.4052   -5.6417   12.9445 H   0  0  0  0  0
  -23.9973   -7.6177   11.5726 H   0  0  0  0  0
  -22.6541   -6.6136   13.4226 H   0  0  0  0  0
  -21.8114   -3.2889    8.9184 H   0  0  0  0  0
  -19.2159   -1.8590    8.9112 H   0  0  0  0  0
  -20.5601   -0.1365   10.1750 H   0  0  0  0  0
  -22.0192   -1.1794    9.7430 H   0  0  0  0  0
  -20.1367   -0.0273    7.7227 H   0  0  0  0  0
  -21.6321    0.8454    8.3386 H   0  0  0  0  0
  -22.9542   -1.0967    7.5289 H   0  0  0  0  0
  -21.4653   -1.7184    6.7463 H   0  0  0  0  0
  -21.8147    0.9738    5.9457 H   0  0  0  0  0
  -24.0005   -1.6430    3.7999 H   0  0  0  0  0
  -23.2857   -2.1939    5.3186 H   0  0  0  0  0
  -22.8284    1.6264    4.0798 H   0  0  0  0  0
  -17.7737   -2.5687   10.4101 H   0  0  0  0  0
  -18.5782   -3.7204   12.9500 H   0  0  0  0  0
  -16.0422   -3.4890   13.3862 H   0  0  0  0  0
  -15.9801   -2.9590   11.6262 H   0  0  0  0  0
  -16.9917   -5.1223   11.0390 H   0  0  0  0  0
  -14.5097   -4.7276   10.9833 H   0  0  0  0  0
  -14.3983   -5.2317   12.6876 H   0  0  0  0  0
  -14.8604   -6.4132   11.4380 H   0  0  0  0  0
  -16.4198   -5.8468   13.9378 H   0  0  0  0  0
  -18.0295   -5.7083   13.1890 H   0  0  0  0  0
  -16.9068   -6.9841   12.6570 H   0  0  0  0  0
  -17.9314   -3.0601   15.0190 H   0  0  0  0  0
  -18.5565   -0.2641   15.5424 H   0  0  0  0  0
  -18.4582   -0.9976   17.9316 H   0  0  0  0  0
  -17.8373   -2.6121   17.3630 H   0  0  0  0  0
  -19.9285   -3.0457   16.2479 H   0  0  0  0  0
  -20.5440   -1.4150   16.7076 H   0  0  0  0  0
  -21.5029   -3.0561   18.1876 H   0  0  0  0  0
  -20.2782   -2.0885   19.1012 H   0  0  0  0  0
  -19.3329   -4.6171   17.9495 H   0  0  0  0  0
  -19.9155   -4.3086   21.9265 H   0  0  0  0  0
  -20.4784   -2.9887   20.8959 H   0  0  0  0  0
  -18.7155   -6.2570   19.3039 H   0  0  0  0  0
  -15.6534   -2.1158   15.3423 H   0  0  0  0  0
  -13.9026    0.1549   15.7914 H   0  0  0  0  0
  -14.5834   -0.7183   18.1175 H   0  0  0  0  0
  -12.8058   -0.4988   17.7394 H   0  0  0  0  0
  -15.4412   -3.4142   17.8163 H   0  0  0  0  0
  -11.6096   -5.0021   18.8444 H   0  0  0  0  0
  -11.4990   -0.6330   15.7295 H   0  0  0  0  0
  -11.3486   -2.2614   13.2643 H   0  0  0  0  0
   -9.0076   -1.0876   14.7241 H   0  0  0  0  0
  -10.1693   -0.0336   13.7970 H   0  0  0  0  0
  -10.7683   -1.2134   11.4011 H   0  0  0  0  0
   -7.0297   -1.4526   13.5540 H   0  0  0  0  0
   -9.6006   -1.8455    9.2989 H   0  0  0  0  0
   -5.8460   -1.9925   11.4268 H   0  0  0  0  0
   -7.1369   -2.2224    9.3042 H   0  0  0  0  0
  -10.4867   -5.9148   15.6061 H   0  0  0  0  0
  -12.0397   -6.9138   13.9866 H   0  0  0  0  0
  -10.6286   -7.7874   13.6295 H   0  0  0  0  0
  -11.6991   -6.3776   11.5987 H   0  0  0  0  0
  -10.0099   -6.3067   11.7505 H   0  0  0  0  0
  -10.4519   -3.9688   11.9983 H   0  0  0  0  0
  -12.0508   -4.2455   12.6440 H   0  0  0  0  0
   -8.1588   -4.2969   14.1251 H   0  0  0  0  0
   -6.0960   -6.4809   14.3401 H   0  0  0  0  0
   -6.4585   -4.3445   12.1742 H   0  0  0  0  0
   -6.7490   -6.0849   11.9638 H   0  0  0  0  0
   -4.2002   -5.4660   10.8297 H   0  0  0  0  0
   -4.3729   -6.0955   15.4505 H   0  0  0  0  0
   -3.2914   -5.0224   17.2098 H   0  0  0  0  0
   -4.0796   -3.4373   16.7087 H   0  0  0  0  0
   -2.5282   -5.2190   14.2063 H   0  0  0  0  0
   -0.0744   -3.4895   14.3654 H   0  0  0  0  0
    0.9472   -5.2737   12.9247 H   0  0  0  0  0
   -0.5452   -6.2593   13.2236 H   0  0  0  0  0
    0.9530   -7.6665   16.0804 H   0  0  0  0  0
    0.0216   -7.8941   14.5965 H   0  0  0  0  0
   -0.0927   -1.8426   12.9396 H   0  0  0  0  0
   -1.1918   -2.1425   10.2425 H   0  0  0  0  0
   -3.2135   -1.9225   11.4715 H   0  0  0  0  0
   -2.5499   -0.7890   13.5026 H   0  0  0  0  0
   -2.1944    0.7034   12.5986 H   0  0  0  0  0
   -3.8707    0.1155   12.7226 H   0  0  0  0  0
   -2.4987    0.6744   10.0191 H   0  0  0  0  0
   -3.1213   -0.8152    9.2679 H   0  0  0  0  0
   -4.1609    0.1335   10.3589 H   0  0  0  0  0
   -0.2874   -0.9556    8.8748 H   0  0  0  0  0
    1.4169    1.3609    9.5876 H   0  0  0  0  0
    2.5391   -0.1096    8.2430 H   0  0  0  0  0
    1.8964    1.2107    7.0882 H   0  0  0  0  0
    1.6356   -1.9474    5.2370 H   0  0  0  0  0
    2.8814   -0.8002    5.7402 H   0  0  0  0  0
    0.6372    3.3364    9.5600 H   0  0  0  0  0
   -1.9193    3.9918    8.2169 H   0  0  0  0  0
   -1.6871    6.1169    9.3010 H   0  0  0  0  0
    0.0096    5.6706    9.8225 H   0  0  0  0  0
   -3.5843    4.6135   10.1505 H   0  0  0  0  0
    0.3571    4.7312   11.9204 H   0  0  0  0  0
   -4.5030    3.6108   12.2414 H   0  0  0  0  0
   -0.5523    3.7391   14.0238 H   0  0  0  0  0
   -2.3919    2.9659   15.0602 H   0  0  0  0  0
   -2.0053    4.4398    6.1449 H   0  0  0  0  0
   -1.1521    4.6337    3.9872 H   0  0  0  0  0
    0.4614    5.0965    4.6717 H   0  0  0  0  0
   -2.8964    6.3335    4.4993 H   0  0  0  0  0
   -1.8534    8.9109    3.3951 H   0  0  0  0  0
   -4.2565    9.2046    2.7270 H   0  0  0  0  0
   -4.5085    7.4805    3.2767 H   0  0  0  0  0
   -3.0709    5.6746    2.1638 H   0  0  0  0  0
   -3.5793    9.6457    0.5387 H   0  0  0  0  0
   -2.3149    4.8567   -0.0643 H   0  0  0  0  0
   -2.8184    8.8373   -1.6931 H   0  0  0  0  0
   -2.1535    7.0466   -2.8878 H   0  0  0  0  0
   -1.7117   10.6218    4.5716 H   0  0  0  0  0
   -3.1011   10.8065    7.2034 H   0  0  0  0  0
   -0.6650   10.9695    7.1522 H   0  0  0  0  0
   -1.4566   12.5314    7.7011 H   0  0  0  0  0
   -1.0741   13.4079    5.4167 H   0  0  0  0  0
   -0.1005   11.9251    5.0690 H   0  0  0  0  0
    2.6625   12.9744    7.1858 H   0  0  0  0  0
    1.8044   11.5373    6.6205 H   0  0  0  0  0
   -4.5759   11.2259    4.7352 H   0  0  0  0  0
   -5.5429   14.0607    5.1123 H   0  0  0  0  0
   -5.4060   12.5554    2.5034 H   0  0  0  0  0
   -4.0967   13.6852    3.0865 H   0  0  0  0  0
   -5.7805   15.4877    3.1566 H   0  0  0  0  0
   -6.9739   14.3564    2.4219 H   0  0  0  0  0
   -4.0276   16.0728    0.0797 H   0  0  0  0  0
   -3.9912   16.2529    1.8368 H   0  0  0  0  0
   -7.7582   14.3818    4.7479 H   0  0  0  0  0
   -9.3109   12.4138    6.1544 H   0  0  0  0  0
   -9.7079   13.3653    2.9472 H   0  0  0  0  0
  -10.3540   14.7861    4.5877 H   0  0  0  0  0
   -9.4798   14.9429    6.1944 H   0  0  0  0  0
  -11.7436   15.1198    6.6727 H   0  0  0  0  0
  -11.2737   13.3779    7.0566 H   0  0  0  0  0
  -13.8011   14.0443    3.8391 H   0  0  0  0  0
  -12.4864   15.1863    4.1366 H   0  0  0  0  0
  1  2  1  0  0  0
  2  3  1  0  0  0
  2  5  1  0  0  0
  3  4  2  0  0  0
  3  9  1  0  0  0
  5  6  1  0  0  0
  6  7  1  0  0  0
  6  8  1  0  0  0
  9 10  1  0  0  0
 10 11  1  0  0  0
 10 13  1  0  0  0
 11 12  2  0  0  0
 11 20  1  0  0  0
 13 14  1  0  0  0
 14 15  4  0  0  0
 14 16  4  0  0  0
 15 17  4  0  0  0
 16 18  4  0  0  0
 17 19  4  0  0  0
 18 19  4  0  0  0
 20 21  1  0  0  0
 21 22  1  0  0  0
 21 24  1  0  0  0
 22 23  2  0  0  0
 22 31  1  0  0  0
 24 25  1  0  0  0
 25 26  1  0  0  0
 26 27  1  0  0  0
 27 28  1  0  0  0
 28 29  1  0  0  0
 28 30  2  0  0  0
 31 32  1  0  0  0
 32 33  1  0  0  0
 32 35  1  0  0  0
 33 34  2  0  0  0
 33 39  1  0  0  0
 35 36  1  0  0  0
 36 37  1  0  0  0
 36 38  1  0  0  0
 39 40  1  0  0  0
 40 41  1  0  0  0
 40 43  1  0  0  0
 41 42  2  0  0  0
 41 50  1  0  0  0
 43 44  1  0  0  0
 44 45  1  0  0  0
 45 46  1  0  0  0
 46 47  1  0  0  0
 47 48  1  0  0  0
 47 49  2  0  0  0
 50 51  1  0  0  0
 51 52  1  0  0  0
 51 54  1  0  0  0
 52 53  2  0  0  0
 52 60  1  0  0  0
 54 55  1  0  0  0
 55 56  4  0  0  0
 55 57  4  0  0  0
 56 58  4  0  0  0
 57 59  4  0  0  0
 58 59  4  0  0  0
 60 61  1  0  0  0
 61 62  1  0  0  0
 61 64  1  0  0  0
 62 63  2  0  0  0
 62 71  1  0  0  0
 64 65  1  0  0  0
 65 66  4  0  0  0
 65 67  4  0  0  0
 66 68  4  0  0  0
 67 69  4  0  0  0
 68 70  4  0  0  0
 69 70  4  0  0  0
 71 72  1  0  0  0
 71 77  1  0  0  0
 72 73  1  0  0  0
 72 75  1  0  0  0
 73 74  2  0  0  0
 73 78  1  0  0  0
 75 76  1  0  0  0
 76 77  1  0  0  0
 78 79  1  0  0  0
 79 80  1  0  0  0
 79 82  1  0  0  0
 80 81  2  0  0  0
 80 84  1  0  0  0
 82 83  1  0  0  0
 84 85  1  0  0  0
 85 86  1  0  0  0
 86 87  2  0  0  0
 86 88  1  0  0  0
 88 89  1  0  0  0
 89 90  1  0  0  0
 89 92  1  0  0  0
 90 91  2  0  0  0
 90 96  1  0  0  0
 92 93  1  0  0  0
 93 94  2  0  0  0
 93 95  1  0  0  0
 96 97  1  0  0  0
 97 98  1  0  0  0
 97100  1  0  0  0
 98 99  2  0  0  0
 98103  1  0  0  0
100101  1  0  0  0
100102  1  0  0  0
103104  1  0  0  0
104105  1  0  0  0
104107  1  0  0  0
105106  2  0  0  0
105111  1  0  0  0
107108  1  0  0  0
108109  2  0  0  0
108110  1  0  0  0
111112  1  0  0  0
112113  1  0  0  0
112115  1  0  0  0
113114  2  0  0  0
113123  1  0  0  0
115116  1  0  0  0
116117  4  0  0  0
116118  4  0  0  0
117119  4  0  0  0
118120  4  0  0  0
119121  4  0  0  0
120121  4  0  0  0
121122  1  0  0  0
123124  1  0  0  0
124125  1  0  0  0
125126  2  0  0  0
125127  1  0  0  0
127128  1  0  0  0
128129  1  0  0  0
128131  1  0  0  0
129130  2  0  0  0
129139  1  0  0  0
131132  1  0  0  0
132133  4  0  0  0
132134  4  0  0  0
133135  4  0  0  0
134136  4  0  0  0
135137  4  0  0  0
136137  4  0  0  0
137138  1  0  0  0
139140  1  0  0  0
140141  1  0  0  0
140143  1  0  0  0
141142  2  0  0  0
141148  1  0  0  0
143144  1  0  0  0
144145  1  0  0  0
145146  2  0  0  0
145147  1  0  0  0
148149  1  0  0  0
149150  1  0  0  0
149152  1  0  0  0
150151  2  0  0  0
150157  1  0  0  0
152153  1  0  0  0
153154  1  0  0  0
154155  2  0  0  0
154156  1  0  0  0
157158  1  0  0  0
158159  1  0  0  0
158161  1  0  0  0
159160  1  0  0  0
159166  2  0  0  0
161162  1  0  0  0
162163  1  0  0  0
163164  2  0  0  0
163165  1  0  0  0
  1167  1  0  0  0
  1168  1  0  0  0
  1169  1  0  0  0
  2170  1  0  0  0
  5171  1  0  0  0
  5172  1  0  0  0
  6173  1  0  0  0
  7174  1  0  0  0
  7175  1  0  0  0
  7176  1  0  0  0
  8177  1  0  0  0
  8178  1  0  0  0
  8179  1  0  0  0
  9180  1  0  0  0
 10181  1  0  0  0
 13182  1  0  0  0
 13183  1  0  0  0
 15184  1  0  0  0
 16185  1  0  0  0
 17186  1  0  0  0
 18187  1  0  0  0
 19188  1  0  0  0
 20189  1  0  0  0
 21190  1  0  0  0
 24191  1  0  0  0
 24192  1  0  0  0
 25193  1  0  0  0
 25194  1  0  0  0
 26195  1  0  0  0
 26196  1  0  0  0
 27197  1  0  0  0
 29198  1  0  0  0
 29199  1  0  0  0
 30200  1  0  0  0
 31201  1  0  0  0
 32202  1  0  0  0
 35203  1  0  0  0
 35204  1  0  0  0
 36205  1  0  0  0
 37206  1  0  0  0
 37207  1  0  0  0
 37208  1  0  0  0
 38209  1  0  0  0
 38210  1  0  0  0
 38211  1  0  0  0
 39212  1  0  0  0
 40213  1  0  0  0
 43214  1  0  0  0
 43215  1  0  0  0
 44216  1  0  0  0
 44217  1  0  0  0
 45218  1  0  0  0
 45219  1  0  0  0
 46220  1  0  0  0
 48221  1  0  0  0
 48222  1  0  0  0
 49223  1  0  0  0
 50224  1  0  0  0
 51225  1  0  0  0
 54226  1  0  0  0
 54227  1  0  0  0
 57228  1  0  0  0
 58229  1  0  0  0
 60230  1  0  0  0
 61231  1  0  0  0
 64232  1  0  0  0
 64233  1  0  0  0
 66234  1  0  0  0
 67235  1  0  0  0
 68236  1  0  0  0
 69237  1  0  0  0
 70238  1  0  0  0
 72239  1  0  0  0
 75240  1  0  0  0
 75241  1  0  0  0
 76242  1  0  0  0
 76243  1  0  0  0
 77244  1  0  0  0
 77245  1  0  0  0
 78246  1  0  0  0
 79247  1  0  0  0
 82248  1  0  0  0
 82249  1  0  0  0
 83250  1  0  0  0
 84251  1  0  0  0
 85252  1  0  0  0
 85253  1  0  0  0
 88254  1  0  0  0
 89255  1  0  0  0
 92256  1  0  0  0
 92257  1  0  0  0
 95258  1  0  0  0
 95259  1  0  0  0
 96260  1  0  0  0
 97261  1  0  0  0
100262  1  0  0  0
101263  1  0  0  0
101264  1  0  0  0
101265  1  0  0  0
102266  1  0  0  0
102267  1  0  0  0
102268  1  0  0  0
103269  1  0  0  0
104270  1  0  0  0
107271  1  0  0  0
107272  1  0  0  0
110273  1  0  0  0
110274  1  0  0  0
111275  1  0  0  0
112276  1  0  0  0
115277  1  0  0  0
115278  1  0  0  0
117279  1  0  0  0
118280  1  0  0  0
119281  1  0  0  0
120282  1  0  0  0
122283  1  0  0  0
123284  1  0  0  0
124285  1  0  0  0
124286  1  0  0  0
127287  1  0  0  0
128288  1  0  0  0
131289  1  0  0  0
131290  1  0  0  0
133291  1  0  0  0
134292  1  0  0  0
135293  1  0  0  0
136294  1  0  0  0
138295  1  0  0  0
139296  1  0  0  0
140297  1  0  0  0
143298  1  0  0  0
143299  1  0  0  0
144300  1  0  0  0
144301  1  0  0  0
147302  1  0  0  0
147303  1  0  0  0
148304  1  0  0  0
149305  1  0  0  0
152306  1  0  0  0
152307  1  0  0  0
153308  1  0  0  0
153309  1  0  0  0
156310  1  0  0  0
156311  1  0  0  0
157312  1  0  0  0
158313  1  0  0  0
160314  1  0  0  0
161315  1  0  0  0
161316  1  0  0  0
162317  1  0  0  0
162318  1  0  0  0
165319  1  0  0  0
165320  1  0  0  0
M  END
$$$$
