5t4b_ligand
  -I-interpret- 

 64 69  0  0  0  0  0  0  0  0999 V2000
   35.3410   48.1870   36.2920 C   0  0  0  0  0
   36.4560   47.9920   36.6900 C   0  0  0  0  0
   34.1260   53.4230   44.5620 C   0  0  0  0  0
   34.3820   53.4820   43.2050 C   0  0  0  0  0
   34.4770   52.3030   45.2980 C   0  0  0  0  0
   34.9910   52.4140   42.5750 C   0  0  0  0  0
   35.0740   51.2330   44.6530 C   0  0  0  0  0
   35.3400   51.2790   43.2890 C   0  0  0  0  0
   38.4360   48.6140   39.3660 C   0  0  0  0  0
   35.4060   50.0690   45.3240 C   0  0  0  0  0
   39.5490   49.3060   39.7570 C   0  0  0  0  0
   36.1490   49.1430   43.3780 C   0  0  0  0  0
   39.7090   49.2830   37.6520 C   0  0  0  0  0
   37.4130   48.0980   40.2530 C   0  0  0  0  0
   38.8560   48.9910   42.0460 C   0  0  0  0  0
   41.3150   51.6100   36.3250 C   0  0  0  0  0
   40.2910   52.2010   35.3630 C   0  0  0  0  0
   41.4080   50.0860   36.1660 C   0  0  0  0  0
   40.9600   50.0070   41.8200 C   0  0  0  0  0
   39.0830   50.0250   35.4320 C   0  0  0  0  0
   40.5720   49.9080   43.2930 C   0  0  0  0  0
   38.9520   51.5370   35.5970 C   0  0  0  0  0
   33.9760   48.3910   35.7930 C   0  0  0  0  0
   35.1200   49.9030   46.7940 C   0  0  0  0  0
   37.8300   47.6950   37.1000 C   0  0  0  0  0
   36.7380   47.9550   42.6740 C   0  0  0  0  0
   35.9050   50.2420   42.6540 N   0  0  0  0  0
   35.9280   49.0040   44.6890 N   0  0  0  0  0
   40.3390   49.7290   38.7210 N   0  0  0  0  0
   38.5430   48.6150   37.9970 N   0  0  0  0  0
   39.7640   49.5170   41.1520 N   0  0  0  0  0
   40.0890   49.4750   36.3610 N   0  0  0  0  0
   37.7020   48.3510   41.6350 N   0  0  0  0  0
   39.2620   49.2340   43.3280 N   0  0  0  0  0
   37.9580   52.0770   34.6290 N   0  3  0  0  0
   36.3430   47.6170   39.9210 O   0  0  0  0  0
   33.6435   54.2654   45.0576 H   0  0  0  0  0
   34.1044   54.3680   42.6340 H   0  0  0  0  0
   34.2858   52.2646   46.3704 H   0  0  0  0  0
   35.1989   52.4647   41.5062 H   0  0  0  0  0
   41.0056   51.8358   37.3455 H   0  0  0  0  0
   42.2906   52.0436   36.1054 H   0  0  0  0  0
   40.6111   52.0291   34.3353 H   0  0  0  0  0
   40.2034   53.2739   35.5341 H   0  0  0  0  0
   42.0980   49.6909   36.9116 H   0  0  0  0  0
   41.7643   49.8530   35.1626 H   0  0  0  0  0
   41.8946   50.3558   41.3807 H   0  0  0  0  0
   39.3976   49.8113   34.4105 H   0  0  0  0  0
   38.1189   49.5653   35.6495 H   0  0  0  0  0
   41.1480   50.2642   44.1471 H   0  0  0  0  0
   38.6148   51.7469   36.6120 H   0  0  0  0  0
   33.9550   48.2217   34.7164 H   0  0  0  0  0
   33.3019   47.6902   36.2855 H   0  0  0  0  0
   33.6608   49.4121   36.0077 H   0  0  0  0  0
   35.6472   50.6748   47.3548 H   0  0  0  0  0
   34.0477   49.9949   46.9669 H   0  0  0  0  0
   35.4589   48.9197   47.1200 H   0  0  0  0  0
   38.4027   47.7191   36.1729 H   0  0  0  0  0
   37.7512   46.7674   37.6669 H   0  0  0  0  0
   35.9270   47.4065   42.1949 H   0  0  0  0  0
   37.2626   47.3476   43.4116 H   0  0  0  0  0
   37.0548   51.6299   34.7860 H   0  0  0  0  0
   37.8679   53.0842   34.7623 H   0  0  0  0  0
   38.2728   51.8855   33.6779 H   0  0  0  0  0
  2  1  3  0  0  0
  1 23  1  0  0  0
 25  2  1  0  0  0
  4  3  4  0  0  0
  5  3  4  0  0  0
  6  4  4  0  0  0
  7  5  4  0  0  0
  8  6  4  0  0  0
  8  7  4  0  0  0
 10  7  4  0  0  0
 27  8  4  0  0  0
  9 11  4  0  0  0
 14  9  1  0  0  0
  9 30  4  0  0  0
 10 24  1  0  0  0
 28 10  4  0  0  0
 11 29  4  0  0  0
 31 11  1  0  0  0
 26 12  1  0  0  0
 12 27  4  0  0  0
 12 28  4  0  0  0
 29 13  4  0  0  0
 30 13  4  0  0  0
 13 32  1  0  0  0
 33 14  1  0  0  0
 14 36  2  0  0  0
 15 31  4  0  0  0
 33 15  1  0  0  0
 15 34  4  0  0  0
 16 17  1  0  0  0
 18 16  1  0  0  0
 22 17  1  0  0  0
 32 18  1  0  0  0
 21 19  4  0  0  0
 31 19  4  0  0  0
 20 22  1  0  0  0
 32 20  1  0  0  0
 34 21  4  0  0  0
 22 35  1  0  0  0
 30 25  1  0  0  0
 26 33  1  0  0  0
  3 37  1  0  0  0
  4 38  1  0  0  0
  5 39  1  0  0  0
  6 40  1  0  0  0
 16 41  1  0  0  0
 16 42  1  0  0  0
 17 43  1  0  0  0
 17 44  1  0  0  0
 18 45  1  0  0  0
 18 46  1  0  0  0
 19 47  1  0  0  0
 20 48  1  0  0  0
 20 49  1  0  0  0
 21 50  1  0  0  0
 22 51  1  0  0  0
 23 52  1  0  0  0
 23 53  1  0  0  0
 23 54  1  0  0  0
 24 55  1  0  0  0
 24 56  1  0  0  0
 24 57  1  0  0  0
 25 58  1  0  0  0
 25 59  1  0  0  0
 26 60  1  0  0  0
 26 61  1  0  0  0
 35 62  1  0  0  0
 35 63  1  0  0  0
 35 64  1  0  0  0
M  END
$$$$
