5hlp_ligand
  -I-interpret- 

 47 50  0  0  0  0  0  0  0  0999 V2000
    8.6130   22.6730  -19.3110 C   0  0  0  0  0
    8.6640   22.2760  -17.8850 C   0  0  0  0  0
    7.2060   27.2790  -17.6970 C   0  0  0  0  0
    8.0080   26.5270  -18.5350 C   0  0  0  0  0
    9.0270   25.7010  -18.0420 C   0  0  0  0  0
    9.9260   24.9660  -18.9840 C   0  0  0  0  0
    9.1650   25.6950  -16.5770 C   0  0  0  0  0
    9.8350   24.2040  -14.7480 C   0  0  0  0  0
    9.6110   29.2270  -21.3180 C   0  0  0  0  0
   10.8560   28.4250  -21.7760 C   0  0  0  0  0
    9.3140   25.0270  -21.8820 N   0  0  0  0  0
   11.1890   27.2030  -19.5300 C   0  0  0  0  0
   11.7820   28.1150  -20.6050 C   0  0  0  0  0
   10.0180   26.0310  -21.3720 C   0  0  0  0  0
   10.4290   27.0990  -22.3640 C   0  0  0  0  0
   11.4970   27.3520  -18.3460 O   0  0  0  0  0
   11.6320   29.2250  -22.8240 C   0  0  0  0  0
   10.3720   26.0310  -19.9600 C   0  0  0  0  0
   10.0980   24.9420  -15.9730 O   0  0  0  0  0
    8.3170   26.4660  -15.7790 C   0  0  0  0  0
    7.3630   27.2810  -16.3240 C   0  0  0  0  0
    9.2220   23.9420  -19.7080 C   0  0  0  0  0
    8.9270   24.0130  -21.1290 C   0  0  0  0  0
    8.2490   22.9020  -21.5400 N   0  0  0  0  0
    8.0660   22.1310  -20.3900 N   0  0  0  0  0
    9.7039   22.1957  -17.5685 H   0  0  0  0  0
    8.1562   23.0283  -17.2814 H   0  0  0  0  0
    8.1692   21.3129  -17.7594 H   0  0  0  0  0
    6.4200   27.8937  -18.1358 H   0  0  0  0  0
    7.8429   26.5781  -19.6112 H   0  0  0  0  0
   10.7395   24.4712  -18.4534 H   0  0  0  0  0
    9.5443   24.9001  -13.9613 H   0  0  0  0  0
    9.0284   23.4914  -14.9207 H   0  0  0  0  0
   10.7358   23.6692  -14.4470 H   0  0  0  0  0
    9.0557   28.6448  -20.5827 H   0  0  0  0  0
    9.9309   30.1684  -20.8714 H   0  0  0  0  0
    8.9741   29.4297  -22.1790 H   0  0  0  0  0
    9.0680   25.0391  -22.8718 H   0  0  0  0  0
   12.0039   29.0661  -20.1211 H   0  0  0  0  0
   12.6447   27.5922  -21.0180 H   0  0  0  0  0
   11.2973   26.7061  -22.8929 H   0  0  0  0  0
    9.5487   27.3047  -22.9729 H   0  0  0  0  0
   10.9891   29.4151  -23.6835 H   0  0  0  0  0
   11.9525   30.1729  -22.3917 H   0  0  0  0  0
   12.5054   28.6550  -23.1409 H   0  0  0  0  0
    8.4178   26.4172  -14.6948 H   0  0  0  0  0
    6.7425   27.9158  -15.6914 H   0  0  0  0  0
  1  2  1  0  0  0
 22  1  4  0  0  0
  1 25  4  0  0  0
  4  3  4  0  0  0
  3 21  4  0  0  0
  5  4  4  0  0  0
  6  5  1  0  0  0
  5  7  4  0  0  0
 18  6  1  0  0  0
  6 22  1  0  0  0
  7 19  1  0  0  0
  7 20  4  0  0  0
 19  8  1  0  0  0
 10  9  1  0  0  0
 10 13  1  0  0  0
 15 10  1  0  0  0
 10 17  1  0  0  0
 14 11  1  0  0  0
 11 23  1  0  0  0
 13 12  1  0  0  0
 12 16  2  0  0  0
 12 18  1  0  0  0
 14 15  1  0  0  0
 14 18  2  0  0  0
 20 21  4  0  0  0
 22 23  4  0  0  0
 23 24  4  0  0  0
 24 25  4  0  0  0
  2 26  1  0  0  0
  2 27  1  0  0  0
  2 28  1  0  0  0
  3 29  1  0  0  0
  4 30  1  0  0  0
  6 31  1  0  0  0
  8 32  1  0  0  0
  8 33  1  0  0  0
  8 34  1  0  0  0
  9 35  1  0  0  0
  9 36  1  0  0  0
  9 37  1  0  0  0
 11 38  1  0  0  0
 13 39  1  0  0  0
 13 40  1  0  0  0
 15 41  1  0  0  0
 15 42  1  0  0  0
 17 43  1  0  0  0
 17 44  1  0  0  0
 17 45  1  0  0  0
 20 46  1  0  0  0
 21 47  1  0  0  0
M  END
$$$$
