6gw4_ligand
  -I-interpret- 

 75 78  0  0  0  0  0  0  0  0999 V2000
   60.1930   -1.6200  -12.6080 C   0  0  0  0  0
   61.3640   -1.0840  -11.7800 C   0  0  0  0  0
   62.1580   -2.2380  -11.2050 C   0  0  0  0  0
   63.2750   -1.7270  -10.4740 O   0  0  0  0  0
   61.2630   -3.0480  -10.3030 C   0  0  0  0  0
   60.0580   -3.6150  -11.0590 C   0  0  0  0  0
   59.1990   -4.4940  -10.1440 C   0  0  0  0  0
   58.2220   -3.7530   -9.2430 C   0  0  0  0  0
   58.9060   -3.1490   -8.1420 O   0  0  0  0  0
   57.4320   -2.6840  -10.0070 C   0  0  0  0  0
   58.3290   -1.7570  -10.8380 C   0  0  0  0  0
   59.2290   -2.5530  -11.8400 C   0  0  0  0  0
   57.5030   -0.6400  -11.4950 C   0  0  0  0  0
   56.5310    0.0670  -10.5530 C   0  0  0  0  0
   55.6240   -0.8960   -9.7580 C   0  0  0  0  0
   56.5670   -1.8560   -9.0550 C   0  0  0  0  0
   55.6870   -2.5980   -8.0350 C   0  0  0  0  0
   54.6240   -1.5610   -7.6410 C   0  0  0  0  0
   54.8580   -0.3240   -8.5320 C   0  0  0  0  0
   54.6540   -1.6210  -10.7140 C   0  0  0  0  0
   58.3610   -3.2650  -12.8950 C   0  0  0  0  0
   53.5620    0.4890   -8.7410 C   0  0  0  0  0
   53.8200    1.9550   -9.0600 C   0  0  0  0  0
   52.6300    0.3680   -7.5170 C   0  0  0  0  0
   52.9590    1.3040   -6.3610 C   0  0  0  0  0
   52.1290    1.0500   -5.1180 C   0  0  0  0  0
   52.0240   -0.0720   -4.6190 O   0  0  0  0  0
   51.5150    2.1040   -4.5960 N   0  0  0  0  0
   51.6120    3.4360   -5.1630 C   0  0  0  0  0
   50.3360    3.7480   -5.9130 C   0  0  0  0  0
   50.3630    3.7720   -7.1680 O   0  0  0  0  0
   49.2960    3.9600   -5.2500 O   0  0  0  0  0
   60.6222   -2.2075  -13.4196 H   0  0  0  0  0
   59.6099   -0.7563  -12.9274 H   0  0  0  0  0
   60.9781   -0.4713  -10.9653 H   0  0  0  0  0
   62.0121   -0.4843  -12.4192 H   0  0  0  0  0
   62.5279   -2.8771  -12.0068 H   0  0  0  0  0
   63.8338   -1.2144  -11.0627 H   0  0  0  0  0
   60.8949   -2.3965   -9.5104 H   0  0  0  0  0
   61.8414   -3.8818   -9.9050 H   0  0  0  0  0
   60.4656   -4.2523  -11.8438 H   0  0  0  0  0
   59.8894   -5.0193   -9.4841 H   0  0  0  0  0
   58.5974   -5.1248  -10.7984 H   0  0  0  0  0
   57.5145   -4.4927   -8.8683 H   0  0  0  0  0
   58.2726   -2.6877   -7.5874 H   0  0  0  0  0
   56.7894   -3.2229  -10.7033 H   0  0  0  0  0
   59.0289   -1.2628  -10.1642 H   0  0  0  0  0
   56.9057   -1.1045  -12.2796 H   0  0  0  0  0
   58.2082    0.1121  -11.8488 H   0  0  0  0  0
   55.8826    0.6939  -11.1651 H   0  0  0  0  0
   57.1262    0.6248   -9.8300 H   0  0  0  0  0
   57.3704   -1.3551   -8.5148 H   0  0  0  0  0
   56.2575   -2.9528   -7.1766 H   0  0  0  0  0
   55.2470   -3.5048   -8.4500 H   0  0  0  0  0
   54.7083   -1.3007   -6.5859 H   0  0  0  0  0
   53.6201   -1.9599   -7.7869 H   0  0  0  0  0
   55.4722    0.4690   -8.1053 H   0  0  0  0  0
   54.0338   -0.8857  -11.2267 H   0  0  0  0  0
   55.2258   -2.1902  -11.4469 H   0  0  0  0  0
   54.0195   -2.2975  -10.1414 H   0  0  0  0  0
   57.6835   -3.9591  -12.3978 H   0  0  0  0  0
   57.7831   -2.5245  -13.4480 H   0  0  0  0  0
   59.0045   -3.8133  -13.5830 H   0  0  0  0  0
   53.0714    0.0551   -9.6123 H   0  0  0  0  0
   54.3685    2.4135   -8.2372 H   0  0  0  0  0
   54.4072    2.0284   -9.9753 H   0  0  0  0  0
   52.8684    2.4690   -9.1951 H   0  0  0  0  0
   52.7381   -0.6486   -7.1389 H   0  0  0  0  0
   51.6282    0.6294   -7.8577 H   0  0  0  0  0
   52.7468    2.3202   -6.6932 H   0  0  0  0  0
   54.0033    1.1401   -6.0953 H   0  0  0  0  0
   50.9489    1.9718   -3.7578 H   0  0  0  0  0
   52.4600    3.4831   -5.8462 H   0  0  0  0  0
   51.7563    4.1647   -4.3654 H   0  0  0  0  0
   51.2542    3.5840   -7.4714 H   0  0  0  0  0
  1  2  1  0  0  0
  1 12  1  0  0  0
  2  3  1  0  0  0
  3  4  1  0  0  0
  3  5  1  0  0  0
  5  6  1  0  0  0
  6  7  1  0  0  0
  6 12  1  0  0  0
  7  8  1  0  0  0
  8  9  1  0  0  0
  8 10  1  0  0  0
 10 11  1  0  0  0
 10 16  1  0  0  0
 11 12  1  0  0  0
 11 13  1  0  0  0
 12 21  1  0  0  0
 13 14  1  0  0  0
 14 15  1  0  0  0
 15 16  1  0  0  0
 15 19  1  0  0  0
 15 20  1  0  0  0
 16 17  1  0  0  0
 17 18  1  0  0  0
 18 19  1  0  0  0
 19 22  1  0  0  0
 22 23  1  0  0  0
 22 24  1  0  0  0
 24 25  1  0  0  0
 25 26  1  0  0  0
 26 27  2  0  0  0
 26 28  1  0  0  0
 28 29  1  0  0  0
 29 30  1  0  0  0
 30 31  1  0  0  0
 30 32  2  0  0  0
  1 33  1  0  0  0
  1 34  1  0  0  0
  2 35  1  0  0  0
  2 36  1  0  0  0
  3 37  1  0  0  0
  4 38  1  0  0  0
  5 39  1  0  0  0
  5 40  1  0  0  0
  6 41  1  0  0  0
  7 42  1  0  0  0
  7 43  1  0  0  0
  8 44  1  0  0  0
  9 45  1  0  0  0
 10 46  1  0  0  0
 11 47  1  0  0  0
 13 48  1  0  0  0
 13 49  1  0  0  0
 14 50  1  0  0  0
 14 51  1  0  0  0
 16 52  1  0  0  0
 17 53  1  0  0  0
 17 54  1  0  0  0
 18 55  1  0  0  0
 18 56  1  0  0  0
 19 57  1  0  0  0
 20 58  1  0  0  0
 20 59  1  0  0  0
 20 60  1  0  0  0
 21 61  1  0  0  0
 21 62  1  0  0  0
 21 63  1  0  0  0
 22 64  1  0  0  0
 23 65  1  0  0  0
 23 66  1  0  0  0
 23 67  1  0  0  0
 24 68  1  0  0  0
 24 69  1  0  0  0
 25 70  1  0  0  0
 25 71  1  0  0  0
 28 72  1  0  0  0
 29 73  1  0  0  0
 29 74  1  0  0  0
 31 75  1  0  0  0
M  END
$$$$
