4kox_ligand
  -I-interpret- 

 42 44  0  0  0  0  0  0  0  0999 V2000
  -12.7010    2.7280  -10.4430 S   0  0  0  0  0
  -11.9710    4.3470  -10.6830 C   0  0  0  0  0
  -12.9380    5.4210  -11.1180 C   0  0  0  0  0
  -12.3070    6.5670  -11.8320 C   0  0  0  0  0
  -11.3820    7.2280  -10.8350 O   0  0  0  0  0
  -10.9610    8.5860  -11.0840 C   0  0  0  0  0
  -11.2640    9.1740  -12.0960 O   0  0  0  0  0
  -10.1400    9.1410   -9.9690 C   0  0  0  0  0
  -14.2480    5.4010  -10.8830 C   0  0  0  0  0
  -15.2620    6.3710  -11.4440 C   0  0  0  0  0
  -15.2190    7.5590  -11.0960 O   0  0  0  0  0
  -16.1460    5.9180  -12.2160 O   0  0  0  0  0
  -14.7570    4.3550  -10.0710 N   0  0  0  0  0
  -13.9770    3.3440   -9.3530 C   0  0  0  0  0
  -15.3120    2.5390   -9.1780 C   0  0  0  0  0
  -15.9750    3.8440   -9.7060 C   0  0  0  0  0
  -17.0870    4.2990   -9.8300 O   0  0  0  0  0
  -15.7010    1.3720   -9.9800 N   0  0  0  0  0
  -15.3250    0.0730   -9.8380 C   0  0  0  0  0
  -14.4540   -0.3030   -9.0480 O   0  0  0  0  0
  -16.1560   -0.9270  -10.6520 C   0  0  0  0  0
  -15.5570   -1.4990  -11.9340 C   0  0  0  0  0
  -16.1240   -2.4770  -12.7900 C   0  0  0  0  0
  -15.2680   -2.7860  -13.8910 C   0  0  0  0  0
  -14.1260   -2.0930  -13.8210 C   0  0  0  0  0
  -14.0270   -1.0500  -12.4750 S   0  0  0  0  0
  -11.2327    4.2458  -11.4784 H   0  0  0  0  0
  -11.5669    4.6573   -9.7194 H   0  0  0  0  0
  -13.0600    7.2673  -12.1934 H   0  0  0  0  0
  -11.7593    6.2284  -12.7114 H   0  0  0  0  0
   -9.1570    9.4210  -10.3478 H   0  0  0  0  0
  -10.6359   10.0199   -9.5570 H   0  0  0  0  0
  -10.0293    8.3862   -9.1904 H   0  0  0  0  0
  -15.9969    4.9800  -12.3559 H   0  0  0  0  0
  -13.3715    3.4955   -8.4594 H   0  0  0  0  0
  -15.4633    2.0125   -8.2357 H   0  0  0  0  0
  -16.3420    1.5622  -10.7503 H   0  0  0  0  0
  -17.0369   -0.3709  -10.9727 H   0  0  0  0  0
  -16.2934   -1.7852   -9.9942 H   0  0  0  0  0
  -17.0980   -2.9385  -12.6271 H   0  0  0  0  0
  -15.5130   -3.4931  -14.6835 H   0  0  0  0  0
  -13.3292   -2.1865  -14.5588 H   0  0  0  0  0
  1  2  1  0  0  0
  1 14  1  0  0  0
  2  3  1  0  0  0
  3  4  1  0  0  0
  3  9  2  0  0  0
  4  5  1  0  0  0
  5  6  1  0  0  0
  6  7  2  0  0  0
  6  8  1  0  0  0
  9 10  1  0  0  0
  9 13  1  0  0  0
 10 11  2  0  0  0
 10 12  1  0  0  0
 13 14  1  0  0  0
 13 16  1  0  0  0
 14 15  1  0  0  0
 15 16  1  0  0  0
 15 18  1  0  0  0
 16 17  2  0  0  0
 18 19  1  0  0  0
 19 20  2  0  0  0
 19 21  1  0  0  0
 21 22  1  0  0  0
 22 23  4  0  0  0
 22 26  4  0  0  0
 23 24  4  0  0  0
 24 25  4  0  0  0
 25 26  4  0  0  0
  2 27  1  0  0  0
  2 28  1  0  0  0
  4 29  1  0  0  0
  4 30  1  0  0  0
  8 31  1  0  0  0
  8 32  1  0  0  0
  8 33  1  0  0  0
 12 34  1  0  0  0
 14 35  1  0  0  0
 15 36  1  0  0  0
 18 37  1  0  0  0
 21 38  1  0  0  0
 21 39  1  0  0  0
 23 40  1  0  0  0
 24 41  1  0  0  0
 25 42  1  0  0  0
M  END
$$$$
