4yw2_ligand
  -I-interpret- 

 61 62  0  0  0  0  0  0  0  0999 V2000
   26.6890  -15.1890   50.4750 C   0  0  0  0  0
   25.6490  -14.3590   51.1810 C   0  0  0  0  0
   26.2360  -13.5350   52.3360 C   0  0  0  0  0
   27.0100  -12.3430   51.8010 C   0  0  0  0  0
   26.1020  -11.5340   50.8810 C   0  0  0  0  0
   25.6030  -12.4080   49.7350 C   0  0  0  0  0
   24.5880  -11.7370   48.8050 C   0  0  0  0  0
   24.0080  -12.7070   47.7950 C   0  0  0  0  0
   23.5450  -11.9170   46.5820 C   0  0  0  0  0
   26.3800   -9.1900   50.1490 C   0  0  0  0  0
   27.3480   -8.1520   49.6220 C   0  0  0  0  0
   26.8490  -10.4290   50.3070 N   0  0  0  0  0
   26.6700  -15.2220   49.2320 O   0  0  0  0  0
   27.4880  -15.8680   51.1610 O   0  0  0  0  0
   24.6630  -15.2890   51.6950 O   0  0  0  0  0
   27.5020  -11.5460   52.8870 O   0  0  0  0  0
   24.9290  -13.5450   50.2380 O   0  0  0  0  0
   23.5360  -11.1820   49.6040 O   0  0  0  0  0
   24.9840  -13.6750   47.3810 O   0  0  0  0  0
   22.5410  -12.6890   45.9550 O   0  0  0  0  0
   25.2390   -8.8670   50.4410 O   0  0  0  0  0
   20.7370  -16.0900   52.3640 C   0  0  0  0  0
   20.1470  -17.4630   52.0220 C   0  0  0  0  0
   21.1810  -18.6030   52.0650 C   0  0  0  0  0
   22.4880  -18.2280   51.3950 C   0  0  0  0  0
   22.9330  -16.8920   51.9320 C   0  0  0  0  0
   24.2370  -16.5130   51.2750 C   0  0  0  0  0
   19.8280  -15.0310   52.0280 O   0  0  0  0  0
   19.1040  -17.7360   52.9610 O   0  0  0  0  0
   20.6950  -19.7660   51.3920 O   0  0  0  0  0
   22.3120  -18.0940   49.9850 O   0  0  0  0  0
   21.9460  -15.9000   51.6330 O   0  0  0  0  0
   26.9124  -14.1660   52.9126 H   0  0  0  0  0
   25.4208  -13.1746   52.9634 H   0  0  0  0  0
   27.8723  -12.6840   51.2281 H   0  0  0  0  0
   25.2594  -11.1652   51.4659 H   0  0  0  0  0
   26.5101  -12.6394   49.1768 H   0  0  0  0  0
   25.1007  -10.9570   48.2421 H   0  0  0  0  0
   23.1763  -13.2398   48.2561 H   0  0  0  0  0
   24.3745  -11.7301   45.9000 H   0  0  0  0  0
   23.1579  -10.9419   46.8777 H   0  0  0  0  0
   26.9515   -7.7209   48.7027 H   0  0  0  0  0
   27.4776   -7.3667   50.3667 H   0  0  0  0  0
   28.3093   -8.6237   49.4185 H   0  0  0  0  0
   27.8044  -10.6140   50.0015 H   0  0  0  0  0
   27.3348  -15.6952   52.0928 H   0  0  0  0  0
   28.0686  -12.0832   53.4456 H   0  0  0  0  0
   23.9093  -10.5688   50.2414 H   0  0  0  0  0
   24.5886  -14.2738   46.7433 H   0  0  0  0  0
   22.2190  -12.2239   45.1794 H   0  0  0  0  0
   20.9251  -16.0628   53.4373 H   0  0  0  0  0
   19.7779  -17.4226   50.9972 H   0  0  0  0  0
   21.3492  -18.7987   53.1240 H   0  0  0  0  0
   23.2224  -19.0078   51.5967 H   0  0  0  0  0
   23.0632  -16.9546   53.0124 H   0  0  0  0  0
   24.9899  -17.2542   51.5431 H   0  0  0  0  0
   24.0855  -16.4772   50.1962 H   0  0  0  0  0
   20.2250  -14.1865   52.2534 H   0  0  0  0  0
   18.7172  -18.5931   52.7677 H   0  0  0  0  0
   21.3579  -20.4591   51.4341 H   0  0  0  0  0
   23.1495  -17.8567   49.5802 H   0  0  0  0  0
  2  1  1  0  0  0
  1 13  2  0  0  0
  1 14  1  0  0  0
  2  3  1  0  0  0
 15  2  1  0  0  0
  2 17  1  0  0  0
  3  4  1  0  0  0
  4  5  1  0  0  0
  4 16  1  0  0  0
  6  5  1  0  0  0
  5 12  1  0  0  0
  6  7  1  0  0  0
 17  6  1  0  0  0
  7  8  1  0  0  0
  7 18  1  0  0  0
  8  9  1  0  0  0
  8 19  1  0  0  0
  9 20  1  0  0  0
 10 11  1  0  0  0
 12 10  1  0  0  0
 10 21  2  0  0  0
 27 15  1  0  0  0
 23 22  1  0  0  0
 22 28  1  0  0  0
 22 32  1  0  0  0
 24 23  1  0  0  0
 23 29  1  0  0  0
 25 24  1  0  0  0
 24 30  1  0  0  0
 26 25  1  0  0  0
 25 31  1  0  0  0
 26 27  1  0  0  0
 26 32  1  0  0  0
  3 33  1  0  0  0
  3 34  1  0  0  0
  4 35  1  0  0  0
  5 36  1  0  0  0
  6 37  1  0  0  0
  7 38  1  0  0  0
  8 39  1  0  0  0
  9 40  1  0  0  0
  9 41  1  0  0  0
 11 42  1  0  0  0
 11 43  1  0  0  0
 11 44  1  0  0  0
 12 45  1  0  0  0
 14 46  1  0  0  0
 16 47  1  0  0  0
 18 48  1  0  0  0
 19 49  1  0  0  0
 20 50  1  0  0  0
 22 51  1  0  0  0
 23 52  1  0  0  0
 24 53  1  0  0  0
 25 54  1  0  0  0
 26 55  1  0  0  0
 27 56  1  0  0  0
 27 57  1  0  0  0
 28 58  1  0  0  0
 29 59  1  0  0  0
 30 60  1  0  0  0
 31 61  1  0  0  0
M  END
$$$$
