6dyo_ligand
  -I-interpret- 

 23 23  0  0  0  0  0  0  0  0999 V2000
    8.5290   -3.2510   14.1950 C   0  0  0  0  0
    7.2080   -2.7860   13.5810 C   0  0  0  0  0
    4.8110   -1.9430   12.4730 C   0  0  0  0  0
    6.0080   -3.1070   14.1970 C   0  0  0  0  0
    7.2090   -2.0420   12.4110 C   0  0  0  0  0
    6.0100   -1.6210   11.8570 C   0  0  0  0  0
    4.8090   -2.6870   13.6450 C   0  0  0  0  0
    3.6000   -3.0150   14.2730 O   0  0  0  0  0
    3.6010   -1.5160   11.9080 O   0  0  0  0  0
    9.1660   -2.0940   14.9600 C   0  0  0  0  0
   10.1880   -1.4650   14.1400 N   0  3  0  0  0
    9.2029   -3.5797   13.4039 H   0  0  0  0  0
    8.3418   -4.0800   14.8775 H   0  0  0  0  0
    6.0081   -3.6910   15.1174 H   0  0  0  0  0
    8.1521   -1.7882   11.9270 H   0  0  0  0  0
    6.0102   -1.0367   10.9369 H   0  0  0  0  0
    3.7805   -3.5279   15.0642 H   0  0  0  0  0
    2.8705   -1.8191   12.4521 H   0  0  0  0  0
    9.6212   -2.4739   15.8746 H   0  0  0  0  0
    8.3993   -1.3595   15.2066 H   0  0  0  0  0
   10.6094   -0.6932   14.6568 H   0  0  0  0  0
   10.9054   -2.1516   13.9070 H   0  0  0  0  0
    9.7638   -1.1104   13.2828 H   0  0  0  0  0
  2  1  1  0  0  0
  1 10  1  0  0  0
  4  2  4  0  0  0
  2  5  4  0  0  0
  3  6  4  0  0  0
  7  3  4  0  0  0
  3  9  1  0  0  0
  4  7  4  0  0  0
  5  6  4  0  0  0
  7  8  1  0  0  0
 10 11  1  0  0  0
  1 12  1  0  0  0
  1 13  1  0  0  0
  4 14  1  0  0  0
  5 15  1  0  0  0
  6 16  1  0  0  0
  8 17  1  0  0  0
  9 18  1  0  0  0
 10 19  1  0  0  0
 10 20  1  0  0  0
 11 21  1  0  0  0
 11 22  1  0  0  0
 11 23  1  0  0  0
M  END
$$$$
