3ma3_ligand
  -I-interpret- 

 30 33  0  0  0  0  0  0  0  0999 V2000
  -21.8310   39.4900    0.7930 C   0  0  0  0  0
  -22.0270   39.4350   -0.5820 C   0  0  0  0  0
  -21.3520   38.5320   -1.3440 C   0  0  0  0  0
  -20.4410   37.6280   -0.8330 C   0  0  0  0  0
  -20.2320   37.6640    0.5230 C   0  0  0  0  0
  -20.9150   38.5890    1.3290 C   0  0  0  0  0
  -19.3340   36.8050    1.1370 C   0  0  0  0  0
  -19.1090   36.8610    2.4800 C   0  0  0  0  0
  -19.7900   37.7350    3.2900 C   0  0  0  0  0
  -20.6840   38.6200    2.6980 C   0  0  0  0  0
  -22.8630   40.1630   -1.4960 C   0  0  0  0  0
  -22.6010   39.6310   -2.7600 C   0  0  0  0  0
  -21.7460   38.7000   -2.6930 O   0  0  0  0  0
  -18.4880   35.7740    0.6190 C   0  0  0  0  0
  -17.8210   35.2640    1.7430 C   0  0  0  0  0
  -18.1450   35.8740    2.8140 O   0  0  0  0  0
  -16.8280   34.1810    1.9150 C   0  0  0  0  0
  -23.1040   39.8960   -4.1450 C   0  0  0  0  0
  -22.5000   39.3630   -5.1130 O   0  0  0  0  0
  -16.2390   34.1050    3.0240 O   0  0  0  0  0
  -16.6720   33.3860    0.9520 O   0  0  0  0  0
  -24.0980   40.6420   -4.2990 O   0  0  0  0  0
  -22.3673   40.2025    1.4198 H   0  0  0  0  0
  -19.9145   36.9214   -1.4746 H   0  0  0  0  0
  -19.6341   37.7353    4.3688 H   0  0  0  0  0
  -21.2102   39.3473    3.3162 H   0  0  0  0  0
  -23.5589   40.9658   -1.2526 H   0  0  0  0  0
  -18.3847   35.4556   -0.4183 H   0  0  0  0  0
  -21.7716   38.8328   -4.7814 H   0  0  0  0  0
  -17.2318   33.6572    0.2207 H   0  0  0  0  0
  1  2  4  0  0  0
  1  6  4  0  0  0
  2  3  4  0  0  0
  2 11  4  0  0  0
  3  4  4  0  0  0
  3 13  4  0  0  0
  4  5  4  0  0  0
  5  6  4  0  0  0
  5  7  4  0  0  0
  6 10  4  0  0  0
  7  8  4  0  0  0
  7 14  4  0  0  0
  8  9  4  0  0  0
  8 16  4  0  0  0
  9 10  4  0  0  0
 11 12  4  0  0  0
 12 13  4  0  0  0
 12 18  1  0  0  0
 14 15  4  0  0  0
 15 16  4  0  0  0
 15 17  1  0  0  0
 17 20  2  0  0  0
 17 21  1  0  0  0
 18 19  1  0  0  0
 18 22  2  0  0  0
  1 23  1  0  0  0
  4 24  1  0  0  0
  9 25  1  0  0  0
 10 26  1  0  0  0
 11 27  1  0  0  0
 14 28  1  0  0  0
 19 29  1  0  0  0
 21 30  1  0  0  0
M  END
$$$$
