5g6u_ligand
  -I-interpret- 

 33 33  0  0  0  0  0  0  0  0999 V2000
   87.3070   25.3450   56.3390 C   0  0  0  0  0
   86.4420   26.5490   56.4820 C   0  0  0  0  0
   85.1270   26.2880   55.8110 C   0  0  0  0  0
   85.3230   26.1120   54.3530 C   0  0  0  0  0
   86.3670   24.9630   54.1320 C   0  0  0  0  0
   86.6740   24.6790   52.6040 C   0  0  0  0  0
   86.2120   26.8110   57.8750 N   0  0  0  0  0
   84.2330   27.2980   56.0920 O   0  0  0  0  0
   84.1760   25.7580   53.7180 O   0  0  0  0  0
   87.5500   25.0990   55.0070 O   0  0  0  0  0
   87.1340   23.3890   52.5150 O   0  0  0  0  0
   87.4020   27.6970   58.5680 S   0  0  0  0  0
   87.4280   29.0180   57.9870 O   0  0  0  0  0
   88.6820   27.0460   58.4040 O   0  0  0  0  0
   87.1240   27.8140   60.0050 O   0  0  0  0  0
   86.3220   22.3850   51.8360 S   0  0  0  0  0
   85.1450   22.1440   52.6380 O   0  0  0  0  0
   85.9580   22.8730   50.5290 O   0  0  0  0  0
   87.1080   21.1570   51.6820 O   0  0  0  0  0
   86.6590   24.2600   56.8750 O   0  0  0  0  0
   88.2502   25.5180   56.8572 H   0  0  0  0  0
   86.9322   27.4081   56.0240 H   0  0  0  0  0
   84.7037   25.3625   56.2014 H   0  0  0  0  0
   85.6617   27.0640   53.9442 H   0  0  0  0  0
   85.8960   24.0377   54.4638 H   0  0  0  0  0
   87.4191   25.3790   52.2258 H   0  0  0  0  0
   85.7748   24.8081   52.0016 H   0  0  0  0  0
   85.3910   26.4790   58.3812 H   0  0  0  0  0
   84.1336   27.3804   57.0433 H   0  0  0  0  0
   83.5189   26.4474   53.8387 H   0  0  0  0  0
   87.1052   26.9385   60.3985 H   0  0  0  0  0
   87.8837   21.3399   51.1468 H   0  0  0  0  0
   86.4841   24.4205   57.8052 H   0  0  0  0  0
  1  2  1  0  0  0
  1 10  1  0  0  0
  1 20  1  0  0  0
  2  3  1  0  0  0
  2  7  1  0  0  0
  3  4  1  0  0  0
  3  8  1  0  0  0
  4  5  1  0  0  0
  4  9  1  0  0  0
  5  6  1  0  0  0
  5 10  1  0  0  0
  6 11  1  0  0  0
  7 12  1  0  0  0
 11 16  1  0  0  0
 12 13  2  0  0  0
 12 14  2  0  0  0
 12 15  1  0  0  0
 16 17  2  0  0  0
 16 18  2  0  0  0
 16 19  1  0  0  0
  1 21  1  0  0  0
  2 22  1  0  0  0
  3 23  1  0  0  0
  4 24  1  0  0  0
  5 25  1  0  0  0
  6 26  1  0  0  0
  6 27  1  0  0  0
  7 28  1  0  0  0
  8 29  1  0  0  0
  9 30  1  0  0  0
 15 31  1  0  0  0
 19 32  1  0  0  0
 20 33  1  0  0  0
M  END
$$$$
