1oiy_ligand
  -I-interpret- 

 48 51  0  0  0  0  0  0  0  0999 V2000
    7.8810   43.6980   49.5180 C   0  0  0  0  0
    4.8200   45.4890   51.6160 C   0  0  0  0  0
    3.9450   46.0810   52.7150 C   0  0  0  0  0
    2.4610   45.7880   52.4180 C   0  0  0  0  0
    1.5010   46.0030   53.6110 C   0  0  0  0  0
    2.0960   45.5600   54.9590 C   0  0  0  0  0
    3.5120   46.1240   55.1780 C   0  0  0  0  0
    4.4390   45.5910   54.0960 C   0  0  0  0  0
    4.6900   40.7610   47.3980 C   0  0  0  0  0
    3.8070   40.8290   48.4620 C   0  0  0  0  0
    4.2100   41.5200   49.6130 C   0  0  0  0  0
    5.4670   42.1260   49.7170 C   0  0  0  0  0
    1.8670   39.6660   49.4840 N   0  0  0  0  0
    6.8780   44.4040   50.1330 N   0  0  0  0  0
    7.1250   45.4480   50.9660 C   0  0  0  0  0
    6.0940   46.1500   51.5500 O   0  0  0  0  0
    8.5350   45.8060   51.2070 C   0  0  0  0  0
    9.1820   46.7570   51.9440 N   0  0  0  0  0
   10.8140   45.4530   50.8500 N   0  0  0  0  0
    9.5360   45.0150   50.5430 C   0  0  0  0  0
    9.1970   44.0060   49.7220 N   0  0  0  0  0
    7.5800   42.6460   48.6920 N   0  0  0  0  0
    6.3480   42.0640   48.6390 C   0  0  0  0  0
    5.9500   41.3700   47.4870 C   0  0  0  0  0
    2.4220   40.2080   48.3820 C   0  0  0  0  0
   10.5380   46.5190   51.7020 C   0  0  0  0  0
    1.8160   40.2550   47.3140 O   0  0  0  0  0
    4.3119   45.6187   50.6604 H   0  0  0  0  0
    4.9872   44.4346   51.8359 H   0  0  0  0  0
    4.0290   47.1675   52.7399 H   0  0  0  0  0
    2.3963   44.7340   52.1480 H   0  0  0  0  0
    2.1531   46.4833   51.6371 H   0  0  0  0  0
    0.6108   45.4005   53.4301 H   0  0  0  0  0
    1.2929   47.0709   53.6779 H   0  0  0  0  0
    2.1583   44.4718   54.9628 H   0  0  0  0  0
    1.4529   45.9351   55.7551 H   0  0  0  0  0
    3.8796   45.8166   56.1570 H   0  0  0  0  0
    3.4825   47.2125   55.1293 H   0  0  0  0  0
    5.4519   45.9535   54.2715 H   0  0  0  0  0
    4.4385   44.5012   54.1187 H   0  0  0  0  0
    4.4050   40.2325   46.4883 H   0  0  0  0  0
    3.5213   41.5876   50.4551 H   0  0  0  0  0
    5.7545   42.6420   50.6331 H   0  0  0  0  0
    0.9227   39.2826   49.4435 H   0  0  0  0  0
    2.3913   39.6392   50.3586 H   0  0  0  0  0
    8.3148   42.2802   48.0865 H   0  0  0  0  0
    6.6353   41.3025   46.6421 H   0  0  0  0  0
   11.3250   47.1261   52.1494 H   0  0  0  0  0
  1 14  4  0  0  0
  1 21  4  0  0  0
 22  1  1  0  0  0
  2  3  1  0  0  0
 16  2  1  0  0  0
  3  4  1  0  0  0
  3  8  1  0  0  0
  4  5  1  0  0  0
  5  6  1  0  0  0
  7  6  1  0  0  0
  8  7  1  0  0  0
 10  9  4  0  0  0
  9 24  4  0  0  0
 11 10  4  0  0  0
 10 25  1  0  0  0
 12 11  4  0  0  0
 23 12  4  0  0  0
 25 13  1  0  0  0
 14 15  4  0  0  0
 15 16  1  0  0  0
 15 17  4  0  0  0
 17 18  4  0  0  0
 20 17  4  0  0  0
 26 18  4  0  0  0
 20 19  4  0  0  0
 19 26  4  0  0  0
 21 20  4  0  0  0
 22 23  1  0  0  0
 23 24  4  0  0  0
 25 27  2  0  0  0
  2 28  1  0  0  0
  2 29  1  0  0  0
  3 30  1  0  0  0
  4 31  1  0  0  0
  4 32  1  0  0  0
  5 33  1  0  0  0
  5 34  1  0  0  0
  6 35  1  0  0  0
  6 36  1  0  0  0
  7 37  1  0  0  0
  7 38  1  0  0  0
  8 39  1  0  0  0
  8 40  1  0  0  0
  9 41  1  0  0  0
 11 42  1  0  0  0
 12 43  1  0  0  0
 13 44  1  0  0  0
 13 45  1  0  0  0
 22 46  1  0  0  0
 24 47  1  0  0  0
 26 48  1  0  0  0
M  END
$$$$
