4ufe_ligand
  -I-interpret- 

 68 70  0  0  0  0  0  0  0  0999 V2000
   13.7450  -13.4260   21.4760 C   0  0  0  0  0
   14.3120  -12.2600   20.9660 C   0  0  0  0  0
   15.4280  -12.2810   20.0030 C   0  0  0  0  0
   16.7530  -12.5660   20.7180 N   0  0  0  0  0
   13.7670  -11.0410   21.4460 C   0  0  0  0  0
   12.7450  -11.0950   22.3400 C   0  0  0  0  0
   12.1580  -12.2360   22.8550 C   0  0  0  0  0
   11.0690  -12.1910   23.8120 C   0  0  0  0  0
   10.7230  -11.0780   24.4150 N   0  0  0  0  0
   12.7080  -13.4480   22.3810 C   0  0  0  0  0
   10.3880  -13.3220   24.1160 N   0  0  0  0  0
   17.2960  -13.8400   20.5850 C   0  0  0  0  0
   18.6230  -14.0330   21.3640 C   0  0  0  0  0
   19.9090  -14.1580   20.4710 C   0  0  0  0  0
   18.6130  -15.3090   22.0610 N   0  0  0  0  0
   16.7890  -14.7690   19.9240 O   0  0  0  0  0
   17.6790  -15.5810   22.9730 C   0  0  0  0  0
   17.6730  -16.8990   23.6460 C   0  0  0  0  0
   18.3350  -16.7110   25.0710 C   0  0  0  0  0
   16.3860  -17.4210   23.9560 N   0  0  0  0  0
   16.7960  -14.7580   23.2610 O   0  0  0  0  0
   15.6400  -18.2730   22.7650 S   0  0  0  0  0
   15.1540  -17.0700   21.4380 C   0  0  0  0  0
   16.6850  -19.2470   22.3180 O   0  0  0  0  0
   14.4090  -18.8470   23.3770 O   0  0  0  0  0
   11.9070  -18.5630   19.1210 C   0  0  0  0  0
   13.2380  -18.8640   18.7930 C   0  0  0  0  0
   14.3300  -18.3850   19.5410 C   0  0  0  0  0
   14.0690  -17.5790   20.6540 C   0  0  0  0  0
   12.7260  -17.2720   20.9850 C   0  0  0  0  0
   11.6520  -17.7640   20.2180 C   0  0  0  0  0
   22.2360  -14.8690   24.9430 C   0  0  0  0  0
   21.1470  -14.2110   25.5580 C   0  0  0  0  0
   19.8920  -14.7980   25.6100 C   0  0  0  0  0
   19.6740  -16.0700   25.0390 C   0  0  0  0  0
   20.7640  -16.7370   24.4190 C   0  0  0  0  0
   22.0350  -16.1140   24.3950 C   0  0  0  0  0
   14.1477  -14.3805   21.1372 H   0  0  0  0  0
   15.4921  -11.3081   19.5157 H   0  0  0  0  0
   15.2466  -13.0667   19.2696 H   0  0  0  0  0
   17.2200  -11.8477   21.2714 H   0  0  0  0  0
   14.1593  -10.0828   21.1053 H   0  0  0  0  0
   12.3473  -10.1412   22.6866 H   0  0  0  0  0
    9.9599  -11.0806   25.0918 H   0  0  0  0  0
   12.3111  -14.4006   22.7320 H   0  0  0  0  0
    9.6294  -13.2930   24.7972 H   0  0  0  0  0
   10.6339  -14.2025   23.6637 H   0  0  0  0  0
   18.6697  -13.1452   21.9946 H   0  0  0  0  0
   19.8082  -15.0184   19.8095 H   0  0  0  0  0
   20.0260  -13.2523   19.8759 H   0  0  0  0  0
   20.7821  -14.2898   21.1100 H   0  0  0  0  0
   19.3289  -16.0043   21.8499 H   0  0  0  0  0
   18.1773  -17.5712   22.9518 H   0  0  0  0  0
   18.4639  -17.7048   25.4999 H   0  0  0  0  0
   17.6792  -16.0583   25.6472 H   0  0  0  0  0
   15.9507  -17.2745   24.8667 H   0  0  0  0  0
   16.0106  -16.9066   20.7841 H   0  0  0  0  0
   14.8377  -16.1394   21.9092 H   0  0  0  0  0
   11.0869  -18.9541   18.5189 H   0  0  0  0  0
   13.4338  -19.4934   17.9249 H   0  0  0  0  0
   15.3529  -18.6358   19.2601 H   0  0  0  0  0
   12.5198  -16.6424   21.8506 H   0  0  0  0  0
   10.6258  -17.5156   20.4887 H   0  0  0  0  0
   23.2181  -14.3978   24.9037 H   0  0  0  0  0
   21.2962  -13.2254   25.9989 H   0  0  0  0  0
   19.0686  -14.2737   26.0950 H   0  0  0  0  0
   20.6233  -17.7185   23.9663 H   0  0  0  0  0
   22.8737  -16.6333   23.9314 H   0  0  0  0  0
  2  1  4  0  0  0
  1 10  4  0  0  0
  3  2  1  0  0  0
  2  5  4  0  0  0
  4  3  1  0  0  0
 12  4  1  0  0  0
  5  6  4  0  0  0
  6  7  4  0  0  0
  7  8  1  0  0  0
 10  7  4  0  0  0
  8  9  2  0  0  0
  8 11  1  0  0  0
 13 12  1  0  0  0
 12 16  2  0  0  0
 13 14  1  0  0  0
 15 13  1  0  0  0
 17 15  1  0  0  0
 18 17  1  0  0  0
 17 21  2  0  0  0
 19 18  1  0  0  0
 18 20  1  0  0  0
 35 19  1  0  0  0
 20 22  1  0  0  0
 22 23  1  0  0  0
 22 24  2  0  0  0
 22 25  2  0  0  0
 23 29  1  0  0  0
 27 26  4  0  0  0
 31 26  4  0  0  0
 28 27  4  0  0  0
 29 28  4  0  0  0
 29 30  4  0  0  0
 30 31  4  0  0  0
 33 32  4  0  0  0
 32 37  4  0  0  0
 34 33  4  0  0  0
 34 35  4  0  0  0
 35 36  4  0  0  0
 36 37  4  0  0  0
  1 38  1  0  0  0
  3 39  1  0  0  0
  3 40  1  0  0  0
  4 41  1  0  0  0
  5 42  1  0  0  0
  6 43  1  0  0  0
  9 44  1  0  0  0
 10 45  1  0  0  0
 11 46  1  0  0  0
 11 47  1  0  0  0
 13 48  1  0  0  0
 14 49  1  0  0  0
 14 50  1  0  0  0
 14 51  1  0  0  0
 15 52  1  0  0  0
 18 53  1  0  0  0
 19 54  1  0  0  0
 19 55  1  0  0  0
 20 56  1  0  0  0
 23 57  1  0  0  0
 23 58  1  0  0  0
 26 59  1  0  0  0
 27 60  1  0  0  0
 28 61  1  0  0  0
 30 62  1  0  0  0
 31 63  1  0  0  0
 32 64  1  0  0  0
 33 65  1  0  0  0
 34 66  1  0  0  0
 36 67  1  0  0  0
 37 68  1  0  0  0
M  END
$$$$
