6ne5_ligand
  -I-interpret- 

 89 95  0  0  0  0  0  0  0  0999 V2000
   -6.4570  -14.1070   93.4150 C   0  0  0  0  0
   -5.4410  -15.4000   96.3720 C   0  0  0  0  0
   -6.2790  -18.2920   97.7780 C   0  0  0  0  0
   -3.2350  -16.0900   88.0510 C   0  0  0  0  0
   -2.1180  -13.8580   87.4370 C   0  0  0  0  0
   -4.3040  -14.9220   90.5650 C   0  0  0  0  0
   -4.0650  -16.9600   88.9570 C   0  0  0  0  0
   -3.7150  -16.8760   95.9800 C   0  0  0  0  0
   -2.6650  -17.9980   96.0030 C   0  0  0  0  0
   -1.6430  -18.0750   94.9050 C   0  0  0  0  0
   -1.6680  -17.0820   93.8030 C   0  0  0  0  0
   -2.7130  -15.9960   93.7940 C   0  0  0  0  0
   -3.7470  -15.9170   94.9190 C   0  0  0  0  0
   -4.8390  -15.0100   95.1710 C   0  0  0  0  0
   -5.2440  -13.7850   94.2590 C   0  0  0  0  0
   -6.0260  -14.9400   92.1700 C   0  0  0  0  0
   -6.6580  -14.9490   97.1990 C   0  0  0  0  0
   -5.8820  -16.2320   99.0770 C   0  0  0  0  0
   -5.2290  -17.1970   98.1320 C   0  0  0  0  0
   -2.9420  -14.6580   88.3850 C   0  0  0  0  0
   -3.4830  -14.0600   89.6550 C   0  0  0  0  0
   -4.6020  -16.3720   90.2340 C   0  0  0  0  0
   -4.3570  -18.4480   88.5950 C   0  0  0  0  0
   -3.2880  -22.0910   98.8710 C   0  0  0  0  0
   -3.1800  -20.2820   97.1910 C   0  0  0  0  0
   -3.9290  -20.9940   96.0480 C   0  0  0  0  0
   -2.6450  -18.9980   97.1560 C   0  0  0  0  0
   -2.0650  -18.7430   98.3630 C   0  0  0  0  0
   -1.3550  -17.4340   98.7560 C   0  0  0  0  0
  -11.5960  -15.0450  100.0560 C   0  0  0  0  0
   -9.3470  -15.4960   98.9900 C   0  0  0  0  0
   -8.0590  -14.9830   99.1540 C   0  0  0  0  0
   -8.1060  -14.0470  100.1200 C   0  0  0  0  0
   -9.4420  -13.9450  100.5830 C   0  0  0  0  0
   -9.8050  -12.9440  101.6930 C   0  0  0  0  0
   -8.7140  -12.0850  102.2630 C   0  0  0  0  0
   -7.3380  -12.2160  101.7620 C   0  0  0  0  0
   -6.2350  -11.3690  102.3350 C   0  0  0  0  0
   -6.9830  -13.1890  100.6870 C   0  0  0  0  0
   -6.8320  -15.3910   98.4220 N   0  0  0  0  0
   -4.7470  -16.5900   96.8630 N   0  0  0  0  0
   -2.9210  -20.7890   98.4080 N   0  0  0  0  0
   -2.2250  -19.8360   99.1420 N   0  0  0  0  0
  -10.1930  -14.8370   99.8850 N   0  0  0  0  0
   -4.7920  -14.3870   91.7200 O   0  0  0  0  0
   -7.5360  -14.2390   96.6620 O   0  0  0  0  0
   -6.4220  -10.8460  103.4890 O   0  0  0  0  0
   -5.1450  -11.2210  101.6870 O   0  0  0  0  0
   -0.4250  -19.3500   94.9210 Cl  0  0  0  0  0
   -2.5510  -16.6690   86.5400 Cl  0  0  0  0  0
   -6.9234  -13.1789   93.0845 H   0  0  0  0  0
   -7.1662  -14.6846   94.0079 H   0  0  0  0  0
   -6.5905  -18.8030   98.6890 H   0  0  0  0  0
   -7.1445  -17.8252   97.3077 H   0  0  0  0  0
   -5.8342  -19.0113   97.0904 H   0  0  0  0  0
   -1.1385  -14.3234   87.3269 H   0  0  0  0  0
   -2.6150  -13.8208   86.4676 H   0  0  0  0  0
   -1.9995  -12.8463   87.8250 H   0  0  0  0  0
   -0.9318  -17.1378   93.0011 H   0  0  0  0  0
   -2.7322  -15.2658   92.9849 H   0  0  0  0  0
   -5.4829  -12.9376   94.9016 H   0  0  0  0  0
   -4.4102  -13.5553   93.5955 H   0  0  0  0  0
   -6.7833  -14.8922   91.3875 H   0  0  0  0  0
   -5.9111  -15.9932   92.4261 H   0  0  0  0  0
   -5.1049  -15.5970   99.5024 H   0  0  0  0  0
   -6.4083  -16.8079   99.8382 H   0  0  0  0  0
   -4.3468  -17.5886   98.6384 H   0  0  0  0  0
   -3.2815  -13.0192   89.9084 H   0  0  0  0  0
   -5.1983  -16.9811   90.9133 H   0  0  0  0  0
   -4.8881  -18.4918   87.6441 H   0  0  0  0  0
   -3.4160  -18.9919   88.5125 H   0  0  0  0  0
   -4.9704  -18.8970   89.3762 H   0  0  0  0  0
   -4.3722  -22.1963   98.8334 H   0  0  0  0  0
   -2.8261  -22.8453   98.2340 H   0  0  0  0  0
   -2.9445  -22.2205   99.8973 H   0  0  0  0  0
   -4.8148  -20.4176   95.7813 H   0  0  0  0  0
   -3.2731  -21.0763   95.1814 H   0  0  0  0  0
   -4.2271  -21.9900   96.3756 H   0  0  0  0  0
   -0.5166  -17.2603   98.0815 H   0  0  0  0  0
   -2.0587  -16.6047   98.6841 H   0  0  0  0  0
   -0.9890  -17.5138   99.7796 H   0  0  0  0  0
  -12.1099  -14.8369   99.1175 H   0  0  0  0  0
  -11.7756  -16.0796  100.3485 H   0  0  0  0  0
  -11.9692  -14.3767  100.8320 H   0  0  0  0  0
   -9.6411  -16.2748   98.2864 H   0  0  0  0  0
  -10.8291  -12.8605  102.0567 H   0  0  0  0  0
   -8.9419  -11.3642  103.0482 H   0  0  0  0  0
   -5.9600  -13.2817  100.3222 H   0  0  0  0  0
   -7.2997  -11.0740  103.8040 H   0  0  0  0  0
 15  1  1  0  0  0
  1 16  1  0  0  0
  2 14  4  0  0  0
 17  2  1  0  0  0
  2 41  4  0  0  0
 19  3  1  0  0  0
  7  4  4  0  0  0
 20  4  4  0  0  0
  4 50  1  0  0  0
 20  5  1  0  0  0
  6 21  4  0  0  0
  6 22  4  0  0  0
 45  6  1  0  0  0
 22  7  4  0  0  0
  7 23  1  0  0  0
  8  9  4  0  0  0
  8 13  4  0  0  0
 41  8  4  0  0  0
  9 10  4  0  0  0
  9 27  1  0  0  0
 10 11  4  0  0  0
 10 49  1  0  0  0
 12 11  4  0  0  0
 13 12  4  0  0  0
 14 13  4  0  0  0
 14 15  1  0  0  0
 16 45  1  0  0  0
 40 17  1  0  0  0
 17 46  2  0  0  0
 18 19  1  0  0  0
 40 18  1  0  0  0
 19 41  1  0  0  0
 21 20  4  0  0  0
 42 24  1  0  0  0
 25 26  1  0  0  0
 27 25  4  0  0  0
 25 42  4  0  0  0
 27 28  4  0  0  0
 28 29  1  0  0  0
 28 43  4  0  0  0
 44 30  1  0  0  0
 32 31  4  0  0  0
 31 44  4  0  0  0
 32 33  4  0  0  0
 32 40  1  0  0  0
 33 34  4  0  0  0
 33 39  4  0  0  0
 34 35  4  0  0  0
 34 44  4  0  0  0
 35 36  4  0  0  0
 36 37  4  0  0  0
 37 38  1  0  0  0
 37 39  4  0  0  0
 38 47  1  0  0  0
 38 48  2  0  0  0
 42 43  4  0  0  0
  1 51  1  0  0  0
  1 52  1  0  0  0
  3 53  1  0  0  0
  3 54  1  0  0  0
  3 55  1  0  0  0
  5 56  1  0  0  0
  5 57  1  0  0  0
  5 58  1  0  0  0
 11 59  1  0  0  0
 12 60  1  0  0  0
 15 61  1  0  0  0
 15 62  1  0  0  0
 16 63  1  0  0  0
 16 64  1  0  0  0
 18 65  1  0  0  0
 18 66  1  0  0  0
 19 67  1  0  0  0
 21 68  1  0  0  0
 22 69  1  0  0  0
 23 70  1  0  0  0
 23 71  1  0  0  0
 23 72  1  0  0  0
 24 73  1  0  0  0
 24 74  1  0  0  0
 24 75  1  0  0  0
 26 76  1  0  0  0
 26 77  1  0  0  0
 26 78  1  0  0  0
 29 79  1  0  0  0
 29 80  1  0  0  0
 29 81  1  0  0  0
 30 82  1  0  0  0
 30 83  1  0  0  0
 30 84  1  0  0  0
 31 85  1  0  0  0
 35 86  1  0  0  0
 36 87  1  0  0  0
 39 88  1  0  0  0
 47 89  1  0  0  0
M  END
$$$$
