2xgo_ligand
  -I-interpret- 

 64 66  0  0  0  0  0  0  0  0999 V2000
   29.9140    7.6450    2.3300 N   0  0  0  0  0
   30.2570    7.9330    3.6880 C   0  0  0  0  0
   30.1560    9.0870    4.1180 O   0  0  0  0  0
   30.7370    6.8920    4.5400 N   0  0  0  0  0
   30.8590    5.5740    4.0460 C   0  0  0  0  0
   31.2470    4.6730    4.7880 O   0  0  0  0  0
   30.5010    5.3020    2.7190 C   0  0  0  0  0
   30.0270    6.3140    1.8590 C   0  0  0  0  0
   27.7290    8.1820   -4.2840 P   0  0  0  0  0
   25.1080    7.1960   -4.4690 P   0  0  0  0  0
   24.1740    6.0830   -1.4280 C   0  0  0  0  0
   28.0550    6.7210   -4.2910 O   0  0  0  0  0
   29.4000    8.7490    1.4570 C   0  0  0  0  0
   23.7790    7.8050   -4.7040 O   0  0  0  0  0
   21.7760    6.1130   -2.3520 N   0  0  0  0  0
   30.9730   10.5030    0.8580 O   0  0  0  0  0
   22.8860    6.7550   -1.8670 C   0  0  0  0  0
   28.6030    9.1720   -4.9830 O   0  0  0  0  0
   30.2030    9.4480    0.3480 C   0  0  0  0  0
   25.5290    5.9990   -5.2550 O   0  0  0  0  0
   22.9650    8.2690   -1.6070 C   0  0  0  0  0
   21.8570    8.9610   -2.1520 O   0  0  0  0  0
   26.2050    8.3290   -4.8100 O   0  0  0  0  0
   29.0300   10.1170   -0.3300 C   0  0  0  0  0
   28.4270   11.1030    0.5370 O   0  0  0  0  0
   23.0110    8.3730   -0.0760 C   0  0  0  0  0
   22.8490    9.7020    0.4110 O   0  0  0  0  0
   28.0520    8.9650   -0.4580 C   0  0  0  0  0
   28.2520    8.1950    0.7490 O   0  0  0  0  0
   24.3080    7.7140    0.4620 C   0  0  0  0  0
   24.4750    6.3180   -0.0150 O   0  0  0  0  0
   28.4720    8.2820   -1.7480 C   0  0  0  0  0
   27.5680    8.6740   -2.7680 O   0  0  0  0  0
   24.3470    7.7410    2.0160 C   0  0  0  0  0
   24.4780    9.1100    2.4950 O   0  0  0  0  0
   21.5290    4.8050   -2.6020 C   0  0  0  0  0
   20.4690    4.4130   -3.0780 O   0  0  0  0  0
   22.5980    3.7540   -2.3030 C   0  0  0  0  0
   25.5530    6.8970   -2.3010 S   0  0  0  0  0
   30.9918    7.1002    5.5055 H   0  0  0  0  0
   30.5911    4.2832    2.3422 H   0  0  0  0  0
   29.7480    6.0724    0.8334 H   0  0  0  0  0
   24.0593    5.0177   -1.6284 H   0  0  0  0  0
   27.3865    6.2427   -3.7950 H   0  0  0  0  0
   29.3068    9.5391    2.2021 H   0  0  0  0  0
   31.4606   10.9170    0.1421 H   0  0  0  0  0
   30.8667    8.7923   -0.2156 H   0  0  0  0  0
   26.4098    5.7320   -4.9821 H   0  0  0  0  0
   23.8304    8.7292   -2.0839 H   0  0  0  0  0
   21.9451    9.8991   -1.9682 H   0  0  0  0  0
   29.3053   10.6175   -1.2584 H   0  0  0  0  0
   27.6858   11.5137    0.0858 H   0  0  0  0  0
   22.1500    7.8256    0.3076 H   0  0  0  0  0
   22.8874    9.6970    1.3702 H   0  0  0  0  0
   26.9875    9.1887   -0.5284 H   0  0  0  0  0
   25.1359    8.3042    0.0693 H   0  0  0  0  0
   28.4521    7.1993   -1.6238 H   0  0  0  0  0
   29.4881    8.5733   -2.0140 H   0  0  0  0  0
   25.2026    7.1602    2.3605 H   0  0  0  0  0
   23.4206    7.3160    2.4025 H   0  0  0  0  0
   24.5007    9.1112    3.4547 H   0  0  0  0  0
   22.2067    3.0338   -1.5844 H   0  0  0  0  0
   22.8676    3.2392   -3.2252 H   0  0  0  0  0
   23.4793    4.2422   -1.8869 H   0  0  0  0  0
  1  2  1  0  0  0
  1  8  1  0  0  0
 13  1  1  0  0  0
  2  3  2  0  0  0
  2  4  1  0  0  0
  4  5  1  0  0  0
  5  6  2  0  0  0
  7  5  1  0  0  0
  8  7  2  0  0  0
  9 12  1  0  0  0
  9 18  2  0  0  0
  9 23  1  0  0  0
 33  9  1  0  0  0
 10 14  2  0  0  0
 10 20  1  0  0  0
 23 10  1  0  0  0
 10 39  1  0  0  0
 11 17  1  0  0  0
 11 31  1  0  0  0
 39 11  1  0  0  0
 13 19  1  0  0  0
 29 13  1  0  0  0
 17 15  2  0  0  0
 15 36  1  0  0  0
 19 16  1  0  0  0
 17 21  1  0  0  0
 24 19  1  0  0  0
 21 22  1  0  0  0
 21 26  1  0  0  0
 24 25  1  0  0  0
 28 24  1  0  0  0
 26 27  1  0  0  0
 30 26  1  0  0  0
 28 29  1  0  0  0
 32 28  1  0  0  0
 31 30  1  0  0  0
 30 34  1  0  0  0
 32 33  1  0  0  0
 34 35  1  0  0  0
 36 37  2  0  0  0
 36 38  1  0  0  0
  4 40  1  0  0  0
  7 41  1  0  0  0
  8 42  1  0  0  0
 11 43  1  0  0  0
 12 44  1  0  0  0
 13 45  1  0  0  0
 16 46  1  0  0  0
 19 47  1  0  0  0
 20 48  1  0  0  0
 21 49  1  0  0  0
 22 50  1  0  0  0
 24 51  1  0  0  0
 25 52  1  0  0  0
 26 53  1  0  0  0
 27 54  1  0  0  0
 28 55  1  0  0  0
 30 56  1  0  0  0
 32 57  1  0  0  0
 32 58  1  0  0  0
 34 59  1  0  0  0
 34 60  1  0  0  0
 35 61  1  0  0  0
 38 62  1  0  0  0
 38 63  1  0  0  0
 38 64  1  0  0  0
M  END
$$$$
