### 
### Created by X-TOOL on Mon Sep 10 21:13:04 2018
### 

@<TRIPOS>MOLECULE
2xgo_ligand
   62    64     1     0     0
SMALL
GAST_HUCK


@<TRIPOS>ATOM
      1 N1         29.9140    7.6450    2.3300 N.am      1 ZKD        -0.1592
      2 C2         30.2570    7.9330    3.6880 C.2       1 ZKD         0.3328
      3 O2         30.1560    9.0870    4.1180 O.2       1 ZKD        -0.3815
      4 N3         30.7370    6.8920    4.5400 N.am      1 ZKD        -0.1865
      5 C4         30.8590    5.5740    4.0460 C.2       1 ZKD         0.1822
      6 O4         31.2470    4.6730    4.7880 O.2       1 ZKD        -0.4124
      7 C5         30.5010    5.3020    2.7190 C.2       1 ZKD         0.0062
      8 C6         30.0270    6.3140    1.8590 C.2       1 ZKD         0.0591
      9 PA         27.7290    8.1820   -4.2840 P.3       1 ZKD         0.2964
     10 PB         25.1080    7.1960   -4.4690 P.3       1 ZKD         0.2282
     11 C1'        24.1740    6.0830   -1.4280 C.3       1 ZKD         0.1970
     12 O1A        28.0550    6.7210   -4.2910 O.co2     1 ZKD        -0.6125
     13 C1B        29.4000    8.7490    1.4570 C.3       1 ZKD         0.2059
     14 O1B        23.7790    7.8050   -4.7040 O.co2     1 ZKD        -0.6074
     15 N2'        21.7760    6.1130   -2.3520 N.2       1 ZKD        -0.2686
     16 O2'        30.9730   10.5030    0.8580 O.3       1 ZKD        -0.3836
     17 C2'        22.8860    6.7550   -1.8670 C.2       1 ZKD         0.1079
     18 O2A        28.6030    9.1720   -4.9830 O.co2     1 ZKD        -0.6125
     19 C2B        30.2030    9.4480    0.3480 C.3       1 ZKD         0.1387
     20 O2B        25.5290    5.9990   -5.2550 O.co2     1 ZKD        -0.6074
     21 C3'        22.9650    8.2690   -1.6070 C.3       1 ZKD         0.1568
     22 O3'        21.8570    8.9610   -2.1520 O.3       1 ZKD        -0.3639
     23 O3A        26.2050    8.3290   -4.8100 O.3       1 ZKD        -0.1483
     24 C3B        29.0300   10.1170   -0.3300 C.3       1 ZKD         0.1149
     25 O3B        28.4270   11.1030    0.5370 O.3       1 ZKD        -0.3864
     26 C4'        23.0110    8.3730   -0.0760 C.3       1 ZKD         0.1297
     27 O4'        22.8490    9.7020    0.4110 O.3       1 ZKD        -0.3828
     28 C4B        28.0520    8.9650   -0.4580 C.3       1 ZKD         0.1189
     29 O4B        28.2520    8.1950    0.7490 O.3       1 ZKD        -0.3363
     30 C5'        24.3080    7.7140    0.4620 C.3       1 ZKD         0.1190
     31 O5'        24.4750    6.3180   -0.0150 O.3       1 ZKD        -0.3321
     32 C5B        28.4720    8.2820   -1.7480 C.3       1 ZKD         0.1128
     33 O5B        27.5680    8.6740   -2.7680 O.3       1 ZKD        -0.2475
     34 C6'        24.3470    7.7410    2.0160 C.3       1 ZKD         0.0736
     35 O6'        24.4780    9.1100    2.4950 O.3       1 ZKD        -0.3923
     36 C7'        21.5290    4.8050   -2.6020 C.2       1 ZKD         0.1478
     37 O7'        20.4690    4.4130   -3.0780 O.2       1 ZKD        -0.3885
     38 C8'        22.5980    3.7540   -2.3030 C.3       1 ZKD         0.0140
     39 S1'        25.5530    6.8970   -2.3010 S.3       1 ZKD         0.0304
     40 H          30.9918    7.1002    5.5055 H         1 ZKD         0.2259
     41 H          30.5911    4.2832    2.3422 H         1 ZKD         0.0258
     42 H          29.7480    6.0724    0.8334 H         1 ZKD         0.1178
     43 H          24.0593    5.0177   -1.6284 H         1 ZKD         0.1052
     44 H          29.3068    9.5391    2.2021 H         1 ZKD         0.0997
     45 H          30.3950   11.1499    1.2691 H         1 ZKD         0.2101
     46 H          30.8667    8.7923   -0.2156 H         1 ZKD         0.0676
     47 H          23.8304    8.7292   -2.0839 H         1 ZKD         0.0939
     48 H          21.9451    9.8991   -1.9682 H         1 ZKD         0.2154
     49 H          29.3053   10.6175   -1.2584 H         1 ZKD         0.0648
     50 H          29.0781   11.7723    0.7600 H         1 ZKD         0.2100
     51 H          22.1500    7.8256    0.3076 H         1 ZKD         0.0687
     52 H          22.8874    9.6970    1.3702 H         1 ZKD         0.2104
     53 H          26.9875    9.1887   -0.5284 H         1 ZKD         0.0651
     54 H          25.1359    8.3042    0.0693 H         1 ZKD         0.0652
     55 H          28.4521    7.1993   -1.6238 H         1 ZKD         0.0648
     56 H          29.4881    8.5733   -2.0140 H         1 ZKD         0.0648
     57 H          25.2026    7.1602    2.3605 H         1 ZKD         0.0584
     58 H          23.4206    7.3160    2.4025 H         1 ZKD         0.0584
     59 H          23.7287    9.6273    2.1909 H         1 ZKD         0.2095
     60 H          22.2067    3.0338   -1.5844 H         1 ZKD         0.0453
     61 H          22.8676    3.2392   -3.2252 H         1 ZKD         0.0453
     62 H          23.4793    4.2422   -1.8869 H         1 ZKD         0.0453
@<TRIPOS>BOND
     1    1    2 am 
     2    1    8 1  
     3   13    1 1  
     4    2    3 2  
     5    2    4 am 
     6    4    5 am 
     7    5    6 2  
     8    7    5 1  
     9    8    7 2  
    10    9   12 ar 
    11    9   18 ar 
    12    9   23 1  
    13   33    9 1  
    14   10   14 ar 
    15   10   20 ar 
    16   23   10 1  
    17   10   39 1  
    18   11   17 1  
    19   11   31 1  
    20   39   11 1  
    21   13   19 1  
    22   29   13 1  
    23   17   15 2  
    24   15   36 1  
    25   19   16 1  
    26   17   21 1  
    27   24   19 1  
    28   21   22 1  
    29   21   26 1  
    30   24   25 1  
    31   28   24 1  
    32   26   27 1  
    33   30   26 1  
    34   28   29 1  
    35   32   28 1  
    36   31   30 1  
    37   30   34 1  
    38   32   33 1  
    39   34   35 1  
    40   36   37 2  
    41   36   38 1  
    42    4   40 1  
    43    7   41 1  
    44    8   42 1  
    45   11   43 1  
    46   13   44 1  
    47   16   45 1  
    48   19   46 1  
    49   21   47 1  
    50   22   48 1  
    51   24   49 1  
    52   25   50 1  
    53   26   51 1  
    54   27   52 1  
    55   28   53 1  
    56   30   54 1  
    57   32   55 1  
    58   32   56 1  
    59   34   57 1  
    60   34   58 1  
    61   35   59 1  
    62   38   60 1  
    63   38   61 1  
    64   38   62 1  
@<TRIPOS>SUBSTRUCTURE
     1 ZKD         1

