2uxi_ligand
  -I-interpret- 

 34 35  0  0  0  0  0  0  0  0999 V2000
   22.0700   37.5490   -4.4390 C   0  0  0  0  0
   22.2280   38.8360   -4.9340 C   0  0  0  0  0
   21.1540   39.6940   -5.0340 C   0  0  0  0  0
   19.8980   39.2480   -4.6430 C   0  0  0  0  0
   19.6980   37.9460   -4.1390 C   0  0  0  0  0
   20.8140   37.0930   -4.0360 C   0  0  0  0  0
   18.2600   37.5140   -3.7140 C   0  0  0  0  0
   17.6440   36.1170   -4.0290 C   0  0  0  0  0
   16.3330   35.8790   -3.1190 C   0  0  0  0  0
   20.7340   35.8220   -3.5610 O   0  0  0  0  0
   17.5670   38.3320   -3.1090 O   0  0  0  0  0
   15.6880   34.5080   -3.4520 C   0  0  0  0  0
   15.7370   34.0680   -4.7790 C   0  0  0  0  0
   15.2050   32.8380   -5.1300 C   0  0  0  0  0
   14.5930   32.0420   -4.1790 C   0  0  0  0  0
   14.5270   32.4680   -2.8400 C   0  0  0  0  0
   15.0800   33.7010   -2.4690 C   0  0  0  0  0
   14.0870   30.8460   -4.5950 O   0  0  0  0  0
   23.4320   39.2650   -5.3290 O   0  0  0  0  0
   18.8950   40.1380   -4.7770 O   0  0  0  0  0
   22.9341   36.8888   -4.3644 H   0  0  0  0  0
   21.2882   40.7068   -5.4140 H   0  0  0  0  0
   18.3789   35.3420   -3.8114 H   0  0  0  0  0
   17.3640   36.0760   -5.0816 H   0  0  0  0  0
   15.6111   36.6703   -3.3211 H   0  0  0  0  0
   16.6224   35.8902   -2.0682 H   0  0  0  0  0
   19.8254   35.6287   -3.3189 H   0  0  0  0  0
   16.1966   34.6968   -5.5415 H   0  0  0  0  0
   15.2692   32.4953   -6.1627 H   0  0  0  0  0
   14.0457   31.8391   -2.0911 H   0  0  0  0  0
   15.0404   34.0325   -1.4314 H   0  0  0  0  0
   13.6913   30.3902   -3.8485 H   0  0  0  0  0
   23.3615   40.1702   -5.6409 H   0  0  0  0  0
   18.0730   39.7388   -4.4827 H   0  0  0  0  0
  1  2  4  0  0  0
  1  6  4  0  0  0
  2  3  4  0  0  0
  2 19  1  0  0  0
  3  4  4  0  0  0
  4  5  4  0  0  0
  4 20  1  0  0  0
  5  6  4  0  0  0
  5  7  1  0  0  0
  6 10  1  0  0  0
  7  8  1  0  0  0
  7 11  2  0  0  0
  8  9  1  0  0  0
  9 12  1  0  0  0
 12 13  4  0  0  0
 12 17  4  0  0  0
 13 14  4  0  0  0
 14 15  4  0  0  0
 15 16  4  0  0  0
 15 18  1  0  0  0
 16 17  4  0  0  0
  1 21  1  0  0  0
  3 22  1  0  0  0
  8 23  1  0  0  0
  8 24  1  0  0  0
  9 25  1  0  0  0
  9 26  1  0  0  0
 10 27  1  0  0  0
 13 28  1  0  0  0
 14 29  1  0  0  0
 16 30  1  0  0  0
 17 31  1  0  0  0
 18 32  1  0  0  0
 19 33  1  0  0  0
 20 34  1  0  0  0
M  END
$$$$
