6g2n_ligand
  -I-interpret- 

 56 59  0  0  0  0  0  0  0  0999 V2000
   11.5630    4.2680    9.0050 O   0  0  0  0  0
   10.7090    3.0060    8.9400 P   0  0  0  0  0
    9.4500    3.1110    9.7510 O   0  0  0  0  0
   11.4580    1.7300    9.3290 O   0  0  0  0  0
   10.2430    2.6120    7.2550 C   0  0  0  0  0
    9.2600    1.5180    7.2220 C   0  0  0  0  0
    7.8770    1.7880    7.3880 C   0  0  0  0  0
    7.0140    0.7000    7.4290 C   0  0  0  0  0
    7.4320   -0.6150    7.3390 C   0  0  0  0  0
    8.7980   -0.8860    7.2270 C   0  0  0  0  0
    9.6940    0.1760    7.1820 C   0  0  0  0  0
    9.5720    3.7160    6.5980 O   0  0  0  0  0
   11.3570    2.3520    6.4470 O   0  0  0  0  0
   12.2690    3.2790    6.0030 C   0  0  0  0  0
   11.5500    4.5320    5.4800 C   0  0  0  0  0
   11.2060    4.1880    4.1460 O   0  0  0  0  0
   10.2670    4.9050    6.2250 C   0  0  0  0  0
    9.4760    5.6640    5.1120 C   0  0  0  0  0
   10.0870    4.9670    3.8390 C   0  0  0  0  0
    9.1160    4.2200    3.0690 N   0  0  0  0  0
    8.1620    3.4500    3.7160 C   0  0  0  0  0
    9.1710    4.2850    1.6760 C   0  0  0  0  0
   10.0830    4.9000    1.0630 O   0  0  0  0  0
    8.1620    3.5820    1.0040 N   0  0  0  0  0
    7.0960    2.8760    1.6360 C   0  0  0  0  0
    6.1820    2.4310    0.8810 O   0  0  0  0  0
    7.1140    2.8410    3.0910 C   0  0  0  0  0
    6.1450    2.0810    3.9340 C   0  0  0  0  0
    5.0630    1.4620    3.5960 C   0  0  0  0  0
    4.1830    0.7280    4.5490 C   0  0  0  0  0
    3.5720   -0.7860    3.9000 P   0  0  0  0  0
    2.8050   -0.4120    2.5760 O   0  0  0  0  0
    2.5020   -1.3010    4.8610 O   0  0  0  0  0
    4.6930   -1.8380    3.6330 O   0  0  0  0  0
   12.3518    4.1471    8.4714 H   0  0  0  0  0
   12.2632    1.6623    8.8107 H   0  0  0  0  0
    7.5062    2.8089    7.4798 H   0  0  0  0  0
    5.9470    0.8940    7.5383 H   0  0  0  0  0
    6.7064   -1.4282    7.3552 H   0  0  0  0  0
    9.1557   -1.9143    7.1757 H   0  0  0  0  0
   10.7614   -0.0339    7.1139 H   0  0  0  0  0
   12.8534    2.8418    5.1934 H   0  0  0  0  0
   12.9181    3.5626    6.8314 H   0  0  0  0  0
   12.2018    5.3975    5.5992 H   0  0  0  0  0
   10.4177    5.4807    7.1382 H   0  0  0  0  0
    9.5857    6.7482    5.1343 H   0  0  0  0  0
    8.3915    5.5918    5.1943 H   0  0  0  0  0
   10.4211    5.7828    3.1979 H   0  0  0  0  0
    8.2556    3.3230    4.7945 H   0  0  0  0  0
    8.1923    3.5747   -0.0155 H   0  0  0  0  0
    6.3871    2.0425    4.9961 H   0  0  0  0  0
    4.7745    1.4774    2.5450 H   0  0  0  0  0
    3.3254    1.3652    4.7647 H   0  0  0  0  0
    4.7761    0.4933    5.4329 H   0  0  0  0  0
    3.4305   -0.0792    1.9283 H   0  0  0  0  0
    5.3387   -1.4689    3.0260 H   0  0  0  0  0
  1  2  1  0  0  0
  2  3  2  0  0  0
  2  4  1  0  0  0
  2  5  1  0  0  0
  5  6  1  0  0  0
  5 12  1  0  0  0
  5 13  1  0  0  0
  6  7  4  0  0  0
  6 11  4  0  0  0
  7  8  4  0  0  0
  8  9  4  0  0  0
  9 10  4  0  0  0
 10 11  4  0  0  0
 12 17  1  0  0  0
 13 14  1  0  0  0
 14 15  1  0  0  0
 15 16  1  0  0  0
 15 17  1  0  0  0
 16 19  1  0  0  0
 17 18  1  0  0  0
 18 19  1  0  0  0
 19 20  1  0  0  0
 20 21  1  0  0  0
 20 22  1  0  0  0
 21 27  2  0  0  0
 22 23  2  0  0  0
 22 24  1  0  0  0
 24 25  1  0  0  0
 25 26  2  0  0  0
 25 27  1  0  0  0
 27 28  1  0  0  0
 28 29  2  0  0  0
 29 30  1  0  0  0
 30 31  1  0  0  0
 31 32  1  0  0  0
 31 33  2  0  0  0
 31 34  1  0  0  0
  1 35  1  0  0  0
  4 36  1  0  0  0
  7 37  1  0  0  0
  8 38  1  0  0  0
  9 39  1  0  0  0
 10 40  1  0  0  0
 11 41  1  0  0  0
 14 42  1  0  0  0
 14 43  1  0  0  0
 15 44  1  0  0  0
 17 45  1  0  0  0
 18 46  1  0  0  0
 18 47  1  0  0  0
 19 48  1  0  0  0
 21 49  1  0  0  0
 24 50  1  0  0  0
 28 51  1  0  0  0
 29 52  1  0  0  0
 30 53  1  0  0  0
 30 54  1  0  0  0
 32 55  1  0  0  0
 34 56  1  0  0  0
M  END
$$$$
