### 
### Created by X-TOOL on Wed Jan  1 15:39:35 2020
### 

@<TRIPOS>MOLECULE
6g2n_ligand
   52    55     1     0     0
SMALL
GAST_HUCK


@<TRIPOS>ATOM
      1 OP2        11.5630    4.2680    9.0050 O.co2     1 O84        -0.5660
      2 P          10.7090    3.0060    8.9400 P.3       1 O84         0.0922
      3 OP1         9.4500    3.1110    9.7510 O.co2     1 O84        -0.5660
      4 OP3        11.4580    1.7300    9.3290 O.co2     1 O84        -0.5660
      5 CAB        10.2430    2.6120    7.2550 C.3       1 O84         0.2365
      6 C2          9.2600    1.5180    7.2220 C.ar      1 O84         0.0228
      7 CAA         7.8770    1.7880    7.3880 C.ar      1 O84        -0.0333
      8 C9          7.0140    0.7000    7.4290 C.ar      1 O84        -0.0322
      9 C10         7.4320   -0.6150    7.3390 C.ar      1 O84        -0.0340
     10 C11         8.7980   -0.8860    7.2270 C.ar      1 O84        -0.0322
     11 C12         9.6940    0.1760    7.1820 C.ar      1 O84        -0.0333
     12 O3'         9.5720    3.7160    6.5980 O.3       1 O84        -0.3659
     13 O7         11.3570    2.3520    6.4470 O.3       1 O84        -0.3694
     14 C5'        12.2690    3.2790    6.0030 C.3       1 O84         0.0697
     15 C4'        11.5500    4.5320    5.4800 C.3       1 O84         0.1098
     16 O4'        11.2060    4.1880    4.1460 O.3       1 O84        -0.3386
     17 C3'        10.2670    4.9050    6.2250 C.3       1 O84         0.0855
     18 C2'         9.4760    5.6640    5.1120 C.3       1 O84         0.0316
     19 C1'        10.0870    4.9670    3.8390 C.3       1 O84         0.1814
     20 N9          9.1160    4.2200    3.0690 N.am      1 O84        -0.1600
     21 C4          8.1620    3.4500    3.7160 C.2       1 O84         0.0701
     22 C8          9.1710    4.2850    1.6760 C.2       1 O84         0.3359
     23 O2         10.0830    4.9000    1.0630 O.2       1 O84        -0.3796
     24 N1          8.1620    3.5820    1.0040 N.am      1 O84        -0.1831
     25 C6          7.0960    2.8760    1.6360 C.2       1 O84         0.1986
     26 O6          6.1820    2.4310    0.8810 O.2       1 O84        -0.4034
     27 C5          7.1140    2.8410    3.0910 C.2       1 O84         0.0414
     28 C17         6.1450    2.0810    3.9340 C.2       1 O84        -0.0901
     29 C18         5.0630    1.4620    3.5960 C.2       1 O84        -0.0878
     30 C19         4.1830    0.7280    4.5490 C.3       1 O84         0.0355
     31 P2          3.5720   -0.7860    3.9000 P.3       1 O84         0.0668
     32 O11         2.8050   -0.4120    2.5760 O.co2     1 O84        -0.5608
     33 O9          2.5020   -1.3010    4.8610 O.co2     1 O84        -0.5608
     34 O10         4.6930   -1.8380    3.6330 O.co2     1 O84        -0.5608
     35 H1          7.5082    2.8033    7.4792 H         1 O84         0.0852
     36 H2          5.9529    0.8929    7.5377 H         1 O84         0.0698
     37 H3          6.7104   -1.4238    7.3551 H         1 O84         0.0856
     38 H4          9.1538   -1.9087    7.1760 H         1 O84         0.0698
     39 H5         10.7556   -0.0327    7.1143 H         1 O84         0.0852
     40 H6         12.8667    2.8390    5.1911 H         1 O84         0.0577
     41 H7         12.9316    3.5621    6.8341 H         1 O84         0.0577
     42 H8         12.2367    5.3910    5.5040 H         1 O84         0.0645
     43 H9         10.4596    5.5359    7.1053 H         1 O84         0.0615
     44 H10         9.6814    6.7445    5.1267 H         1 O84         0.0345
     45 H11         8.3919    5.4957    5.1915 H         1 O84         0.0345
     46 H12        10.4404    5.7786    3.1860 H         1 O84         0.0977
     47 H13         8.2555    3.3231    4.7935 H         1 O84         0.1168
     48 H14         8.1917    3.5748    0.0045 H         1 O84         0.2264
     49 H15         6.3869    2.0425    4.9951 H         1 O84         0.0374
     50 H16         4.7748    1.4774    2.5459 H         1 O84         0.0448
     51 H17         3.3270    1.3712    4.8010 H         1 O84         0.0582
     52 H18         4.7591    0.5106    5.4605 H         1 O84         0.0582
@<TRIPOS>BOND
     1    1    2 ar 
     2    2    3 ar 
     3    2    4 ar 
     4    2    5 1  
     5    5    6 1  
     6    5   12 1  
     7    5   13 1  
     8    6    7 ar 
     9    6   11 ar 
    10    7    8 ar 
    11    8    9 ar 
    12    9   10 ar 
    13   10   11 ar 
    14   12   17 1  
    15   13   14 1  
    16   14   15 1  
    17   15   16 1  
    18   15   17 1  
    19   16   19 1  
    20   17   18 1  
    21   18   19 1  
    22   19   20 1  
    23   20   21 1  
    24   20   22 am 
    25   21   27 2  
    26   22   23 2  
    27   22   24 am 
    28   24   25 am 
    29   25   26 2  
    30   25   27 1  
    31   27   28 1  
    32   28   29 2  
    33   29   30 1  
    34   30   31 1  
    35   31   32 ar 
    36   31   33 ar 
    37   31   34 ar 
    38    7   35 1  
    39    8   36 1  
    40    9   37 1  
    41   10   38 1  
    42   11   39 1  
    43   14   40 1  
    44   14   41 1  
    45   15   42 1  
    46   17   43 1  
    47   18   44 1  
    48   18   45 1  
    49   19   46 1  
    50   21   47 1  
    51   24   48 1  
    52   28   49 1  
    53   29   50 1  
    54   30   51 1  
    55   30   52 1  
@<TRIPOS>SUBSTRUCTURE
     1 O84         1

