6cyc_ligand
  -I-interpret- 

 38 40  0  0  0  0  0  0  0  0999 V2000
   32.9690   -6.7090   14.4980 C   0  0  0  0  0
   29.8200   -4.9330   14.2680 C   0  0  0  0  0
   29.8640   -3.0670   15.9930 C   0  0  0  0  0
   30.7460   -0.8870   15.4800 C   0  0  0  0  0
   30.6760   -2.6100   13.7960 C   0  0  0  0  0
   31.1140    0.4920   15.9120 C   0  0  0  0  0
   28.9350   -5.7280   15.2240 C   0  0  0  0  0
   34.0540   -7.3930   15.2910 C   0  0  0  0  0
   33.4330   -7.4740   11.9800 C   0  0  0  0  0
   34.4920   -8.0850   12.0590 O   0  0  0  0  0
   32.7690   -6.8410   13.0970 C   0  0  0  0  0
   32.8030   -7.3310   10.7430 N   0  0  0  0  0
   31.6580   -6.6120   10.5930 C   0  0  0  0  0
   31.2160   -6.4710    9.3870 O   0  0  0  0  0
   31.0280   -6.0210   11.5880 N   0  0  0  0  0
   31.5680   -6.1380   12.8150 C   0  0  0  0  0
   31.1110   -5.6400   13.9880 N   0  0  0  0  0
   31.9820   -5.9730   15.0150 N   0  0  0  0  0
   35.2790   -6.6810   15.2580 O   0  0  0  0  0
   30.1140   -3.5060   14.6970 C   0  0  0  0  0
   31.0010   -1.3230   14.1860 C   0  0  0  0  0
   31.2390    0.5950   17.2040 F   0  0  0  0  0
   30.2260    1.3770   15.5940 F   0  0  0  0  0
   32.2360    0.9060   15.3900 F   0  0  0  0  0
   30.1610   -1.7730   16.3770 C   0  0  0  0  0
   29.2218   -4.8660   13.3593 H   0  0  0  0  0
   29.4269   -3.7544   16.7172 H   0  0  0  0  0
   30.8631   -2.9249   12.7694 H   0  0  0  0  0
   28.7062   -6.6983   14.7833 H   0  0  0  0  0
   29.4597   -5.8712   16.1686 H   0  0  0  0  0
   28.0093   -5.1803   15.4005 H   0  0  0  0  0
   34.2237   -8.3760   14.8516 H   0  0  0  0  0
   33.7265   -7.4520   16.3289 H   0  0  0  0  0
   33.2144   -7.7802    9.9248 H   0  0  0  0  0
   30.1667   -5.4966   11.4345 H   0  0  0  0  0
   35.9362   -7.1531   15.7745 H   0  0  0  0  0
   31.4625   -0.6433   13.4696 H   0  0  0  0  0
   29.9347   -1.4447   17.3914 H   0  0  0  0  0
  1  8  1  0  0  0
 11  1  4  0  0  0
  1 18  4  0  0  0
  2  7  1  0  0  0
 17  2  1  0  0  0
  2 20  1  0  0  0
 20  3  4  0  0  0
  3 25  4  0  0  0
  4  6  1  0  0  0
 21  4  4  0  0  0
 25  4  4  0  0  0
 20  5  4  0  0  0
  5 21  4  0  0  0
  6 22  1  0  0  0
  6 23  1  0  0  0
  6 24  1  0  0  0
  8 19  1  0  0  0
  9 10  2  0  0  0
 11  9  1  0  0  0
  9 12  1  0  0  0
 16 11  4  0  0  0
 13 12  1  0  0  0
 13 14  2  0  0  0
 15 13  1  0  0  0
 16 15  1  0  0  0
 16 17  4  0  0  0
 17 18  4  0  0  0
  2 26  1  0  0  0
  3 27  1  0  0  0
  5 28  1  0  0  0
  7 29  1  0  0  0
  7 30  1  0  0  0
  7 31  1  0  0  0
  8 32  1  0  0  0
  8 33  1  0  0  0
 12 34  1  0  0  0
 15 35  1  0  0  0
 19 36  1  0  0  0
 21 37  1  0  0  0
 25 38  1  0  0  0
M  END
$$$$
