4rvr_ligand
  -I-interpret- 

 47 49  0  0  0  0  0  0  0  0999 V2000
   75.2430   44.4920    0.3470 C   0  0  0  0  0
   74.1740   44.4640   -0.7600 C   0  0  0  0  0
   73.4920   43.0660   -0.7930 C   0  0  0  0  0
   72.0710   43.2330   -1.0180 O   0  0  0  0  0
   71.2550   42.1170   -0.9640 C   0  0  0  0  0
   71.7400   40.7980   -0.7840 C   0  0  0  0  0
   70.8790   39.7590   -0.7440 C   0  0  0  0  0
   69.8880   42.3500   -1.1150 C   0  0  0  0  0
   69.0130   41.2840   -1.0950 C   0  0  0  0  0
   69.5610   39.9930   -0.8930 N   0  0  0  0  0
   68.8770   38.8100   -0.8640 C   0  0  0  0  0
   67.4870   38.7120   -0.9780 C   0  0  0  0  0
   66.7180   39.6920   -1.1200 O   0  0  0  0  0
   66.8560   37.3220   -0.9030 C   0  0  0  0  0
   69.8040   37.8350   -0.6680 C   0  0  0  0  0
   71.0440   38.4320   -0.6150 C   0  0  0  0  0
   72.2540   37.7890   -0.5230 C   0  0  0  0  0
   72.9370   37.5320   -1.7130 C   0  0  0  0  0
   74.1530   36.8470   -1.7660 C   0  0  0  0  0
   74.7430   36.3560   -0.6090 C   0  0  0  0  0
   74.0800   36.5990    0.5880 C   0  0  0  0  0
   72.8690   37.2950    0.6450 C   0  0  0  0  0
   72.1540   37.4790    2.2470 S   0  0  0  0  0
   73.2870   37.1310    3.1640 O   0  0  0  0  0
   71.7020   38.8580    2.4370 O   0  0  0  0  0
   70.8400   36.2880    2.4150 C   0  0  0  0  0
   74.7720   44.2956    1.3102 H   0  0  0  0  0
   75.9932   43.7274    0.1453 H   0  0  0  0  0
   75.7182   45.4728    0.3667 H   0  0  0  0  0
   74.6453   44.6595   -1.7232 H   0  0  0  0  0
   73.4234   45.2281   -0.5576 H   0  0  0  0  0
   73.6541   42.5580    0.1576 H   0  0  0  0  0
   73.9215   42.4689   -1.5974 H   0  0  0  0  0
   72.8104   40.6218   -0.6776 H   0  0  0  0  0
   69.5146   43.3654   -1.2476 H   0  0  0  0  0
   67.9411   41.4291   -1.2294 H   0  0  0  0  0
   66.1749   37.2790   -0.0531 H   0  0  0  0  0
   66.3048   37.1245   -1.8224 H   0  0  0  0  0
   67.6399   36.5747   -0.7802 H   0  0  0  0  0
   69.6015   36.7685   -0.5700 H   0  0  0  0  0
   72.4995   37.8834   -2.6474 H   0  0  0  0  0
   74.6447   36.6961   -2.7270 H   0  0  0  0  0
   75.6831   35.8052   -0.6382 H   0  0  0  0  0
   74.5201   36.2337    1.5159 H   0  0  0  0  0
   71.2150   35.2968    2.1601 H   0  0  0  0  0
   70.4804   36.2883    3.4440 H   0  0  0  0  0
   70.0234   36.5527    1.7433 H   0  0  0  0  0
  1  2  1  0  0  0
  2  3  1  0  0  0
  3  4  1  0  0  0
  4  5  1  0  0  0
  5  6  4  0  0  0
  5  8  4  0  0  0
  6  7  4  0  0  0
  7 10  4  0  0  0
  7 16  4  0  0  0
  8  9  4  0  0  0
  9 10  4  0  0  0
 10 11  4  0  0  0
 11 12  1  0  0  0
 11 15  4  0  0  0
 12 13  2  0  0  0
 12 14  1  0  0  0
 15 16  4  0  0  0
 16 17  1  0  0  0
 17 18  4  0  0  0
 17 22  4  0  0  0
 18 19  4  0  0  0
 19 20  4  0  0  0
 20 21  4  0  0  0
 21 22  4  0  0  0
 22 23  1  0  0  0
 23 24  2  0  0  0
 23 25  2  0  0  0
 23 26  1  0  0  0
  1 27  1  0  0  0
  1 28  1  0  0  0
  1 29  1  0  0  0
  2 30  1  0  0  0
  2 31  1  0  0  0
  3 32  1  0  0  0
  3 33  1  0  0  0
  6 34  1  0  0  0
  8 35  1  0  0  0
  9 36  1  0  0  0
 14 37  1  0  0  0
 14 38  1  0  0  0
 14 39  1  0  0  0
 15 40  1  0  0  0
 18 41  1  0  0  0
 19 42  1  0  0  0
 20 43  1  0  0  0
 21 44  1  0  0  0
 26 45  1  0  0  0
 26 46  1  0  0  0
 26 47  1  0  0  0
M  END
$$$$
