1o4n_ligand
  -I-interpret- 

  8  7  0  0  0  0  0  0  0  0999 V2000
   15.1570   28.5040   17.9410 C   0  0  0  0  0
   16.6000   28.3120   17.4930 C   0  0  0  0  0
   15.0390   28.1190   19.1740 O   0  0  0  0  0
   17.4950   28.2440   18.3880 O   0  0  0  0  0
   14.3100   28.7370   17.0430 O   0  0  0  0  0
   16.8690   28.0340   16.3790 O   0  0  0  0  0
   15.9107   28.0419   19.5688 H   0  0  0  0  0
   17.1201   28.4998   19.2339 H   0  0  0  0  0
  1  2  1  0  0  0
  1  3  1  0  0  0
  1  5  2  0  0  0
  2  4  1  0  0  0
  2  6  2  0  0  0
  3  7  1  0  0  0
  4  8  1  0  0  0
M  END
$$$$
