2qmj_ligand
  -I-interpret- 

 88 91  0  0  0  0  0  0  0  0999 V2000
  -19.6710   -5.9900  -10.6110 C   0  0  0  0  0
  -20.7300   -5.6830  -11.6900 C   0  0  0  0  0
  -21.5600   -6.9360  -11.9710 C   0  0  0  0  0
  -20.6670   -7.9640  -12.6390 C   0  0  0  0  0
  -19.3470   -8.1050  -11.9110 C   0  0  0  0  0
  -18.5890   -9.3680  -12.1800 C   0  0  0  0  0
  -18.8330   -7.1680  -11.0990 C   0  0  0  0  0
  -21.5980   -4.6430  -11.2610 O   0  0  0  0  0
  -22.7950   -6.7250  -12.7430 O   0  0  0  0  0
  -21.3410   -9.2220  -12.6550 O   0  0  0  0  0
  -17.8570   -9.0520  -13.3800 O   0  0  0  0  0
  -18.2170   -6.7430   -5.3860 C   0  0  0  0  0
  -17.8400   -5.5560   -6.2710 C   0  0  0  0  0
  -18.9740   -5.2480   -7.2620 C   0  0  0  0  0
  -19.2400   -6.4670   -8.1460 C   0  0  0  0  0
  -19.5940   -7.6510   -7.2210 C   0  0  0  0  0
  -19.7630   -8.9570   -7.9900 C   0  0  0  0  0
  -20.2000   -6.1770   -9.2330 N   0  3  0  0  0
  -17.6240   -4.4180   -5.4390 O   0  0  0  0  0
  -18.6180   -4.1570   -8.1040 O   0  0  0  0  0
  -18.5410   -7.8430   -6.2420 O   0  0  0  0  0
  -21.0570   -7.7380   -0.9580 C   0  0  0  0  0
  -19.5340   -7.7390   -1.0400 C   0  0  0  0  0
  -19.0200   -6.9610   -2.2550 C   0  0  0  0  0
  -19.7220   -7.3380   -3.5600 C   0  0  0  0  0
  -21.2420   -7.3380   -3.3630 C   0  0  0  0  0
  -21.9950   -7.8540   -4.5850 C   0  0  0  0  0
  -19.0400   -7.0610    0.1090 O   0  0  0  0  0
  -17.6040   -7.1280   -2.4050 O   0  0  0  0  0
  -19.3450   -6.3910   -4.5600 O   0  0  0  0  0
  -21.5930   -8.1540   -2.2260 O   0  0  0  0  0
  -23.3970   -7.9360   -4.2880 O   0  0  0  0  0
  -24.4360   -4.5400    1.8350 C   0  0  0  0  0
  -22.9600   -4.6230    2.3060 C   0  0  0  0  0
  -21.9930   -5.0600    1.1990 C   0  0  0  0  0
  -22.4870   -6.2690    0.3980 C   0  0  0  0  0
  -23.9070   -5.9410   -0.1210 C   0  0  0  0  0
  -24.5410   -7.0460   -0.9710 C   0  0  0  0  0
  -24.7250   -3.2780    1.2080 O   0  0  0  0  0
  -22.4900   -3.3600    2.8190 O   0  0  0  0  0
  -20.6790   -5.3120    1.7380 O   0  0  0  0  0
  -21.5170   -6.4160   -0.6480 O   0  0  0  0  0
  -24.8190   -5.6180    0.9550 O   0  0  0  0  0
  -25.8490   -6.6220   -1.3960 O   0  0  0  0  0
  -19.0465   -5.1045  -10.4930 H   0  0  0  0  0
  -20.2126   -5.3657  -12.5954 H   0  0  0  0  0
  -21.9216   -7.2885  -11.0050 H   0  0  0  0  0
  -20.4557   -7.6325  -13.6556 H   0  0  0  0  0
  -19.2383  -10.2359  -12.2954 H   0  0  0  0  0
  -17.9417   -9.6586  -11.3525 H   0  0  0  0  0
  -17.7937   -7.2504  -10.7811 H   0  0  0  0  0
  -21.0841   -3.8521  -11.0824 H   0  0  0  0  0
  -23.3407   -6.0715  -12.2993 H   0  0  0  0  0
  -22.1774   -9.1298  -13.1171 H   0  0  0  0  0
  -17.3296   -9.8105  -13.6408 H   0  0  0  0  0
  -17.3904   -7.0167   -4.7303 H   0  0  0  0  0
  -16.9371   -5.7960   -6.8324 H   0  0  0  0  0
  -19.8650   -4.9950   -6.6873 H   0  0  0  0  0
  -18.3493   -6.7531   -8.7053 H   0  0  0  0  0
  -20.5404   -7.4025   -6.7407 H   0  0  0  0  0
  -20.5654   -8.8465   -8.7194 H   0  0  0  0  0
  -18.8327   -9.1969   -8.5049 H   0  0  0  0  0
  -20.0112   -9.7578   -7.2934 H   0  0  0  0  0
  -20.8012   -6.9993   -9.2860 H   0  0  0  0  0
  -20.6236   -5.2829   -8.9849 H   0  0  0  0  0
  -17.3861   -3.6647   -5.9845 H   0  0  0  0  0
  -19.3362   -3.9786   -8.7155 H   0  0  0  0  0
  -21.3878   -8.4237   -0.1779 H   0  0  0  0  0
  -19.2021   -8.7748   -1.1116 H   0  0  0  0  0
  -19.2518   -5.9145   -2.0570 H   0  0  0  0  0
  -19.4262   -8.3401   -3.8703 H   0  0  0  0  0
  -21.5344   -6.3006   -3.2004 H   0  0  0  0  0
  -21.6223   -8.8438   -4.8486 H   0  0  0  0  0
  -21.8412   -7.1707   -5.4202 H   0  0  0  0  0
  -18.0805   -7.0469    0.0829 H   0  0  0  0  0
  -17.3039   -6.6330   -3.1708 H   0  0  0  0  0
  -23.8678   -8.2610   -5.0589 H   0  0  0  0  0
  -25.0302   -4.6342    2.7439 H   0  0  0  0  0
  -22.9661   -5.3788    3.0914 H   0  0  0  0  0
  -21.9414   -4.2278    0.4969 H   0  0  0  0  0
  -22.5708   -7.1996    0.9593 H   0  0  0  0  0
  -23.7525   -5.0727   -0.7616 H   0  0  0  0  0
  -24.6252   -7.9590   -0.3816 H   0  0  0  0  0
  -23.9173   -7.2406   -1.8435 H   0  0  0  0  0
  -25.6439   -3.2628    0.9305 H   0  0  0  0  0
  -21.5764   -3.4499    3.0997 H   0  0  0  0  0
  -20.0906   -5.5837    1.0298 H   0  0  0  0  0
  -26.2502   -7.3120   -1.9294 H   0  0  0  0  0
  1  2  1  0  0  0
  1  7  1  0  0  0
 18  1  1  0  0  0
  2  3  1  0  0  0
  2  8  1  0  0  0
  3  4  1  0  0  0
  3  9  1  0  0  0
  5  4  1  0  0  0
  4 10  1  0  0  0
  5  6  1  0  0  0
  7  5  2  0  0  0
  6 11  1  0  0  0
 12 13  1  0  0  0
 12 21  1  0  0  0
 30 12  1  0  0  0
 13 14  1  0  0  0
 13 19  1  0  0  0
 14 15  1  0  0  0
 14 20  1  0  0  0
 16 15  1  0  0  0
 15 18  1  0  0  0
 16 17  1  0  0  0
 21 16  1  0  0  0
 22 23  1  0  0  0
 22 31  1  0  0  0
 42 22  1  0  0  0
 23 24  1  0  0  0
 23 28  1  0  0  0
 24 25  1  0  0  0
 24 29  1  0  0  0
 26 25  1  0  0  0
 25 30  1  0  0  0
 26 27  1  0  0  0
 31 26  1  0  0  0
 27 32  1  0  0  0
 34 33  1  0  0  0
 33 39  1  0  0  0
 33 43  1  0  0  0
 35 34  1  0  0  0
 34 40  1  0  0  0
 36 35  1  0  0  0
 35 41  1  0  0  0
 36 37  1  0  0  0
 36 42  1  0  0  0
 37 38  1  0  0  0
 37 43  1  0  0  0
 38 44  1  0  0  0
  1 45  1  0  0  0
  2 46  1  0  0  0
  3 47  1  0  0  0
  4 48  1  0  0  0
  6 49  1  0  0  0
  6 50  1  0  0  0
  7 51  1  0  0  0
  8 52  1  0  0  0
  9 53  1  0  0  0
 10 54  1  0  0  0
 11 55  1  0  0  0
 12 56  1  0  0  0
 13 57  1  0  0  0
 14 58  1  0  0  0
 15 59  1  0  0  0
 16 60  1  0  0  0
 17 61  1  0  0  0
 17 62  1  0  0  0
 17 63  1  0  0  0
 18 64  1  0  0  0
 18 65  1  0  0  0
 19 66  1  0  0  0
 20 67  1  0  0  0
 22 68  1  0  0  0
 23 69  1  0  0  0
 24 70  1  0  0  0
 25 71  1  0  0  0
 26 72  1  0  0  0
 27 73  1  0  0  0
 27 74  1  0  0  0
 28 75  1  0  0  0
 29 76  1  0  0  0
 32 77  1  0  0  0
 33 78  1  0  0  0
 34 79  1  0  0  0
 35 80  1  0  0  0
 36 81  1  0  0  0
 37 82  1  0  0  0
 38 83  1  0  0  0
 38 84  1  0  0  0
 39 85  1  0  0  0
 40 86  1  0  0  0
 41 87  1  0  0  0
 44 88  1  0  0  0
M  END
$$$$
