4uyh_ligand
  -I-interpret- 

 70 74  0  0  0  0  0  0  0  0999 V2000
   21.4990    8.4690   -8.0190 O   0  0  0  0  0
   20.3860    8.9080   -8.2690 C   0  0  0  0  0
   19.3060    8.9610   -7.2210 C   0  0  0  0  0
   20.0990    9.3580   -9.5280 N   0  0  0  0  0
   21.2150    9.3300  -10.5200 C   0  0  0  0  0
   21.2310    8.0140  -11.2870 C   0  0  0  0  0
   18.8120    9.7850   -9.9860 C   0  0  0  0  0
   18.8320   10.9190  -10.7350 C   0  0  0  0  0
   20.1260   11.6110  -11.0650 C   0  0  0  0  0
   19.9270   12.5740  -12.1400 N   0  0  0  0  0
   19.6410   13.8900  -11.9090 C   0  0  0  0  0
   19.6720   14.7730  -12.9930 C   0  0  0  0  0
   19.4100   16.1290  -12.8080 C   0  0  0  0  0
   19.1190   16.6150  -11.5350 C   0  0  0  0  0
   19.0900   15.7490  -10.4440 C   0  0  0  0  0
   19.3470   14.3920  -10.6320 C   0  0  0  0  0
   21.1810   10.5700  -11.4200 C   0  0  0  0  0
   17.6280    9.1010   -9.6850 C   0  0  0  0  0
   16.4300    9.5970  -10.1890 C   0  0  0  0  0
   16.4200   10.7570  -10.9830 C   0  0  0  0  0
   17.6340   11.4100  -11.2640 C   0  0  0  0  0
   15.1430   11.2750  -11.5570 C   0  0  0  0  0
   13.9080   11.0600  -10.9360 C   0  0  0  0  0
   12.7330   11.5390  -11.5120 C   0  0  0  0  0
   12.7880   12.2180  -12.7280 C   0  0  0  0  0
   14.0060   12.4260  -13.3630 C   0  0  0  0  0
   15.1740   11.9500  -12.7850 C   0  0  0  0  0
   11.5330   12.7610  -13.3540 C   0  0  0  0  0
   11.2160   14.1010  -12.8650 N   0  3  0  0  0
   11.9470   15.1260  -13.5980 C   0  0  0  0  0
   11.7740   16.4230  -12.8100 C   0  0  0  0  0
   10.3040   16.8240  -12.7500 C   0  0  0  0  0
    9.4500   15.6710  -12.2380 C   0  0  0  0  0
    9.8160   14.3710  -12.9440 C   0  0  0  0  0
   19.1005    7.9527   -6.8616 H   0  0  0  0  0
   19.6379    9.5837   -6.3902 H   0  0  0  0  0
   18.4006    9.3849   -7.6553 H   0  0  0  0  0
   22.1644    9.3751   -9.9864 H   0  0  0  0  0
   20.3346    7.9430  -11.9030 H   0  0  0  0  0
   22.1149    7.9768  -11.9238 H   0  0  0  0  0
   21.2550    7.1838  -10.5811 H   0  0  0  0  0
   20.4781   12.1681  -10.1968 H   0  0  0  0  0
   20.0044   12.2525  -13.1049 H   0  0  0  0  0
   19.9028   14.3977  -13.9900 H   0  0  0  0  0
   19.4327   16.8095  -13.6591 H   0  0  0  0  0
   18.9134   17.6759  -11.3923 H   0  0  0  0  0
   18.8673   16.1310   -9.4477 H   0  0  0  0  0
   19.3193   13.7142   -9.7788 H   0  0  0  0  0
   20.9436   10.2180  -12.4239 H   0  0  0  0  0
   22.1487   11.0594  -11.3101 H   0  0  0  0  0
   17.6445    8.2011   -9.0702 H   0  0  0  0  0
   15.4944    9.0836   -9.9671 H   0  0  0  0  0
   17.6410   12.2992  -11.8944 H   0  0  0  0  0
   13.8645   10.5134   -9.9940 H   0  0  0  0  0
   11.7759   11.3835  -11.0142 H   0  0  0  0  0
   14.0439   12.9612  -14.3118 H   0  0  0  0  0
   16.1269   12.1027  -13.2918 H   0  0  0  0  0
   10.7073   12.0983  -13.0947 H   0  0  0  0  0
   11.6855   12.8177  -14.4318 H   0  0  0  0  0
   11.5027   14.1277  -11.8865 H   0  0  0  0  0
   11.5639   15.2302  -14.6131 H   0  0  0  0  0
   13.0005   14.8632  -13.6936 H   0  0  0  0  0
   12.3356   17.2146  -13.3060 H   0  0  0  0  0
   12.1397   16.2703  -11.7946 H   0  0  0  0  0
    9.9708   17.0901  -13.7531 H   0  0  0  0  0
   10.1975   17.6695  -12.0703 H   0  0  0  0  0
    8.4018   15.8952  -12.4359 H   0  0  0  0  0
    9.6254   15.5516  -11.1688 H   0  0  0  0  0
    9.2816   13.5548  -12.4579 H   0  0  0  0  0
    9.5436   14.4635  -13.9953 H   0  0  0  0  0
  1  2  2  0  0  0
  2  3  1  0  0  0
  2  4  1  0  0  0
  4  5  1  0  0  0
  4  7  1  0  0  0
  5  6  1  0  0  0
  5 17  1  0  0  0
  7  8  4  0  0  0
  7 18  4  0  0  0
  8  9  1  0  0  0
  8 21  4  0  0  0
  9 10  1  0  0  0
  9 17  1  0  0  0
 10 11  1  0  0  0
 11 12  4  0  0  0
 11 16  4  0  0  0
 12 13  4  0  0  0
 13 14  4  0  0  0
 14 15  4  0  0  0
 15 16  4  0  0  0
 18 19  4  0  0  0
 19 20  4  0  0  0
 20 21  4  0  0  0
 20 22  1  0  0  0
 22 23  4  0  0  0
 22 27  4  0  0  0
 23 24  4  0  0  0
 24 25  4  0  0  0
 25 26  4  0  0  0
 25 28  1  0  0  0
 26 27  4  0  0  0
 28 29  1  0  0  0
 29 30  1  0  0  0
 29 34  1  0  0  0
 30 31  1  0  0  0
 31 32  1  0  0  0
 32 33  1  0  0  0
 33 34  1  0  0  0
  3 35  1  0  0  0
  3 36  1  0  0  0
  3 37  1  0  0  0
  5 38  1  0  0  0
  6 39  1  0  0  0
  6 40  1  0  0  0
  6 41  1  0  0  0
  9 42  1  0  0  0
 10 43  1  0  0  0
 12 44  1  0  0  0
 13 45  1  0  0  0
 14 46  1  0  0  0
 15 47  1  0  0  0
 16 48  1  0  0  0
 17 49  1  0  0  0
 17 50  1  0  0  0
 18 51  1  0  0  0
 19 52  1  0  0  0
 21 53  1  0  0  0
 23 54  1  0  0  0
 24 55  1  0  0  0
 26 56  1  0  0  0
 27 57  1  0  0  0
 28 58  1  0  0  0
 28 59  1  0  0  0
 29 60  1  0  0  0
 30 61  1  0  0  0
 30 62  1  0  0  0
 31 63  1  0  0  0
 31 64  1  0  0  0
 32 65  1  0  0  0
 32 66  1  0  0  0
 33 67  1  0  0  0
 33 68  1  0  0  0
 34 69  1  0  0  0
 34 70  1  0  0  0
M  END
$$$$
