2pgz_ligand
  -I-interpret- 

 44 46  0  0  0  0  0  0  0  0999 V2000
  -10.1970   19.6950   59.8270 C   0  0  0  0  0
  -10.0460   19.6920   61.2510 O   0  0  0  0  0
  -11.1460   20.0610   62.0940 C   0  0  0  0  0
  -12.1900   20.4570   61.5530 O   0  0  0  0  0
  -10.9530   19.9740   63.5840 C   0  0  0  0  0
  -11.8090   18.8400   64.1840 C   0  0  0  0  0
  -13.1920   19.2620   64.2010 N   0  3  0  0  0
  -14.2670   18.3950   63.7470 C   0  0  0  0  0
  -11.7340   18.8160   65.7220 C   0  0  0  0  0
  -12.7430   19.8540   66.2540 C   0  0  0  0  0
  -13.4590   20.4290   65.0160 C   0  0  0  0  0
  -12.7230   21.6400   64.4100 C   0  0  0  0  0
  -11.2220   21.3460   64.2150 C   0  0  0  0  0
  -10.6710   22.2890   63.3320 O   0  0  0  0  0
   -9.9120   23.3200   63.9810 C   0  0  0  0  0
   -9.7320   23.2940   65.1880 O   0  0  0  0  0
   -9.4450   24.4380   63.1070 C   0  0  0  0  0
   -8.5990   25.4320   63.5990 C   0  0  0  0  0
   -8.2190   26.4610   62.7490 C   0  0  0  0  0
   -8.6730   26.5090   61.4290 C   0  0  0  0  0
   -9.5300   25.5310   60.9420 C   0  0  0  0  0
   -9.9130   24.4880   61.7880 C   0  0  0  0  0
  -10.9878   18.9998   59.5453 H   0  0  0  0  0
  -10.4581   20.6991   59.4927 H   0  0  0  0  0
   -9.2596   19.3884   59.3629 H   0  0  0  0  0
   -9.9197   19.7129   63.8123 H   0  0  0  0  0
  -11.4986   17.9497   63.6371 H   0  0  0  0  0
  -13.3225   19.5921   63.2448 H   0  0  0  0  0
  -14.7896   17.9836   64.6106 H   0  0  0  0  0
  -14.9646   18.9712   63.1392 H   0  0  0  0  0
  -13.8500   17.5824   63.1520 H   0  0  0  0  0
  -10.7258   19.0590   66.0575 H   0  0  0  0  0
  -11.9760   17.8224   66.0991 H   0  0  0  0  0
  -12.2394   20.6394   66.8175 H   0  0  0  0  0
  -13.4534   19.3956   66.9419 H   0  0  0  0  0
  -14.4798   20.7853   65.1544 H   0  0  0  0  0
  -12.8247   22.4839   65.0924 H   0  0  0  0  0
  -13.1619   21.8604   63.4369 H   0  0  0  0  0
  -10.7798   21.3812   65.2106 H   0  0  0  0  0
   -8.2440   25.4011   64.6291 H   0  0  0  0  0
   -7.5560   27.2439   63.1172 H   0  0  0  0  0
   -8.3520   27.3206   60.7760 H   0  0  0  0  0
   -9.8975   25.5766   59.9168 H   0  0  0  0  0
  -10.5799   23.7085   61.4197 H   0  0  0  0  0
  1  2  1  0  0  0
  2  3  1  0  0  0
  3  4  2  0  0  0
  3  5  1  0  0  0
  5  6  1  0  0  0
  5 13  1  0  0  0
  6  7  1  0  0  0
  6  9  1  0  0  0
  7  8  1  0  0  0
  7 11  1  0  0  0
  9 10  1  0  0  0
 10 11  1  0  0  0
 11 12  1  0  0  0
 12 13  1  0  0  0
 13 14  1  0  0  0
 14 15  1  0  0  0
 15 16  2  0  0  0
 15 17  1  0  0  0
 17 18  4  0  0  0
 17 22  4  0  0  0
 18 19  4  0  0  0
 19 20  4  0  0  0
 20 21  4  0  0  0
 21 22  4  0  0  0
  1 23  1  0  0  0
  1 24  1  0  0  0
  1 25  1  0  0  0
  5 26  1  0  0  0
  6 27  1  0  0  0
  7 28  1  0  0  0
  8 29  1  0  0  0
  8 30  1  0  0  0
  8 31  1  0  0  0
  9 32  1  0  0  0
  9 33  1  0  0  0
 10 34  1  0  0  0
 10 35  1  0  0  0
 11 36  1  0  0  0
 12 37  1  0  0  0
 12 38  1  0  0  0
 13 39  1  0  0  0
 18 40  1  0  0  0
 19 41  1  0  0  0
 20 42  1  0  0  0
 21 43  1  0  0  0
 22 44  1  0  0  0
M  END
$$$$
