3kfn_ligand
  -I-interpret- 

124127  0  0  0  0  0  0  0  0999 V2000
   15.4390   21.4320   17.2840 N   0  0  0  0  0
   14.5350   20.7770   16.3060 C   0  0  0  0  0
   16.9730   24.2050   17.7580 N   0  0  0  0  0
   14.2880   19.5050   17.0590 C   0  0  0  0  0
   15.3400   20.2110   15.1250 C   0  0  0  0  0
   15.9660   21.3950   14.4540 C   0  0  0  0  0
   15.0880   22.2730   13.8240 C   0  0  0  0  0
   14.5860   18.5560   16.3840 O   0  0  0  0  0
   15.6120   23.4040   13.2100 C   0  0  0  0  0
   16.9800   23.5990   13.2590 C   0  0  0  0  0
   13.9570   23.0910   17.3340 O   0  0  0  0  0
   17.8570   22.7210   13.9060 C   0  0  0  0  0
   17.3490   21.5860   14.5280 C   0  0  0  0  0
   16.1170   23.3510   18.6010 C   0  0  0  0  0
   15.1390   22.6130   17.6980 C   0  0  0  0  0
   15.5090   24.1020   19.8030 C   0  0  0  0  0
   18.4480   27.4890   10.5540 C   0  0  0  0  0
   17.3260   27.5620    9.7360 C   0  0  0  0  0
   18.8900   25.2110   15.6500 N   0  0  0  0  0
   16.0350   27.5980   10.2740 C   0  0  0  0  0
   15.8950   27.5590   11.6580 C   0  0  0  0  0
   17.0290   27.4970   12.4680 C   0  0  0  0  0
   19.0470   23.7360   18.6950 O   0  0  0  0  0
   18.9100   25.3110   16.9250 C   0  0  0  0  0
   18.2350   24.3190   17.8270 C   0  0  0  0  0
   19.6020   26.4200   17.6700 C   0  0  0  0  0
    4.7810   17.5900   19.8240 O   0  0  0  0  0
    5.2680   18.2120   18.9020 C   0  0  0  0  0
    4.8270   19.4680   18.6870 O   0  0  0  0  0
    4.0070   20.1010   19.7100 C   0  0  0  0  0
    3.7130   21.5740   19.6040 C   0  0  0  0  0
    2.8230   22.1580   20.4880 C   0  0  0  0  0
    2.5910   23.5130   20.3850 C   0  0  0  0  0
    3.1910   24.2980   19.4000 C   0  0  0  0  0
    4.0590   23.7060   18.5120 C   0  0  0  0  0
    4.3150   22.3570   18.6370 C   0  0  0  0  0
    6.2350   17.6730   18.1600 N   0  0  0  0  0
    6.5100   16.8020   17.2810 C   0  0  0  0  0
    5.4670   15.9280   16.6210 C   0  0  0  0  0
    7.9640   16.7810   17.0270 C   0  0  0  0  0
    8.5970   15.6450   17.3300 O   0  0  0  0  0
    8.5860   17.8390   16.5990 N   0  0  0  0  0
   10.0080   17.6790   16.3650 C   0  0  0  0  0
   10.2860   17.6270   14.8810 C   0  0  0  0  0
   11.7870   17.5690   14.6320 C   0  0  0  0  0
    9.5120   16.5410   14.1170 C   0  0  0  0  0
   10.7270   18.8230   17.0960 C   0  0  0  0  0
   10.3260   20.0410   16.7740 O   0  0  0  0  0
   11.6450   18.6110   17.9530 N   0  0  0  0  0
   12.3620   19.6940   18.6190 C   0  0  0  0  0
   12.0450   19.9120   20.0780 C   0  0  0  0  0
   10.5960   20.0040   20.4210 C   0  0  0  0  0
    9.9560   18.8600   20.8930 C   0  0  0  0  0
    8.6070   19.0370   21.1810 C   0  0  0  0  0
    7.9400   20.2490   21.0330 C   0  0  0  0  0
    8.5950   21.3830   20.5540 C   0  0  0  0  0
    9.9320   21.2150   20.2630 C   0  0  0  0  0
   13.8100   19.3370   18.4650 C   0  0  0  0  0
   14.3440   18.0580   18.8660 O   0  0  0  0  0
   16.5300   24.7330   20.7590 C   0  0  0  0  0
   14.4310   23.3470   20.5770 C   0  0  0  0  0
   19.6140   25.8460   14.6870 C   0  0  0  0  0
   20.6410   25.4050   14.1760 O   0  0  0  0  0
   19.2560   27.0520   14.2080 O   0  0  0  0  0
   19.5440   27.3830   12.8170 C   0  0  0  0  0
   18.3140   27.4590   11.9390 C   0  0  0  0  0
   16.2774   20.9578   17.6197 H   0  0  0  0  0
   13.7241   21.4267   15.9767 H   0  0  0  0  0
   16.5021   24.7622   17.0452 H   0  0  0  0  0
   14.7002   19.6577   14.4376 H   0  0  0  0  0
   16.0951   19.5015   15.4633 H   0  0  0  0  0
   14.0157   22.0779   13.8127 H   0  0  0  0  0
   14.9624   24.1179   12.7036 H   0  0  0  0  0
   17.3958   24.4798   12.7697 H   0  0  0  0  0
   18.9276   22.9249   13.9221 H   0  0  0  0  0
   17.9969   20.8801   15.0476 H   0  0  0  0  0
   16.7133   22.5907   19.1055 H   0  0  0  0  0
   14.9999   24.9230   19.2982 H   0  0  0  0  0
   19.4414   27.4550   10.1066 H   0  0  0  0  0
   17.4548   27.5918    8.6540 H   0  0  0  0  0
   15.1608   27.6552    9.6254 H   0  0  0  0  0
   14.9023   27.5768   12.1077 H   0  0  0  0  0
   16.9035   27.4777   13.5506 H   0  0  0  0  0
   20.6650   26.4097   17.4291 H   0  0  0  0  0
   19.1709   27.3772   17.3767 H   0  0  0  0  0
   19.4696   26.2737   18.7420 H   0  0  0  0  0
    4.5782   19.9949   20.6323 H   0  0  0  0  0
    3.0347   19.6147   19.6303 H   0  0  0  0  0
    2.3176   21.5612   21.2473 H   0  0  0  0  0
    1.9158   23.9872   21.0973 H   0  0  0  0  0
    2.9752   25.3645   19.3350 H   0  0  0  0  0
    4.5348   24.2916   17.7254 H   0  0  0  0  0
    5.0185   21.8905   17.9474 H   0  0  0  0  0
    4.9578   15.3353   17.3809 H   0  0  0  0  0
    4.7427   16.5568   16.1032 H   0  0  0  0  0
    5.9514   15.2642   15.9049 H   0  0  0  0  0
    8.1052   18.7241   16.4382 H   0  0  0  0  0
   10.3855   16.7364   16.7614 H   0  0  0  0  0
    9.8967   18.5544   14.4610 H   0  0  0  0  0
   12.2586   18.4564   15.0542 H   0  0  0  0  0
   12.1983   16.6774   15.1052 H   0  0  0  0  0
   11.9748   17.5318   13.5589 H   0  0  0  0  0
    9.7698   15.5615   14.5198 H   0  0  0  0  0
    8.4415   16.7117   14.2306 H   0  0  0  0  0
    9.7777   16.5823   13.0607 H   0  0  0  0  0
   11.8885   17.6475   18.1827 H   0  0  0  0  0
   12.0638   20.6361   18.1590 H   0  0  0  0  0
   12.4869   20.8708   20.3490 H   0  0  0  0  0
   12.4327   19.0434   20.6103 H   0  0  0  0  0
   10.4689   17.9074   21.0253 H   0  0  0  0  0
    8.0409   18.1786   21.5427 H   0  0  0  0  0
    6.8844   20.3134   21.2967 H   0  0  0  0  0
    8.0849   22.3368   20.4189 H   0  0  0  0  0
   10.4946   22.0716   19.8918 H   0  0  0  0  0
   14.1754   20.0469   19.2070 H   0  0  0  0  0
   15.2860   18.0341   18.6827 H   0  0  0  0  0
   17.1714   23.9533   21.1698 H   0  0  0  0  0
   17.1377   25.4555   20.2142 H   0  0  0  0  0
   16.0037   25.2369   21.5697 H   0  0  0  0  0
   13.6016   23.1144   19.9091 H   0  0  0  0  0
   14.8504   22.4222   20.9733 H   0  0  0  0  0
   14.0741   23.9673   21.3992 H   0  0  0  0  0
   20.1783   26.5908   12.4194 H   0  0  0  0  0
   20.0110   28.3679   12.8076 H   0  0  0  0  0
  1  2  1  0  0  0
 15  1  1  0  0  0
  2  4  1  0  0  0
  2  5  1  0  0  0
  3 14  1  0  0  0
 25  3  1  0  0  0
  4  8  2  0  0  0
  4 58  1  0  0  0
  5  6  1  0  0  0
  6  7  4  0  0  0
  6 13  4  0  0  0
  7  9  4  0  0  0
  9 10  4  0  0  0
 12 10  4  0  0  0
 15 11  2  0  0  0
 13 12  4  0  0  0
 14 15  1  0  0  0
 14 16  1  0  0  0
 16 60  1  0  0  0
 16 61  1  0  0  0
 17 18  4  0  0  0
 66 17  4  0  0  0
 18 20  4  0  0  0
 19 24  2  0  0  0
 62 19  1  0  0  0
 21 20  4  0  0  0
 22 21  4  0  0  0
 66 22  4  0  0  0
 25 23  2  0  0  0
 24 25  1  0  0  0
 24 26  1  0  0  0
 28 27  2  0  0  0
 28 29  1  0  0  0
 37 28  1  0  0  0
 29 30  1  0  0  0
 30 31  1  0  0  0
 31 32  4  0  0  0
 31 36  4  0  0  0
 32 33  4  0  0  0
 33 34  4  0  0  0
 35 34  4  0  0  0
 36 35  4  0  0  0
 38 37  2  0  0  0
 38 39  1  0  0  0
 40 38  1  0  0  0
 40 41  2  0  0  0
 42 40  1  0  0  0
 43 42  1  0  0  0
 43 44  1  0  0  0
 47 43  1  0  0  0
 44 45  1  0  0  0
 44 46  1  0  0  0
 47 48  2  0  0  0
 49 47  1  0  0  0
 50 49  1  0  0  0
 50 51  1  0  0  0
 58 50  1  0  0  0
 51 52  1  0  0  0
 52 53  4  0  0  0
 52 57  4  0  0  0
 53 54  4  0  0  0
 54 55  4  0  0  0
 56 55  4  0  0  0
 57 56  4  0  0  0
 58 59  1  0  0  0
 62 63  2  0  0  0
 64 62  1  0  0  0
 65 64  1  0  0  0
 65 66  1  0  0  0
  1 67  1  0  0  0
  2 68  1  0  0  0
  3 69  1  0  0  0
  5 70  1  0  0  0
  5 71  1  0  0  0
  7 72  1  0  0  0
  9 73  1  0  0  0
 10 74  1  0  0  0
 12 75  1  0  0  0
 13 76  1  0  0  0
 14 77  1  0  0  0
 16 78  1  0  0  0
 17 79  1  0  0  0
 18 80  1  0  0  0
 20 81  1  0  0  0
 21 82  1  0  0  0
 22 83  1  0  0  0
 26 84  1  0  0  0
 26 85  1  0  0  0
 26 86  1  0  0  0
 30 87  1  0  0  0
 30 88  1  0  0  0
 32 89  1  0  0  0
 33 90  1  0  0  0
 34 91  1  0  0  0
 35 92  1  0  0  0
 36 93  1  0  0  0
 39 94  1  0  0  0
 39 95  1  0  0  0
 39 96  1  0  0  0
 42 97  1  0  0  0
 43 98  1  0  0  0
 44 99  1  0  0  0
 45100  1  0  0  0
 45101  1  0  0  0
 45102  1  0  0  0
 46103  1  0  0  0
 46104  1  0  0  0
 46105  1  0  0  0
 49106  1  0  0  0
 50107  1  0  0  0
 51108  1  0  0  0
 51109  1  0  0  0
 53110  1  0  0  0
 54111  1  0  0  0
 55112  1  0  0  0
 56113  1  0  0  0
 57114  1  0  0  0
 58115  1  0  0  0
 59116  1  0  0  0
 60117  1  0  0  0
 60118  1  0  0  0
 60119  1  0  0  0
 61120  1  0  0  0
 61121  1  0  0  0
 61122  1  0  0  0
 65123  1  0  0  0
 65124  1  0  0  0
M  END
$$$$
