### 
### Created by X-TOOL on Mon Sep 10 21:13:04 2018
### 

@<TRIPOS>MOLECULE
3kfn_ligand
  124   127     1     0     0
SMALL
GAST_HUCK


@<TRIPOS>ATOM
      1 N1         15.4390   21.4320   17.2840 N.am      1 3TL        -0.2629
      2 C1         14.5350   20.7770   16.3060 C.3       1 3TL         0.1271
      3 N2         16.9730   24.2050   17.7580 N.am      1 3TL        -0.2555
      4 C2         14.2880   19.5050   17.0590 C.2       1 3TL         0.1631
      5 C3         15.3400   20.2110   15.1250 C.3       1 3TL         0.0204
      6 C4         15.9660   21.3950   14.4540 C.ar      1 3TL        -0.0385
      7 C5         15.0880   22.2730   13.8240 C.ar      1 3TL        -0.0601
      8 O1         14.5860   18.5560   16.3840 O.2       1 3TL        -0.3861
      9 C6         15.6120   23.4040   13.2100 C.ar      1 3TL        -0.0686
     10 C7         16.9800   23.5990   13.2590 C.ar      1 3TL        -0.0687
     11 O2         13.9570   23.0910   17.3340 O.2       1 3TL        -0.3944
     12 C8         17.8570   22.7210   13.9060 C.ar      1 3TL        -0.0686
     13 C9         17.3490   21.5860   14.5280 C.ar      1 3TL        -0.0601
     14 C10        16.1170   23.3510   18.6010 C.3       1 3TL         0.1339
     15 C11        15.1390   22.6130   17.6980 C.2       1 3TL         0.2044
     16 C12        15.5090   24.1020   19.8030 C.3       1 3TL        -0.0062
     17 C13        18.4480   27.4890   10.5540 C.ar      1 3TL        -0.0578
     18 C14        17.3260   27.5620    9.7360 C.ar      1 3TL        -0.0685
     19 N4         18.8900   25.2110   15.6500 N.2       1 3TL        -0.2010
     20 C15        16.0350   27.5980   10.2740 C.ar      1 3TL        -0.0687
     21 C16        15.8950   27.5590   11.6580 C.ar      1 3TL        -0.0685
     22 C17        17.0290   27.4970   12.4680 C.ar      1 3TL        -0.0578
     23 O4         19.0470   23.7360   18.6950 O.2       1 3TL        -0.3571
     24 C18        18.9100   25.3110   16.9250 C.2       1 3TL         0.1336
     25 C19        18.2350   24.3190   17.8270 C.2       1 3TL         0.2588
     26 C20        19.6020   26.4200   17.6700 C.3       1 3TL         0.0150
     27 O58         4.7810   17.5900   19.8240 O.2       1 3TL        -0.3519
     28 C81         5.2680   18.2120   18.9020 C.2       1 3TL         0.3148
     29 O59         4.8270   19.4680   18.6870 O.3       1 3TL        -0.2571
     30 CA5         4.0070   20.1010   19.7100 C.3       1 3TL         0.1105
     31 C50         3.7130   21.5740   19.6040 C.ar      1 3TL        -0.0130
     32 C63         2.8230   22.1580   20.4880 C.ar      1 3TL        -0.0578
     33 C64         2.5910   23.5130   20.3850 C.ar      1 3TL        -0.0685
     34 C65         3.1910   24.2980   19.4000 C.ar      1 3TL        -0.0687
     35 C66         4.0590   23.7060   18.5120 C.ar      1 3TL        -0.0685
     36 C67         4.3150   22.3570   18.6370 C.ar      1 3TL        -0.0578
     37 N54         6.2350   17.6730   18.1600 N.2       1 3TL        -0.2010
     38 C68         6.5100   16.8020   17.2810 C.2       1 3TL         0.1336
     39 C70         5.4670   15.9280   16.6210 C.3       1 3TL         0.0150
     40 C69         7.9640   16.7810   17.0270 C.2       1 3TL         0.2588
     41 O54         8.5970   15.6450   17.3300 O.2       1 3TL        -0.3571
     42 N52         8.5860   17.8390   16.5990 N.am      1 3TL        -0.2555
     43 C60        10.0080   17.6790   16.3650 C.3       1 3TL         0.1337
     44 C62        10.2860   17.6270   14.8810 C.3       1 3TL        -0.0062
     45 CG6        11.7870   17.5690   14.6320 C.3       1 3TL        -0.0584
     46 CG5         9.5120   16.5410   14.1170 C.3       1 3TL        -0.0584
     47 C61        10.7270   18.8230   17.0960 C.2       1 3TL         0.2026
     48 O52        10.3260   20.0410   16.7740 O.2       1 3TL        -0.3945
     49 N51        11.6450   18.6110   17.9530 N.am      1 3TL        -0.2752
     50 C51        12.3620   19.6940   18.6190 C.3       1 3TL         0.0934
     51 C53        12.0450   19.9120   20.0780 C.3       1 3TL         0.0086
     52 C54        10.5960   20.0040   20.4210 C.ar      1 3TL        -0.0406
     53 C55         9.9560   18.8600   20.8930 C.ar      1 3TL        -0.0603
     54 C56         8.6070   19.0370   21.1810 C.ar      1 3TL        -0.0686
     55 C57         7.9400   20.2490   21.0330 C.ar      1 3TL        -0.0687
     56 C58         8.5950   21.3830   20.5540 C.ar      1 3TL        -0.0686
     57 C59         9.9320   21.2150   20.2630 C.ar      1 3TL        -0.0603
     58 C52        13.8100   19.3370   18.4650 C.3       1 3TL         0.1546
     59 O51        14.3440   18.0580   18.8660 O.3       1 3TL        -0.3699
     60 CG2        16.5300   24.7330   20.7590 C.3       1 3TL        -0.0584
     61 CG1        14.4310   23.3470   20.5770 C.3       1 3TL        -0.0584
     62 C31        19.6140   25.8460   14.6870 C.2       1 3TL         0.3148
     63 O8         20.6410   25.4050   14.1760 O.2       1 3TL        -0.3519
     64 O9         19.2560   27.0520   14.2080 O.3       1 3TL        -0.2571
     65 CA         19.5440   27.3830   12.8170 C.3       1 3TL         0.1105
     66 C          18.3140   27.4590   11.9390 C.ar      1 3TL        -0.0130
     67 H1         16.2609   20.9671   17.6131 H         1 3TL         0.1886
     68 H2         13.6559   21.3724   16.0186 H         1 3TL         0.0816
     69 H3         16.5113   24.7513   17.0591 H         1 3TL         0.1891
     70 H4         14.6750   19.6820   14.4265 H         1 3TL         0.0474
     71 H5         16.1164   19.5206   15.4863 H         1 3TL         0.0474
     72 H6         14.0216   22.0789   13.8128 H         1 3TL         0.0557
     73 H7         14.9660   24.1140   12.7064 H         1 3TL         0.0599
     74 H8         17.3935   24.4750   12.7724 H         1 3TL         0.0559
     75 H9         18.9217   22.9238   13.9220 H         1 3TL         0.0599
     76 H10        17.9933   20.8840   15.0447 H         1 3TL         0.0557
     77 H11        16.7688   22.5814   19.0402 H         1 3TL         0.0804
     78 H12        14.9834   24.9539   19.3470 H         1 3TL         0.0343
     79 H13        19.4359   27.4552   10.1090 H         1 3TL         0.0557
     80 H14        17.4541   27.5916    8.6600 H         1 3TL         0.0599
     81 H15        15.1656   27.6548    9.6290 H         1 3TL         0.0559
     82 H16        14.9077   27.5767   12.1053 H         1 3TL         0.0599
     83 H17        16.9042   27.4778   13.5446 H         1 3TL         0.0557
     84 H18        19.4691   26.2734   18.7521 H         1 3TL         0.0526
     85 H19        19.1678   27.3866   17.3749 H         1 3TL         0.0526
     86 H20        20.6750   26.4107   17.4278 H         1 3TL         0.0526
     87 H21         4.5143   19.9424   20.6731 H         1 3TL         0.0777
     88 H22         3.0388   19.5790   19.7152 H         1 3TL         0.0777
     89 H23         2.3204   21.5645   21.2431 H         1 3TL         0.0557
     90 H24         1.9196   23.9846   21.0934 H         1 3TL         0.0599
     91 H25         2.9764   25.3586   19.3354 H         1 3TL         0.0559
     92 H26         4.5322   24.2884   17.7297 H         1 3TL         0.0599
     93 H27         5.0146   21.8930   17.9512 H         1 3TL         0.0557
     94 H28         5.9547   15.2576   15.8980 H         1 3TL         0.0526
     95 H29         4.7354   16.5614   16.0980 H         1 3TL         0.0526
     96 H30         4.9524   15.3292   17.3869 H         1 3TL         0.0526
     97 H31         8.1146   18.7067   16.4414 H         1 3TL         0.1891
     98 H32        10.3402   16.7263   16.8031 H         1 3TL         0.0804
     99 H33         9.9364   18.5854   14.4697 H         1 3TL         0.0343
    100 H34        11.9779   17.5315   13.5493 H         1 3TL         0.0235
    101 H35        12.2034   16.6695   15.1091 H         1 3TL         0.0235
    102 H36        12.2642   18.4641   15.0576 H         1 3TL         0.0235
    103 H37         8.4380   16.6335   14.3360 H         1 3TL         0.0235
    104 H38         9.8661   15.5483   14.4317 H         1 3TL         0.0235
    105 H39         9.6778   16.6640   13.0366 H         1 3TL         0.0235
    106 H40        11.8837   17.6664   18.1782 H         1 3TL         0.1859
    107 H41        12.1484   20.6336   18.0885 H         1 3TL         0.0631
    108 H42        12.5262   20.8502   20.3914 H         1 3TL         0.0451
    109 H43        12.4735   19.0728   20.6455 H         1 3TL         0.0451
    110 H44        10.4661   17.9126   21.0246 H         1 3TL         0.0557
    111 H45         8.0440   18.1834   21.5407 H         1 3TL         0.0599
    112 H46         6.8902   20.3130   21.2953 H         1 3TL         0.0559
    113 H47         8.0877   22.3315   20.4197 H         1 3TL         0.0599
    114 H48        10.4915   22.0669   19.8938 H         1 3TL         0.0557
    115 H49        14.3332   20.0799   19.0849 H         1 3TL         0.0855
    116 H50        14.1980   17.9328   19.7963 H         1 3TL         0.2135
    117 H51        16.0000   25.2419   21.5776 H         1 3TL         0.0235
    118 H52        17.1440   25.4624   20.2104 H         1 3TL         0.0235
    119 H53        17.1779   23.9471   21.1744 H         1 3TL         0.0235
    120 H54        13.7134   22.9053   19.8699 H         1 3TL         0.0235
    121 H55        13.9047   24.0432   21.2465 H         1 3TL         0.0235
    122 H56        14.8982   22.5485   21.1721 H         1 3TL         0.0235
    123 H57        20.2141   26.6121   12.4088 H         1 3TL         0.0777
    124 H58        20.0495   28.3596   12.7906 H         1 3TL         0.0777
@<TRIPOS>BOND
     1    1    2 1  
     2   15    1 am 
     3    2    4 1  
     4    2    5 1  
     5    3   14 1  
     6   25    3 am 
     7    4    8 2  
     8    4   58 1  
     9    5    6 1  
    10    6    7 ar 
    11    6   13 ar 
    12    7    9 ar 
    13    9   10 ar 
    14   12   10 ar 
    15   15   11 2  
    16   13   12 ar 
    17   14   15 1  
    18   14   16 1  
    19   16   60 1  
    20   16   61 1  
    21   17   18 ar 
    22   66   17 ar 
    23   18   20 ar 
    24   19   24 2  
    25   62   19 1  
    26   21   20 ar 
    27   22   21 ar 
    28   66   22 ar 
    29   25   23 2  
    30   24   25 1  
    31   24   26 1  
    32   28   27 2  
    33   28   29 1  
    34   37   28 1  
    35   29   30 1  
    36   30   31 1  
    37   31   32 ar 
    38   31   36 ar 
    39   32   33 ar 
    40   33   34 ar 
    41   35   34 ar 
    42   36   35 ar 
    43   38   37 2  
    44   38   39 1  
    45   40   38 1  
    46   40   41 2  
    47   42   40 am 
    48   43   42 1  
    49   43   44 1  
    50   47   43 1  
    51   44   45 1  
    52   44   46 1  
    53   47   48 2  
    54   49   47 am 
    55   50   49 1  
    56   50   51 1  
    57   58   50 1  
    58   51   52 1  
    59   52   53 ar 
    60   52   57 ar 
    61   53   54 ar 
    62   54   55 ar 
    63   56   55 ar 
    64   57   56 ar 
    65   58   59 1  
    66   62   63 2  
    67   64   62 1  
    68   65   64 1  
    69   65   66 1  
    70    1   67 1  
    71    2   68 1  
    72    3   69 1  
    73    5   70 1  
    74    5   71 1  
    75    7   72 1  
    76    9   73 1  
    77   10   74 1  
    78   12   75 1  
    79   13   76 1  
    80   14   77 1  
    81   16   78 1  
    82   17   79 1  
    83   18   80 1  
    84   20   81 1  
    85   21   82 1  
    86   22   83 1  
    87   26   84 1  
    88   26   85 1  
    89   26   86 1  
    90   30   87 1  
    91   30   88 1  
    92   32   89 1  
    93   33   90 1  
    94   34   91 1  
    95   35   92 1  
    96   36   93 1  
    97   39   94 1  
    98   39   95 1  
    99   39   96 1  
   100   42   97 1  
   101   43   98 1  
   102   44   99 1  
   103   45  100 1  
   104   45  101 1  
   105   45  102 1  
   106   46  103 1  
   107   46  104 1  
   108   46  105 1  
   109   49  106 1  
   110   50  107 1  
   111   51  108 1  
   112   51  109 1  
   113   53  110 1  
   114   54  111 1  
   115   55  112 1  
   116   56  113 1  
   117   57  114 1  
   118   58  115 1  
   119   59  116 1  
   120   60  117 1  
   121   60  118 1  
   122   60  119 1  
   123   61  120 1  
   124   61  121 1  
   125   61  122 1  
   126   65  123 1  
   127   65  124 1  
@<TRIPOS>SUBSTRUCTURE
     1 3TL         1

