4mg8_ligand
  -I-interpret- 

 49 50  0  0  0  0  0  0  0  0999 V2000
   -7.6530   -5.1250   24.3950 C   0  0  0  0  0
   -6.4560   -4.2240   24.4950 C   0  0  0  0  0
   -6.6530   -2.9680   23.7350 C   0  0  0  0  0
   -5.3430   -2.2170   23.5800 C   0  0  0  0  0
   -5.6220   -0.7530   23.2250 C   0  0  0  0  0
   -4.5180   -2.8640   22.6240 O   0  0  0  0  0
   -3.2220   -2.7530   22.7800 C   0  0  0  0  0
   -2.7470   -2.2070   23.7550 O   0  0  0  0  0
   -2.3850   -3.2060   21.7030 C   0  0  0  0  0
   -1.0260   -3.0230   21.7980 C   0  0  0  0  0
   -0.5410   -2.4810   22.9190 O   0  0  0  0  0
   -0.1420   -3.3920   20.8250 C   0  0  0  0  0
   -0.6040   -3.9410   19.6840 C   0  0  0  0  0
    0.2740   -4.2990   18.7470 O   0  0  0  0  0
   -1.9420   -4.1200   19.5320 C   0  0  0  0  0
   -2.8540   -3.7880   20.4960 C   0  0  0  0  0
   -4.1700   -4.0250   20.1890 C   0  0  0  0  0
   -4.5920   -5.3680   20.6670 C   0  0  0  0  0
   -6.0310   -5.6040   20.5150 C   0  0  0  0  0
   -6.4970   -6.8980   21.1750 C   0  0  0  0  0
   -6.7970   -6.7690   22.7040 C   0  0  0  0  0
   -7.8610   -5.7620   23.0240 C   0  0  0  0  0
   -9.0680   -6.4300   22.9870 O   0  0  0  0  0
   -8.5302   -4.5095   24.5946 H   0  0  0  0  0
   -7.4962   -5.9395   25.1021 H   0  0  0  0  0
   -5.5956   -4.7473   24.0778 H   0  0  0  0  0
   -6.3025   -3.9709   25.5440 H   0  0  0  0  0
   -7.3566   -2.3368   24.2777 H   0  0  0  0  0
   -7.0350   -3.2142   22.7443 H   0  0  0  0  0
   -4.7981   -2.2227   24.5240 H   0  0  0  0  0
   -4.6799   -0.2074   23.1720 H   0  0  0  0  0
   -6.1264   -0.7042   22.2599 H   0  0  0  0  0
   -6.2576   -0.3094   23.9914 H   0  0  0  0  0
    0.4141   -2.4110   22.8521 H   0  0  0  0  0
    0.9281   -3.2439   20.9697 H   0  0  0  0  0
   -0.1946   -4.6721   17.9968 H   0  0  0  0  0
   -2.3060   -4.5483   18.5981 H   0  0  0  0  0
   -4.2905   -3.9841   19.1065 H   0  0  0  0  0
   -4.7856   -3.2695   20.6772 H   0  0  0  0  0
   -4.3554   -5.4319   21.7291 H   0  0  0  0  0
   -4.0682   -6.1133   20.0684 H   0  0  0  0  0
   -6.2437   -5.6803   19.4487 H   0  0  0  0  0
   -6.5551   -4.7786   20.9967 H   0  0  0  0  0
   -5.6894   -7.6220   21.0667 H   0  0  0  0  0
   -7.4284   -7.1885   20.6889 H   0  0  0  0  0
   -5.8788   -6.4402   23.1907 H   0  0  0  0  0
   -7.1510   -7.7399   23.0507 H   0  0  0  0  0
   -7.8293   -4.9488   22.2989 H   0  0  0  0  0
   -9.7784   -5.8163   23.1877 H   0  0  0  0  0
  1  2  1  0  0  0
  1 22  1  0  0  0
  2  3  1  0  0  0
  3  4  1  0  0  0
  4  5  1  0  0  0
  4  6  1  0  0  0
  6  7  1  0  0  0
  7  8  2  0  0  0
  7  9  1  0  0  0
  9 10  4  0  0  0
  9 16  4  0  0  0
 10 11  1  0  0  0
 10 12  4  0  0  0
 12 13  4  0  0  0
 13 14  1  0  0  0
 13 15  4  0  0  0
 15 16  4  0  0  0
 16 17  1  0  0  0
 17 18  1  0  0  0
 18 19  1  0  0  0
 19 20  1  0  0  0
 20 21  1  0  0  0
 21 22  1  0  0  0
 22 23  1  0  0  0
  1 24  1  0  0  0
  1 25  1  0  0  0
  2 26  1  0  0  0
  2 27  1  0  0  0
  3 28  1  0  0  0
  3 29  1  0  0  0
  4 30  1  0  0  0
  5 31  1  0  0  0
  5 32  1  0  0  0
  5 33  1  0  0  0
 11 34  1  0  0  0
 12 35  1  0  0  0
 14 36  1  0  0  0
 15 37  1  0  0  0
 17 38  1  0  0  0
 17 39  1  0  0  0
 18 40  1  0  0  0
 18 41  1  0  0  0
 19 42  1  0  0  0
 19 43  1  0  0  0
 20 44  1  0  0  0
 20 45  1  0  0  0
 21 46  1  0  0  0
 21 47  1  0  0  0
 22 48  1  0  0  0
 23 49  1  0  0  0
M  END
$$$$
