3k5u_ligand
  -I-interpret- 

 42 45  0  0  0  0  0  0  0  0999 V2000
   -4.4370  -30.5870    9.6760 C   0  0  0  0  0
   -3.4870  -32.0960    5.5850 C   0  0  0  0  0
   -2.8700  -32.8540    4.6080 C   0  0  0  0  0
   -2.7970  -32.5120    3.2670 C   0  0  0  0  0
   -2.0850  -33.3120    2.3840 C   0  0  0  0  0
   -1.5640  -34.5360    2.8100 C   0  0  0  0  0
   -1.4940  -34.8140    4.1790 C   0  0  0  0  0
   -2.2470  -34.0300    5.0540 C   0  0  0  0  0
   -4.7640  -28.9360    4.4230 C   0  0  0  0  0
   -5.4030  -28.2510    3.4060 C   0  0  0  0  0
   -6.1070  -28.9490    2.4200 C   0  0  0  0  0
   -6.0620  -30.3430    2.4350 C   0  0  0  0  0
   -3.8240  -31.5750    9.0540 N   0  0  0  0  0
   -3.8210  -31.6010    7.7190 C   0  0  0  0  0
   -3.1970  -32.4680    6.8720 O   0  0  0  0  0
   -4.5200  -30.6580    6.9630 C   0  0  0  0  0
   -5.9870  -28.7640    7.0820 N   0  0  0  0  0
   -5.2200  -29.6860    7.6640 C   0  0  0  0  0
   -5.1140  -29.6700    9.0090 N   0  0  0  0  0
   -5.6490  -30.9990    3.6130 C   0  0  0  0  0
   -4.3130  -30.9980    5.6250 C   0  0  0  0  0
   -4.8980  -30.3180    4.5670 C   0  0  0  0  0
   -8.0290  -28.3500    8.4710 C   0  0  0  0  0
   -6.7290  -27.7610    7.8700 C   0  0  0  0  0
   -8.7000  -27.3760    9.2920 O   0  0  0  0  0
   -4.3839  -30.5259   10.7630 H   0  0  0  0  0
   -3.2989  -31.6145    2.9056 H   0  0  0  0  0
   -1.9321  -32.9843    1.3557 H   0  0  0  0  0
   -1.2150  -35.2682    2.0818 H   0  0  0  0  0
   -0.8667  -35.6231    4.5532 H   0  0  0  0  0
   -2.3525  -34.3342    6.0953 H   0  0  0  0  0
   -4.1418  -28.3846    5.1279 H   0  0  0  0  0
   -5.3577  -27.1624    3.3728 H   0  0  0  0  0
   -6.6770  -28.4169    1.6584 H   0  0  0  0  0
   -6.3415  -30.9159    1.5508 H   0  0  0  0  0
   -6.0630  -28.7515    6.0649 H   0  0  0  0  0
   -5.9186  -32.0423    3.7770 H   0  0  0  0  0
   -7.7723  -29.2118    9.0870 H   0  0  0  0  0
   -8.6927  -28.6401    7.6565 H   0  0  0  0  0
   -6.9992  -26.9373    7.2092 H   0  0  0  0  0
   -6.0918  -27.4292    8.6898 H   0  0  0  0  0
   -9.5014  -27.7615    9.6536 H   0  0  0  0  0
 13  1  4  0  0  0
 19  1  4  0  0  0
  2  3  1  0  0  0
  2 15  4  0  0  0
 21  2  4  0  0  0
  3  4  4  0  0  0
  3  8  4  0  0  0
  4  5  4  0  0  0
  5  6  4  0  0  0
  7  6  4  0  0  0
  8  7  4  0  0  0
  9 10  4  0  0  0
 22  9  4  0  0  0
 10 11  4  0  0  0
 12 11  4  0  0  0
 20 12  4  0  0  0
 14 13  4  0  0  0
 14 15  4  0  0  0
 16 14  4  0  0  0
 16 18  4  0  0  0
 21 16  4  0  0  0
 18 17  1  0  0  0
 17 24  1  0  0  0
 18 19  4  0  0  0
 22 20  4  0  0  0
 21 22  1  0  0  0
 24 23  1  0  0  0
 23 25  1  0  0  0
  1 26  1  0  0  0
  4 27  1  0  0  0
  5 28  1  0  0  0
  6 29  1  0  0  0
  7 30  1  0  0  0
  8 31  1  0  0  0
  9 32  1  0  0  0
 10 33  1  0  0  0
 11 34  1  0  0  0
 12 35  1  0  0  0
 17 36  1  0  0  0
 20 37  1  0  0  0
 23 38  1  0  0  0
 23 39  1  0  0  0
 24 40  1  0  0  0
 24 41  1  0  0  0
 25 42  1  0  0  0
M  END
$$$$
