6h38_ligand
  -I-interpret- 

 47 49  0  0  0  0  0  0  0  0999 V2000
   15.9810   26.6210    6.9270 C   0  0  0  0  0
   17.7900   23.8910    2.9970 N   0  0  0  0  0
   15.8700   27.3550    5.7580 C   0  0  0  0  0
   16.7210   27.9680    9.0000 O   0  0  0  0  0
   19.9220   22.0220    2.5690 N   0  3  0  0  0
   16.1910   26.7660    4.5500 C   0  0  0  0  0
   16.0050   25.0210    2.2630 O   0  0  0  0  0
   15.5330   27.3700    8.4650 S   0  0  0  0  0
   14.4010   28.2110    8.2090 O   0  0  0  0  0
   16.4190   25.3060    6.8930 C   0  0  0  0  0
   16.7350   24.7250    5.6750 C   0  0  0  0  0
   16.6180   25.4440    4.4900 C   0  0  0  0  0
   16.7920   24.7760    3.1600 C   0  0  0  0  0
   18.9950   23.9300    3.8230 C   0  0  0  0  0
   19.5940   22.5420    3.9030 C   0  0  0  0  0
   18.1480   23.4480    1.6500 C   0  0  0  0  0
   18.7290   22.0580    1.7170 C   0  0  0  0  0
   20.4330   20.6470    2.6590 C   0  0  0  0  0
   21.8700   20.5660    3.1160 C   0  0  0  0  0
   22.8970   21.0490    2.3180 C   0  0  0  0  0
   24.2210   20.9070    2.6930 C   0  0  0  0  0
   24.4950   20.2780    3.8770 C   0  0  0  0  0
   25.7930   20.1310    4.2510 F   0  0  0  0  0
   23.5180   19.7900    4.6990 C   0  0  0  0  0
   22.1990   19.9390    4.3090 C   0  0  0  0  0
   15.0670   26.2260    9.4860 N   0  0  0  0  0
   15.5316   28.3906    5.7906 H   0  0  0  0  0
   20.6485   22.6093    2.1595 H   0  0  0  0  0
   16.1083   27.3460    3.6308 H   0  0  0  0  0
   16.5140   24.7341    7.8161 H   0  0  0  0  0
   17.0796   23.6913    5.6453 H   0  0  0  0  0
   18.7388   24.2745    4.8249 H   0  0  0  0  0
   19.7186   24.6140    3.3796 H   0  0  0  0  0
   20.5114   22.5942    4.4893 H   0  0  0  0  0
   18.8645   21.8763    4.3642 H   0  0  0  0  0
   18.8851   24.1303    1.2266 H   0  0  0  0  0
   17.2578   23.4402    1.0210 H   0  0  0  0  0
   17.9799   21.3879    2.1389 H   0  0  0  0  0
   19.0112   21.7501    0.7102 H   0  0  0  0  0
   20.3822   20.2130    1.6604 H   0  0  0  0  0
   19.8255   20.1196    3.3945 H   0  0  0  0  0
   22.6566   21.5488    1.3797 H   0  0  0  0  0
   25.0248   21.2862    2.0620 H   0  0  0  0  0
   23.7715   19.2964    5.6372 H   0  0  0  0  0
   21.4045   19.5571    4.9502 H   0  0  0  0  0
   15.6053   26.0493   10.3342 H   0  0  0  0  0
   14.2322   25.6746    9.2876 H   0  0  0  0  0
  3  1  4  0  0  0
  1  8  1  0  0  0
 10  1  4  0  0  0
  2 13  1  0  0  0
 14  2  1  0  0  0
  2 16  1  0  0  0
  6  3  4  0  0  0
  8  4  2  0  0  0
 15  5  1  0  0  0
  5 17  1  0  0  0
  5 18  1  0  0  0
 12  6  4  0  0  0
 13  7  2  0  0  0
  8  9  2  0  0  0
  8 26  1  0  0  0
 11 10  4  0  0  0
 12 11  4  0  0  0
 13 12  1  0  0  0
 14 15  1  0  0  0
 16 17  1  0  0  0
 18 19  1  0  0  0
 19 20  4  0  0  0
 19 25  4  0  0  0
 20 21  4  0  0  0
 21 22  4  0  0  0
 22 23  1  0  0  0
 22 24  4  0  0  0
 24 25  4  0  0  0
  3 27  1  0  0  0
  5 28  1  0  0  0
  6 29  1  0  0  0
 10 30  1  0  0  0
 11 31  1  0  0  0
 14 32  1  0  0  0
 14 33  1  0  0  0
 15 34  1  0  0  0
 15 35  1  0  0  0
 16 36  1  0  0  0
 16 37  1  0  0  0
 17 38  1  0  0  0
 17 39  1  0  0  0
 18 40  1  0  0  0
 18 41  1  0  0  0
 20 42  1  0  0  0
 21 43  1  0  0  0
 24 44  1  0  0  0
 25 45  1  0  0  0
 26 46  1  0  0  0
 26 47  1  0  0  0
M  END
$$$$
