5mz3_ligand
  -I-interpret- 

 52 55  0  0  0  0  0  0  0  0999 V2000
   -6.1430  -31.9250   31.6080 C   0  0  0  0  0
   -5.0140  -31.2760   31.0520 C   0  0  0  0  0
   -5.1610  -30.3540   30.0080 C   0  0  0  0  0
   -6.9210  -27.2100   26.2450 C   0  0  0  0  0
   -7.2720  -26.3960   25.1540 C   0  0  0  0  0
   -6.9140  -26.7850   23.8540 C   0  0  0  0  0
   -6.2840  -28.0160   23.6130 C   0  0  0  0  0
   -5.9340  -28.8240   24.7100 C   0  0  0  0  0
   -6.0560  -32.9000   32.7900 C   0  0  0  0  0
   -3.6130  -31.4130   31.5900 C   0  0  0  0  0
   -2.9950  -32.6140   31.6510 C   0  0  0  0  0
   -1.1450  -31.6040   32.5910 C   0  0  0  0  0
   -1.6960  -30.2500   32.5470 C   0  0  0  0  0
   -2.9340  -30.1750   32.0570 C   0  0  0  0  0
   -1.0690  -33.7400   32.3620 C   0  0  0  0  0
    0.1040  -33.3530   32.9270 C   0  0  0  0  0
    1.4720  -35.3120   33.1400 C   0  0  0  0  0
    2.7390  -35.8540   33.7680 C   0  0  0  0  0
   -5.9170  -28.4630   22.1920 C   0  0  0  0  0
   -6.4090  -30.0860   29.4620 C   0  0  0  0  0
   -7.5400  -30.7320   29.9890 C   0  0  0  0  0
   -7.4050  -31.6270   31.0680 C   0  0  0  0  0
   -6.5500  -29.2180   28.3450 N   0  0  0  0  0
   -5.8830  -29.3440   27.1640 C   0  0  0  0  0
   -6.2200  -28.4110   26.0270 C   0  0  0  0  0
   -5.0380  -30.1990   26.9330 O   0  0  0  0  0
   -1.7910  -32.6610   32.1570 N   0  0  0  0  0
   -0.0470  -31.9340   33.0730 N   0  0  0  0  0
    1.1850  -34.0170   33.3630 N   0  0  0  0  0
    0.7590  -36.0450   32.4680 O   0  0  0  0  0
   -6.0760  -27.4540   21.2900 F   0  0  0  0  0
   -4.6360  -28.9110   22.1730 F   0  0  0  0  0
   -6.6950  -29.4930   21.7980 F   0  0  0  0  0
   -4.2827  -29.8393   29.6185 H   0  0  0  0  0
   -7.1912  -26.9117   27.2580 H   0  0  0  0  0
   -7.8193  -25.4676   25.3169 H   0  0  0  0  0
   -7.1288  -26.1201   23.0174 H   0  0  0  0  0
   -5.4367  -29.7789   24.5399 H   0  0  0  0  0
   -5.4160  -33.7400   32.5201 H   0  0  0  0  0
   -5.6365  -32.3849   33.6541 H   0  0  0  0  0
   -7.0540  -33.2652   33.0323 H   0  0  0  0  0
   -3.4867  -33.5168   31.2887 H   0  0  0  0  0
   -1.1412  -29.3753   32.8863 H   0  0  0  0  0
   -3.4444  -29.2136   31.9992 H   0  0  0  0  0
   -1.3596  -34.7627   32.1216 H   0  0  0  0  0
    2.4870  -36.6699   34.4454 H   0  0  0  0  0
    3.4024  -36.2217   32.9852 H   0  0  0  0  0
    3.2363  -35.0591   34.3238 H   0  0  0  0  0
   -8.5242  -30.5400   29.5617 H   0  0  0  0  0
   -8.2937  -32.0957   31.4906 H   0  0  0  0  0
   -7.2024  -28.4391   28.4350 H   0  0  0  0  0
    1.8561  -33.4870   33.9190 H   0  0  0  0  0
  2  1  4  0  0  0
  1  9  1  0  0  0
 22  1  4  0  0  0
  3  2  4  0  0  0
  2 10  1  0  0  0
 20  3  4  0  0  0
  4  5  4  0  0  0
 25  4  4  0  0  0
  5  6  4  0  0  0
  7  6  4  0  0  0
  8  7  4  0  0  0
  7 19  1  0  0  0
 25  8  4  0  0  0
 10 11  4  0  0  0
 10 14  4  0  0  0
 11 27  4  0  0  0
 13 12  4  0  0  0
 27 12  4  0  0  0
 12 28  4  0  0  0
 14 13  4  0  0  0
 15 16  4  0  0  0
 27 15  4  0  0  0
 28 16  4  0  0  0
 16 29  1  0  0  0
 17 18  1  0  0  0
 29 17  1  0  0  0
 17 30  2  0  0  0
 19 31  1  0  0  0
 19 32  1  0  0  0
 19 33  1  0  0  0
 20 21  4  0  0  0
 23 20  1  0  0  0
 21 22  4  0  0  0
 24 23  1  0  0  0
 24 25  1  0  0  0
 24 26  2  0  0  0
  3 34  1  0  0  0
  4 35  1  0  0  0
  5 36  1  0  0  0
  6 37  1  0  0  0
  8 38  1  0  0  0
  9 39  1  0  0  0
  9 40  1  0  0  0
  9 41  1  0  0  0
 11 42  1  0  0  0
 13 43  1  0  0  0
 14 44  1  0  0  0
 15 45  1  0  0  0
 18 46  1  0  0  0
 18 47  1  0  0  0
 18 48  1  0  0  0
 21 49  1  0  0  0
 22 50  1  0  0  0
 23 51  1  0  0  0
 29 52  1  0  0  0
M  END
$$$$
