6ha4_ligand
  -I-interpret- 

 72 76  0  0  0  0  0  0  0  0999 V2000
    3.9040    1.7600   20.5210 O   0  0  0  0  0
    2.5830    2.2570   20.0650 S   0  0  0  0  0
    2.2700    3.5340   20.7430 O   0  0  0  0  0
    1.5690    1.2490   20.4330 O   0  0  0  0  0
    2.6440    2.4890   18.4680 C   0  0  0  0  0
    2.2580    1.4730   17.5790 C   0  0  0  0  0
    2.3690    1.6170   16.1900 C   0  0  0  0  0
    1.9460    0.4900   15.2610 C   0  0  0  0  0
    3.1770    3.6920   17.9860 C   0  0  0  0  0
    3.3500    3.9290   16.6260 C   0  0  0  0  0
    2.9780    2.8660   15.6590 C   0  0  0  0  0
    3.1760    3.0620   14.3280 O   0  0  0  0  0
    3.9160    5.2450   16.1420 C   0  0  0  0  0
    2.7890    6.1550   15.6950 C   0  0  0  0  0
    2.0900    6.9080   16.6330 C   0  0  0  0  0
    1.0280    7.7340   16.2570 C   0  0  0  0  0
    0.2860    8.5710   17.4040 S   0  0  0  0  0
   -0.2850    7.6360   18.3990 O   0  0  0  0  0
    1.2700    9.4420   18.0870 O   0  0  0  0  0
   -0.8010    9.3940   16.8330 O   0  0  0  0  0
    0.6380    7.8630   14.9160 C   0  0  0  0  0
    2.3800    6.2340   14.2680 C   0  0  0  0  0
    3.0200    5.5260   13.3030 O   0  0  0  0  0
    1.2570    7.1320   13.9030 C   0  0  0  0  0
    0.8190    7.2510   12.4540 C   0  0  0  0  0
   -0.3020    6.2730   12.1580 C   0  0  0  0  0
   -1.6190    6.7240   12.1410 C   0  0  0  0  0
   -2.6860    5.8490   11.9200 C   0  0  0  0  0
   -4.1830    6.4170   11.8860 S   0  0  0  0  0
   -4.1740    7.8860   11.6950 O   0  0  0  0  0
   -4.8280    6.0830   13.1690 O   0  0  0  0  0
   -4.9310    5.7770   10.7800 O   0  0  0  0  0
   -2.4750    4.4800   11.7320 C   0  0  0  0  0
   -0.0320    4.8350   11.9030 C   0  0  0  0  0
    1.2360    4.3550   11.8140 O   0  0  0  0  0
   -1.1970    3.9270   11.7210 C   0  0  0  0  0
   -0.9990    2.4460   11.4590 C   0  0  0  0  0
   -0.8610    1.6820   12.7630 C   0  0  0  0  0
   -1.9740    1.1430   13.4190 C   0  0  0  0  0
    0.4850    1.4360   13.3310 C   0  0  0  0  0
    1.6000    1.9020   12.7040 O   0  0  0  0  0
    0.5780    0.7570   14.6510 C   0  0  0  0  0
   -0.5910    0.2410   15.2190 C   0  0  0  0  0
   -1.8580    0.4690   14.6500 C   0  0  0  0  0
   -3.1940   -0.0970   15.3610 S   0  0  0  0  0
   -2.8270   -0.9980   16.4750 O   0  0  0  0  0
   -3.9800   -0.8740   14.3740 O   0  0  0  0  0
   -3.9810    1.0390   15.8880 O   0  0  0  0  0
    4.1030    0.9315   20.0787 H   0  0  0  0  0
    1.8592    0.5423   17.9826 H   0  0  0  0  0
    1.8933   -0.4330   15.8383 H   0  0  0  0  0
    2.6755    0.4139   14.4547 H   0  0  0  0  0
    3.4648    4.4655   18.6981 H   0  0  0  0  0
    3.5772    3.9230   14.1887 H   0  0  0  0  0
    4.5863    5.0620   15.3021 H   0  0  0  0  0
    4.4641    5.7223   16.9544 H   0  0  0  0  0
    2.3769    6.8523   17.6831 H   0  0  0  0  0
    1.6486   10.0544   17.4520 H   0  0  0  0  0
   -0.1678    8.5508   14.6598 H   0  0  0  0  0
    2.6142    5.7076   12.4521 H   0  0  0  0  0
    1.6669    7.0252   11.8073 H   0  0  0  0  0
    0.4623    8.2650   12.2732 H   0  0  0  0  0
   -1.8223    7.7825   12.3036 H   0  0  0  0  0
   -3.7529    8.0962   10.8583 H   0  0  0  0  0
   -3.3357    3.8265   11.5899 H   0  0  0  0  0
    1.2083    3.4100   11.6471 H   0  0  0  0  0
   -0.0890    2.3110   10.8744 H   0  0  0  0  0
   -1.8659    2.0656   10.9187 H   0  0  0  0  0
   -2.9588    1.2480   12.9638 H   0  0  0  0  0
    2.3775    1.6522   13.2086 H   0  0  0  0  0
   -0.5189   -0.3550   16.1287 H   0  0  0  0  0
   -4.2270   -0.3033   13.6427 H   0  0  0  0  0
  1  2  1  0  0  0
  2  3  2  0  0  0
  2  4  2  0  0  0
  2  5  1  0  0  0
  5  6  4  0  0  0
  5  9  4  0  0  0
  6  7  4  0  0  0
  7  8  1  0  0  0
  7 11  4  0  0  0
  8 42  1  0  0  0
  9 10  4  0  0  0
 10 11  4  0  0  0
 10 13  1  0  0  0
 11 12  1  0  0  0
 13 14  1  0  0  0
 14 15  4  0  0  0
 14 22  4  0  0  0
 15 16  4  0  0  0
 16 17  1  0  0  0
 16 21  4  0  0  0
 17 18  2  0  0  0
 17 19  1  0  0  0
 17 20  2  0  0  0
 21 24  4  0  0  0
 22 23  1  0  0  0
 22 24  4  0  0  0
 24 25  1  0  0  0
 25 26  1  0  0  0
 26 27  4  0  0  0
 26 34  4  0  0  0
 27 28  4  0  0  0
 28 29  1  0  0  0
 28 33  4  0  0  0
 29 30  1  0  0  0
 29 31  2  0  0  0
 29 32  2  0  0  0
 33 36  4  0  0  0
 34 35  1  0  0  0
 34 36  4  0  0  0
 36 37  1  0  0  0
 37 38  1  0  0  0
 38 39  4  0  0  0
 38 40  4  0  0  0
 39 44  4  0  0  0
 40 41  1  0  0  0
 40 42  4  0  0  0
 42 43  4  0  0  0
 43 44  4  0  0  0
 44 45  1  0  0  0
 45 46  2  0  0  0
 45 47  1  0  0  0
 45 48  2  0  0  0
  1 49  1  0  0  0
  6 50  1  0  0  0
  8 51  1  0  0  0
  8 52  1  0  0  0
  9 53  1  0  0  0
 12 54  1  0  0  0
 13 55  1  0  0  0
 13 56  1  0  0  0
 15 57  1  0  0  0
 19 58  1  0  0  0
 21 59  1  0  0  0
 23 60  1  0  0  0
 25 61  1  0  0  0
 25 62  1  0  0  0
 27 63  1  0  0  0
 30 64  1  0  0  0
 33 65  1  0  0  0
 35 66  1  0  0  0
 37 67  1  0  0  0
 37 68  1  0  0  0
 39 69  1  0  0  0
 41 70  1  0  0  0
 43 71  1  0  0  0
 47 72  1  0  0  0
M  END
$$$$
