3fu6_ligand
  -I-interpret- 

 25 26  0  0  0  0  0  0  0  0999 V2000
   25.8510    0.5640    1.3510 C   0  0  0  0  0
   25.5350    1.0840    0.1010 C   0  0  0  0  0
   26.4660    1.0340   -0.9290 C   0  0  0  0  0
   27.7140    0.4620   -0.7100 C   0  0  0  0  0
   28.0310   -0.0580    0.5400 C   0  0  0  0  0
   27.0990   -0.0080    1.5700 C   0  0  0  0  0
   24.8520    0.6180    2.4550 C   0  0  0  0  0
   22.9170    1.4920    3.9530 C   0  0  0  0  0
   23.4830    0.2700    4.3210 C   0  0  0  0  0
   24.5290   -0.2150    3.5210 C   0  0  0  0  0
   28.7270    0.4070   -1.8300 C   0  0  0  0  0
   29.7880    1.3610   -1.5700 N   0  3  0  0  0
   23.7870    2.0420    2.4920 S   0  0  0  0  0
   24.5560    1.5313   -0.0711 H   0  0  0  0  0
   26.2180    1.4431   -1.9084 H   0  0  0  0  0
   29.0102   -0.5048    0.7121 H   0  0  0  0  0
   27.3466   -0.4173    2.5494 H   0  0  0  0  0
   22.1023    2.0102    4.4588 H   0  0  0  0  0
   23.1283   -0.2827    5.1909 H   0  0  0  0  0
   25.0409   -1.1572    3.7169 H   0  0  0  0  0
   28.2395    0.6541   -2.7731 H   0  0  0  0  0
   29.1478   -0.5967   -1.8902 H   0  0  0  0  0
   30.4709    1.3228   -2.3267 H   0  0  0  0  0
   29.3932    2.2998   -1.5138 H   0  0  0  0  0
   30.2434    1.1290   -0.6873 H   0  0  0  0  0
  1  2  4  0  0  0
  1  6  4  0  0  0
  7  1  1  0  0  0
  2  3  4  0  0  0
  3  4  4  0  0  0
  5  4  4  0  0  0
  4 11  1  0  0  0
  6  5  4  0  0  0
  7 10  4  0  0  0
 13  7  4  0  0  0
  8  9  4  0  0  0
  8 13  4  0  0  0
  9 10  4  0  0  0
 11 12  1  0  0  0
  2 14  1  0  0  0
  3 15  1  0  0  0
  5 16  1  0  0  0
  6 17  1  0  0  0
  8 18  1  0  0  0
  9 19  1  0  0  0
 10 20  1  0  0  0
 11 21  1  0  0  0
 11 22  1  0  0  0
 12 23  1  0  0  0
 12 24  1  0  0  0
 12 25  1  0  0  0
M  END
$$$$
