5fog_ligand
  -I-interpret- 

 50 52  0  0  0  0  0  0  0  0999 V2000
  -24.2870    6.3140   27.2970 C   0  0  0  0  0
  -24.3810    8.4350   28.4350 N   0  3  0  0  0
  -25.2150    5.6240   26.8990 O   0  0  0  0  0
  -20.3150   11.2800   21.9920 N   0  0  0  0  0
  -19.8150   10.9110   23.3360 C   0  0  0  0  0
  -20.3300    9.6300   23.8950 N   0  0  0  0  0
  -21.2170    8.8120   23.2410 C   0  0  0  0  0
  -21.7040    9.2190   21.8970 C   0  0  0  0  0
  -21.2090   10.5100   21.3090 C   0  0  0  0  0
  -21.6530   10.8870   20.0910 N   0  0  0  0  0
  -22.5650    8.2480   21.4990 N   0  0  0  0  0
  -22.6260    7.3080   22.4770 C   0  0  0  0  0
  -21.8310    7.6440   23.5240 N   0  0  0  0  0
  -24.2980    6.9970   28.6500 C   0  0  0  0  0
  -25.4380    6.5960   29.6070 C   0  0  0  0  0
  -24.3010    4.4540   30.3720 C   0  0  0  0  0
  -25.5950    5.1140   29.9520 C   0  0  0  0  0
  -21.6360    6.8700   24.7870 C   0  0  0  0  0
  -23.1640    6.5240   26.5970 N   0  0  0  0  0
  -22.8460    6.0230   25.2530 C   0  0  0  0  0
  -22.3680    4.5590   25.2400 C   0  0  0  0  0
  -22.7570    3.7380   26.3610 O   0  0  0  0  0
  -20.8420    4.6750   25.1440 C   0  0  0  0  0
  -20.5350    5.9710   24.6240 O   0  0  0  0  0
  -20.1910    3.6220   24.2520 C   0  0  0  0  0
  -18.7810    3.8570   24.1130 O   0  0  0  0  0
  -23.6352    8.7267   27.8032 H   0  0  0  0  0
  -25.2858    8.6644   28.0237 H   0  0  0  0  0
  -24.2799    8.9175   29.3280 H   0  0  0  0  0
  -19.1122   11.5391   23.8835 H   0  0  0  0  0
  -20.0042    9.3439   24.8183 H   0  0  0  0  0
  -22.3144   10.2983   19.5846 H   0  0  0  0  0
  -23.2328    6.4039   22.4276 H   0  0  0  0  0
  -23.3785    6.6747   29.1387 H   0  0  0  0  0
  -26.3587    6.8733   29.0936 H   0  0  0  0  0
  -25.2116    7.0911   30.5513 H   0  0  0  0  0
  -23.5774    4.5266   29.5601 H   0  0  0  0  0
  -23.9086    4.9565   31.2561 H   0  0  0  0  0
  -24.4875    3.4049   30.6015 H   0  0  0  0  0
  -25.9478    4.6039   29.0557 H   0  0  0  0  0
  -26.2868    5.0439   30.7914 H   0  0  0  0  0
  -21.4712    7.6312   25.5496 H   0  0  0  0  0
  -22.4497    7.0959   27.0478 H   0  0  0  0  0
  -23.7408    6.0871   24.6339 H   0  0  0  0  0
  -22.8440    4.0348   24.4114 H   0  0  0  0  0
  -22.4049    2.8524   26.2451 H   0  0  0  0  0
  -20.4420    4.5159   26.1454 H   0  0  0  0  0
  -20.6504    3.6709   23.2647 H   0  0  0  0  0
  -20.3367    2.6426   24.7076 H   0  0  0  0  0
  -18.3992    3.1811   23.5483 H   0  0  0  0  0
  1  3  2  0  0  0
  1 14  1  0  0  0
 19  1  1  0  0  0
 14  2  1  0  0  0
  5  4  2  0  0  0
  9  4  1  0  0  0
  6  5  1  0  0  0
  7  6  1  0  0  0
  7  8  4  0  0  0
 13  7  4  0  0  0
  8  9  1  0  0  0
 11  8  4  0  0  0
  9 10  2  0  0  0
 12 11  4  0  0  0
 13 12  4  0  0  0
 18 13  1  0  0  0
 14 15  1  0  0  0
 15 17  1  0  0  0
 17 16  1  0  0  0
 20 18  1  0  0  0
 18 24  1  0  0  0
 19 20  1  0  0  0
 20 21  1  0  0  0
 21 22  1  0  0  0
 21 23  1  0  0  0
 23 24  1  0  0  0
 23 25  1  0  0  0
 25 26  1  0  0  0
  2 27  1  0  0  0
  2 28  1  0  0  0
  2 29  1  0  0  0
  5 30  1  0  0  0
  6 31  1  0  0  0
 10 32  1  0  0  0
 12 33  1  0  0  0
 14 34  1  0  0  0
 15 35  1  0  0  0
 15 36  1  0  0  0
 16 37  1  0  0  0
 16 38  1  0  0  0
 16 39  1  0  0  0
 17 40  1  0  0  0
 17 41  1  0  0  0
 18 42  1  0  0  0
 19 43  1  0  0  0
 20 44  1  0  0  0
 21 45  1  0  0  0
 22 46  1  0  0  0
 23 47  1  0  0  0
 25 48  1  0  0  0
 25 49  1  0  0  0
 26 50  1  0  0  0
M  END
$$$$
