4r4i_ligand
  -I-interpret- 

 61 66  0  0  0  0  0  0  0  0999 V2000
   17.1210   13.3210   19.4170 C   0  0  0  0  0
   14.9350   10.6420   22.5100 C   0  0  0  0  0
   12.3990   13.7410   23.8510 C   0  0  0  0  0
   10.2800   12.0230   26.3740 C   0  0  0  0  0
    8.9530   12.5620   25.9000 C   0  0  0  0  0
    8.2710   11.8710   24.9270 C   0  0  0  0  0
    8.4160   13.7310   26.4390 C   0  0  0  0  0
    6.4830   13.5250   25.0130 C   0  0  0  0  0
    4.6690   15.4030   24.6630 C   0  0  0  0  0
   12.0280    9.6310   25.4990 S   0  0  0  0  0
   12.1260   11.1860   24.9120 C   0  0  0  0  0
   13.1140   11.4330   23.9250 C   0  0  0  0  0
   13.2520   12.7040   23.3920 C   0  0  0  0  0
   14.2320   12.9530   22.4100 C   0  0  0  0  0
   15.0600   11.9180   21.9810 C   0  0  0  0  0
   16.1050   12.1990   20.9280 C   0  0  0  0  0
   17.1840   11.3900   20.5290 C   0  0  0  0  0
   17.8670   12.1370   19.5010 C   0  0  0  0  0
   17.3310   14.4850   18.5270 C   0  0  0  0  0
   18.3520   14.5810   17.8010 O   0  0  0  0  0
   16.4270   15.3520   18.5580 O   0  0  0  0  0
   16.1110   13.3040   20.2420 O   0  0  0  0  0
   13.9650   10.3880   23.4740 C   0  0  0  0  0
   11.4520   13.4250   24.8270 C   0  0  0  0  0
   11.3110   12.1880   25.3420 N   0  0  0  0  0
    7.0550   12.3570   24.4900 C   0  0  0  0  0
    7.1840   14.2170   25.9960 C   0  0  0  0  0
    5.1460   14.0610   24.5270 C   0  0  0  0  0
    3.3780   15.4170   24.0510 C   0  0  0  0  0
    2.4380   16.5800   23.9170 C   0  0  0  0  0
    1.3180   16.3950   23.3790 O   0  0  0  0  0
    2.7540   17.7300   24.3320 O   0  0  0  0  0
    3.1450   14.1930   23.5980 N   0  0  0  0  0
    4.1710   13.4070   23.8860 N   0  0  0  0  0
    4.2300   12.0080   23.5340 C   0  0  0  0  0
    3.6990   11.0460   24.3730 C   0  0  0  0  0
    3.7850    9.7080   24.0210 C   0  0  0  0  0
    4.4070    9.3400   22.8380 C   0  0  0  0  0
    4.4650    7.6560   22.4730 Cl  0  0  0  0  0
    4.9590   10.3140   22.0050 C   0  0  0  0  0
    5.7630    9.9800   20.5100 Cl  0  0  0  0  0
    4.8530   11.6420   22.3570 C   0  0  0  0  0
   15.5937    9.8421   22.1719 H   0  0  0  0  0
   12.4806   14.7528   23.4539 H   0  0  0  0  0
   10.1692   10.9608   26.5922 H   0  0  0  0  0
   10.5840   12.5732   27.2645 H   0  0  0  0  0
    8.6838   10.9537   24.5071 H   0  0  0  0  0
    8.9627   14.2699   27.2128 H   0  0  0  0  0
    5.1832   16.2401   25.1351 H   0  0  0  0  0
   14.3416   13.9519   21.9877 H   0  0  0  0  0
   17.4486   10.4057   20.9152 H   0  0  0  0  0
   18.7491   11.8504   18.9285 H   0  0  0  0  0
   18.9103   13.8112   17.9325 H   0  0  0  0  0
   13.8572    9.3842   23.8849 H   0  0  0  0  0
   10.7958   14.2163   25.1894 H   0  0  0  0  0
    6.5208   11.8133   23.7108 H   0  0  0  0  0
    6.7734   15.1342   26.4183 H   0  0  0  0  0
    3.6346   17.7006   24.7131 H   0  0  0  0  0
    3.2158   11.3378   25.3054 H   0  0  0  0  0
    3.3632    8.9447   24.6749 H   0  0  0  0  0
    5.2641   12.4097   21.7014 H   0  0  0  0  0
  1 18  4  0  0  0
  1 19  1  0  0  0
 22  1  4  0  0  0
 15  2  4  0  0  0
  2 23  4  0  0  0
 13  3  1  0  0  0
  3 24  2  0  0  0
  4  5  1  0  0  0
 25  4  1  0  0  0
  5  6  4  0  0  0
  5  7  4  0  0  0
  6 26  4  0  0  0
  7 27  4  0  0  0
 26  8  4  0  0  0
 27  8  4  0  0  0
  8 28  1  0  0  0
 28  9  4  0  0  0
  9 29  4  0  0  0
 11 10  2  0  0  0
 12 11  1  0  0  0
 11 25  1  0  0  0
 13 12  4  0  0  0
 23 12  4  0  0  0
 14 13  4  0  0  0
 15 14  4  0  0  0
 16 15  1  0  0  0
 16 17  4  0  0  0
 16 22  4  0  0  0
 17 18  4  0  0  0
 19 20  1  0  0  0
 19 21  2  0  0  0
 24 25  1  0  0  0
 28 34  4  0  0  0
 29 30  1  0  0  0
 29 33  4  0  0  0
 30 31  2  0  0  0
 30 32  1  0  0  0
 33 34  4  0  0  0
 34 35  1  0  0  0
 35 36  4  0  0  0
 35 42  4  0  0  0
 36 37  4  0  0  0
 37 38  4  0  0  0
 38 39  1  0  0  0
 38 40  4  0  0  0
 40 41  1  0  0  0
 40 42  4  0  0  0
  2 43  1  0  0  0
  3 44  1  0  0  0
  4 45  1  0  0  0
  4 46  1  0  0  0
  6 47  1  0  0  0
  7 48  1  0  0  0
  9 49  1  0  0  0
 14 50  1  0  0  0
 17 51  1  0  0  0
 18 52  1  0  0  0
 20 53  1  0  0  0
 23 54  1  0  0  0
 24 55  1  0  0  0
 26 56  1  0  0  0
 27 57  1  0  0  0
 32 58  1  0  0  0
 36 59  1  0  0  0
 37 60  1  0  0  0
 42 61  1  0  0  0
M  END
$$$$
