5qil_ligand
  -I-interpret- 

 43 46  0  0  0  0  0  0  0  0999 V2000
    6.9930    9.6350    5.9650 C   0  0  0  0  0
    5.7800    9.7550    5.3000 C   0  0  0  0  0
    2.3890    7.3000    3.2880 C   0  0  0  0  0
    8.0290   11.0920    4.5620 C   0  0  0  0  0
    6.8590   11.3040    3.8030 C   0  0  0  0  0
    5.7260   10.6050    4.1930 C   0  0  0  0  0
   -0.0680    6.0000    1.9300 C   0  0  0  0  0
    4.7740    7.4980    3.1070 C   0  0  0  0  0
    4.6820    6.8160    1.9080 C   0  0  0  0  0
   10.3920   11.4930    4.8320 C   0  0  0  0  0
    4.1080    9.2520    7.2150 C   0  0  0  0  0
    2.9030    8.5560    7.3060 C   0  0  0  0  0
    2.1890    8.5640    8.5120 C   0  0  0  0  0
    2.7270    9.2760    9.5770 C   0  0  0  0  0
    3.9440    9.9410    9.4020 C   0  0  0  0  0
    4.6390    9.9430    8.2450 N   0  0  0  0  0
    4.5760    9.0930    5.8570 C   0  0  0  0  0
    3.6540    8.2990    5.2050 C   0  0  0  0  0
    2.6380    7.9810    6.0890 N   0  0  0  0  0
    3.6070    7.7300    3.8330 C   0  0  0  0  0
    3.5210    6.3680    1.3790 N   0  0  0  0  0
    2.3860    6.6000    2.0680 C   0  0  0  0  0
    8.1080   10.2890    5.6180 N   0  0  0  0  0
    1.2180    6.0290    1.4590 N   0  0  0  0  0
   -0.4180    6.5590    2.9490 O   0  0  0  0  0
   -1.0580    5.2120    1.1160 C   0  0  0  0  0
    9.1450   11.7170    4.1250 O   0  0  0  0  0
    7.0401    8.9658    6.8241 H   0  0  0  0  0
    1.4521    7.5064    3.8054 H   0  0  0  0  0
    6.8458   11.9841    2.9513 H   0  0  0  0  0
    4.7956   10.7189    3.6367 H   0  0  0  0  0
    5.7383    7.8468    3.4766 H   0  0  0  0  0
    5.6022    6.6278    1.3549 H   0  0  0  0  0
   10.2833   11.8132    5.8682 H   0  0  0  0  0
   10.6395   10.4319    4.8023 H   0  0  0  0  0
   11.1868   12.0662    4.3547 H   0  0  0  0  0
    1.2440    8.0299    8.6111 H   0  0  0  0  0
    2.2078    9.3154   10.5346 H   0  0  0  0  0
    4.3556   10.4898   10.2491 H   0  0  0  0  0
    1.3658    5.5847    0.5528 H   0  0  0  0  0
   -1.4697    4.4079    1.7259 H   0  0  0  0  0
   -1.8629    5.8701    0.7887 H   0  0  0  0  0
   -0.5561    4.7892    0.2457 H   0  0  0  0  0
  2  1  4  0  0  0
  1 23  4  0  0  0
  2  6  4  0  0  0
 17  2  1  0  0  0
  3 20  4  0  0  0
 22  3  4  0  0  0
  5  4  4  0  0  0
 23  4  4  0  0  0
  4 27  1  0  0  0
  6  5  4  0  0  0
 24  7  1  0  0  0
  7 25  2  0  0  0
  7 26  1  0  0  0
  9  8  4  0  0  0
 20  8  4  0  0  0
 21  9  4  0  0  0
 27 10  1  0  0  0
 12 11  4  0  0  0
 11 16  4  0  0  0
 17 11  4  0  0  0
 12 13  4  0  0  0
 19 12  4  0  0  0
 13 14  4  0  0  0
 14 15  4  0  0  0
 16 15  4  0  0  0
 18 17  4  0  0  0
 18 19  4  0  0  0
 20 18  1  0  0  0
 22 21  4  0  0  0
 22 24  1  0  0  0
  1 28  1  0  0  0
  3 29  1  0  0  0
  5 30  1  0  0  0
  6 31  1  0  0  0
  8 32  1  0  0  0
  9 33  1  0  0  0
 10 34  1  0  0  0
 10 35  1  0  0  0
 10 36  1  0  0  0
 13 37  1  0  0  0
 14 38  1  0  0  0
 15 39  1  0  0  0
 24 40  1  0  0  0
 26 41  1  0  0  0
 26 42  1  0  0  0
 26 43  1  0  0  0
M  END
$$$$
