5zym_ligand
  -I-interpret- 

 61 65  0  0  0  0  0  0  0  0999 V2000
  -37.0390    3.7660   -8.1970 C   0  0  0  0  0
  -29.0250    4.9770   -4.7580 C   0  0  0  0  0
  -25.1560    5.3240   -7.3970 C   0  0  0  0  0
  -25.4140    5.0560   -5.8850 C   0  0  0  0  0
  -28.3140    5.7080   -5.6930 C   0  0  0  0  0
  -32.1570    4.2210   -6.6390 C   0  0  0  0  0
  -32.9870    3.6800   -5.6340 C   0  0  0  0  0
  -35.1250    2.4770   -4.9030 C   0  0  0  0  0
  -34.2940    3.1650   -5.9480 C   0  0  0  0  0
  -32.0890    0.8220   -5.0120 N   0  0  0  0  0
  -38.2790    3.0980   -8.8130 C   0  0  0  0  0
  -34.7700    3.1920   -7.2750 C   0  0  0  0  0
  -33.9440    3.7470   -8.2850 C   0  0  0  0  0
  -30.8240    4.7600   -6.3430 C   0  0  0  0  0
  -26.6140    6.0690   -3.6810 O   0  0  0  0  0
  -26.6630    6.2540   -5.1720 S   0  0  0  0  0
  -26.4600    7.4980   -5.9850 O   0  0  0  0  0
  -26.1780    4.5570   -8.0390 O   0  0  0  0  0
  -28.7740    5.9650   -7.0070 C   0  0  0  0  0
  -30.0450    5.4690   -7.2970 C   0  0  0  0  0
  -30.2860    4.4910   -5.0600 C   0  0  0  0  0
  -32.6640    4.2520   -7.9640 C   0  0  0  0  0
  -36.1790    2.6510   -7.6510 C   0  0  0  0  0
  -36.3880    1.6100   -8.7770 C   0  0  0  0  0
  -37.9160    1.6240   -8.9570 C   0  0  0  0  0
  -34.3830    1.3840   -4.0830 C   0  0  0  0  0
  -34.9530    2.6440   -3.4370 C   0  0  0  0  0
  -32.8480    1.1970   -3.9210 C   0  0  0  0  0
  -32.0950    1.4640   -2.6990 C   0  0  0  0  0
  -30.6620    1.3480   -2.5740 C   0  0  0  0  0
  -29.9120    0.9440   -3.6980 C   0  0  0  0  0
  -30.6870    0.7090   -4.8930 C   0  0  0  0  0
  -37.3221    4.4629   -7.4082 H   0  0  0  0  0
  -36.4974    4.3474   -8.9431 H   0  0  0  0  0
  -28.5899    4.7825   -3.7777 H   0  0  0  0  0
  -24.1525    5.0373   -7.7114 H   0  0  0  0  0
  -25.1999    6.3829   -7.6517 H   0  0  0  0  0
  -24.4733    5.1814   -5.3488 H   0  0  0  0  0
  -25.8080    4.0453   -5.7779 H   0  0  0  0  0
  -32.6327    3.6517   -4.6036 H   0  0  0  0  0
  -36.0082    2.5791   -5.5336 H   0  0  0  0  0
  -38.5368    3.5423   -9.7743 H   0  0  0  0  0
  -39.1599    3.2337   -8.1855 H   0  0  0  0  0
  -34.2985    3.7843   -9.3151 H   0  0  0  0  0
  -26.1023    4.6582   -8.9906 H   0  0  0  0  0
  -28.1783    6.5107   -7.7388 H   0  0  0  0  0
  -30.4564    5.6314   -8.2932 H   0  0  0  0  0
  -30.8517    3.9149   -4.3277 H   0  0  0  0  0
  -32.0485    4.6775   -8.7567 H   0  0  0  0  0
  -36.4067    2.1835   -6.6930 H   0  0  0  0  0
  -35.9945    0.6244   -8.5283 H   0  0  0  0  0
  -35.8462    1.8525   -9.6912 H   0  0  0  0  0
  -38.2271    1.2093   -9.9158 H   0  0  0  0  0
  -38.4278    0.9950   -8.2287 H   0  0  0  0  0
  -34.4883    0.2991   -4.0830 H   0  0  0  0  0
  -35.5815    2.8895   -2.5810 H   0  0  0  0  0
  -34.6053    3.4208   -2.7560 H   0  0  0  0  0
  -32.6559    1.7734   -1.8171 H   0  0  0  0  0
  -30.1681    1.5687   -1.6277 H   0  0  0  0  0
  -28.8297    0.8188   -3.6668 H   0  0  0  0  0
  -30.1377    0.4167   -5.7879 H   0  0  0  0  0
  1 11  1  0  0  0
 23  1  1  0  0  0
  2  5  4  0  0  0
 21  2  4  0  0  0
  4  3  1  0  0  0
  3 18  1  0  0  0
 16  4  1  0  0  0
  5 16  1  0  0  0
 19  5  4  0  0  0
  7  6  4  0  0  0
  6 14  1  0  0  0
  6 22  4  0  0  0
  9  7  4  0  0  0
  8  9  1  0  0  0
 26  8  1  0  0  0
 27  8  1  0  0  0
  9 12  4  0  0  0
 28 10  4  0  0  0
 10 32  4  0  0  0
 25 11  1  0  0  0
 12 13  4  0  0  0
 12 23  1  0  0  0
 13 22  4  0  0  0
 14 20  4  0  0  0
 14 21  4  0  0  0
 16 15  2  0  0  0
 16 17  2  0  0  0
 20 19  4  0  0  0
 23 24  1  0  0  0
 24 25  1  0  0  0
 26 27  1  0  0  0
 26 28  1  0  0  0
 28 29  4  0  0  0
 29 30  4  0  0  0
 30 31  4  0  0  0
 31 32  4  0  0  0
  1 33  1  0  0  0
  1 34  1  0  0  0
  2 35  1  0  0  0
  3 36  1  0  0  0
  3 37  1  0  0  0
  4 38  1  0  0  0
  4 39  1  0  0  0
  7 40  1  0  0  0
  8 41  1  0  0  0
 11 42  1  0  0  0
 11 43  1  0  0  0
 13 44  1  0  0  0
 18 45  1  0  0  0
 19 46  1  0  0  0
 20 47  1  0  0  0
 21 48  1  0  0  0
 22 49  1  0  0  0
 23 50  1  0  0  0
 24 51  1  0  0  0
 24 52  1  0  0  0
 25 53  1  0  0  0
 25 54  1  0  0  0
 26 55  1  0  0  0
 27 56  1  0  0  0
 27 57  1  0  0  0
 29 58  1  0  0  0
 30 59  1  0  0  0
 31 60  1  0  0  0
 32 61  1  0  0  0
M  END
$$$$
