5orl_ligand
  -I-interpret- 

 23 23  0  0  0  0  0  0  0  0999 V2000
  -18.5220   28.1590  -24.8670 C   0  0  0  0  0
  -20.4280   26.2420  -24.3570 C   0  0  0  0  0
  -21.8970   27.8790  -23.5330 F   0  0  0  0  0
  -20.7020   27.5620  -24.0650 C   0  0  0  0  0
  -19.7490   28.5300  -24.3350 C   0  0  0  0  0
  -19.9750   29.9030  -24.0450 N   0  0  0  0  0
  -20.3850   30.2760  -22.7300 C   0  0  0  0  0
  -20.5790   31.7420  -22.4290 C   0  0  0  0  0
  -20.3190   32.2450  -21.1970 C   0  0  0  0  0
  -20.6920   31.3420  -19.7100 S   0  0  0  0  0
  -20.5880   29.4300  -21.8630 O   0  0  0  0  0
  -18.2520   26.8360  -25.1500 C   0  0  0  0  0
  -19.2020   25.8720  -24.8940 C   0  0  0  0  0
  -21.6550   25.0600  -24.0000 Cl  0  0  0  0  0
  -17.7656   28.9190  -25.0628 H   0  0  0  0  0
  -19.8459   30.6119  -24.7669 H   0  0  0  0  0
  -21.6504   31.8973  -22.5560 H   0  0  0  0  0
  -19.8568   32.2412  -23.0750 H   0  0  0  0  0
  -20.9681   33.1185  -21.1353 H   0  0  0  0  0
  -19.2324   32.3291  -21.1793 H   0  0  0  0  0
  -20.3360   32.0658  -18.6525 H   0  0  0  0  0
  -17.2888   26.5541  -25.5753 H   0  0  0  0  0
  -18.9926   24.8247  -25.1117 H   0  0  0  0  0
  5  1  4  0  0  0
  1 12  4  0  0  0
  4  2  4  0  0  0
  2 13  4  0  0  0
  2 14  1  0  0  0
  4  3  1  0  0  0
  4  5  4  0  0  0
  5  6  1  0  0  0
  6  7  1  0  0  0
  7  8  1  0  0  0
  7 11  2  0  0  0
  8  9  1  0  0  0
  9 10  1  0  0  0
 12 13  4  0  0  0
  1 15  1  0  0  0
  6 16  1  0  0  0
  8 17  1  0  0  0
  8 18  1  0  0  0
  9 19  1  0  0  0
  9 20  1  0  0  0
 10 21  1  0  0  0
 12 22  1  0  0  0
 13 23  1  0  0  0
M  END
$$$$
