6dge_ligand
  -I-interpret- 

 31 30  0  0  0  0  0  0  0  0999 V2000
   -7.1790   32.7540   -3.2890 C   0  0  0  0  0
   -8.6890   32.7000   -3.0710 C   0  0  0  0  0
   -9.1920   34.1280   -2.9140 C   0  0  0  0  0
   -7.7330   35.6490   -3.9610 O   0  0  0  0  0
   -8.7710   34.9730   -4.1170 C   0  0  0  0  0
   -9.4930   34.9530   -5.1350 O   0  0  0  0  0
  -10.6580   34.1290   -2.8240 N   0  3  0  0  0
   -6.6360   31.3460   -3.3560 C   0  0  0  0  0
   -5.1370   31.3440   -3.6520 C   0  0  0  0  0
   -4.8140   29.9370   -3.5140 N   0  0  0  0  0
   -3.7960   29.5560   -2.7500 C   0  0  0  0  0
   -3.6780   28.0740   -2.4850 C   0  0  0  0  0
   -3.0190   30.4020   -2.0760 N   0  0  0  0  0
   -6.7091   33.2883   -2.4633 H   0  0  0  0  0
   -6.9625   33.2743   -4.2221 H   0  0  0  0  0
   -8.9204   32.1186   -2.1785 H   0  0  0  0  0
   -9.1755   32.2202   -3.9203 H   0  0  0  0  0
   -8.7619   34.5500   -2.0057 H   0  0  0  0  0
   -7.3706   35.4800   -3.0883 H   0  0  0  0  0
  -10.9487   33.5674   -2.0237 H   0  0  0  0  0
  -10.9896   35.0865   -2.7073 H   0  0  0  0  0
  -11.0502   33.7338   -3.6787 H   0  0  0  0  0
   -7.1490   30.8135   -4.1569 H   0  0  0  0  0
   -6.8005   30.8639   -2.3923 H   0  0  0  0  0
   -4.5615   31.9898   -2.9888 H   0  0  0  0  0
   -4.8859   31.7543   -4.6301 H   0  0  0  0  0
   -5.3704   29.2373   -4.0053 H   0  0  0  0  0
   -2.6626   27.7461   -2.7077 H   0  0  0  0  0
   -3.9041   27.8744   -1.4376 H   0  0  0  0  0
   -4.3824   27.5356   -3.1191 H   0  0  0  0  0
   -3.1911   31.4059   -2.1300 H   0  0  0  0  0
  1  2  1  0  0  0
  1  8  1  0  0  0
  2  3  1  0  0  0
  3  5  1  0  0  0
  3  7  1  0  0  0
  5  4  1  0  0  0
  5  6  2  0  0  0
  8  9  1  0  0  0
  9 10  1  0  0  0
 10 11  1  0  0  0
 11 12  1  0  0  0
 11 13  2  0  0  0
  1 14  1  0  0  0
  1 15  1  0  0  0
  2 16  1  0  0  0
  2 17  1  0  0  0
  3 18  1  0  0  0
  4 19  1  0  0  0
  7 20  1  0  0  0
  7 21  1  0  0  0
  7 22  1  0  0  0
  8 23  1  0  0  0
  8 24  1  0  0  0
  9 25  1  0  0  0
  9 26  1  0  0  0
 10 27  1  0  0  0
 12 28  1  0  0  0
 12 29  1  0  0  0
 12 30  1  0  0  0
 13 31  1  0  0  0
M  END
$$$$
