5dy7_ligand
  -I-interpret- 

 22 23  0  0  0  0  0  0  0  0999 V2000
   11.6090    2.9120   -1.5260 F   0  0  0  0  0
   11.2800    2.8350   -2.8010 C   0  0  0  0  0
   10.6310    3.9350   -3.1410 F   0  0  0  0  0
   10.5040    1.7990   -2.9710 F   0  0  0  0  0
   12.4320    2.7200   -3.5890 C   0  0  0  0  0
   12.4230    2.0000   -4.7870 C   0  0  0  0  0
   13.5860    1.9200   -5.5510 C   0  0  0  0  0
   13.6260    1.1940   -6.7550 N   0  0  0  0  0
   14.7540    1.2390   -7.5830 C   0  0  0  0  0
   14.7730    0.5580   -8.6120 O   0  0  0  0  0
   15.8420    2.0670   -7.2880 C   0  0  0  0  0
   15.9190    2.4560   -5.8660 N   0  0  0  0  0
   14.7490    2.5380   -5.1010 C   0  0  0  0  0
   14.7570    3.2560   -3.9100 C   0  0  0  0  0
   13.5960    3.3470   -3.1560 C   0  0  0  0  0
   11.5119    1.5041   -5.1218 H   0  0  0  0  0
   12.8230    0.6275   -7.0283 H   0  0  0  0  0
   15.7255    2.9805   -7.8712 H   0  0  0  0  0
   16.7495    1.5116   -7.5248 H   0  0  0  0  0
   16.8227    2.6646   -5.4415 H   0  0  0  0  0
   15.6704    3.7446   -3.5708 H   0  0  0  0  0
   13.5958    3.9106   -2.2230 H   0  0  0  0  0
  1  2  1  0  0  0
  2  3  1  0  0  0
  2  4  1  0  0  0
  2  5  1  0  0  0
  5  6  4  0  0  0
  5 15  4  0  0  0
  6  7  4  0  0  0
  7  8  1  0  0  0
  7 13  4  0  0  0
  8  9  1  0  0  0
  9 10  2  0  0  0
  9 11  1  0  0  0
 11 12  1  0  0  0
 12 13  1  0  0  0
 13 14  4  0  0  0
 14 15  4  0  0  0
  6 16  1  0  0  0
  8 17  1  0  0  0
 11 18  1  0  0  0
 11 19  1  0  0  0
 12 20  1  0  0  0
 14 21  1  0  0  0
 15 22  1  0  0  0
M  END
$$$$
