3hc8_ligand
  -I-interpret- 

 67 70  0  0  0  0  0  0  0  0999 V2000
   17.2340   -5.8820   12.8690 C   0  0  0  0  0
   17.3770   -5.6280   14.2330 C   0  0  0  0  0
   18.2830   -6.3810   14.9920 C   0  0  0  0  0
   19.0350   -7.3770   14.3720 C   0  0  0  0  0
   18.8710   -7.6070   12.9950 C   0  0  0  0  0
   17.9840   -6.8530   12.3230 N   0  0  0  0  0
   19.9200   -8.1310   15.0530 N   0  0  0  0  0
   20.6280   -9.1020   14.4320 C   0  0  0  0  0
   20.4500   -9.3200   13.0530 C   0  0  0  0  0
   19.5850   -8.5490   12.3510 N   0  0  0  0  0
   21.1500  -10.2570   12.4470 O   0  0  0  0  0
   21.5090   -9.8740   15.0930 N   0  0  0  0  0
   21.9010   -9.8440   16.5080 C   0  0  0  0  0
   20.8730  -10.4340   17.4770 C   0  0  0  0  0
   21.4060  -10.8110   18.8270 N   0  3  0  0  0
   21.7270   -9.7180   19.7950 C   0  0  0  0  0
   20.7720   -9.7840   20.9970 C   0  0  0  0  0
   20.7210  -11.1130   21.5490 O   0  0  0  0  0
   20.3290  -12.1510   20.6330 C   0  0  0  0  0
   21.2200  -12.1960   19.3810 C   0  0  0  0  0
   16.3090   -5.1860   11.9470 C   0  0  0  0  0
   15.2460   -4.3980   12.3970 C   0  0  0  0  0
   14.3770   -3.7530   11.5280 C   0  0  0  0  0
   14.5920   -3.9460   10.1740 C   0  0  0  0  0
   15.6030   -4.7230    9.7310 N   0  0  0  0  0
   16.4420   -5.3440   10.5720 C   0  0  0  0  0
   19.3780   -8.7950   10.9040 C   0  0  0  0  0
   13.7400   -3.3260    9.3770 O   0  0  0  0  0
   20.5690   -8.4370   10.0200 C   0  0  0  0  0
   20.5530   -7.0290    9.9070 O   0  0  0  0  0
   21.5230   -6.4910    9.0020 C   0  0  0  0  0
   21.2350   -4.9980    8.7980 C   0  0  0  0  0
   19.8280   -4.7120    8.2690 C   0  0  0  0  0
   13.9390   -3.3050    7.9390 C   0  0  0  0  0
   16.7852   -4.8453   14.7077 H   0  0  0  0  0
   18.3985   -6.1892   16.0587 H   0  0  0  0  0
   20.0579   -7.9674   16.0503 H   0  0  0  0  0
   22.0226   -8.7952   16.7786 H   0  0  0  0  0
   22.8022  -10.4505   16.5977 H   0  0  0  0  0
   20.5047  -11.3523   17.0197 H   0  0  0  0  0
   20.1219   -9.6617   17.6429 H   0  0  0  0  0
   22.3200  -11.0226   18.4267 H   0  0  0  0  0
   21.6130   -8.7543   19.2987 H   0  0  0  0  0
   22.7525   -9.8380   20.1445 H   0  0  0  0  0
   19.7721   -9.5075   20.6626 H   0  0  0  0  0
   21.1331   -9.1013   21.7662 H   0  0  0  0  0
   19.3070  -11.9491   20.3122 H   0  0  0  0  0
   20.4223  -13.1074   21.1475 H   0  0  0  0  0
   22.1932  -12.6066   19.6499 H   0  0  0  0  0
   20.7437  -12.8215   18.6261 H   0  0  0  0  0
   15.0938   -4.2858   13.4705 H   0  0  0  0  0
   13.5647   -3.1250   11.8938 H   0  0  0  0  0
   17.2348   -5.9779   10.1748 H   0  0  0  0  0
   18.5480   -8.1620   10.5900 H   0  0  0  0  0
   19.2049   -9.8646   10.7855 H   0  0  0  0  0
   20.4961   -8.9147    9.0429 H   0  0  0  0  0
   21.5051   -8.7900   10.4527 H   0  0  0  0  0
   21.4653   -7.0121    8.0464 H   0  0  0  0  0
   22.5239   -6.6211    9.4135 H   0  0  0  0  0
   21.9440   -4.6266    8.0581 H   0  0  0  0  0
   21.3237   -4.5124    9.7698 H   0  0  0  0  0
   19.6966   -5.2040    7.3053 H   0  0  0  0  0
   19.0910   -5.0925    8.9762 H   0  0  0  0  0
   19.6976   -3.6364    8.1500 H   0  0  0  0  0
   14.8921   -2.8271    7.7123 H   0  0  0  0  0
   13.9440   -4.3267    7.5592 H   0  0  0  0  0
   13.1298   -2.7455    7.4696 H   0  0  0  0  0
  1  2  4  0  0  0
  1  6  4  0  0  0
  1 21  1  0  0  0
  2  3  4  0  0  0
  3  4  4  0  0  0
  4  5  4  0  0  0
  4  7  1  0  0  0
  5  6  4  0  0  0
  5 10  1  0  0  0
  7  8  1  0  0  0
  8  9  1  0  0  0
  8 12  2  0  0  0
  9 10  1  0  0  0
  9 11  2  0  0  0
 10 27  1  0  0  0
 12 13  1  0  0  0
 13 14  1  0  0  0
 14 15  1  0  0  0
 15 16  1  0  0  0
 15 20  1  0  0  0
 16 17  1  0  0  0
 17 18  1  0  0  0
 18 19  1  0  0  0
 19 20  1  0  0  0
 21 22  4  0  0  0
 21 26  4  0  0  0
 22 23  4  0  0  0
 23 24  4  0  0  0
 24 25  4  0  0  0
 24 28  1  0  0  0
 25 26  4  0  0  0
 27 29  1  0  0  0
 28 34  1  0  0  0
 29 30  1  0  0  0
 30 31  1  0  0  0
 31 32  1  0  0  0
 32 33  1  0  0  0
  2 35  1  0  0  0
  3 36  1  0  0  0
  7 37  1  0  0  0
 13 38  1  0  0  0
 13 39  1  0  0  0
 14 40  1  0  0  0
 14 41  1  0  0  0
 15 42  1  0  0  0
 16 43  1  0  0  0
 16 44  1  0  0  0
 17 45  1  0  0  0
 17 46  1  0  0  0
 19 47  1  0  0  0
 19 48  1  0  0  0
 20 49  1  0  0  0
 20 50  1  0  0  0
 22 51  1  0  0  0
 23 52  1  0  0  0
 26 53  1  0  0  0
 27 54  1  0  0  0
 27 55  1  0  0  0
 29 56  1  0  0  0
 29 57  1  0  0  0
 31 58  1  0  0  0
 31 59  1  0  0  0
 32 60  1  0  0  0
 32 61  1  0  0  0
 33 62  1  0  0  0
 33 63  1  0  0  0
 33 64  1  0  0  0
 34 65  1  0  0  0
 34 66  1  0  0  0
 34 67  1  0  0  0
M  END
$$$$
