2v96_ligand
  -I-interpret- 

 39 39  0  0  0  0  0  0  0  0999 V2000
  101.6580   57.0820   22.4980 As  0  0  0  0  0
  103.0660   55.5790   23.3630 C   0  0  0  0  0
  100.6950   56.1470   20.7010 C   0  0  0  0  0
  102.7840   58.9110   21.8690 C   0  0  0  0  0
  100.1400   57.6590   24.0460 C   0  0  0  0  0
   99.2630   56.4830   24.5370 C   0  0  0  0  0
   99.9650   55.2190   24.4510 O   0  0  0  0  0
   99.3510   54.0910   25.0940 C   0  0  0  0  0
  100.4350   53.1850   25.7230 C   0  0  0  0  0
   98.3700   53.4650   24.0170 C   0  0  0  0  0
   96.9700   53.1920   24.3020 C   0  0  0  0  0
   96.1650   52.6430   23.2710 C   0  0  0  0  0
   96.6930   52.3660   22.0140 C   0  0  0  0  0
   98.0290   52.6170   21.7410 C   0  0  0  0  0
   98.8640   53.1590   22.7260 C   0  0  0  0  0
   96.2530   53.4410   25.6180 N   0  0  0  0  0
   95.0700   53.1940   25.7620 O   0  0  0  0  0
   96.8190   53.9070   26.5950 O   0  0  0  0  0
   99.9300   52.0790   26.2590 F   0  0  0  0  0
  101.3470   52.8000   24.8460 F   0  0  0  0  0
  101.0760   53.7950   26.7140 F   0  0  0  0  0
  103.5719   56.0116   24.2261 H   0  0  0  0  0
  102.5073   54.6958   23.6727 H   0  0  0  0  0
  103.8034   55.2988   22.6108 H   0  0  0  0  0
  100.1557   55.2499   21.0049 H   0  0  0  0  0
   99.9993   56.8564   20.2528 H   0  0  0  0  0
  101.4637   55.8819   19.9751 H   0  0  0  0  0
  102.0884   59.6383   21.4505 H   0  0  0  0  0
  103.2859   59.3428   22.7349 H   0  0  0  0  0
  103.5242   58.6395   21.1164 H   0  0  0  0  0
   99.4735   58.3900   23.5883 H   0  0  0  0  0
  100.6869   58.0369   24.9098 H   0  0  0  0  0
   98.3772   56.4276   23.9043 H   0  0  0  0  0
   99.0026   56.6610   25.5804 H   0  0  0  0  0
   98.7361   54.3265   25.9627 H   0  0  0  0  0
   95.1133   52.4343   23.4673 H   0  0  0  0  0
   96.0515   51.9485   21.2379 H   0  0  0  0  0
   98.4318   52.3911   20.7537 H   0  0  0  0  0
   99.9122   53.3485   22.4947 H   0  0  0  0  0
  1  2  1  0  0  0
  1  3  1  0  0  0
  1  4  1  0  0  0
  1  5  1  0  0  0
  5  6  1  0  0  0
  6  7  1  0  0  0
  7  8  1  0  0  0
  8  9  1  0  0  0
  8 10  1  0  0  0
  9 19  1  0  0  0
  9 20  1  0  0  0
  9 21  1  0  0  0
 10 11  4  0  0  0
 10 15  4  0  0  0
 11 12  4  0  0  0
 11 16  1  0  0  0
 12 13  4  0  0  0
 13 14  4  0  0  0
 14 15  4  0  0  0
 16 17  2  0  0  0
 16 18  2  0  0  0
  2 22  1  0  0  0
  2 23  1  0  0  0
  2 24  1  0  0  0
  3 25  1  0  0  0
  3 26  1  0  0  0
  3 27  1  0  0  0
  4 28  1  0  0  0
  4 29  1  0  0  0
  4 30  1  0  0  0
  5 31  1  0  0  0
  5 32  1  0  0  0
  6 33  1  0  0  0
  6 34  1  0  0  0
  8 35  1  0  0  0
 12 36  1  0  0  0
 13 37  1  0  0  0
 14 38  1  0  0  0
 15 39  1  0  0  0
M  END
$$$$
