### 
### Created by X-TOOL on Mon Sep 10 21:12:56 2018
### 

@<TRIPOS>MOLECULE
2v96_ligand
   39    39     1     0     0
SMALL
GAST_HUCK


@<TRIPOS>ATOM
      1 AS        101.6580   57.0820   22.4980 As        1 CFQ        -0.1311
      2 C1        103.0660   55.5790   23.3630 C.3       1 CFQ        -0.0480
      3 C2        100.6950   56.1470   20.7010 C.3       1 CFQ        -0.0480
      4 C3        102.7840   58.9110   21.8690 C.3       1 CFQ        -0.0480
      5 C4        100.1400   57.6590   24.0460 C.3       1 CFQ        -0.0125
      6 C5         99.2630   56.4830   24.5370 C.3       1 CFQ         0.0549
      7 O1         99.9650   55.2190   24.4510 O.3       1 CFQ        -0.3534
      8 C6         99.3510   54.0910   25.0940 C.3       1 CFQ         0.1929
      9 C14       100.4350   53.1850   25.7230 C.3       1 CFQ         0.4272
     10 C7         98.3700   53.4650   24.0170 C.ar      1 CFQ         0.0381
     11 C8         96.9700   53.1920   24.3020 C.ar      1 CFQ         0.2037
     12 C9         96.1650   52.6430   23.2710 C.ar      1 CFQ        -0.0251
     13 C10        96.6930   52.3660   22.0140 C.ar      1 CFQ        -0.0605
     14 C11        98.0290   52.6170   21.7410 C.ar      1 CFQ        -0.0630
     15 C12        98.8640   53.1590   22.7260 C.ar      1 CFQ        -0.0489
     16 N2         96.2530   53.4410   25.6180 N.2       1 CFQ         0.3099
     17 O2         95.0700   53.1940   25.7620 O.2       1 CFQ         0.1745
     18 O3         96.8190   53.9070   26.5950 O.2       1 CFQ         0.1745
     19 F1         99.9300   52.0790   26.2590 F         1 CFQ        -0.1658
     20 F2        101.3470   52.8000   24.8460 F         1 CFQ        -0.1658
     21 F3        101.0760   53.7950   26.7140 F         1 CFQ        -0.1658
     22 H1        103.8107   55.2954   22.6048 H         1 CFQ         0.0274
     23 H2        102.5034   54.6871   23.6759 H         1 CFQ         0.0274
     24 H3        103.5773   56.0144   24.2342 H         1 CFQ         0.0274
     25 H4         99.9925   56.8619   20.2479 H         1 CFQ         0.0274
     26 H5        100.1505   55.2413   21.0063 H         1 CFQ         0.0274
     27 H6        101.4697   55.8793   19.9674 H         1 CFQ         0.0274
     28 H7        103.2571   59.3710   22.7491 H         1 CFQ         0.0274
     29 H8        102.0894   59.6291   21.4088 H         1 CFQ         0.0274
     30 H9        103.5591   58.6319   21.1401 H         1 CFQ         0.0274
     31 H10        99.4800   58.4257   23.6142 H         1 CFQ         0.0332
     32 H11       100.6720   58.0788   24.9124 H         1 CFQ         0.0332
     33 H12        98.3568   56.4304   23.9157 H         1 CFQ         0.0566
     34 H13        98.9795   56.6628   25.5845 H         1 CFQ         0.0566
     35 H14        98.7292   54.4516   25.9267 H         1 CFQ         0.0869
     36 H15        95.1191   52.4355   23.4662 H         1 CFQ         0.0674
     37 H16        96.0551   51.9508   21.2422 H         1 CFQ         0.0575
     38 H17        98.4296   52.3923   20.7591 H         1 CFQ         0.0643
     39 H18        99.9064   53.3475   22.4960 H         1 CFQ         0.0573
@<TRIPOS>BOND
     1    1    2 1  
     2    1    3 1  
     3    1    4 1  
     4    1    5 1  
     5    5    6 1  
     6    6    7 1  
     7    7    8 1  
     8    8    9 1  
     9    8   10 1  
    10    9   19 1  
    11    9   20 1  
    12    9   21 1  
    13   10   11 ar 
    14   10   15 ar 
    15   11   12 ar 
    16   11   16 1  
    17   12   13 ar 
    18   13   14 ar 
    19   14   15 ar 
    20   16   17 2  
    21   16   18 2  
    22    2   22 1  
    23    2   23 1  
    24    2   24 1  
    25    3   25 1  
    26    3   26 1  
    27    3   27 1  
    28    4   28 1  
    29    4   29 1  
    30    4   30 1  
    31    5   31 1  
    32    5   32 1  
    33    6   33 1  
    34    6   34 1  
    35    8   35 1  
    36   12   36 1  
    37   13   37 1  
    38   14   38 1  
    39   15   39 1  
@<TRIPOS>SUBSTRUCTURE
     1 CFQ         1

