2ima_ligand
  -I-interpret- 

 21 21  0  0  0  0  0  0  0  0999 V2000
   -5.0600   -6.0420   21.5510 O   0  0  0  0  0
   -4.4400   -6.6520   22.3990 C   0  0  0  0  0
   -3.9430   -5.9910   23.4490 N   0  0  0  0  0
   -4.0630   -4.6040   23.5210 O   0  0  0  0  0
   -4.1600   -8.0950   22.2090 C   0  0  0  0  0
   -4.4460   -8.6720   21.0240 C   0  0  0  0  0
   -4.1450  -10.1000   20.6790 C   0  0  0  0  0
   -4.3540  -10.5370   19.3750 C   0  0  0  0  0
   -5.0020   -9.4700   18.1250 Cl  0  0  0  0  0
   -4.0760  -11.8160   18.9550 C   0  0  0  0  0
   -3.6130  -11.0170   21.5920 C   0  0  0  0  0
   -3.3240  -12.3260   21.1810 C   0  0  0  0  0
   -3.5660  -12.7170   19.8650 C   0  0  0  0  0
   -3.2190  -14.3620   19.2950 Cl  0  0  0  0  0
   -3.4756   -6.5017   24.1981 H   0  0  0  0  0
   -3.6564   -4.2904   24.3322 H   0  0  0  0  0
   -3.7276   -8.6835   23.0182 H   0  0  0  0  0
   -4.9295   -8.0578   20.2644 H   0  0  0  0  0
   -4.2555  -12.1122   17.9215 H   0  0  0  0  0
   -3.4234  -10.7141   22.6218 H   0  0  0  0  0
   -2.9089  -13.0399   21.8925 H   0  0  0  0  0
  1  2  2  0  0  0
  2  3  1  0  0  0
  2  5  1  0  0  0
  3  4  1  0  0  0
  5  6  2  0  0  0
  6  7  1  0  0  0
  7  8  4  0  0  0
  7 11  4  0  0  0
  8  9  1  0  0  0
  8 10  4  0  0  0
 10 13  4  0  0  0
 11 12  4  0  0  0
 12 13  4  0  0  0
 13 14  1  0  0  0
  3 15  1  0  0  0
  4 16  1  0  0  0
  5 17  1  0  0  0
  6 18  1  0  0  0
 10 19  1  0  0  0
 11 20  1  0  0  0
 12 21  1  0  0  0
M  END
$$$$
