6few_ligand
  -I-interpret- 

 58 62  0  0  0  0  0  0  0  0999 V2000
   -3.7430   -4.6530   17.0610 C   0  0  0  0  0
   -4.0600   -3.2980   16.4330 C   0  0  0  0  0
   -3.6440   -8.1020   16.5050 C   0  0  0  0  0
   -3.7870   -6.1800   15.1040 C   0  0  0  0  0
   -4.2520   -8.2660   19.3170 C   0  0  0  0  0
   -5.3770   -7.4750   21.3290 C   0  0  0  0  0
   -5.5300   -6.2190   19.2800 C   0  0  0  0  0
   -5.5570   -1.3040   18.2070 C   0  0  0  0  0
   -4.7970   -1.8530   19.2220 C   0  0  0  0  0
   -4.2070   -0.9850   20.1310 C   0  0  0  0  0
   -5.2000    0.9730   18.9900 C   0  0  0  0  0
   -3.3640   -1.1740   21.2540 C   0  0  0  0  0
   -6.1690   -4.0140   15.4560 C   0  0  0  0  0
   -5.9870   -5.4250   16.0340 C   0  0  0  0  0
   -4.5260   -5.7960   16.3740 C   0  0  0  0  0
   -5.5280   -3.1120   16.4240 N   0  0  0  0  0
   -4.4660   -7.0580   17.1880 N   0  0  0  0  0
   -3.5750   -7.5540   15.1030 N   0  0  0  0  0
   -3.4240   -5.4470   14.2140 O   0  0  0  0  0
   -4.7320   -7.1760   18.6170 C   0  0  0  0  0
   -4.5790   -8.4060   20.6770 C   0  0  0  0  0
   -5.8540   -6.3720   20.6380 C   0  0  0  0  0
   -6.2390   -2.1640   17.1920 C   0  0  0  0  0
   -7.4440   -2.0020   17.0010 O   0  0  0  0  0
   -4.4140    0.4170   20.0150 C   0  0  0  0  0
   -5.7590    0.0940   18.0870 C   0  0  0  0  0
   -3.0680    0.0240   21.8090 N   0  0  0  0  0
   -3.6960    0.9890   21.0640 N   0  0  0  0  0
   -2.7460   -8.2060   14.1080 C   0  0  0  0  0
   -1.2540   -7.9150   14.3170 C   0  0  0  0  0
   -0.8270   -7.0460   15.0960 O   0  0  0  0  0
   -0.3840   -8.6910   13.5660 N   0  0  0  0  0
    1.0620   -8.4870   13.6970 C   0  0  0  0  0
   -4.0310   -4.6214   18.1118 H   0  0  0  0  0
   -2.6768   -4.8464   16.9428 H   0  0  0  0  0
   -3.6758   -3.2630   15.4136 H   0  0  0  0  0
   -3.5892   -2.5026   17.0107 H   0  0  0  0  0
   -4.0710   -9.1032   16.5634 H   0  0  0  0  0
   -2.6672   -8.2589   16.9625 H   0  0  0  0  0
   -3.6272   -9.0086   18.8207 H   0  0  0  0  0
   -5.6275   -7.6112   22.3810 H   0  0  0  0  0
   -5.8988   -5.3518   18.7322 H   0  0  0  0  0
   -4.6650   -2.9317   19.3063 H   0  0  0  0  0
   -5.3598    2.0485   18.9131 H   0  0  0  0  0
   -3.0078   -2.1385   21.6160 H   0  0  0  0  0
   -7.2223   -3.7703   15.3173 H   0  0  0  0  0
   -5.7201   -3.9249   14.4667 H   0  0  0  0  0
   -6.3250   -6.1274   15.2721 H   0  0  0  0  0
   -6.5504   -5.4624   16.9663 H   0  0  0  0  0
   -4.1981   -9.2636   21.2316 H   0  0  0  0  0
   -6.4739   -5.6313   21.1432 H   0  0  0  0  0
   -6.3658    0.4800   17.2679 H   0  0  0  0  0
   -3.0316   -7.8267   13.1269 H   0  0  0  0  0
   -2.8971   -9.2822   14.1927 H   0  0  0  0  0
   -0.7473   -9.3984   12.9273 H   0  0  0  0  0
    1.3095   -7.4619   13.4213 H   0  0  0  0  0
    1.3613   -8.6694   14.7291 H   0  0  0  0  0
    1.5864   -9.1786   13.0376 H   0  0  0  0  0
  1  2  1  0  0  0
 15  1  1  0  0  0
  2 16  1  0  0  0
 17  3  1  0  0  0
  3 18  1  0  0  0
 15  4  1  0  0  0
  4 18  1  0  0  0
  4 19  2  0  0  0
 20  5  4  0  0  0
  5 21  4  0  0  0
 21  6  4  0  0  0
 22  6  4  0  0  0
 20  7  4  0  0  0
  7 22  4  0  0  0
  8  9  4  0  0  0
 23  8  1  0  0  0
  8 26  4  0  0  0
  9 10  4  0  0  0
 10 12  4  0  0  0
 10 25  4  0  0  0
 11 25  4  0  0  0
 26 11  4  0  0  0
 12 27  4  0  0  0
 14 13  1  0  0  0
 13 16  1  0  0  0
 15 14  1  0  0  0
 17 15  1  0  0  0
 16 23  1  0  0  0
 17 20  1  0  0  0
 18 29  1  0  0  0
 23 24  2  0  0  0
 25 28  4  0  0  0
 27 28  4  0  0  0
 29 30  1  0  0  0
 30 31  2  0  0  0
 30 32  1  0  0  0
 32 33  1  0  0  0
  1 34  1  0  0  0
  1 35  1  0  0  0
  2 36  1  0  0  0
  2 37  1  0  0  0
  3 38  1  0  0  0
  3 39  1  0  0  0
  5 40  1  0  0  0
  6 41  1  0  0  0
  7 42  1  0  0  0
  9 43  1  0  0  0
 11 44  1  0  0  0
 12 45  1  0  0  0
 13 46  1  0  0  0
 13 47  1  0  0  0
 14 48  1  0  0  0
 14 49  1  0  0  0
 21 50  1  0  0  0
 22 51  1  0  0  0
 26 52  1  0  0  0
 29 53  1  0  0  0
 29 54  1  0  0  0
 32 55  1  0  0  0
 33 56  1  0  0  0
 33 57  1  0  0  0
 33 58  1  0  0  0
M  END
$$$$
