5tbn_ligand
  -I-interpret- 

191190  0  0  0  0  0  0  0  0999 V2000
   12.3770  -15.3550  -19.5850 N   0  3  0  0  0
   11.7370  -15.7730  -18.2990 C   0  0  0  0  0
   12.6010  -16.8890  -17.6590 C   0  0  0  0  0
   12.6680  -17.9760  -18.2270 O   0  0  0  0  0
   10.2790  -16.2620  -18.5220 C   0  0  0  0  0
   13.3070  -16.6420  -16.5380 N   0  0  0  0  0
   14.1600  -17.6560  -15.8430 C   0  0  0  0  0
   13.3260  -18.8820  -15.4350 C   0  0  0  0  0
   12.1390  -18.7310  -15.1530 O   0  0  0  0  0
   14.8340  -17.0010  -14.6100 C   0  0  0  0  0
   16.2720  -17.4020  -14.2830 C   0  0  0  0  0
   16.8350  -16.5090  -13.1550 C   0  0  0  0  0
   18.1510  -17.0240  -12.7220 N   0  0  0  0  0
   18.6610  -17.0810  -11.5020 C   0  0  0  0  0
   18.0430  -16.6500  -10.4390 N   0  0  0  0  0
   19.8470  -17.5890  -11.3230 N   0  0  0  0  0
   13.9260  -20.0680  -15.3580 N   0  0  0  0  0
   13.2240  -21.3190  -14.9810 C   0  0  0  0  0
   14.0810  -22.2990  -14.1840 C   0  0  0  0  0
   15.3110  -22.3040  -14.2890 O   0  0  0  0  0
   12.5900  -22.0430  -16.1780 C   0  0  0  0  0
   13.3640  -21.9460  -17.3620 O   0  0  0  0  0
   11.2060  -21.4660  -16.4490 C   0  0  0  0  0
   13.4010  -23.1240  -13.3760 N   0  0  0  0  0
   13.9910  -24.0720  -12.4340 C   0  0  0  0  0
   14.2430  -23.3570  -11.0830 C   0  0  0  0  0
   12.9410  -23.0630  -10.3300 C   0  0  0  0  0
   13.1050  -21.9830   -9.2410 C   0  0  0  0  0
   13.4710  -22.5650   -7.8640 C   0  0  0  0  0
   13.6420  -21.5060   -6.8200 N   0  3  0  0  0
   12.3590  -20.7960   -6.5110 C   0  0  0  0  0
   14.1710  -22.1240   -5.5720 C   0  0  0  0  0
   13.0860  -25.3000  -12.2760 C   0  0  0  0  0
   11.8720  -25.2210  -12.4720 O   0  0  0  0  0
   13.6910  -26.4270  -11.8860 N   0  0  0  0  0
   13.0020  -27.6920  -11.6200 C   0  0  0  0  0
   13.5370  -28.3680  -10.3460 C   0  0  0  0  0
   14.7100  -28.2180   -9.9930 O   0  0  0  0  0
   13.1250  -28.6610  -12.8120 C   0  0  0  0  0
   12.4680  -28.2020  -14.1290 C   0  0  0  0  0
   13.2720  -27.1870  -14.9520 C   0  0  0  0  0
   12.7530  -26.1840  -15.4300 O   0  0  0  0  0
   14.5590  -27.3910  -15.1650 N   0  0  0  0  0
   12.6860  -29.1490   -9.6690 N   0  0  0  0  0
   13.0630  -29.9720   -8.5030 C   0  0  0  0  0
   12.1680  -31.2180   -8.3620 C   0  0  0  0  0
   11.1260  -31.3210   -9.0150 O   0  0  0  0  0
   13.1060  -29.1240   -7.2150 C   0  0  0  0  0
   13.6710  -29.8840   -6.1640 O   0  0  0  0  0
   11.7360  -28.6340   -6.7470 C   0  0  0  0  0
   12.5920  -32.1800   -7.5350 N   0  0  0  0  0
   11.8960  -33.4540   -7.2980 C   0  0  0  0  0
   12.1990  -34.0790   -5.9180 C   0  0  0  0  0
   11.3020  -34.6520   -5.2920 O   0  0  0  0  0
   12.2770  -34.4280   -8.4240 C   0  0  0  0  0
   13.4490  -33.9650   -5.4380 N   0  0  0  0  0
   13.9300  -34.4970   -4.1420 C   0  0  0  0  0
   15.0760  -33.6570   -3.5460 C   0  0  0  0  0
   15.6050  -32.7650   -4.2130 O   0  0  0  0  0
   14.3170  -35.9850   -4.3050 C   0  0  0  0  0
   15.5330  -36.2360   -5.2170 C   0  0  0  0  0
   15.9570  -37.7130   -5.1910 C   0  0  0  0  0
   17.2950  -37.9100   -5.7870 N   0  0  0  0  0
   18.4630  -37.7270   -5.1880 C   0  0  0  0  0
   18.5800  -37.3320   -3.9590 N   0  0  0  0  0
   19.5940  -37.9280   -5.7930 N   0  0  0  0  0
   15.4700  -33.9660   -2.3020 N   0  0  0  0  0
   16.6460  -33.3830   -1.6110 C   0  0  0  0  0
   17.9680  -33.6080   -2.3740 C   0  0  0  0  0
   18.0660  -34.4910   -3.2230 O   0  0  0  0  0
   16.7160  -33.8970   -0.1580 C   0  0  0  0  0
   16.9930  -35.4040   -0.0360 C   0  0  0  0  0
   17.0230  -35.8540    1.4310 C   0  0  0  0  0
   17.2970  -37.3620    1.5110 C   0  0  0  0  0
   17.3190  -37.8530    2.9180 N   0  3  0  0  0
   18.9970  -32.8260   -2.0480 N   0  0  0  0  0
   20.2770  -32.7380   -2.7840 C   0  0  0  0  0
   21.2580  -33.9220   -2.6130 C   0  0  0  0  0
   22.3720  -33.8710   -3.1490 O   0  0  0  0  0
   20.9660  -31.4190   -2.4050 C   0  0  0  0  0
   21.2510  -31.3840   -1.0110 O   0  0  0  0  0
   20.8890  -34.9780   -1.8760 N   0  0  0  0  0
   21.7540  -36.1350   -1.5460 C   0  0  0  0  0
   22.1500  -37.0040   -2.7490 C   0  0  0  0  0
   21.3140  -37.2410   -3.6550 O   0  0  0  0  0
   21.1340  -37.0060   -0.4470 C   0  0  0  0  0
   19.8650  -37.4940   -0.8330 O   0  0  0  0  0
   20.9640  -36.2300    0.8630 C   0  0  0  0  0
   23.3140  -37.4680   -2.7780 N   0  0  0  0  0
   13.3301  -15.0407  -19.4027 H   0  0  0  0  0
   12.3960  -16.1472  -20.2272 H   0  0  0  0  0
   11.8398  -14.5931  -19.9988 H   0  0  0  0  0
   11.6836  -14.9151  -17.6288 H   0  0  0  0  0
   10.2846  -17.1266  -19.1858 H   0  0  0  0  0
    9.8401  -16.5407  -17.5640 H   0  0  0  0  0
    9.6932  -15.4606  -18.9721 H   0  0  0  0  0
   13.2567  -15.7050  -16.1382 H   0  0  0  0  0
   14.9359  -18.0029  -16.5255 H   0  0  0  0  0
   14.2420  -17.3205  -13.7524 H   0  0  0  0  0
   14.8743  -15.9350  -14.8340 H   0  0  0  0  0
   16.8870  -17.2789  -15.1745 H   0  0  0  0  0
   16.2854  -18.4411  -13.9541 H   0  0  0  0  0
   16.1473  -16.5184  -12.3094 H   0  0  0  0  0
   16.9494  -15.4898  -13.5241 H   0  0  0  0  0
   18.7483  -17.3852  -13.4657 H   0  0  0  0  0
   18.4907  -16.7201   -9.5252 H   0  0  0  0  0
   17.1115  -16.2425  -10.5206 H   0  0  0  0  0
   20.3771  -17.9400  -12.1206 H   0  0  0  0  0
   14.9225  -20.1191  -15.5697 H   0  0  0  0  0
   12.4258  -20.9725  -14.3246 H   0  0  0  0  0
   12.5321  -23.0979  -15.9098 H   0  0  0  0  0
   12.9201  -22.4149  -18.0724 H   0  0  0  0  0
   10.5782  -21.6021  -15.5684 H   0  0  0  0  0
   11.2944  -20.4029  -16.6730 H   0  0  0  0  0
   10.7588  -21.9817  -17.2988 H   0  0  0  0  0
   12.3828  -23.0868  -13.4228 H   0  0  0  0  0
   14.9482  -24.4287  -12.8143 H   0  0  0  0  0
   14.7365  -22.4073  -11.2895 H   0  0  0  0  0
   14.8528  -24.0127  -10.4615 H   0  0  0  0  0
   12.6260  -23.9840   -9.8394 H   0  0  0  0  0
   12.2140  -22.6961  -11.0546 H   0  0  0  0  0
   12.1501  -21.4673   -9.1395 H   0  0  0  0  0
   13.9166  -21.3234   -9.5482 H   0  0  0  0  0
   14.4187  -23.0942   -7.9641 H   0  0  0  0  0
   12.6580  -23.2191   -7.5489 H   0  0  0  0  0
   14.2966  -20.8161   -7.1886 H   0  0  0  0  0
   11.9818  -20.3196   -7.4159 H   0  0  0  0  0
   11.6263  -21.5152   -6.1450 H   0  0  0  0  0
   12.5390  -20.0385   -5.7481 H   0  0  0  0  0
   13.4691  -22.8780   -5.2156 H   0  0  0  0  0
   15.1338  -22.5911   -5.7792 H   0  0  0  0  0
   14.2958  -21.3535   -4.8112 H   0  0  0  0  0
   14.7036  -26.4042  -11.7652 H   0  0  0  0  0
   11.9492  -27.4521  -11.4713 H   0  0  0  0  0
   12.6107  -29.5755  -12.5166 H   0  0  0  0  0
   14.1908  -28.7564  -13.0194 H   0  0  0  0  0
   11.5356  -27.7088  -13.8544 H   0  0  0  0  0
   12.3647  -29.0918  -14.7500 H   0  0  0  0  0
   15.0971  -26.7221  -15.7159 H   0  0  0  0  0
   15.0152  -28.2175  -14.7786 H   0  0  0  0  0
   11.7146  -29.1771   -9.9789 H   0  0  0  0  0
   14.0730  -30.3448   -8.6736 H   0  0  0  0  0
   13.7062  -28.2477   -7.4599 H   0  0  0  0  0
   13.6961  -29.3532   -5.3645 H   0  0  0  0  0
   11.2874  -28.0161   -7.5248 H   0  0  0  0  0
   11.0937  -29.4916   -6.5469 H   0  0  0  0  0
   11.8533  -28.0461   -5.8367 H   0  0  0  0  0
   13.4637  -32.0179   -7.0307 H   0  0  0  0  0
   10.8247  -33.2528   -7.2973 H   0  0  0  0  0
   11.9742  -34.0086   -9.3834 H   0  0  0  0  0
   13.3558  -34.5838   -8.4183 H   0  0  0  0  0
   11.7703  -35.3800   -8.2661 H   0  0  0  0  0
   14.1261  -33.4684   -6.0171 H   0  0  0  0  0
   13.1162  -34.4264   -3.4203 H   0  0  0  0  0
   13.4656  -36.4863   -4.7653 H   0  0  0  0  0
   14.5809  -36.3552   -3.3143 H   0  0  0  0  0
   16.3655  -35.6302   -4.8590 H   0  0  0  0  0
   15.2602  -35.9718   -6.2387 H   0  0  0  0  0
   15.2351  -38.2871   -5.7718 H   0  0  0  0  0
   15.9928  -38.0411   -4.1522 H   0  0  0  0  0
   17.3223  -38.2184   -6.7589 H   0  0  0  0  0
   17.7463  -37.1453   -3.4017 H   0  0  0  0  0
   20.4720  -37.7733   -5.2975 H   0  0  0  0  0
   19.6045  -38.2406   -6.7639 H   0  0  0  0  0
   14.9183  -34.6554   -1.7913 H   0  0  0  0  0
   16.5103  -32.3017   -1.5880 H   0  0  0  0  0
   15.7429  -33.7109    0.2964 H   0  0  0  0  0
   17.5421  -33.3776    0.3276 H   0  0  0  0  0
   17.9658  -35.6132   -0.4811 H   0  0  0  0  0
   16.1954  -35.9439   -0.5463 H   0  0  0  0  0
   16.0589  -35.6394    1.8921 H   0  0  0  0  0
   17.8138  -35.3172    1.9550 H   0  0  0  0  0
   18.2742  -37.5543    1.0681 H   0  0  0  0  0
   16.4983  -37.8816    0.9817 H   0  0  0  0  0
   17.5036  -38.8561    2.9239 H   0  0  0  0  0
   18.0527  -37.3680    3.4346 H   0  0  0  0  0
   16.4158  -37.6697    3.3550 H   0  0  0  0  0
   18.8929  -32.2384   -1.2208 H   0  0  0  0  0
   20.0086  -32.7801   -3.8396 H   0  0  0  0  0
   20.3013  -30.5906   -2.6501 H   0  0  0  0  0
   21.9015  -31.3379   -2.9585 H   0  0  0  0  0
   21.6807  -30.5534   -0.7941 H   0  0  0  0  0
   19.9359  -34.9863   -1.5127 H   0  0  0  0  0
   22.6784  -35.6881   -1.1800 H   0  0  0  0  0
   21.8226  -37.8368   -0.2934 H   0  0  0  0  0
   19.5028  -38.0343   -0.1269 H   0  0  0  0  0
   21.9383  -35.8837    1.2077 H   0  0  0  0  0
   20.3114  -35.3734    0.6943 H   0  0  0  0  0
   20.5218  -36.8827    1.6157 H   0  0  0  0  0
   23.6082  -38.0591   -3.5555 H   0  0  0  0  0
   23.9671  -37.2545   -2.0241 H   0  0  0  0  0
  1  2  1  0  0  0
  2  3  1  0  0  0
  2  5  1  0  0  0
  3  4  2  0  0  0
  3  6  1  0  0  0
  6  7  1  0  0  0
  7  8  1  0  0  0
  7 10  1  0  0  0
  8  9  2  0  0  0
  8 17  1  0  0  0
 10 11  1  0  0  0
 11 12  1  0  0  0
 12 13  1  0  0  0
 13 14  1  0  0  0
 14 15  1  0  0  0
 14 16  2  0  0  0
 17 18  1  0  0  0
 18 19  1  0  0  0
 18 21  1  0  0  0
 19 20  2  0  0  0
 19 24  1  0  0  0
 21 22  1  0  0  0
 21 23  1  0  0  0
 24 25  1  0  0  0
 25 26  1  0  0  0
 25 33  1  0  0  0
 26 27  1  0  0  0
 27 28  1  0  0  0
 28 29  1  0  0  0
 29 30  1  0  0  0
 30 31  1  0  0  0
 30 32  1  0  0  0
 33 34  2  0  0  0
 33 35  1  0  0  0
 35 36  1  0  0  0
 36 37  1  0  0  0
 36 39  1  0  0  0
 37 38  2  0  0  0
 37 44  1  0  0  0
 39 40  1  0  0  0
 40 41  1  0  0  0
 41 42  2  0  0  0
 41 43  1  0  0  0
 44 45  1  0  0  0
 45 46  1  0  0  0
 45 48  1  0  0  0
 46 47  2  0  0  0
 46 51  1  0  0  0
 48 49  1  0  0  0
 48 50  1  0  0  0
 51 52  1  0  0  0
 52 53  1  0  0  0
 52 55  1  0  0  0
 53 54  2  0  0  0
 53 56  1  0  0  0
 56 57  1  0  0  0
 57 58  1  0  0  0
 57 60  1  0  0  0
 58 59  2  0  0  0
 58 67  1  0  0  0
 60 61  1  0  0  0
 61 62  1  0  0  0
 62 63  1  0  0  0
 63 64  1  0  0  0
 64 65  2  0  0  0
 64 66  1  0  0  0
 67 68  1  0  0  0
 68 69  1  0  0  0
 68 71  1  0  0  0
 69 70  2  0  0  0
 69 76  1  0  0  0
 71 72  1  0  0  0
 72 73  1  0  0  0
 73 74  1  0  0  0
 74 75  1  0  0  0
 76 77  1  0  0  0
 77 78  1  0  0  0
 77 80  1  0  0  0
 78 79  2  0  0  0
 78 82  1  0  0  0
 80 81  1  0  0  0
 82 83  1  0  0  0
 83 84  1  0  0  0
 83 86  1  0  0  0
 84 85  2  0  0  0
 84 89  1  0  0  0
 86 87  1  0  0  0
 86 88  1  0  0  0
  1 90  1  0  0  0
  1 91  1  0  0  0
  1 92  1  0  0  0
  2 93  1  0  0  0
  5 94  1  0  0  0
  5 95  1  0  0  0
  5 96  1  0  0  0
  6 97  1  0  0  0
  7 98  1  0  0  0
 10 99  1  0  0  0
 10100  1  0  0  0
 11101  1  0  0  0
 11102  1  0  0  0
 12103  1  0  0  0
 12104  1  0  0  0
 13105  1  0  0  0
 15106  1  0  0  0
 15107  1  0  0  0
 16108  1  0  0  0
 17109  1  0  0  0
 18110  1  0  0  0
 21111  1  0  0  0
 22112  1  0  0  0
 23113  1  0  0  0
 23114  1  0  0  0
 23115  1  0  0  0
 24116  1  0  0  0
 25117  1  0  0  0
 26118  1  0  0  0
 26119  1  0  0  0
 27120  1  0  0  0
 27121  1  0  0  0
 28122  1  0  0  0
 28123  1  0  0  0
 29124  1  0  0  0
 29125  1  0  0  0
 30126  1  0  0  0
 31127  1  0  0  0
 31128  1  0  0  0
 31129  1  0  0  0
 32130  1  0  0  0
 32131  1  0  0  0
 32132  1  0  0  0
 35133  1  0  0  0
 36134  1  0  0  0
 39135  1  0  0  0
 39136  1  0  0  0
 40137  1  0  0  0
 40138  1  0  0  0
 43139  1  0  0  0
 43140  1  0  0  0
 44141  1  0  0  0
 45142  1  0  0  0
 48143  1  0  0  0
 49144  1  0  0  0
 50145  1  0  0  0
 50146  1  0  0  0
 50147  1  0  0  0
 51148  1  0  0  0
 52149  1  0  0  0
 55150  1  0  0  0
 55151  1  0  0  0
 55152  1  0  0  0
 56153  1  0  0  0
 57154  1  0  0  0
 60155  1  0  0  0
 60156  1  0  0  0
 61157  1  0  0  0
 61158  1  0  0  0
 62159  1  0  0  0
 62160  1  0  0  0
 63161  1  0  0  0
 65162  1  0  0  0
 66163  1  0  0  0
 66164  1  0  0  0
 67165  1  0  0  0
 68166  1  0  0  0
 71167  1  0  0  0
 71168  1  0  0  0
 72169  1  0  0  0
 72170  1  0  0  0
 73171  1  0  0  0
 73172  1  0  0  0
 74173  1  0  0  0
 74174  1  0  0  0
 75175  1  0  0  0
 75176  1  0  0  0
 75177  1  0  0  0
 76178  1  0  0  0
 77179  1  0  0  0
 80180  1  0  0  0
 80181  1  0  0  0
 81182  1  0  0  0
 82183  1  0  0  0
 83184  1  0  0  0
 86185  1  0  0  0
 87186  1  0  0  0
 88187  1  0  0  0
 88188  1  0  0  0
 88189  1  0  0  0
 89190  1  0  0  0
 89191  1  0  0  0
M  END
$$$$
