### 
### Created by X-TOOL on Mon Sep 10 21:13:30 2018
### 

@<TRIPOS>MOLECULE
5tbn_ligand
  193   192     1     0     0
SMALL
GAST_HUCK


@<TRIPOS>ATOM
      1 N          12.3770  -15.3550  -19.5850 N.4       1 ALA         0.2377
      2 CA         11.7370  -15.7730  -18.2990 C.3       1 ALA         0.0621
      3 C          12.6010  -16.8890  -17.6590 C.2       1 ALA         0.2264
      4 O          12.6680  -17.9760  -18.2270 O.2       1 ALA        -0.3907
      5 CB         10.2790  -16.2620  -18.5220 C.3       1 ALA        -0.0040
      6 N          13.3070  -16.6420  -16.5380 N.am      1 ARG        -0.2610
      7 CA         14.1600  -17.6560  -15.8430 C.3       1 ARG         0.1312
      8 C          13.3260  -18.8820  -15.4350 C.2       1 ARG         0.2040
      9 O          12.1390  -18.7310  -15.1530 O.2       1 ARG        -0.3944
     10 CB         14.8340  -17.0010  -14.6100 C.3       1 ARG        -0.0092
     11 CG         16.2720  -17.4020  -14.2830 C.3       1 ARG        -0.0156
     12 CD         16.8350  -16.5090  -13.1550 C.3       1 ARG         0.0627
     13 NE         18.1510  -17.0240  -12.7220 N.pl3     1 ARG        -0.2723
     14 CZ         18.6610  -17.0810  -11.5020 C.cat     1 ARG         0.2882
     15 NH1        18.0430  -16.6500  -10.4390 N.pl3     1 ARG        -0.2849
     16 NH2        19.8470  -17.5890  -11.3230 N.pl3     1 ARG        -0.2849
     17 N          13.9260  -20.0680  -15.3580 N.am      1 THR        -0.2613
     18 CA         13.2240  -21.3190  -14.9810 C.3       1 THR         0.1565
     19 C          14.0810  -22.2990  -14.1840 C.2       1 THR         0.2065
     20 O          15.3110  -22.3040  -14.2890 O.2       1 THR        -0.3943
     21 CB         12.5900  -22.0430  -16.1780 C.3       1 THR         0.0924
     22 OG1        13.3640  -21.9460  -17.3620 O.3       1 THR        -0.3874
     23 CG2        11.2060  -21.4660  -16.4490 C.3       1 THR        -0.0346
     24 N          13.4010  -23.1240  -13.3760 N.am      1 MLY        -0.2637
     25 CA         13.9910  -24.0720  -12.4340 C.3       1 MLY         0.1310
     26 CB         14.2430  -23.3570  -11.0830 C.3       1 MLY        -0.0122
     27 CG         12.9410  -23.0630  -10.3300 C.3       1 MLY        -0.0440
     28 CD         13.1050  -21.9830   -9.2410 C.3       1 MLY        -0.0123
     29 CE         13.4710  -22.5650   -7.8640 C.3       1 MLY        -0.0324
     30 NZ         13.6420  -21.5060   -6.8200 N.4       1 MLY         0.2309
     31 CH1        12.3590  -20.7960   -6.5110 C.3       1 MLY        -0.0433
     32 CH2        14.1710  -22.1240   -5.5720 C.3       1 MLY        -0.0433
     33 C          13.0860  -25.3000  -12.2760 C.2       1 MLY         0.2039
     34 O          11.8720  -25.2210  -12.4720 O.2       1 MLY        -0.3944
     35 N          13.6910  -26.4270  -11.8860 N.am      1 GLN        -0.2636
     36 CA         13.0020  -27.6920  -11.6200 C.3       1 GLN         0.1330
     37 C          13.5370  -28.3680  -10.3460 C.2       1 GLN         0.2041
     38 O          14.7100  -28.2180   -9.9930 O.2       1 GLN        -0.3944
     39 CB         13.1250  -28.6610  -12.8120 C.3       1 GLN         0.0045
     40 CG         12.4680  -28.2020  -14.1290 C.3       1 GLN         0.0412
     41 CD         13.2720  -27.1870  -14.9520 C.2       1 GLN         0.1737
     42 OE1        12.7530  -26.1840  -15.4300 O.2       1 GLN        -0.3973
     43 NE2        14.5590  -27.3910  -15.1650 N.am      1 GLN        -0.3009
     44 N          12.6860  -29.1490   -9.6690 N.am      1 THR        -0.2613
     45 CA         13.0630  -29.9720   -8.5030 C.3       1 THR         0.1565
     46 C          12.1680  -31.2180   -8.3620 C.2       1 THR         0.2065
     47 O          11.1260  -31.3210   -9.0150 O.2       1 THR        -0.3943
     48 CB         13.1060  -29.1240   -7.2150 C.3       1 THR         0.0924
     49 OG1        13.6710  -29.8840   -6.1640 O.3       1 THR        -0.3874
     50 CG2        11.7360  -28.6340   -6.7470 C.3       1 THR        -0.0346
     51 N          12.5920  -32.1800   -7.5350 N.am      1 ALA        -0.2639
     52 CA         11.8960  -33.4540   -7.2980 C.3       1 ALA         0.1282
     53 C          12.1990  -34.0790   -5.9180 C.2       1 ALA         0.2036
     54 O          11.3020  -34.6520   -5.2920 O.2       1 ALA        -0.3944
     55 CB         12.2770  -34.4280   -8.4240 C.3       1 ALA        -0.0244
     56 N          13.4490  -33.9650   -5.4380 N.am      1 ARG        -0.2637
     57 CA         13.9300  -34.4970   -4.1420 C.3       1 ARG         0.1311
     58 C          15.0760  -33.6570   -3.5460 C.2       1 ARG         0.2039
     59 O          15.6050  -32.7650   -4.2130 O.2       1 ARG        -0.3944
     60 CB         14.3170  -35.9850   -4.3050 C.3       1 ARG        -0.0092
     61 CG         15.5330  -36.2360   -5.2170 C.3       1 ARG        -0.0156
     62 CD         15.9570  -37.7130   -5.1910 C.3       1 ARG         0.0627
     63 NE         17.2950  -37.9100   -5.7870 N.pl3     1 ARG        -0.2723
     64 CZ         18.4630  -37.7270   -5.1880 C.cat     1 ARG         0.2882
     65 NH1        18.5800  -37.3320   -3.9590 N.pl3     1 ARG        -0.2849
     66 NH2        19.5940  -37.9280   -5.7930 N.pl3     1 ARG        -0.2849
     67 N          15.4700  -33.9660   -2.3020 N.am      1 LYS        -0.2637
     68 CA         16.6460  -33.3830   -1.6110 C.3       1 LYS         0.1310
     69 C          17.9680  -33.6080   -2.3740 C.2       1 LYS         0.2040
     70 O          18.0660  -34.4910   -3.2230 O.2       1 LYS        -0.3944
     71 CB         16.7160  -33.8970   -0.1580 C.3       1 LYS        -0.0122
     72 CG         16.9930  -35.4040   -0.0360 C.3       1 LYS        -0.0440
     73 CD         17.0230  -35.8540    1.4310 C.3       1 LYS        -0.0124
     74 CE         17.2970  -37.3620    1.5110 C.3       1 LYS        -0.0354
     75 NZ         17.3190  -37.8530    2.9180 N.4       1 LYS         0.2185
     76 N          18.9970  -32.8260   -2.0480 N.am      1 SER        -0.2616
     77 CA         20.2770  -32.7380   -2.7840 C.3       1 SER         0.1539
     78 C          21.2580  -33.9220   -2.6130 C.2       1 SER         0.2063
     79 O          22.3720  -33.8710   -3.1490 O.2       1 SER        -0.3943
     80 CB         20.9660  -31.4190   -2.4050 C.3       1 SER         0.0843
     81 OG         21.2510  -31.3840   -1.0110 O.3       1 SER        -0.3903
     82 N          20.8890  -34.9780   -1.8760 N.am      1 THR        -0.2613
     83 CA         21.7540  -36.1350   -1.5460 C.3       1 THR         0.1561
     84 C          22.1500  -37.0040   -2.7490 C.2       1 THR         0.2017
     85 O          21.3140  -37.2410   -3.6550 O.2       1 THR        -0.3946
     86 CB         21.1340  -37.0060   -0.4470 C.3       1 THR         0.0924
     87 OG1        19.8650  -37.4940   -0.8330 O.3       1 THR        -0.3874
     88 CG2        20.9640  -36.2300    0.8630 C.3       1 THR        -0.0346
     89 N          23.3140  -37.4680   -2.7780 N.am      1 NH2        -0.2989
     90 H1         11.8257  -14.6283  -20.0140 H         1 ALA         0.2015
     91 H2         12.4311  -16.1468  -20.2064 H         1 ALA         0.2015
     92 H3         13.3054  -15.0081  -19.4011 H         1 ALA         0.2015
     93 H4         11.7113  -14.9086  -17.6192 H         1 ALA         0.1095
     94 H5          9.8409  -16.5604  -17.5581 H         1 ALA         0.0310
     95 H6         10.2817  -17.1235  -19.2059 H         1 ALA         0.0310
     96 H7          9.6822  -15.4482  -18.9597 H         1 ALA         0.0310
     97 H8         13.2577  -15.7233  -16.1460 H         1 ARG         0.1884
     98 H9         14.9464  -17.9888  -16.5363 H         1 ARG         0.0800
     99 H10        14.2182  -17.2453  -13.7319 H         1 ARG         0.0313
    100 H11        14.8263  -15.9130  -14.7720 H         1 ARG         0.0313
    101 H12        16.8945  -17.2858  -15.1824 H         1 ARG         0.0301
    102 H13        16.2906  -18.4525  -13.9574 H         1 ARG         0.0301
    103 H14        16.1408  -16.5164  -12.3018 H         1 ARG         0.0689
    104 H15        16.9492  -15.4798  -13.5260 H         1 ARG         0.0689
    105 H16        18.7542  -17.3887  -13.4730 H         1 ARG         0.2642
    106 H17        18.4942  -16.7227   -9.5160 H         1 ARG         0.2615
    107 H18        17.1032  -16.2366  -10.5217 H         1 ARG         0.2615
    108 H19        20.3815  -17.9453  -12.1281 H         1 ARG         0.2615
    109 H20        20.2503  -17.6344  -10.3763 H         1 ARG         0.2615
    110 H21        14.9029  -20.1181  -15.5656 H         1 THR         0.1884
    111 H22        12.3986  -21.0143  -14.3208 H         1 THR         0.0826
    112 H23        12.4890  -23.1072  -15.9189 H         1 THR         0.0639
    113 H24        12.9248  -22.4100  -18.0650 H         1 THR         0.2101
    114 H25        10.7536  -21.9857  -17.3065 H         1 THR         0.0257
    115 H26        11.2939  -20.3931  -16.6753 H         1 THR         0.0257
    116 H27        10.5714  -21.6027  -15.5610 H         1 THR         0.0257
    117 H28        12.4027  -23.0875  -13.4219 H         1 MLY         0.1883
    118 H29        14.9589  -24.4095  -12.8330 H         1 MLY         0.0800
    119 H30        14.7620  -22.4067  -11.2769 H         1 MLY         0.0312
    120 H31        14.8774  -23.9999  -10.4552 H         1 MLY         0.0312
    121 H32        12.5945  -23.9917   -9.8531 H         1 MLY         0.0269
    122 H33        12.1874  -22.7192  -11.0538 H         1 MLY         0.0269
    123 H34        12.1570  -21.4329   -9.1478 H         1 MLY         0.0317
    124 H35        13.9016  -21.2909   -9.5515 H         1 MLY         0.0317
    125 H36        14.4138  -23.1240   -7.9568 H         1 MLY         0.0814
    126 H37        12.6696  -23.2478   -7.5455 H         1 MLY         0.0814
    127 H38        14.3073  -20.8291   -7.1595 H         1 MLY         0.2028
    128 H39        12.5394  -20.0313   -5.7412 H         1 MLY         0.0777
    129 H40        11.6186  -21.5207   -6.1414 H         1 MLY         0.0777
    130 H41        11.9772  -20.3148   -7.4235 H         1 MLY         0.0777
    131 H42        15.1133  -22.6469   -5.7927 H         1 MLY         0.0777
    132 H43        13.4366  -22.8422   -5.1786 H         1 MLY         0.0777
    133 H44        14.3539  -21.3393   -4.8232 H         1 MLY         0.0777
    134 H45        14.6837  -26.4046  -11.7676 H         1 GLN         0.1883
    135 H46        11.9357  -27.4690  -11.4678 H         1 GLN         0.0801
    136 H47        12.6611  -29.6145  -12.5194 H         1 GLN         0.0337
    137 H48        14.1958  -28.8190  -13.0078 H         1 GLN         0.0337
    138 H49        11.4982  -27.7453  -13.8823 H         1 GLN         0.0504
    139 H50        12.3056  -29.0921  -14.7545 H         1 GLN         0.0504
    140 H51        15.0877  -26.7326  -15.7007 H         1 GLN         0.1814
    141 H52        15.0051  -28.2039  -14.7906 H         1 GLN         0.1814
    142 H53        11.7337  -29.1766   -9.9728 H         1 THR         0.1884
    143 H54        14.0859  -30.3350   -8.6817 H         1 THR         0.0826
    144 H55        13.7399  -28.2461   -7.4083 H         1 THR         0.0639
    145 H56        13.6958  -29.3587   -5.3728 H         1 THR         0.2101
    146 H57        11.8531  -28.0405   -5.8283 H         1 THR         0.0257
    147 H58        11.0868  -29.4986   -6.5447 H         1 THR         0.0257
    148 H59        11.2822  -28.0102   -7.5311 H         1 THR         0.0257
    149 H60        13.4466  -32.0211   -7.0406 H         1 ALA         0.1883
    150 H61        10.8135  -33.2649   -7.3472 H         1 ALA         0.0797
    151 H62        11.7662  -35.3893   -8.2657 H         1 ALA         0.0277
    152 H63        13.3656  -34.5861   -8.4194 H         1 ALA         0.0277
    153 H64        11.9719  -34.0059   -9.3929 H         1 ALA         0.0277
    154 H65        14.1128  -33.4782   -6.0057 H         1 ARG         0.1883
    155 H66        13.0916  -34.4473   -3.4316 H         1 ARG         0.0800
    156 H67        13.4541  -36.5193   -4.7292 H         1 ARG         0.0313
    157 H68        14.5460  -36.3909   -3.3086 H         1 ARG         0.0313
    158 H69        16.3735  -35.6161   -4.8717 H         1 ARG         0.0301
    159 H70        15.2709  -35.9569   -6.2482 H         1 ARG         0.0301
    160 H71        15.2236  -38.3041   -5.7590 H         1 ARG         0.0689
    161 H72        15.9777  -38.0593   -4.1472 H         1 ARG         0.0689
    162 H73        17.3226  -38.2214   -6.7684 H         1 ARG         0.2642
    163 H74        19.5148  -37.2067   -3.5451 H         1 ARG         0.2615
    164 H75        17.7381  -37.1435   -3.3963 H         1 ARG         0.2615
    165 H76        19.6046  -38.2437   -6.7734 H         1 ARG         0.2615
    166 H77        20.4806  -37.7718   -5.2926 H         1 ARG         0.2615
    167 H78        14.9291  -34.6418   -1.8014 H         1 LYS         0.1883
    168 H79        16.4884  -32.2953   -1.5655 H         1 LYS         0.0800
    169 H80        15.7542  -33.6823    0.3307 H         1 LYS         0.0312
    170 H81        17.5202  -33.3552    0.3613 H         1 LYS         0.0312
    171 H82        17.9660  -35.6271   -0.4981 H         1 LYS         0.0269
    172 H83        16.2014  -35.9567   -0.5631 H         1 LYS         0.0269
    173 H84        16.0522  -35.6347    1.8994 H         1 LYS         0.0317
    174 H85        17.8179  -35.3105    1.9628 H         1 LYS         0.0317
    175 H86        18.2723  -37.5706    1.0471 H         1 LYS         0.0813
    176 H87        16.5078  -37.8958    0.9612 H         1 LYS         0.0813
    177 H88        17.5013  -38.8443    2.9251 H         1 LYS         0.1994
    178 H89        16.4268  -37.6724    3.3509 H         1 LYS         0.1994
    179 H90        18.0438  -37.3744    3.4296 H         1 LYS         0.1994
    180 H91        18.8950  -32.2499   -1.2370 H         1 SER         0.1884
    181 H92        20.0250  -32.6953   -3.8539 H         1 SER         0.0823
    182 H93        20.3030  -30.5789   -2.6594 H         1 SER         0.0606
    183 H94        21.9063  -31.3277   -2.9684 H         1 SER         0.0606
    184 H95        21.6762  -30.5620   -0.7964 H         1 SER         0.2097
    185 H96        19.9546  -34.9862   -1.5199 H         1 THR         0.1884
    186 H97        22.6872  -35.7166   -1.1410 H         1 THR         0.0826
    187 H98        21.8040  -37.8599   -0.2683 H         1 THR         0.0639
    188 H99        19.9546  -38.0182   -1.6202 H         1 THR         0.2101
    189 H100       20.5177  -36.8877    1.6235 H         1 THR         0.0257
    190 H101       20.3055  -35.3652    0.6941 H         1 THR         0.0257
    191 H102       21.9467  -35.8800    1.2120 H         1 THR         0.0257
    192 H103       23.6061  -38.0379   -3.5461 H         1 NH2         0.1815
    193 H104       23.9506  -37.2683   -2.0331 H         1 NH2         0.1815
@<TRIPOS>BOND
     1    1    2 1  
     2    2    3 1  
     3    2    5 1  
     4    3    4 2  
     5    3    6 am 
     6    6    7 1  
     7    7    8 1  
     8    7   10 1  
     9    8    9 2  
    10    8   17 am 
    11   10   11 1  
    12   11   12 1  
    13   12   13 1  
    14   13   14 ar 
    15   14   15 ar 
    16   14   16 ar 
    17   17   18 1  
    18   18   19 1  
    19   18   21 1  
    20   19   20 2  
    21   19   24 am 
    22   21   22 1  
    23   21   23 1  
    24   24   25 1  
    25   25   26 1  
    26   25   33 1  
    27   26   27 1  
    28   27   28 1  
    29   28   29 1  
    30   29   30 1  
    31   30   31 1  
    32   30   32 1  
    33   33   34 2  
    34   33   35 am 
    35   35   36 1  
    36   36   37 1  
    37   36   39 1  
    38   37   38 2  
    39   37   44 am 
    40   39   40 1  
    41   40   41 1  
    42   41   42 2  
    43   41   43 am 
    44   44   45 1  
    45   45   46 1  
    46   45   48 1  
    47   46   47 2  
    48   46   51 am 
    49   48   49 1  
    50   48   50 1  
    51   51   52 1  
    52   52   53 1  
    53   52   55 1  
    54   53   54 2  
    55   53   56 am 
    56   56   57 1  
    57   57   58 1  
    58   57   60 1  
    59   58   59 2  
    60   58   67 am 
    61   60   61 1  
    62   61   62 1  
    63   62   63 1  
    64   63   64 ar 
    65   64   65 ar 
    66   64   66 ar 
    67   67   68 1  
    68   68   69 1  
    69   68   71 1  
    70   69   70 2  
    71   69   76 am 
    72   71   72 1  
    73   72   73 1  
    74   73   74 1  
    75   74   75 1  
    76   76   77 1  
    77   77   78 1  
    78   77   80 1  
    79   78   79 2  
    80   78   82 am 
    81   80   81 1  
    82   82   83 1  
    83   83   84 1  
    84   83   86 1  
    85   84   85 2  
    86   84   89 am 
    87   86   87 1  
    88   86   88 1  
    89    1   90 1  
    90    1   91 1  
    91    1   92 1  
    92    2   93 1  
    93    5   94 1  
    94    5   95 1  
    95    5   96 1  
    96    6   97 1  
    97    7   98 1  
    98   10   99 1  
    99   10  100 1  
   100   11  101 1  
   101   11  102 1  
   102   12  103 1  
   103   12  104 1  
   104   13  105 1  
   105   15  106 1  
   106   15  107 1  
   107   16  108 1  
   108   16  109 1  
   109   17  110 1  
   110   18  111 1  
   111   21  112 1  
   112   22  113 1  
   113   23  114 1  
   114   23  115 1  
   115   23  116 1  
   116   24  117 1  
   117   25  118 1  
   118   26  119 1  
   119   26  120 1  
   120   27  121 1  
   121   27  122 1  
   122   28  123 1  
   123   28  124 1  
   124   29  125 1  
   125   29  126 1  
   126   30  127 1  
   127   31  128 1  
   128   31  129 1  
   129   31  130 1  
   130   32  131 1  
   131   32  132 1  
   132   32  133 1  
   133   35  134 1  
   134   36  135 1  
   135   39  136 1  
   136   39  137 1  
   137   40  138 1  
   138   40  139 1  
   139   43  140 1  
   140   43  141 1  
   141   44  142 1  
   142   45  143 1  
   143   48  144 1  
   144   49  145 1  
   145   50  146 1  
   146   50  147 1  
   147   50  148 1  
   148   51  149 1  
   149   52  150 1  
   150   55  151 1  
   151   55  152 1  
   152   55  153 1  
   153   56  154 1  
   154   57  155 1  
   155   60  156 1  
   156   60  157 1  
   157   61  158 1  
   158   61  159 1  
   159   62  160 1  
   160   62  161 1  
   161   63  162 1  
   162   65  163 1  
   163   65  164 1  
   164   66  165 1  
   165   66  166 1  
   166   67  167 1  
   167   68  168 1  
   168   71  169 1  
   169   71  170 1  
   170   72  171 1  
   171   72  172 1  
   172   73  173 1  
   173   73  174 1  
   174   74  175 1  
   175   74  176 1  
   176   75  177 1  
   177   75  178 1  
   178   75  179 1  
   179   76  180 1  
   180   77  181 1  
   181   80  182 1  
   182   80  183 1  
   183   81  184 1  
   184   82  185 1  
   185   83  186 1  
   186   86  187 1  
   187   87  188 1  
   188   88  189 1  
   189   88  190 1  
   190   88  191 1  
   191   89  192 1  
   192   89  193 1  
@<TRIPOS>SUBSTRUCTURE
     1 ALA         1

