4b32_ligand
  -I-interpret- 

 19 20  0  0  0  0  0  0  0  0999 V2000
   22.4130    7.6020   -3.4830 C   0  0  0  0  0
   23.7050    5.6950   -4.0780 O   0  0  0  0  0
   22.5750    6.2230   -3.5300 C   0  0  0  0  0
   21.5880    5.3840   -3.0180 C   0  0  0  0  0
   20.4380    5.9430   -2.4620 C   0  0  0  0  0
   20.2820    7.3240   -2.4150 C   0  0  0  0  0
   21.2670    8.1570   -2.9280 C   0  0  0  0  0
   19.1390    7.8870   -1.8590 C   0  0  0  0  0
   18.1490    7.0680   -1.3450 C   0  0  0  0  0
   18.3080    5.6940   -1.3830 C   0  0  0  0  0
   19.4400    5.1240   -1.9340 C   0  0  0  0  0
   23.1901    8.2525   -3.8842 H   0  0  0  0  0
   23.6631    4.7369   -4.0340 H   0  0  0  0  0
   21.7133    4.3018   -3.0516 H   0  0  0  0  0
   21.1419    9.2393   -2.8955 H   0  0  0  0  0
   19.0229    8.9704   -1.8280 H   0  0  0  0  0
   17.2482    7.5032   -0.9123 H   0  0  0  0  0
   17.5289    5.0517   -0.9723 H   0  0  0  0  0
   19.5523    4.0400   -1.9559 H   0  0  0  0  0
  1  3  4  0  0  0
  1  7  4  0  0  0
  3  2  1  0  0  0
  3  4  4  0  0  0
  4  5  4  0  0  0
  5  6  4  0  0  0
  5 11  4  0  0  0
  6  7  4  0  0  0
  6  8  4  0  0  0
  8  9  4  0  0  0
  9 10  4  0  0  0
 10 11  4  0  0  0
  1 12  1  0  0  0
  2 13  1  0  0  0
  4 14  1  0  0  0
  7 15  1  0  0  0
  8 16  1  0  0  0
  9 17  1  0  0  0
 10 18  1  0  0  0
 11 19  1  0  0  0
M  END
$$$$
