5ksx_ligand
  -I-interpret- 

 53 56  0  0  0  0  0  0  0  0999 V2000
   -2.4460   68.4040   40.4480 C   0  0  0  0  0
   -1.2660   67.7920   40.8710 C   0  0  0  0  0
   -1.0670   67.4970   42.2180 C   0  0  0  0  0
    0.1180   66.8910   42.6270 C   0  0  0  0  0
   -2.0650   67.8220   43.1400 C   0  0  0  0  0
   -3.2550   68.4280   42.7250 C   0  0  0  0  0
   -3.4680   68.7510   41.3690 C   0  0  0  0  0
   -4.6460   69.2900   40.9700 C   0  0  0  0  0
   -5.9360   69.7610   41.9330 S   0  0  0  0  0
   -5.0340   69.4450   39.6990 C   0  0  0  0  0
   -6.2780   69.9490   39.5210 C   0  0  0  0  0
   -6.9570   70.1900   40.6840 C   0  0  0  0  0
   -8.2220   70.6940   40.7050 N   0  0  0  0  0
   -8.8670   70.9850   39.5030 C   0  0  0  0  0
   -8.1420   70.7360   38.3240 N   0  0  0  0  0
   -6.8880   70.2200   38.3540 C   0  0  0  0  0
   -6.1810   69.9830   37.2290 N   0  0  0  0  0
   -6.8180   69.8910   35.9110 C   0  0  0  0  0
   -6.7880   68.4260   35.3890 C   0  0  0  0  0
   -5.8380   67.6710   35.6410 O   0  0  0  0  0
   -7.8960   68.1080   34.6590 N   0  0  0  0  0
   -8.1380   66.5600   33.9820 P   0  0  0  0  0
   -6.9870   66.2660   32.8500 O   0  0  0  0  0
   -7.9530   65.4710   35.2110 O   0  0  0  0  0
   -9.4610   66.2700   33.3260 O   0  0  0  0  0
   -6.1330   70.8310   34.9310 C   0  0  0  0  0
   -6.6360   72.1430   35.1840 C   0  0  0  0  0
   -5.9600   73.0010   36.0710 C   0  0  0  0  0
   -6.4330   74.2840   36.3270 C   0  0  0  0  0
   -7.5960   74.7350   35.7050 C   0  0  0  0  0
   -8.2790   73.8930   34.8210 C   0  0  0  0  0
   -7.8040   72.6030   34.5590 C   0  0  0  0  0
   -2.5857   68.6199   39.3888 H   0  0  0  0  0
   -0.4943   67.5429   40.1426 H   0  0  0  0  0
    0.2244   65.9289   42.1258 H   0  0  0  0  0
    0.9606   67.5321   42.3681 H   0  0  0  0  0
    0.0933   66.7392   43.7061 H   0  0  0  0  0
   -1.9142   67.6004   44.1965 H   0  0  0  0  0
   -4.0282   68.6537   43.4594 H   0  0  0  0  0
   -4.3896   69.1822   38.8601 H   0  0  0  0  0
   -9.8807   71.3848   39.4788 H   0  0  0  0  0
   -5.1703   69.8639   37.2976 H   0  0  0  0  0
   -7.8613   70.1923   36.0049 H   0  0  0  0  0
   -8.6078   68.8236   34.5121 H   0  0  0  0  0
   -6.1200   66.4383   33.2245 H   0  0  0  0  0
   -7.1154   65.6282   35.6529 H   0  0  0  0  0
   -6.3396   70.5319   33.9034 H   0  0  0  0  0
   -5.0514   70.8021   35.0631 H   0  0  0  0  0
   -5.0520   72.6552   36.5650 H   0  0  0  0  0
   -5.8942   74.9365   37.0140 H   0  0  0  0  0
   -7.9713   75.7384   35.9063 H   0  0  0  0  0
   -9.1879   74.2443   34.3326 H   0  0  0  0  0
   -8.3428   71.9547   33.8680 H   0  0  0  0  0
  1  2  4  0  0  0
  1  7  4  0  0  0
  2  3  4  0  0  0
  3  4  1  0  0  0
  3  5  4  0  0  0
  5  6  4  0  0  0
  6  7  4  0  0  0
  7  8  1  0  0  0
  8  9  4  0  0  0
  8 10  4  0  0  0
  9 12  4  0  0  0
 10 11  4  0  0  0
 11 12  4  0  0  0
 11 16  4  0  0  0
 12 13  4  0  0  0
 13 14  4  0  0  0
 14 15  4  0  0  0
 15 16  4  0  0  0
 16 17  1  0  0  0
 17 18  1  0  0  0
 18 19  1  0  0  0
 18 26  1  0  0  0
 19 20  2  0  0  0
 19 21  1  0  0  0
 21 22  1  0  0  0
 22 23  1  0  0  0
 22 24  1  0  0  0
 22 25  2  0  0  0
 26 27  1  0  0  0
 27 28  4  0  0  0
 27 32  4  0  0  0
 28 29  4  0  0  0
 29 30  4  0  0  0
 30 31  4  0  0  0
 31 32  4  0  0  0
  1 33  1  0  0  0
  2 34  1  0  0  0
  4 35  1  0  0  0
  4 36  1  0  0  0
  4 37  1  0  0  0
  5 38  1  0  0  0
  6 39  1  0  0  0
 10 40  1  0  0  0
 14 41  1  0  0  0
 17 42  1  0  0  0
 18 43  1  0  0  0
 21 44  1  0  0  0
 23 45  1  0  0  0
 24 46  1  0  0  0
 26 47  1  0  0  0
 26 48  1  0  0  0
 28 49  1  0  0  0
 29 50  1  0  0  0
 30 51  1  0  0  0
 31 52  1  0  0  0
 32 53  1  0  0  0
M  END
$$$$
