### 
### Created by X-TOOL on Mon Sep 10 21:13:31 2018
### 

@<TRIPOS>MOLECULE
5ksx_ligand
   51    54     1     0     0
SMALL
GAST_HUCK


@<TRIPOS>ATOM
      1 CAP        -2.4460   68.4040   40.4480 C.ar      1 7AM        -0.0592
      2 CAQ        -1.2660   67.7920   40.8710 C.ar      1 7AM        -0.0593
      3 CAR        -1.0670   67.4970   42.2180 C.ar      1 7AM        -0.0451
      4 CAU         0.1180   66.8910   42.6270 C.3       1 7AM        -0.0306
      5 CAS        -2.0650   67.8220   43.1400 C.ar      1 7AM        -0.0593
      6 CAT        -3.2550   68.4280   42.7250 C.ar      1 7AM        -0.0592
      7 CAK        -3.4680   68.7510   41.3690 C.ar      1 7AM        -0.0128
      8 CAD        -4.6460   69.2900   40.9700 C.2       1 7AM         0.0373
      9 SAE        -5.9360   69.7610   41.9330 S.3       1 7AM        -0.0140
     10 CAC        -5.0340   69.4450   39.6990 C.2       1 7AM        -0.0456
     11 C5         -6.2780   69.9490   39.5210 C.ar      1 7AM         0.0470
     12 C6         -6.9570   70.1900   40.6840 C.ar      1 7AM         0.1085
     13 N1         -8.2220   70.6940   40.7050 N.ar      1 7AM        -0.2773
     14 C2         -8.8670   70.9850   39.5030 C.ar      1 7AM         0.0586
     15 N3         -8.1420   70.7360   38.3240 N.ar      1 7AM        -0.2638
     16 C4         -6.8880   70.2200   38.3540 C.ar      1 7AM         0.1304
     17 N          -6.1810   69.9830   37.2290 N.pl3     1 7AM        -0.2772
     18 CA         -6.8180   69.8910   35.9110 C.3       1 7AM         0.1413
     19 C          -6.7880   68.4260   35.3890 C.2       1 7AM         0.2190
     20 O          -5.8380   67.6710   35.6410 O.2       1 7AM        -0.3929
     21 NAN        -7.8960   68.1080   34.6590 N.am      1 7AM        -0.2029
     22 PBC        -8.1380   66.5600   33.9820 P.3       1 7AM         0.1760
     23 OBD        -6.9870   66.2660   32.8500 O.co2     1 7AM        -0.5454
     24 OBF        -7.9530   65.4710   35.2110 O.co2     1 7AM        -0.5454
     25 OBE        -9.4610   66.2700   33.3260 O.co2     1 7AM        -0.5454
     26 CB         -6.1330   70.8310   34.9310 C.3       1 7AM         0.0220
     27 CG         -6.6360   72.1430   35.1840 C.ar      1 7AM        -0.0385
     28 CD1        -5.9600   73.0010   36.0710 C.ar      1 7AM        -0.0601
     29 CE1        -6.4330   74.2840   36.3270 C.ar      1 7AM        -0.0686
     30 CZ         -7.5960   74.7350   35.7050 C.ar      1 7AM        -0.0687
     31 CE2        -8.2790   73.8930   34.8210 C.ar      1 7AM        -0.0686
     32 CD2        -7.8040   72.6030   34.5590 C.ar      1 7AM        -0.0601
     33 H1         -2.5849   68.6188   39.3946 H         1 7AM         0.0607
     34 H2         -0.4985   67.5442   40.1466 H         1 7AM         0.0561
     35 H3          0.0943   66.7373   43.7159 H         1 7AM         0.0395
     36 H4          0.9692   67.5371   42.3664 H         1 7AM         0.0395
     37 H5          0.2266   65.9199   42.1219 H         1 7AM         0.0395
     38 H6         -1.9150   67.6016   44.1907 H         1 7AM         0.0561
     39 H7         -4.0239   68.6524   43.4554 H         1 7AM         0.0607
     40 H8         -4.3902   69.1825   38.8609 H         1 7AM         0.0448
     41 H9         -9.8752   71.3826   39.4789 H         1 7AM         0.1012
     42 H10        -5.1604   69.8628   37.2983 H         1 7AM         0.1900
     43 H11        -7.8690   70.2001   36.0105 H         1 7AM         0.0832
     44 H12        -8.5938   68.8096   34.5149 H         1 7AM         0.2070
     45 H13        -6.3632   70.5317   33.8978 H         1 7AM         0.0474
     46 H14        -5.0441   70.8085   35.0853 H         1 7AM         0.0474
     47 H15        -5.0570   72.6571   36.5623 H         1 7AM         0.0557
     48 H16        -5.8971   74.9330   37.0102 H         1 7AM         0.0599
     49 H17        -7.9692   75.7328   35.9052 H         1 7AM         0.0559
     50 H18        -9.1829   74.2424   34.3353 H         1 7AM         0.0599
     51 H19        -8.3398   71.9583   33.8718 H         1 7AM         0.0557
@<TRIPOS>BOND
     1    1    2 ar 
     2    1    7 ar 
     3    2    3 ar 
     4    3    4 1  
     5    3    5 ar 
     6    5    6 ar 
     7    6    7 ar 
     8    7    8 1  
     9    8    9 1  
    10    8   10 2  
    11    9   12 1  
    12   10   11 1  
    13   11   12 ar 
    14   11   16 ar 
    15   12   13 ar 
    16   13   14 ar 
    17   14   15 ar 
    18   15   16 ar 
    19   16   17 1  
    20   17   18 1  
    21   18   19 1  
    22   18   26 1  
    23   19   20 2  
    24   19   21 am 
    25   21   22 am 
    26   22   23 ar 
    27   22   24 ar 
    28   22   25 ar 
    29   26   27 1  
    30   27   28 ar 
    31   27   32 ar 
    32   28   29 ar 
    33   29   30 ar 
    34   30   31 ar 
    35   31   32 ar 
    36    1   33 1  
    37    2   34 1  
    38    4   35 1  
    39    4   36 1  
    40    4   37 1  
    41    5   38 1  
    42    6   39 1  
    43   10   40 1  
    44   14   41 1  
    45   17   42 1  
    46   18   43 1  
    47   21   44 1  
    48   26   45 1  
    49   26   46 1  
    50   28   47 1  
    51   29   48 1  
    52   30   49 1  
    53   31   50 1  
    54   32   51 1  
@<TRIPOS>SUBSTRUCTURE
     1 7AM         1

