4dea_ligand
  -I-interpret- 

 40 42  0  0  0  0  0  0  0  0999 V2000
   -6.9390  -29.5820    1.1840 C   0  0  0  0  0
   -3.1330  -33.1080    6.9960 N   0  0  0  0  0
   -5.9230  -29.6110    0.1760 O   0  0  0  0  0
   -4.3330  -31.1150    6.7660 N   0  0  0  0  0
   -8.1120  -29.6800    0.8740 O   0  0  0  0  0
   -3.6480  -31.9870    8.9050 N   0  0  0  0  0
   -5.5280  -29.1120    6.7070 N   0  0  0  0  0
   -3.0710  -33.0350    3.2810 C   0  0  0  0  0
   -1.9160  -33.8280    3.0360 C   0  0  0  0  0
   -1.1890  -34.3720    4.1520 C   0  0  0  0  0
   -1.6160  -34.1120    5.4860 C   0  0  0  0  0
   -2.7680  -33.3140    5.7400 C   0  0  0  0  0
   -3.4890  -32.7870    4.6110 C   0  0  0  0  0
   -1.4980  -34.0640    1.7410 C   0  0  0  0  0
   -3.7120  -32.0550    7.5420 C   0  0  0  0  0
   -4.9180  -30.0440    7.4050 C   0  0  0  0  0
   -4.8950  -29.8910    8.7940 C   0  0  0  0  0
   -4.2400  -30.9050    9.5000 C   0  0  0  0  0
   -5.8360  -29.2110    5.4380 C   0  0  0  0  0
   -7.2010  -29.1900    5.0300 C   0  0  0  0  0
   -7.5430  -29.3070    3.6520 C   0  0  0  0  0
   -6.5170  -29.4460    2.6710 C   0  0  0  0  0
   -5.1610  -29.4610    3.0720 C   0  0  0  0  0
   -4.8190  -29.3430    4.4380 C   0  0  0  0  0
   -2.2840  -34.0780    0.8180 O   0  0  0  0  0
   -0.2130  -34.2620    1.4840 O   0  0  0  0  0
   -2.9378  -33.8772    7.6367 H   0  0  0  0  0
   -5.0611  -29.5224    0.5894 H   0  0  0  0  0
   -5.7798  -28.2489    7.1888 H   0  0  0  0  0
   -3.6339  -32.6185    2.4457 H   0  0  0  0  0
   -0.3063  -34.9867    3.9758 H   0  0  0  0  0
   -1.0544  -34.5287    6.3221 H   0  0  0  0  0
   -4.3789  -32.1819    4.7842 H   0  0  0  0  0
   -5.3564  -29.0390    9.2932 H   0  0  0  0  0
   -4.1983  -30.8298   10.5866 H   0  0  0  0  0
   -7.9881  -29.0838    5.7765 H   0  0  0  0  0
   -8.5894  -29.2903    3.3472 H   0  0  0  0  0
   -4.3754  -29.5641    2.3234 H   0  0  0  0  0
   -3.7700  -29.3525    4.7339 H   0  0  0  0  0
    0.2856  -34.2239    2.3034 H   0  0  0  0  0
  1  3  1  0  0  0
  1  5  2  0  0  0
 22  1  1  0  0  0
  2 12  1  0  0  0
 15  2  1  0  0  0
  4 15  4  0  0  0
 16  4  4  0  0  0
 15  6  4  0  0  0
 18  6  4  0  0  0
  7 16  1  0  0  0
 19  7  1  0  0  0
  8  9  4  0  0  0
 13  8  4  0  0  0
 10  9  4  0  0  0
  9 14  1  0  0  0
 11 10  4  0  0  0
 12 11  4  0  0  0
 12 13  4  0  0  0
 14 25  2  0  0  0
 14 26  1  0  0  0
 16 17  4  0  0  0
 17 18  4  0  0  0
 20 19  4  0  0  0
 19 24  4  0  0  0
 21 20  4  0  0  0
 21 22  4  0  0  0
 22 23  4  0  0  0
 23 24  4  0  0  0
  2 27  1  0  0  0
  3 28  1  0  0  0
  7 29  1  0  0  0
  8 30  1  0  0  0
 10 31  1  0  0  0
 11 32  1  0  0  0
 13 33  1  0  0  0
 17 34  1  0  0  0
 18 35  1  0  0  0
 20 36  1  0  0  0
 21 37  1  0  0  0
 23 38  1  0  0  0
 24 39  1  0  0  0
 26 40  1  0  0  0
M  END
$$$$
