6ayh_ligand
  -I-interpret- 

 35 36  0  0  0  0  0  0  0  0999 V2000
   23.9460   16.7870   18.3780 C   0  0  0  0  0
   23.6010   16.3850   13.3960 C   0  0  0  0  0
   23.5710   17.4530   11.2170 C   0  0  0  0  0
   20.0720   15.8630   17.8890 C   0  0  0  0  0
   20.2170   15.2620   16.4460 C   0  0  0  0  0
   21.3320   16.0220   15.6190 C   0  0  0  0  0
   22.4660   16.7450   17.6390 C   0  0  0  0  0
   21.4790   15.9980   18.5970 C   0  0  0  0  0
   22.2240   16.0590   13.3130 C   0  0  0  0  0
   24.2730   17.0660   12.3750 C   0  0  0  0  0
   22.2040   17.1520   11.0920 C   0  0  0  0  0
   21.5420   16.4690   12.1230 C   0  0  0  0  0
   24.2470   18.1780   10.0960 N   0  0  0  0  0
   19.2450   15.0230   18.6600 O   0  0  0  0  0
   19.0350   15.4650   15.7070 O   0  0  0  0  0
   22.5080   16.0840   16.3570 O   0  0  0  0  0
   21.2970   16.7370   19.7770 O   0  0  0  0  0
   24.8950   16.5090   17.6250 O   0  0  0  0  0
   23.9790   17.0800   19.5740 O   0  0  0  0  0
   21.5620   15.3860   14.3160 O   0  0  0  0  0
   23.6630   18.5470    9.1130 O   0  0  0  0  0
   25.4500   18.3710   10.2320 O   0  0  0  0  0
   24.1566   16.0946   14.2877 H   0  0  0  0  0
   19.6325   16.8569   17.8044 H   0  0  0  0  0
   20.4548   14.2067   16.5801 H   0  0  0  0  0
   20.9836   17.0365   15.4252 H   0  0  0  0  0
   22.1372   17.7665   17.4479 H   0  0  0  0  0
   21.8943   15.0179   18.8314 H   0  0  0  0  0
   25.3338   17.2957   12.4753 H   0  0  0  0  0
   21.6592   17.4487   10.1957 H   0  0  0  0  0
   20.4808   16.2446   12.0153 H   0  0  0  0  0
   18.3894   14.9387   18.2329 H   0  0  0  0  0
   18.3033   15.0287   16.1496 H   0  0  0  0  0
   20.6905   16.2693   20.3558 H   0  0  0  0  0
   24.5598   16.3233   16.7448 H   0  0  0  0  0
  7  1  1  0  0  0
  1 18  1  0  0  0
  1 19  2  0  0  0
  9  2  4  0  0  0
  2 10  4  0  0  0
 10  3  4  0  0  0
  3 11  4  0  0  0
  3 13  1  0  0  0
  5  4  1  0  0  0
  4  8  1  0  0  0
  4 14  1  0  0  0
  6  5  1  0  0  0
  5 15  1  0  0  0
  6 16  1  0  0  0
 20  6  1  0  0  0
  7  8  1  0  0  0
 16  7  1  0  0  0
  8 17  1  0  0  0
  9 12  4  0  0  0
  9 20  1  0  0  0
 11 12  4  0  0  0
 13 21  2  0  0  0
 13 22  2  0  0  0
  2 23  1  0  0  0
  4 24  1  0  0  0
  5 25  1  0  0  0
  6 26  1  0  0  0
  7 27  1  0  0  0
  8 28  1  0  0  0
 10 29  1  0  0  0
 11 30  1  0  0  0
 12 31  1  0  0  0
 14 32  1  0  0  0
 15 33  1  0  0  0
 17 34  1  0  0  0
 18 35  1  0  0  0
M  END
$$$$
