4z1n_ligand
  -I-interpret- 

 38 40  0  0  0  0  0  0  0  0999 V2000
   18.5740   11.1000   11.7420 C   0  0  0  0  0
   18.5120    9.9230   12.5390 C   0  0  0  0  0
   16.3670    7.1990   13.0940 C   0  0  0  0  0
   16.1070    6.0690   14.0470 C   0  0  0  0  0
   17.8510    8.6960   11.9280 C   0  0  0  0  0
   18.6470    7.5870   13.9690 C   0  0  0  0  0
   18.9260    8.8080   14.7730 C   0  0  0  0  0
   19.0140    9.9700   13.8670 C   0  0  0  0  0
   15.3980    7.5540   12.3990 O   0  0  0  0  0
   16.9450    4.9320   14.0610 C   0  0  0  0  0
   16.6330    3.8940   14.9580 C   0  0  0  0  0
   15.0180    6.1240   14.8460 C   0  0  0  0  0
   14.7290    5.0480   15.6640 C   0  0  0  0  0
   15.5280    3.8900   15.7750 C   0  0  0  0  0
   15.0830    2.6420   16.8430 S   0  0  0  0  0
   15.6860    1.3190   16.1990 N   0  0  0  0  0
   13.6290    2.6370   16.7800 O   0  0  0  0  0
   15.6500    2.9070   18.1280 O   0  0  0  0  0
   17.5750    7.7600   13.0070 N   0  0  0  0  0
   19.6120   11.1400   14.3920 C   0  0  0  0  0
   19.6930   12.2770   13.5800 C   0  0  0  0  0
   19.1760   12.2650   12.2710 C   0  0  0  0  0
   18.1613   11.1036   10.7331 H   0  0  0  0  0
   18.5084    8.2394   11.1882 H   0  0  0  0  0
   16.9269    8.9750   11.4218 H   0  0  0  0  0
   18.3427    6.8016   14.6609 H   0  0  0  0  0
   19.5524    7.3482   13.4111 H   0  0  0  0  0
   19.8673    8.6879   15.3093 H   0  0  0  0  0
   18.1241    8.9643   15.4945 H   0  0  0  0  0
   17.8068    4.8610   13.3974 H   0  0  0  0  0
   17.3092    3.0406   15.0080 H   0  0  0  0  0
   14.3764    7.0051   14.8452 H   0  0  0  0  0
   13.8210    5.0973   16.2650 H   0  0  0  0  0
   15.0627    0.6092   15.8141 H   0  0  0  0  0
   16.6961    1.1801   16.1708 H   0  0  0  0  0
   20.0022   11.1555   15.4096 H   0  0  0  0  0
   20.1619   13.1822   13.9658 H   0  0  0  0  0
   19.2404   13.1640   11.6580 H   0  0  0  0  0
  2  1  4  0  0  0
  1 22  4  0  0  0
  5  2  1  0  0  0
  2  8  4  0  0  0
  3  4  1  0  0  0
  3  9  2  0  0  0
 19  3  1  0  0  0
  4 10  4  0  0  0
  4 12  4  0  0  0
 19  5  1  0  0  0
  6  7  1  0  0  0
  6 19  1  0  0  0
  7  8  1  0  0  0
  8 20  4  0  0  0
 10 11  4  0  0  0
 11 14  4  0  0  0
 12 13  4  0  0  0
 13 14  4  0  0  0
 14 15  1  0  0  0
 15 16  1  0  0  0
 15 17  2  0  0  0
 15 18  2  0  0  0
 20 21  4  0  0  0
 21 22  4  0  0  0
  1 23  1  0  0  0
  5 24  1  0  0  0
  5 25  1  0  0  0
  6 26  1  0  0  0
  6 27  1  0  0  0
  7 28  1  0  0  0
  7 29  1  0  0  0
 10 30  1  0  0  0
 11 31  1  0  0  0
 12 32  1  0  0  0
 13 33  1  0  0  0
 16 34  1  0  0  0
 16 35  1  0  0  0
 20 36  1  0  0  0
 21 37  1  0  0  0
 22 38  1  0  0  0
M  END
$$$$
