5c3k_ligand
  -I-interpret- 

 26 26  0  0  0  0  0  0  0  0999 V2000
  -15.6040  -21.4700   -0.8850 C   0  0  0  0  0
  -15.8300  -19.9660   -0.9770 C   0  0  0  0  0
  -16.8570  -19.5420    0.0200 N   0  3  0  0  0
  -16.2780  -19.5540   -2.3780 C   0  0  0  0  0
  -17.4550  -19.2800   -2.6110 O   0  0  0  0  0
  -15.3820  -19.3640   -4.7030 C   0  0  0  0  0
  -16.5520  -19.1370   -5.4250 C   0  0  0  0  0
  -16.4720  -19.0060   -6.7920 C   0  0  0  0  0
  -15.2450  -19.1020   -7.4140 C   0  0  0  0  0
  -14.0830  -19.3340   -6.6380 C   0  0  0  0  0
  -15.2990  -19.5200   -3.3100 N   0  0  0  0  0
  -12.8760  -19.4350   -7.1840 N   0  0  0  0  0
  -14.1810  -19.4610   -5.2850 N   0  0  0  0  0
  -16.5326  -21.9906   -1.1188 H   0  0  0  0  0
  -14.8320  -21.7643   -1.5960 H   0  0  0  0  0
  -15.2862  -21.7272    0.1254 H   0  0  0  0  0
  -14.8820  -19.4728   -0.7620 H   0  0  0  0  0
  -16.5560  -19.8180    0.9547 H   0  0  0  0  0
  -16.9676  -18.5287   -0.0175 H   0  0  0  0  0
  -17.7466  -19.9906   -0.1983 H   0  0  0  0  0
  -17.5131  -19.0646   -4.9159 H   0  0  0  0  0
  -17.3725  -18.8275   -7.3797 H   0  0  0  0  0
  -15.1698  -18.9999   -8.4966 H   0  0  0  0  0
  -14.3526  -19.6239   -2.9441 H   0  0  0  0  0
  -12.7639  -19.3451   -8.1938 H   0  0  0  0  0
  -12.0614  -19.6025   -6.5934 H   0  0  0  0  0
  2  1  1  0  0  0
  2  3  1  0  0  0
  4  2  1  0  0  0
  4  5  2  0  0  0
 11  4  1  0  0  0
  6  7  4  0  0  0
  6 11  1  0  0  0
  6 13  4  0  0  0
  7  8  4  0  0  0
  8  9  4  0  0  0
  9 10  4  0  0  0
 10 12  1  0  0  0
 10 13  4  0  0  0
  1 14  1  0  0  0
  1 15  1  0  0  0
  1 16  1  0  0  0
  2 17  1  0  0  0
  3 18  1  0  0  0
  3 19  1  0  0  0
  3 20  1  0  0  0
  7 21  1  0  0  0
  8 22  1  0  0  0
  9 23  1  0  0  0
 11 24  1  0  0  0
 12 25  1  0  0  0
 12 26  1  0  0  0
M  END
$$$$
