1td7_ligand
  -I-interpret- 

 29 30  0  0  0  0  0  0  0  0999 V2000
    9.6370   10.8690    6.7250 F   0  0  0  0  0
   10.9360   11.0920    6.9260 C   0  0  0  0  0
   11.5690    9.9370    6.7290 F   0  0  0  0  0
   11.2370   11.4250    8.1800 F   0  0  0  0  0
   11.5150   11.9890    5.8520 C   0  0  0  0  0
   10.7960   12.5070    4.7430 C   0  0  0  0  0
   11.4490   13.2950    3.7630 C   0  0  0  0  0
   12.8150   13.5120    3.9320 C   0  0  0  0  0
   13.5200   12.9860    5.0110 C   0  0  0  0  0
   12.8760   12.2240    5.9670 C   0  0  0  0  0
   10.9080   13.8960    2.6330 N   0  0  0  0  0
    9.6240   13.9240    2.1130 C   0  0  0  0  0
    8.6180   13.2880    2.7560 N   0  0  0  0  0
    9.2600   14.6540    0.8300 C   0  0  0  0  0
   10.2270   15.4370   -0.0590 C   0  0  0  0  0
   11.4180   15.5370    0.2140 O   0  0  0  0  0
    9.8340   15.9900   -1.0890 O   0  0  0  0  0
    7.9280   14.6030    0.4020 C   0  0  0  0  0
    6.9800   13.9110    1.1450 C   0  0  0  0  0
    7.3530   13.2680    2.3120 C   0  0  0  0  0
    9.7311   12.2965    4.6444 H   0  0  0  0  0
   13.3487   14.1129    3.1957 H   0  0  0  0  0
   14.5892   13.1769    5.1025 H   0  0  0  0  0
   13.4349   11.8103    6.8064 H   0  0  0  0  0
   11.5875   14.4174    2.0792 H   0  0  0  0  0
    8.8913   15.8401   -1.1916 H   0  0  0  0  0
    7.6337   15.1083   -0.5179 H   0  0  0  0  0
    5.9437   13.8746    0.8091 H   0  0  0  0  0
    6.5980   12.7307    2.8859 H   0  0  0  0  0
  1  2  1  0  0  0
  2  3  1  0  0  0
  2  4  1  0  0  0
  2  5  1  0  0  0
  5  6  4  0  0  0
  5 10  4  0  0  0
  6  7  4  0  0  0
  7  8  4  0  0  0
  7 11  1  0  0  0
  8  9  4  0  0  0
  9 10  4  0  0  0
 11 12  1  0  0  0
 12 13  4  0  0  0
 12 14  4  0  0  0
 13 20  4  0  0  0
 14 15  1  0  0  0
 14 18  4  0  0  0
 15 16  2  0  0  0
 15 17  1  0  0  0
 18 19  4  0  0  0
 19 20  4  0  0  0
  6 21  1  0  0  0
  8 22  1  0  0  0
  9 23  1  0  0  0
 10 24  1  0  0  0
 11 25  1  0  0  0
 17 26  1  0  0  0
 18 27  1  0  0  0
 19 28  1  0  0  0
 20 29  1  0  0  0
M  END
$$$$
