5e1e_ligand
  -I-interpret- 

 52 55  0  0  0  0  0  0  0  0999 V2000
  -20.8620  -20.1420   19.4790 C   0  0  0  0  0
  -20.7310  -19.1220   17.3110 C   0  0  0  0  0
  -21.1940  -18.5800   14.9970 C   0  0  0  0  0
  -21.5780  -18.5610   16.3300 C   0  0  0  0  0
  -23.7460  -17.6530   15.8540 C   0  0  0  0  0
  -17.8450  -20.3320   15.2320 C   0  0  0  0  0
  -16.1150  -21.0850   14.0970 C   0  0  0  0  0
  -15.9510  -21.3180   15.4530 C   0  0  0  0  0
  -14.1390  -22.0530   13.5310 C   0  0  0  0  0
  -15.3980  -21.8260   18.2940 C   0  0  0  0  0
  -17.2340  -22.4300   19.7490 C   0  0  0  0  0
  -17.7590  -24.8200   20.2060 N   0  3  0  0  0
  -16.4350  -25.1930   19.6670 C   0  0  0  0  0
  -21.1990  -19.0640   18.5970 O   0  0  0  0  0
  -19.5210  -19.6880   16.9360 C   0  0  0  0  0
  -19.1290  -19.7170   15.5970 C   0  0  0  0  0
  -19.9890  -19.1520   14.6650 C   0  0  0  0  0
  -22.7480  -18.0320   16.8050 O   0  0  0  0  0
  -19.6240  -19.1550   13.3680 F   0  0  0  0  0
  -17.3320  -20.4480   13.9700 N   0  0  0  0  0
  -17.0420  -20.8430   16.1550 N   0  0  0  0  0
  -14.7740  -21.9670   15.8600 C   0  0  0  0  0
  -13.8710  -22.3350   14.8610 C   0  0  0  0  0
  -15.2530  -21.4280   13.1270 N   0  0  0  0  0
  -12.4030  -23.1550   15.2950 Cl  0  0  0  0  0
  -14.5010  -22.2190   17.2210 N   0  0  0  0  0
  -15.8320  -22.8480   19.3140 C   0  0  0  0  0
  -17.8120  -23.4370   20.7130 C   0  0  0  0  0
  -15.8910  -24.2200   18.6590 C   0  0  0  0  0
  -21.2516  -21.0761   19.0744 H   0  0  0  0  0
  -19.7780  -20.2087   19.5715 H   0  0  0  0  0
  -21.3010  -19.9582   20.4596 H   0  0  0  0  0
  -21.8354  -18.1497   14.2279 H   0  0  0  0  0
  -23.3400  -16.8928   15.1866 H   0  0  0  0  0
  -24.0434  -18.5264   15.2737 H   0  0  0  0  0
  -24.6128  -17.2519   16.3792 H   0  0  0  0  0
  -13.4097  -22.3536   12.7787 H   0  0  0  0  0
  -16.3185  -21.5314   17.7899 H   0  0  0  0  0
  -14.8368  -21.0869   18.8657 H   0  0  0  0  0
  -17.8752  -22.3741   18.8693 H   0  0  0  0  0
  -17.1765  -21.4601   20.2430 H   0  0  0  0  0
  -17.9609  -25.4434   20.9877 H   0  0  0  0  0
  -18.4345  -24.8962   19.4456 H   0  0  0  0  0
  -16.5493  -26.1523   19.1623 H   0  0  0  0  0
  -15.7384  -25.2146   20.5051 H   0  0  0  0  0
  -18.8682  -20.1155   17.6971 H   0  0  0  0  0
  -13.6341  -22.6991   17.4627 H   0  0  0  0  0
  -15.1444  -22.8993   20.1582 H   0  0  0  0  0
  -18.8601  -23.1817   20.8695 H   0  0  0  0  0
  -17.2206  -23.3969   21.6277 H   0  0  0  0  0
  -16.5341  -24.1900   17.7795 H   0  0  0  0  0
  -14.8956  -24.5272   18.3382 H   0  0  0  0  0
 14  1  1  0  0  0
  2  4  4  0  0  0
  2 14  1  0  0  0
 15  2  4  0  0  0
  3  4  4  0  0  0
 17  3  4  0  0  0
  4 18  1  0  0  0
 18  5  1  0  0  0
  6 16  1  0  0  0
  6 20  4  0  0  0
 21  6  4  0  0  0
  8  7  4  0  0  0
  7 20  4  0  0  0
  7 24  4  0  0  0
  8 21  4  0  0  0
 22  8  4  0  0  0
 23  9  4  0  0  0
  9 24  4  0  0  0
 26 10  1  0  0  0
 10 27  1  0  0  0
 27 11  1  0  0  0
 11 28  1  0  0  0
 12 13  1  0  0  0
 28 12  1  0  0  0
 13 29  1  0  0  0
 16 15  4  0  0  0
 16 17  4  0  0  0
 17 19  1  0  0  0
 22 23  4  0  0  0
 22 26  1  0  0  0
 23 25  1  0  0  0
 27 29  1  0  0  0
  1 30  1  0  0  0
  1 31  1  0  0  0
  1 32  1  0  0  0
  3 33  1  0  0  0
  5 34  1  0  0  0
  5 35  1  0  0  0
  5 36  1  0  0  0
  9 37  1  0  0  0
 10 38  1  0  0  0
 10 39  1  0  0  0
 11 40  1  0  0  0
 11 41  1  0  0  0
 12 42  1  0  0  0
 12 43  1  0  0  0
 13 44  1  0  0  0
 13 45  1  0  0  0
 15 46  1  0  0  0
 26 47  1  0  0  0
 27 48  1  0  0  0
 28 49  1  0  0  0
 28 50  1  0  0  0
 29 51  1  0  0  0
 29 52  1  0  0  0
M  END
$$$$
