5alv_ligand
  -I-interpret- 

 18 19  0  0  0  0  0  0  0  0999 V2000
  -13.3720  -13.7240   19.3880 C   0  0  0  0  0
  -14.1980  -13.0600   18.5080 C   0  0  0  0  0
  -14.8250  -11.8940   18.8980 C   0  0  0  0  0
  -14.6190  -11.3840   20.1660 C   0  0  0  0  0
  -13.7910  -12.0610   21.0390 C   0  0  0  0  0
  -13.1640  -13.2270   20.6580 C   0  0  0  0  0
  -13.5760  -11.5860   22.2710 F   0  0  0  0  0
  -15.6720  -11.2050   17.9650 C   0  0  0  0  0
  -16.1960   -9.9450   17.9720 C   0  0  0  0  0
  -16.9330   -9.8590   16.7630 C   0  0  0  0  0
  -16.8860  -10.9620   16.0300 N   0  0  0  0  0
  -16.1190  -11.7430   16.7960 N   0  0  0  0  0
  -12.8804  -14.6466   19.0794 H   0  0  0  0  0
  -14.3563  -13.4551   17.5045 H   0  0  0  0  0
  -15.1047  -10.4578   20.4732 H   0  0  0  0  0
  -12.5095  -13.7521   21.3537 H   0  0  0  0  0
  -16.0753   -9.1766   18.7356 H   0  0  0  0  0
  -17.4864   -8.9686   16.4647 H   0  0  0  0  0
  1  2  4  0  0  0
  1  6  4  0  0  0
  2  3  4  0  0  0
  3  4  4  0  0  0
  3  8  1  0  0  0
  4  5  4  0  0  0
  5  6  4  0  0  0
  5  7  1  0  0  0
  8  9  4  0  0  0
  8 12  4  0  0  0
  9 10  4  0  0  0
 10 11  4  0  0  0
 11 12  4  0  0  0
  1 13  1  0  0  0
  2 14  1  0  0  0
  4 15  1  0  0  0
  6 16  1  0  0  0
  9 17  1  0  0  0
 10 18  1  0  0  0
M  END
$$$$
