3g86_ligand
  -I-interpret- 

 57 61  0  0  0  0  0  0  0  0999 V2000
   -9.0130    9.9200  -16.2850 C   0  0  0  0  0
   -9.7650    9.0210  -17.0540 C   0  0  0  0  0
   -8.8250    9.7360  -14.9250 C   0  0  0  0  0
  -10.3490    7.9360  -16.4060 C   0  0  0  0  0
   -9.3920    8.6270  -14.2840 C   0  0  0  0  0
  -10.1480    7.7330  -15.0510 C   0  0  0  0  0
  -10.8310    6.2830  -14.3010 S   0  0  0  0  0
  -10.7810    6.6650  -12.5730 C   0  0  0  0  0
   -9.9380    7.6060  -12.0930 C   0  0  0  0  0
   -9.1820    8.4290  -12.9150 N   0  0  0  0  0
   -9.9580    9.2510  -18.4400 N   0  0  0  0  0
  -10.3320    8.1130  -19.5940 S   0  0  0  0  0
  -12.1510    8.0910  -19.5850 C   0  0  0  0  0
   -9.8450    8.6690  -20.8110 O   0  0  0  0  0
   -9.7540    6.8770  -19.1720 O   0  0  0  0  0
  -12.1800    6.1680  -14.7510 O   0  0  0  0  0
   -9.9050    5.2190  -14.6000 O   0  0  0  0  0
  -12.0850    7.2630   -6.3170 C   0  0  0  0  0
  -11.5330    8.4550   -5.8400 C   0  0  0  0  0
  -10.7030    9.1990   -6.6570 C   0  0  0  0  0
  -11.8080    6.8000   -7.5770 C   0  0  0  0  0
  -10.9040    7.5040   -8.3840 C   0  0  0  0  0
  -10.3720    8.7320   -7.9390 C   0  0  0  0  0
   -9.5820    9.4850   -8.7900 N   0  0  0  0  0
   -9.4890    9.1620  -10.1190 C   0  0  0  0  0
  -10.0500    7.9340  -10.6460 C   0  0  0  0  0
  -10.7040    7.0600   -9.7580 C   0  0  0  0  0
  -12.8920    6.5400   -5.5510 F   0  0  0  0  0
  -11.2180    5.8580  -10.1090 O   0  0  0  0  0
   -8.9690   10.7110   -8.2510 C   0  0  0  0  0
   -8.8330    9.9070  -10.8560 O   0  0  0  0  0
   -7.6580   10.2440   -7.6600 C   0  0  0  0  0
   -6.6770    9.7180   -8.5010 C   0  0  0  0  0
   -5.2310    9.3290   -6.6300 C   0  0  0  0  0
   -6.1920    9.8560   -5.7620 C   0  0  0  0  0
   -5.4660    9.2720   -8.0000 C   0  0  0  0  0
   -7.4070   10.3190   -6.2850 C   0  0  0  0  0
   -4.0450    8.8740   -6.1550 F   0  0  0  0  0
   -8.5643   10.7868  -16.7701 H   0  0  0  0  0
   -8.2362   10.4538  -14.3539 H   0  0  0  0  0
  -10.9699    7.2401  -16.9702 H   0  0  0  0  0
  -11.4397    6.1335  -11.8862 H   0  0  0  0  0
   -8.4067    8.9329  -12.4845 H   0  0  0  0  0
   -9.8571   10.2134  -18.7624 H   0  0  0  0  0
  -12.5259    9.1097  -19.6841 H   0  0  0  0  0
  -12.5099    7.4876  -20.4188 H   0  0  0  0  0
  -12.5033    7.6625  -18.6467 H   0  0  0  0  0
  -11.7559    8.7961   -4.8290 H   0  0  0  0  0
  -10.3044   10.1506   -6.3053 H   0  0  0  0  0
  -12.2861    5.8933   -7.9477 H   0  0  0  0  0
  -11.6138    5.4433   -9.3390 H   0  0  0  0  0
   -9.6041   11.1957   -7.5094 H   0  0  0  0  0
   -8.8254   11.4703   -9.0197 H   0  0  0  0  0
   -6.8676    9.6571   -9.5725 H   0  0  0  0  0
   -5.9984    9.9062   -4.6905 H   0  0  0  0  0
   -4.7035    8.8797   -8.6729 H   0  0  0  0  0
   -8.1598   10.7393   -5.6181 H   0  0  0  0  0
  1  2  4  0  0  0
  3  1  4  0  0  0
  4  2  4  0  0  0
  2 11  1  0  0  0
  5  3  4  0  0  0
  6  4  4  0  0  0
  5  6  4  0  0  0
 10  5  1  0  0  0
  7  6  1  0  0  0
  8  7  1  0  0  0
  7 16  2  0  0  0
  7 17  2  0  0  0
  9  8  2  0  0  0
  9 10  1  0  0  0
 26  9  1  0  0  0
 11 12  1  0  0  0
 12 13  1  0  0  0
 12 14  2  0  0  0
 12 15  2  0  0  0
 19 18  4  0  0  0
 21 18  4  0  0  0
 18 28  1  0  0  0
 20 19  4  0  0  0
 23 20  4  0  0  0
 22 21  4  0  0  0
 23 22  4  0  0  0
 22 27  1  0  0  0
 24 23  1  0  0  0
 24 25  1  0  0  0
 30 24  1  0  0  0
 25 26  1  0  0  0
 25 31  2  0  0  0
 26 27  2  0  0  0
 27 29  1  0  0  0
 32 30  1  0  0  0
 33 32  4  0  0  0
 32 37  4  0  0  0
 36 33  4  0  0  0
 34 35  4  0  0  0
 34 36  4  0  0  0
 34 38  1  0  0  0
 35 37  4  0  0  0
  1 39  1  0  0  0
  3 40  1  0  0  0
  4 41  1  0  0  0
  8 42  1  0  0  0
 10 43  1  0  0  0
 11 44  1  0  0  0
 13 45  1  0  0  0
 13 46  1  0  0  0
 13 47  1  0  0  0
 19 48  1  0  0  0
 20 49  1  0  0  0
 21 50  1  0  0  0
 29 51  1  0  0  0
 30 52  1  0  0  0
 30 53  1  0  0  0
 33 54  1  0  0  0
 35 55  1  0  0  0
 36 56  1  0  0  0
 37 57  1  0  0  0
M  END
$$$$
