4ad3_ligand
  -I-interpret- 

 46 47  0  0  0  0  0  0  0  0999 V2000
  -46.3170   72.0340  -16.4710 C   0  0  0  0  0
  -45.8050   71.8810  -17.9130 C   0  0  0  0  0
  -44.3820   71.3380  -17.8940 C   0  0  0  0  0
  -43.4710   72.2220  -17.0500 C   0  0  0  0  0
  -44.0630   72.3520  -15.6500 C   0  0  0  0  0
  -43.1980   73.2550  -14.7710 C   0  0  0  0  0
  -46.6080   70.9580  -18.6040 O   0  0  0  0  0
  -43.8770   71.2700  -19.2020 O   0  0  0  0  0
  -42.2080   71.5990  -16.9940 O   0  0  0  0  0
  -45.3980   72.8520  -15.7540 O   0  0  0  0  0
  -43.7040   73.3350  -13.4540 O   0  0  0  0  0
  -48.0150   69.3750  -14.6350 C   0  0  0  0  0
  -48.8360   69.1190  -15.7970 O   0  0  0  0  0
  -47.3110   70.7340  -14.7770 C   0  0  0  0  0
  -46.4760   70.7000  -15.9460 O   0  0  0  0  0
  -46.4880   71.0730  -13.5210 C   0  0  0  0  0
  -45.5100   70.0390  -13.3110 O   0  0  0  0  0
  -47.3770   71.0690  -12.2870 C   0  0  0  0  0
  -47.9720   69.7500  -12.2200 N   0  3  0  0  0
  -48.8340   69.3510  -13.3400 C   0  0  0  0  0
  -49.5000   68.0190  -13.0330 C   0  0  0  0  0
  -48.5090   66.9930  -12.8550 O   0  0  0  0  0
  -47.2823   72.5343  -16.3929 H   0  0  0  0  0
  -45.8367   72.8549  -18.4015 H   0  0  0  0  0
  -44.4080   70.3405  -17.4552 H   0  0  0  0  0
  -43.3757   73.2191  -17.4798 H   0  0  0  0  0
  -44.0859   71.3717  -15.1740 H   0  0  0  0  0
  -43.1962   74.2564  -15.2014 H   0  0  0  0  0
  -42.1927   72.8358  -14.7296 H   0  0  0  0  0
  -47.5125   71.2787  -18.6296 H   0  0  0  0  0
  -44.4488   70.7138  -19.7361 H   0  0  0  0  0
  -41.8494   71.5247  -17.8814 H   0  0  0  0  0
  -43.1395   73.9079  -12.9298 H   0  0  0  0  0
  -47.2729   68.5788  -14.5761 H   0  0  0  0  0
  -49.2711   68.2689  -15.6990 H   0  0  0  0  0
  -48.0607   71.5178  -14.8850 H   0  0  0  0  0
  -46.0313   72.0517  -13.6680 H   0  0  0  0  0
  -44.9925   70.2437  -12.5288 H   0  0  0  0  0
  -48.1427   71.8420  -12.3525 H   0  0  0  0  0
  -46.8007   71.2857  -11.3875 H   0  0  0  0  0
  -48.5718   69.7562  -11.3950 H   0  0  0  0  0
  -47.1925   69.0921  -12.2199 H   0  0  0  0  0
  -49.6527   70.0562  -13.4832 H   0  0  0  0  0
  -50.1484   67.7459  -13.8655 H   0  0  0  0  0
  -50.0804   68.1152  -12.1154 H   0  0  0  0  0
  -48.9442   66.1593  -12.6621 H   0  0  0  0  0
  1  2  1  0  0  0
  1 10  1  0  0  0
 15  1  1  0  0  0
  2  3  1  0  0  0
  2  7  1  0  0  0
  3  4  1  0  0  0
  3  8  1  0  0  0
  5  4  1  0  0  0
  4  9  1  0  0  0
  5  6  1  0  0  0
 10  5  1  0  0  0
  6 11  1  0  0  0
 12 13  1  0  0  0
 14 12  1  0  0  0
 12 20  1  0  0  0
 14 15  1  0  0  0
 14 16  1  0  0  0
 16 17  1  0  0  0
 16 18  1  0  0  0
 18 19  1  0  0  0
 19 20  1  0  0  0
 20 21  1  0  0  0
 21 22  1  0  0  0
  1 23  1  0  0  0
  2 24  1  0  0  0
  3 25  1  0  0  0
  4 26  1  0  0  0
  5 27  1  0  0  0
  6 28  1  0  0  0
  6 29  1  0  0  0
  7 30  1  0  0  0
  8 31  1  0  0  0
  9 32  1  0  0  0
 11 33  1  0  0  0
 12 34  1  0  0  0
 13 35  1  0  0  0
 14 36  1  0  0  0
 16 37  1  0  0  0
 17 38  1  0  0  0
 18 39  1  0  0  0
 18 40  1  0  0  0
 19 41  1  0  0  0
 19 42  1  0  0  0
 20 43  1  0  0  0
 21 44  1  0  0  0
 21 45  1  0  0  0
 22 46  1  0  0  0
M  END
$$$$
