5kos_ligand
  -I-interpret- 

 84 86  0  0  0  0  0  0  0  0999 V2000
   13.1430  -43.3940    0.8530 C   0  0  0  0  0
   12.5330  -44.0450   -0.3810 C   0  0  0  0  0
   10.3630  -45.0510   -0.9640 C   0  0  0  0  0
    8.0280  -44.1170   -0.3910 C   0  0  0  0  0
    8.5470  -46.3230    1.9150 C   0  0  0  0  0
    6.3390  -43.3350    1.1990 C   0  0  0  0  0
    6.6610  -42.9770    2.6490 C   0  0  0  0  0
    4.2990  -42.6470    3.2070 C   0  0  0  0  0
    2.4730  -43.3460    1.6870 C   0  0  0  0  0
   13.6320  -39.8600    1.5590 C   0  0  0  0  0
   13.9830  -41.2380    1.5050 O   0  0  0  0  0
   13.1950  -41.9070    0.5330 C   0  0  0  0  0
   11.0650  -44.0970   -0.2600 N   0  0  0  0  0
   11.0460  -46.0010   -1.6060 N   0  0  0  0  0
   10.4450  -46.9360   -2.3000 C   0  0  0  0  0
    9.1160  -46.9840   -2.3770 N   0  0  0  0  0
    8.3450  -46.0920   -1.7870 C   0  0  0  0  0
    8.9370  -45.0790   -1.0340 C   0  0  0  0  0
    7.9700  -43.0260   -0.9040 O   0  0  0  0  0
    7.2500  -44.4020    0.7000 N   0  0  0  0  0
    7.2290  -45.7340    1.3790 C   0  0  0  0  0
    9.2190  -45.4660    2.9940 C   0  0  0  0  0
    8.2280  -47.7050    2.4840 C   0  0  0  0  0
    5.6530  -42.0820    3.2470 N   0  3  0  0  0
    3.8940  -42.8180    1.7390 C   0  0  0  0  0
    4.8720  -43.7890    1.0450 C   0  0  0  0  0
    2.3370  -44.5480    1.5940 O   0  0  0  0  0
    1.3490  -42.5640    1.7480 N   0  0  0  0  0
   -0.0050  -43.1820    1.6970 C   0  0  0  0  0
   -0.7550  -42.7940    2.9850 C   0  0  0  0  0
   -0.6780  -41.3670    3.1760 O   0  0  0  0  0
    0.6410  -40.7960    3.2190 C   0  0  0  0  0
    1.3620  -41.0860    1.8840 C   0  0  0  0  0
   11.2700  -47.9910   -2.9970 C   0  0  0  0  0
   12.7760  -47.6860   -2.9670 C   0  0  0  0  0
   11.0370  -49.3040   -2.2360 C   0  0  0  0  0
   10.8280  -48.1130   -4.4640 C   0  0  0  0  0
   14.1332  -43.7938    1.0714 H   0  0  0  0  0
   12.5522  -43.5931    1.7471 H   0  0  0  0  0
   12.9183  -45.0603   -0.4746 H   0  0  0  0  0
   12.7967  -43.4572   -1.2602 H   0  0  0  0  0
    9.2573  -46.3652    1.0893 H   0  0  0  0  0
    6.4874  -42.4347    0.6028 H   0  0  0  0  0
    7.6203  -42.4597    2.6626 H   0  0  0  0  0
    6.6765  -43.9004    3.2279 H   0  0  0  0  0
    3.6002  -41.9810    3.7131 H   0  0  0  0  0
    4.2803  -43.6110    3.7154 H   0  0  0  0  0
   13.8042  -39.4040    0.5840 H   0  0  0  0  0
   12.5793  -39.7647    1.8253 H   0  0  0  0  0
   14.2445  -39.3595    2.3089 H   0  0  0  0  0
   12.1843  -41.4989    0.5429 H   0  0  0  0  0
   13.6376  -41.7640   -0.4528 H   0  0  0  0  0
   10.5737  -43.4334    0.3389 H   0  0  0  0  0
    7.2609  -46.1457   -1.8865 H   0  0  0  0  0
    6.6082  -45.5876    2.2629 H   0  0  0  0  0
    6.9016  -46.4345    0.6107 H   0  0  0  0  0
    9.4483  -44.4823    2.5843 H   0  0  0  0  0
    8.5445  -45.3590    3.8435 H   0  0  0  0  0
   10.1403  -45.9496    3.3187 H   0  0  0  0  0
    7.4976  -47.6061    3.2870 H   0  0  0  0  0
    7.8190  -48.3359    1.6948 H   0  0  0  0  0
    9.1406  -48.1552    2.8746 H   0  0  0  0  0
    5.6464  -41.2147    2.7102 H   0  0  0  0  0
    5.9033  -41.9376    4.2252 H   0  0  0  0  0
    3.9367  -41.8626    1.2160 H   0  0  0  0  0
    4.7670  -44.7698    1.5089 H   0  0  0  0  0
    4.6318  -43.8148   -0.0179 H   0  0  0  0  0
    0.0788  -44.2662    1.6225 H   0  0  0  0  0
   -0.5490  -42.8247    0.8226 H   0  0  0  0  0
   -0.2992  -43.2992    3.8365 H   0  0  0  0  0
   -1.7998  -43.0930    2.9006 H   0  0  0  0  0
    1.2039  -41.2356    4.0424 H   0  0  0  0  0
    0.5692  -39.7189    3.3702 H   0  0  0  0  0
    0.8645  -40.6005    1.0445 H   0  0  0  0  0
    2.3778  -40.6908    1.8814 H   0  0  0  0  0
   12.9626  -46.7342   -3.4644 H   0  0  0  0  0
   13.1133  -47.6288   -1.9321 H   0  0  0  0  0
   13.3164  -48.4794   -3.4833 H   0  0  0  0  0
   11.3543  -49.1833   -1.2002 H   0  0  0  0  0
    9.9770  -49.5564   -2.2656 H   0  0  0  0  0
   11.6148  -50.1011   -2.7038 H   0  0  0  0  0
    9.7755  -48.3939   -4.5029 H   0  0  0  0  0
   10.9686  -47.1554   -4.9653 H   0  0  0  0  0
   11.4275  -48.8760   -4.9605 H   0  0  0  0  0
  2  1  1  0  0  0
  1 12  1  0  0  0
 13  2  1  0  0  0
  3 13  1  0  0  0
  3 14  4  0  0  0
 18  3  4  0  0  0
  4 18  1  0  0  0
  4 19  2  0  0  0
 20  4  1  0  0  0
 21  5  1  0  0  0
  5 22  1  0  0  0
  5 23  1  0  0  0
  6  7  1  0  0  0
 20  6  1  0  0  0
  6 26  1  0  0  0
  7 24  1  0  0  0
 24  8  1  0  0  0
  8 25  1  0  0  0
 25  9  1  0  0  0
  9 27  2  0  0  0
  9 28  1  0  0  0
 11 10  1  0  0  0
 12 11  1  0  0  0
 14 15  4  0  0  0
 16 15  4  0  0  0
 15 34  1  0  0  0
 17 16  4  0  0  0
 18 17  4  0  0  0
 20 21  1  0  0  0
 25 26  1  0  0  0
 28 29  1  0  0  0
 28 33  1  0  0  0
 29 30  1  0  0  0
 30 31  1  0  0  0
 31 32  1  0  0  0
 32 33  1  0  0  0
 34 35  1  0  0  0
 34 36  1  0  0  0
 34 37  1  0  0  0
  1 38  1  0  0  0
  1 39  1  0  0  0
  2 40  1  0  0  0
  2 41  1  0  0  0
  5 42  1  0  0  0
  6 43  1  0  0  0
  7 44  1  0  0  0
  7 45  1  0  0  0
  8 46  1  0  0  0
  8 47  1  0  0  0
 10 48  1  0  0  0
 10 49  1  0  0  0
 10 50  1  0  0  0
 12 51  1  0  0  0
 12 52  1  0  0  0
 13 53  1  0  0  0
 17 54  1  0  0  0
 21 55  1  0  0  0
 21 56  1  0  0  0
 22 57  1  0  0  0
 22 58  1  0  0  0
 22 59  1  0  0  0
 23 60  1  0  0  0
 23 61  1  0  0  0
 23 62  1  0  0  0
 24 63  1  0  0  0
 24 64  1  0  0  0
 25 65  1  0  0  0
 26 66  1  0  0  0
 26 67  1  0  0  0
 29 68  1  0  0  0
 29 69  1  0  0  0
 30 70  1  0  0  0
 30 71  1  0  0  0
 32 72  1  0  0  0
 32 73  1  0  0  0
 33 74  1  0  0  0
 33 75  1  0  0  0
 35 76  1  0  0  0
 35 77  1  0  0  0
 35 78  1  0  0  0
 36 79  1  0  0  0
 36 80  1  0  0  0
 36 81  1  0  0  0
 37 82  1  0  0  0
 37 83  1  0  0  0
 37 84  1  0  0  0
M  END
$$$$
