6rih_ligand
  -I-interpret- 

 33 35  0  0  0  0  0  0  0  0999 V2000
   15.1940  -11.3310   71.4070 C   0  0  0  0  0
   12.6360  -12.5790   73.7150 C   0  0  0  0  0
   17.1210   -9.8350   71.2960 C   0  0  0  0  0
   17.9850   -8.8270   72.0500 C   0  0  0  0  0
   13.8340  -14.0600   70.7120 C   0  0  0  0  0
   11.9410  -11.6430   75.9340 C   0  0  0  0  0
   11.1360  -11.6720   77.0630 C   0  0  0  0  0
   14.1470  -12.0240   72.1780 C   0  0  0  0  0
   13.5480  -13.2210   71.8800 N   0  0  0  0  0
   13.5830  -11.5950   73.3680 C   0  0  0  0  0
   12.6830  -13.5080   72.7850 N   0  0  0  0  0
   16.0690  -10.5310   72.0460 N   0  0  0  0  0
   16.9320   -8.3370   71.0530 C   0  0  0  0  0
   15.2820  -11.4820   70.2000 O   0  0  0  0  0
   11.7690  -12.5960   74.9230 C   0  0  0  0  0
   10.7860  -13.5850   75.0710 C   0  0  0  0  0
    9.9840  -13.6020   76.2010 C   0  0  0  0  0
   10.1620  -12.6520   77.2000 C   0  0  0  0  0
   17.3251  -10.7015   70.6670 H   0  0  0  0  0
   19.0385   -8.6598   72.2743 H   0  0  0  0  0
   18.2982   -8.6235   73.0740 H   0  0  0  0  0
   13.6267  -13.4968   69.8021 H   0  0  0  0  0
   14.8830  -14.3556   70.7267 H   0  0  0  0  0
   13.2042  -14.9491   70.7419 H   0  0  0  0  0
   12.7094  -10.8764   75.8336 H   0  0  0  0  0
   11.2683  -10.9238   77.8445 H   0  0  0  0  0
   13.8218  -10.6863   73.9205 H   0  0  0  0  0
   16.0001  -10.4083   73.0562 H   0  0  0  0  0
   16.1205   -7.6106   71.0103 H   0  0  0  0  0
   16.8590   -7.6468   70.2125 H   0  0  0  0  0
   10.6527  -14.3407   74.2969 H   0  0  0  0  0
    9.2109  -14.3630   76.3068 H   0  0  0  0  0
    9.5361  -12.6764   78.0921 H   0  0  0  0  0
  8  1  1  0  0  0
  1 12  1  0  0  0
  1 14  2  0  0  0
 10  2  4  0  0  0
  2 11  4  0  0  0
  2 15  1  0  0  0
  3  4  1  0  0  0
 12  3  1  0  0  0
  3 13  1  0  0  0
 13  4  1  0  0  0
  9  5  1  0  0  0
  6  7  4  0  0  0
 15  6  4  0  0  0
  7 18  4  0  0  0
  8  9  4  0  0  0
  8 10  4  0  0  0
  9 11  4  0  0  0
 15 16  4  0  0  0
 16 17  4  0  0  0
 17 18  4  0  0  0
  3 19  1  0  0  0
  4 20  1  0  0  0
  4 21  1  0  0  0
  5 22  1  0  0  0
  5 23  1  0  0  0
  5 24  1  0  0  0
  6 25  1  0  0  0
  7 26  1  0  0  0
 10 27  1  0  0  0
 12 28  1  0  0  0
 13 29  1  0  0  0
 13 30  1  0  0  0
 16 31  1  0  0  0
 17 32  1  0  0  0
 18 33  1  0  0  0
M  END
$$$$
