1yet_ligand
  -I-interpret- 

 80 81  0  0  0  0  0  0  0  0999 V2000
   38.4350  -50.9890   68.1470 O   0  0  0  0  0
   37.5890  -47.3870   62.6380 O   0  0  0  0  0
   37.9680  -44.7170   63.2480 O   0  0  0  0  0
   38.9370  -43.2560   61.7630 O   0  0  0  0  0
   44.9430  -43.4780   64.4210 O   0  0  0  0  0
   45.4050  -46.2650   63.7580 O   0  0  0  0  0
   43.2450  -44.8190   68.5200 O   0  0  0  0  0
   40.6420  -44.5160   69.2530 O   0  0  0  0  0
   42.1120  -49.4480   68.1200 O   0  0  0  0  0
   39.5890  -49.1610   68.8170 N   0  0  0  0  0
   36.7290  -43.1860   62.2470 N   0  0  0  0  0
   39.2170  -50.1180   67.8480 C   0  0  0  0  0
   39.8780  -50.0730   66.5040 C   0  0  0  0  0
   39.7130  -48.9800   65.7140 C   0  0  0  0  0
   40.2930  -48.7990   64.3870 C   0  0  0  0  0
   39.8560  -47.9390   63.4440 C   0  0  0  0  0
   38.7090  -46.9950   63.5290 C   0  0  0  0  0
   39.1110  -45.5010   63.1470 C   0  0  0  0  0
   40.2740  -44.8800   64.1120 C   0  0  0  0  0
   41.4060  -44.4320   63.5920 C   0  0  0  0  0
   42.5670  -43.7870   64.2880 C   0  0  0  0  0
   43.9320  -44.3370   63.8430 C   0  0  0  0  0
   44.1430  -45.7890   64.2740 C   0  0  0  0  0
   44.1980  -45.9760   65.7870 C   0  0  0  0  0
   44.3630  -47.4320   66.2830 C   0  0  0  0  0
   44.1620  -47.5820   67.8310 C   0  0  0  0  0
   42.7820  -47.1900   68.2720 C   0  0  0  0  0
   42.3590  -45.9580   68.5760 C   0  0  0  0  0
   40.9730  -45.6670   68.9870 C   0  0  0  0  0
   40.0010  -46.7620   69.0660 C   0  0  0  0  0
   40.3710  -48.0090   68.7820 C   0  0  0  0  0
   41.7830  -48.2910   68.3730 C   0  0  0  0  0
   40.6640  -51.2890   66.1240 C   0  0  0  0  0
   37.8540  -48.5360   61.7580 C   0  0  0  0  0
   37.9700  -43.6720   62.3560 C   0  0  0  0  0
   39.9400  -44.8150   65.6040 C   0  0  0  0  0
   42.4790  -42.2760   63.9780 C   0  0  0  0  0
   45.4000  -46.4540   62.3080 C   0  0  0  0  0
   43.4520  -48.3420   65.5110 C   0  0  0  0  0
   44.6220  -44.8250   68.9240 C   0  0  0  0  0
   45.8131  -43.7917   64.1638 H   0  0  0  0  0
   39.2022  -49.3548   69.7407 H   0  0  0  0  0
   36.5417  -42.4009   61.6234 H   0  0  0  0  0
   35.9697  -43.6004   62.7875 H   0  0  0  0  0
   39.0958  -48.1706   66.1039 H   0  0  0  0  0
   41.1570  -49.4140   64.1352 H   0  0  0  0  0
   40.4106  -47.9352   62.5057 H   0  0  0  0  0
   38.3969  -47.0402   64.5724 H   0  0  0  0  0
   39.5174  -45.5085   62.1356 H   0  0  0  0  0
   41.5078  -44.5475   62.5129 H   0  0  0  0  0
   42.5037  -43.9996   65.3552 H   0  0  0  0  0
   43.9894  -44.3391   62.7545 H   0  0  0  0  0
   43.2876  -46.3401   63.8832 H   0  0  0  0  0
   43.2409  -45.6267   66.1742 H   0  0  0  0  0
   45.0782  -45.4331   66.1314 H   0  0  0  0  0
   45.3959  -47.7258   66.0961 H   0  0  0  0  0
   44.8738  -46.9229   68.3280 H   0  0  0  0  0
   44.3127  -48.6301   68.0897 H   0  0  0  0  0
   38.9717  -46.5543   69.3583 H   0  0  0  0  0
   40.2323  -51.7335   65.2272 H   0  0  0  0  0
   41.6981  -51.0052   65.9287 H   0  0  0  0  0
   40.6319  -52.0106   66.9403 H   0  0  0  0  0
   38.6994  -48.3076   61.1090 H   0  0  0  0  0
   38.0863  -49.4110   62.3651 H   0  0  0  0  0
   36.9719  -48.7377   61.1503 H   0  0  0  0  0
   40.6857  -45.3766   66.1667 H   0  0  0  0  0
   39.9435  -43.7752   65.9308 H   0  0  0  0  0
   38.9537  -45.2471   65.7734 H   0  0  0  0  0
   42.5363  -42.1236   62.9002 H   0  0  0  0  0
   41.5331  -41.8842   64.3519 H   0  0  0  0  0
   43.3058  -41.7580   64.4640 H   0  0  0  0  0
   44.6374  -47.1855   62.0409 H   0  0  0  0  0
   45.1811  -45.5043   61.8198 H   0  0  0  0  0
   46.3778  -46.8125   61.9862 H   0  0  0  0  0
   42.4185  -48.0275   65.6558 H   0  0  0  0  0
   43.7033  -48.2921   64.4515 H   0  0  0  0  0
   43.5752  -49.3648   65.8672 H   0  0  0  0  0
   44.6889  -45.0950   69.9779 H   0  0  0  0  0
   45.1717  -45.5517   68.3258 H   0  0  0  0  0
   45.0476  -43.8328   68.7741 H   0  0  0  0  0
 12  1  2  0  0  0
 17  2  1  0  0  0
  2 34  1  0  0  0
 18  3  1  0  0  0
  3 35  1  0  0  0
 35  4  2  0  0  0
 22  5  1  0  0  0
 23  6  1  0  0  0
  6 38  1  0  0  0
 28  7  1  0  0  0
  7 40  1  0  0  0
 29  8  2  0  0  0
 32  9  2  0  0  0
 12 10  1  0  0  0
 10 31  1  0  0  0
 35 11  1  0  0  0
 13 12  1  0  0  0
 14 13  2  0  0  0
 13 33  1  0  0  0
 15 14  1  0  0  0
 16 15  2  0  0  0
 17 16  1  0  0  0
 18 17  1  0  0  0
 19 18  1  0  0  0
 20 19  2  0  0  0
 19 36  1  0  0  0
 21 20  1  0  0  0
 22 21  1  0  0  0
 21 37  1  0  0  0
 23 22  1  0  0  0
 24 23  1  0  0  0
 25 24  1  0  0  0
 26 25  1  0  0  0
 25 39  1  0  0  0
 27 26  1  0  0  0
 28 27  2  0  0  0
 27 32  1  0  0  0
 28 29  1  0  0  0
 29 30  1  0  0  0
 30 31  2  0  0  0
 31 32  1  0  0  0
  5 41  1  0  0  0
 10 42  1  0  0  0
 11 43  1  0  0  0
 11 44  1  0  0  0
 14 45  1  0  0  0
 15 46  1  0  0  0
 16 47  1  0  0  0
 17 48  1  0  0  0
 18 49  1  0  0  0
 20 50  1  0  0  0
 21 51  1  0  0  0
 22 52  1  0  0  0
 23 53  1  0  0  0
 24 54  1  0  0  0
 24 55  1  0  0  0
 25 56  1  0  0  0
 26 57  1  0  0  0
 26 58  1  0  0  0
 30 59  1  0  0  0
 33 60  1  0  0  0
 33 61  1  0  0  0
 33 62  1  0  0  0
 34 63  1  0  0  0
 34 64  1  0  0  0
 34 65  1  0  0  0
 36 66  1  0  0  0
 36 67  1  0  0  0
 36 68  1  0  0  0
 37 69  1  0  0  0
 37 70  1  0  0  0
 37 71  1  0  0  0
 38 72  1  0  0  0
 38 73  1  0  0  0
 38 74  1  0  0  0
 39 75  1  0  0  0
 39 76  1  0  0  0
 39 77  1  0  0  0
 40 78  1  0  0  0
 40 79  1  0  0  0
 40 80  1  0  0  0
M  END
$$$$
