6coj_ligand
  -I-interpret- 

111115  0  0  0  0  0  0  0  0999 V2000
  -33.1950    0.2270  -30.2700 C   0  0  0  0  0
  -34.2570   -0.5360  -29.6000 C   0  0  0  0  0
  -34.4720   -1.9430  -30.0150 C   0  0  0  0  0
  -34.1700    1.4940  -28.7890 C   0  0  0  0  0
  -33.6910   -2.4730  -30.9850 N   0  0  0  0  0
  -32.4400   -0.3470  -31.2360 N   0  0  0  0  0
  -32.2670    2.5130  -30.1280 C   0  0  0  0  0
  -32.6220   -1.7350  -31.6730 C   0  0  0  0  0
  -32.8530    3.9100  -30.1770 C   0  0  0  0  0
  -31.6310    4.7490  -29.8800 C   0  0  0  0  0
  -30.9000    3.9280  -28.8510 C   0  0  0  0  0
  -31.3680    4.3100  -27.4630 C   0  0  0  0  0
  -21.2140   -0.9550   -8.3710 C   0  0  0  0  0
  -21.8530   -0.1710   -9.4900 C   0  0  0  0  0
  -21.3820   -0.1710  -10.7540 C   0  0  0  0  0
  -19.9720   -0.6520  -11.0650 C   0  0  0  0  0
  -19.2210   -1.0220   -9.7880 C   0  0  0  0  0
  -20.0960   -1.8470   -8.8680 C   0  0  0  0  0
  -22.2530    0.2400  -11.8690 C   0  0  0  0  0
  -17.9320   -1.7800  -10.0680 C   0  0  0  0  0
  -19.1210    0.3180  -11.9120 C   0  0  0  0  0
  -18.8410   -0.3330  -13.2780 C   0  0  0  0  0
  -19.5550   -1.6560  -13.1530 C   0  0  0  0  0
  -24.3880    1.0830  -13.3360 C   0  0  0  0  0
  -23.8910    2.4310  -13.8290 C   0  0  0  0  0
  -25.3400    3.2640  -15.5730 C   0  0  0  0  0
  -25.4240    3.6210  -17.0450 C   0  0  0  0  0
  -26.8500    3.7490  -17.5680 C   0  0  0  0  0
  -26.9150    5.4440  -19.2720 C   0  0  0  0  0
  -26.9970    5.8050  -20.7330 C   0  0  0  0  0
  -28.3970    6.2870  -21.1310 C   0  0  0  0  0
  -28.4540    6.4390  -22.6440 C   0  0  0  0  0
  -29.4260    5.2490  -20.7080 C   0  0  0  0  0
  -28.7310    7.6390  -20.5120 C   0  0  0  0  0
  -35.4380   -2.6910  -29.4300 N   0  0  0  0  0
  -34.8160    0.3020  -28.7030 N   0  0  0  0  0
  -33.2140    1.4440  -29.7340 N   0  0  0  0  0
  -24.2150    2.6520  -15.2180 N   0  0  0  0  0
  -26.8570    4.1520  -18.9680 N   0  0  0  0  0
  -33.4050    4.2200  -31.4590 O   0  0  0  0  0
  -30.7770    4.7730  -31.0100 O   0  0  0  0  0
  -31.2560    2.5740  -29.1210 O   0  0  0  0  0
  -30.9680    5.6520  -27.2020 O   0  0  0  0  0
  -22.8300    0.4780   -9.1780 O   0  0  0  0  0
  -21.8240    0.1630  -13.0140 O   0  0  0  0  0
  -19.6900   -2.5120  -14.0000 O   0  0  0  0  0
  -20.1120   -1.8350  -11.8410 O   0  0  0  0  0
  -28.0810    5.1820  -23.1870 O   0  0  0  0  0
  -29.4290    4.8430  -25.3720 O   0  0  0  0  0
  -26.2270    3.5270  -14.7710 O   0  0  0  0  0
  -26.8870    6.2990  -18.3990 O   0  0  0  0  0
  -26.0330    6.8240  -21.0400 O   0  0  0  0  0
  -27.2820    3.6740  -25.0290 O   0  0  0  0  0
  -27.1590    6.1480  -25.3810 O   0  0  0  0  0
  -29.9280    7.3700  -25.6030 O   0  0  0  0  0
  -31.7130    5.8060  -24.8060 O   0  0  0  0  0
  -29.6920    5.8970  -33.0050 O   0  0  0  0  0
  -32.1240    6.1600  -32.5780 O   0  0  0  0  0
  -30.4630    7.2720  -31.0850 O   0  0  0  0  0
  -27.9410    5.0050  -24.7780 P   0  0  0  0  0
  -30.5110    5.9820  -25.7030 P   0  0  0  0  0
  -30.7560    6.0680  -31.9490 P   0  0  0  0  0
  -23.8230    0.8070  -11.6870 S   0  0  0  0  0
  -34.3948    2.3682  -28.1780 H   0  0  0  0  0
  -31.9273    2.2536  -31.1307 H   0  0  0  0  0
  -32.0084   -2.1871  -32.4523 H   0  0  0  0  0
  -33.6851    4.0642  -29.4900 H   0  0  0  0  0
  -31.8938    5.7658  -29.5883 H   0  0  0  0  0
  -29.8223    4.0849  -28.8966 H   0  0  0  0  0
  -30.9259    3.6407  -26.7249 H   0  0  0  0  0
  -32.4531    4.2275  -27.4013 H   0  0  0  0  0
  -21.9782   -1.5871   -7.9187 H   0  0  0  0  0
  -20.7929   -0.2473   -7.6569 H   0  0  0  0  0
  -21.0559    0.7016  -10.1880 H   0  0  0  0  0
  -18.9597   -0.0814   -9.3032 H   0  0  0  0  0
  -20.5049   -2.7045   -9.4025 H   0  0  0  0  0
  -19.5122   -2.2256   -8.0290 H   0  0  0  0  0
  -18.1628   -2.7023  -10.6011 H   0  0  0  0  0
  -17.2734   -1.1615  -10.6777 H   0  0  0  0  0
  -17.4395   -2.0174   -9.1251 H   0  0  0  0  0
  -18.1805    0.5265  -11.4020 H   0  0  0  0  0
  -19.6589    1.2556  -12.0525 H   0  0  0  0  0
  -17.7778   -0.4371  -13.4947 H   0  0  0  0  0
  -19.1899    0.2659  -14.1192 H   0  0  0  0  0
  -24.0038    0.2967  -13.9858 H   0  0  0  0  0
  -25.4778    1.0724  -13.3509 H   0  0  0  0  0
  -22.8063    2.4533  -13.7244 H   0  0  0  0  0
  -24.3744    3.2092  -13.2384 H   0  0  0  0  0
  -24.9450    2.8158  -17.6021 H   0  0  0  0  0
  -24.9436    4.5912  -17.1716 H   0  0  0  0  0
  -27.3709    4.5068  -16.9828 H   0  0  0  0  0
  -27.3436    2.7812  -17.4797 H   0  0  0  0  0
  -26.7813    4.9019  -21.3040 H   0  0  0  0  0
  -27.7818    7.2269  -22.9837 H   0  0  0  0  0
  -29.4536    6.7254  -22.9711 H   0  0  0  0  0
  -29.2107    4.3027  -21.2042 H   0  0  0  0  0
  -29.3800    5.1129  -19.6275 H   0  0  0  0  0
  -30.4219    5.5904  -20.9904 H   0  0  0  0  0
  -28.6933    7.5590  -19.4256 H   0  0  0  0  0
  -28.0061    8.3802  -20.8484 H   0  0  0  0  0
  -29.7317    7.9413  -20.8208 H   0  0  0  0  0
  -36.0232   -2.2869  -28.6988 H   0  0  0  0  0
  -35.5802   -3.6583  -29.7207 H   0  0  0  0  0
  -23.5691    2.3328  -15.9400 H   0  0  0  0  0
  -26.8178    3.4498  -19.7068 H   0  0  0  0  0
  -33.7635    5.1104  -31.4450 H   0  0  0  0  0
  -26.0916    7.0481  -21.9716 H   0  0  0  0  0
  -27.6114    6.9749  -25.1990 H   0  0  0  0  0
  -32.0524    4.9128  -24.8992 H   0  0  0  0  0
  -28.8311    5.8407  -32.5840 H   0  0  0  0  0
  -29.5879    7.1832  -30.7005 H   0  0  0  0  0
  1  2  4  0  0  0
  1  6  4  0  0  0
 37  1  4  0  0  0
  2  3  4  0  0  0
 36  2  4  0  0  0
  3  5  4  0  0  0
  3 35  1  0  0  0
  4 36  4  0  0  0
 37  4  4  0  0  0
  8  5  4  0  0  0
  6  8  4  0  0  0
  7  9  1  0  0  0
  7 37  1  0  0  0
 42  7  1  0  0  0
 10  9  1  0  0  0
  9 40  1  0  0  0
 11 10  1  0  0  0
 10 41  1  0  0  0
 12 11  1  0  0  0
 11 42  1  0  0  0
 43 12  1  0  0  0
 14 13  1  0  0  0
 13 18  1  0  0  0
 15 14  1  0  0  0
 14 44  2  0  0  0
 15 16  1  0  0  0
 19 15  1  0  0  0
 16 17  1  0  0  0
 16 21  1  0  0  0
 16 47  1  0  0  0
 17 18  1  0  0  0
 17 20  1  0  0  0
 19 45  2  0  0  0
 63 19  1  0  0  0
 21 22  1  0  0  0
 23 22  1  0  0  0
 23 46  2  0  0  0
 47 23  1  0  0  0
 25 24  1  0  0  0
 24 63  1  0  0  0
 38 25  1  0  0  0
 27 26  1  0  0  0
 26 38  1  0  0  0
 26 50  2  0  0  0
 28 27  1  0  0  0
 39 28  1  0  0  0
 30 29  1  0  0  0
 29 39  1  0  0  0
 29 51  2  0  0  0
 31 30  1  0  0  0
 30 52  1  0  0  0
 32 31  1  0  0  0
 31 33  1  0  0  0
 31 34  1  0  0  0
 48 32  1  0  0  0
 41 62  1  0  0  0
 61 43  1  0  0  0
 60 48  1  0  0  0
 49 60  1  0  0  0
 49 61  1  0  0  0
 60 53  2  0  0  0
 60 54  1  0  0  0
 61 55  2  0  0  0
 61 56  1  0  0  0
 62 57  1  0  0  0
 62 58  2  0  0  0
 62 59  1  0  0  0
  4 64  1  0  0  0
  7 65  1  0  0  0
  8 66  1  0  0  0
  9 67  1  0  0  0
 10 68  1  0  0  0
 11 69  1  0  0  0
 12 70  1  0  0  0
 12 71  1  0  0  0
 13 72  1  0  0  0
 13 73  1  0  0  0
 15 74  1  0  0  0
 17 75  1  0  0  0
 18 76  1  0  0  0
 18 77  1  0  0  0
 20 78  1  0  0  0
 20 79  1  0  0  0
 20 80  1  0  0  0
 21 81  1  0  0  0
 21 82  1  0  0  0
 22 83  1  0  0  0
 22 84  1  0  0  0
 24 85  1  0  0  0
 24 86  1  0  0  0
 25 87  1  0  0  0
 25 88  1  0  0  0
 27 89  1  0  0  0
 27 90  1  0  0  0
 28 91  1  0  0  0
 28 92  1  0  0  0
 30 93  1  0  0  0
 32 94  1  0  0  0
 32 95  1  0  0  0
 33 96  1  0  0  0
 33 97  1  0  0  0
 33 98  1  0  0  0
 34 99  1  0  0  0
 34100  1  0  0  0
 34101  1  0  0  0
 35102  1  0  0  0
 35103  1  0  0  0
 38104  1  0  0  0
 39105  1  0  0  0
 40106  1  0  0  0
 52107  1  0  0  0
 54108  1  0  0  0
 56109  1  0  0  0
 57110  1  0  0  0
 59111  1  0  0  0
M  END
$$$$
