### 
### Created by X-TOOL on Wed Jan  1 15:39:35 2020
### 

@<TRIPOS>MOLECULE
6coj_ligand
  107   111     1     0     0
SMALL
GAST_HUCK


@<TRIPOS>ATOM
      1 C4        -33.1950    0.2270  -30.2700 C.ar      1 F8G         0.1613
      2 C5        -34.2570   -0.5360  -29.6000 C.ar      1 F8G         0.1045
      3 C6        -34.4720   -1.9430  -30.0150 C.ar      1 F8G         0.1298
      4 C8        -34.1700    1.4940  -28.7890 C.2       1 F8G         0.1123
      5 N1        -33.6910   -2.4730  -30.9850 N.ar      1 F8G        -0.2698
      6 N3        -32.4400   -0.3470  -31.2360 N.ar      1 F8G        -0.2714
      7 C1'       -32.2670    2.5130  -30.1280 C.3       1 F8G         0.2013
      8 C2        -32.6220   -1.7350  -31.6730 C.ar      1 F8G         0.0533
      9 C2'       -32.8530    3.9100  -30.1770 C.3       1 F8G         0.1432
     10 C3'       -31.6310    4.7490  -29.8800 C.3       1 F8G         0.1487
     11 C4'       -30.9000    3.9280  -28.8510 C.3       1 F8G         0.1235
     12 C5'       -31.3680    4.3100  -27.4630 C.3       1 F8G         0.1131
     13 CAA       -21.2140   -0.9550   -8.3710 C.3       1 F8G         0.0242
     14 CAB       -21.8530   -0.1710   -9.4900 C.2       1 F8G         0.1300
     15 CAC       -21.3820   -0.1710  -10.7540 C.3       1 F8G         0.1490
     16 CAD       -19.9720   -0.6520  -11.0650 C.3       1 F8G         0.1374
     17 CAE       -19.2210   -1.0220   -9.7880 C.3       1 F8G        -0.0033
     18 CAF       -20.0960   -1.8470   -8.8680 C.3       1 F8G        -0.0311
     19 CAG       -22.2530    0.2400  -11.8690 C.2       1 F8G         0.1885
     20 CAI       -17.9320   -1.7800  -10.0680 C.3       1 F8G        -0.0590
     21 CAK       -19.1210    0.3180  -11.9120 C.3       1 F8G         0.0039
     22 CAL       -18.8410   -0.3330  -13.2780 C.3       1 F8G         0.0520
     23 CAM       -19.5550   -1.6560  -13.1530 C.2       1 F8G         0.2347
     24 CAQ       -24.3880    1.0830  -13.3360 C.3       1 F8G         0.0337
     25 CAR       -23.8910    2.4310  -13.8290 C.3       1 F8G         0.0422
     26 CAT       -25.3400    3.2640  -15.5730 C.2       1 F8G         0.1779
     27 CAU       -25.4240    3.6210  -17.0450 C.3       1 F8G         0.0574
     28 CAV       -26.8500    3.7490  -17.5680 C.3       1 F8G         0.0477
     29 CAX       -26.9150    5.4440  -19.2720 C.2       1 F8G         0.2057
     30 CAY       -26.9970    5.8050  -20.7330 C.3       1 F8G         0.1510
     31 CAZ       -28.3970    6.2870  -21.1310 C.3       1 F8G         0.0367
     32 CBA       -28.4540    6.4390  -22.6440 C.3       1 F8G         0.0936
     33 CBM       -29.4260    5.2490  -20.7080 C.3       1 F8G        -0.0528
     34 CBN       -28.7310    7.6390  -20.5120 C.3       1 F8G        -0.0528
     35 N6        -35.4380   -2.6910  -29.4300 N.pl3     1 F8G        -0.3152
     36 N7        -34.8160    0.3020  -28.7030 N.2       1 F8G        -0.2958
     37 N9        -33.2140    1.4440  -29.7340 N.pl3     1 F8G        -0.1919
     38 NAS       -24.2150    2.6520  -15.2180 N.am      1 F8G        -0.2860
     39 NAW       -26.8570    4.1520  -18.9680 N.am      1 F8G        -0.2826
     40 O2'       -33.4050    4.2200  -31.4590 O.3       1 F8G        -0.3832
     41 O3'       -30.7770    4.7730  -31.0100 O.3       1 F8G        -0.2674
     42 O4'       -31.2560    2.5740  -29.1210 O.3       1 F8G        -0.3360
     43 O5'       -30.9680    5.6520  -27.2020 O.3       1 F8G        -0.2476
     44 OAH       -22.8300    0.4780   -9.1780 O.2       1 F8G        -0.3877
     45 OAJ       -21.8240    0.1630  -13.0140 O.2       1 F8G        -0.3752
     46 OAN       -19.6900   -2.5120  -14.0000 O.2       1 F8G        -0.3704
     47 OAO       -20.1120   -1.8350  -11.8410 O.3       1 F8G        -0.2646
     48 OBB       -28.0810    5.1820  -23.1870 O.3       1 F8G        -0.2496
     49 OBD       -29.4290    4.8430  -25.3720 O.3       1 F8G        -0.1319
     50 OBJ       -26.2270    3.5270  -14.7710 O.2       1 F8G        -0.3970
     51 OBK       -26.8870    6.2990  -18.3990 O.2       1 F8G        -0.3942
     52 OBL       -26.0330    6.8240  -21.0400 O.3       1 F8G        -0.3708
     53 OBO       -27.2820    3.6740  -25.0290 O.co2     1 F8G        -0.6127
     54 OBP       -27.1590    6.1480  -25.3810 O.co2     1 F8G        -0.6127
     55 OBQ       -29.9280    7.3700  -25.6030 O.co2     1 F8G        -0.6127
     56 OBR       -31.7130    5.8060  -24.8060 O.co2     1 F8G        -0.6127
     57 OCI       -29.6920    5.8970  -33.0050 O.co2     1 F8G        -0.5537
     58 OCJ       -32.1240    6.1600  -32.5780 O.co2     1 F8G        -0.5537
     59 OCK       -30.4630    7.2720  -31.0850 O.co2     1 F8G        -0.5537
     60 PBC       -27.9410    5.0050  -24.7780 P.3       1 F8G         0.2971
     61 PBE       -30.5110    5.9820  -25.7030 P.3       1 F8G         0.2972
     62 PCH       -30.7560    6.0680  -31.9490 P.3       1 F8G         0.2013
     63 SAP       -23.8230    0.8070  -11.6870 S.3       1 F8G        -0.0453
     64 H1        -34.3946    2.3674  -28.1786 H         1 F8G         0.1349
     65 H2        -31.8342    2.2637  -31.1081 H         1 F8G         0.0996
     66 H3        -32.0118   -2.1846  -32.4480 H         1 F8G         0.0996
     67 H4        -33.6279    4.0442  -29.4079 H         1 F8G         0.0680
     68 H5        -31.8878    5.7609  -29.5334 H         1 F8G         0.0704
     69 H6        -29.8127    4.0721  -28.9351 H         1 F8G         0.0654
     70 H7        -30.9142    3.6370  -26.7206 H         1 F8G         0.0648
     71 H8        -32.4638    4.2324  -27.4069 H         1 F8G         0.0648
     72 H9        -21.9817   -1.5812   -7.8930 H         1 F8G         0.0496
     73 H10       -20.8040   -0.2500   -7.6328 H         1 F8G         0.0496
     74 H11       -21.0204    0.8605  -10.6307 H         1 F8G         0.0798
     75 H12       -18.9599   -0.0869   -9.2709 H         1 F8G         0.0334
     76 H13       -20.5158   -2.7021   -9.4180 H         1 F8G         0.0294
     77 H14       -19.5032   -2.2137   -8.0170 H         1 F8G         0.0294
     78 H15       -17.2936   -1.1834  -10.7363 H         1 F8G         0.0234
     79 H16       -18.1686   -2.7409  -10.5483 H         1 F8G         0.0234
     80 H17       -17.4017   -1.9637   -9.1219 H         1 F8G         0.0234
     81 H18       -18.1703    0.5217  -11.3976 H         1 F8G         0.0325
     82 H19       -19.6689    1.2607  -12.0569 H         1 F8G         0.0325
     83 H20       -17.7621   -0.4757  -13.4382 H         1 F8G         0.0519
     84 H21       -19.2572    0.2687  -14.0994 H         1 F8G         0.0519
     85 H22       -24.0024    0.2889  -13.9922 H         1 F8G         0.0424
     86 H23       -25.4878    1.0705  -13.3525 H         1 F8G         0.0424
     87 H24       -22.7984    2.4724  -13.7083 H         1 F8G         0.0529
     88 H25       -24.3569    3.2237  -13.2253 H         1 F8G         0.0529
     89 H26       -24.9126    2.8362  -17.6217 H         1 F8G         0.0522
     90 H27       -24.9111    4.5819  -17.1984 H         1 F8G         0.0522
     91 H28       -27.3851    4.5041  -16.9734 H         1 F8G         0.0545
     92 H29       -27.3578    2.7781  -17.4704 H         1 F8G         0.0545
     93 H30       -26.7609    4.9069  -21.3226 H         1 F8G         0.0844
     94 H31       -27.7529    7.2194  -22.9747 H         1 F8G         0.0628
     95 H32       -29.4734    6.7033  -22.9617 H         1 F8G         0.0628
     96 H33       -29.3967    5.1279  -19.6151 H         1 F8G         0.0238
     97 H34       -29.1961    4.2872  -21.1897 H         1 F8G         0.0238
     98 H35       -30.4291    5.5815  -21.0133 H         1 F8G         0.0238
     99 H36       -27.9811    8.3806  -20.8245 H         1 F8G         0.0238
    100 H37       -28.7255    7.5517  -19.4155 H         1 F8G         0.0238
    101 H38       -29.7274    7.9606  -20.8493 H         1 F8G         0.0238
    102 H39       -35.5815   -3.6678  -29.7235 H         1 F8G         0.1820
    103 H40       -36.0290   -2.2830  -28.6917 H         1 F8G         0.1820
    104 H41       -23.5817    2.3391  -15.9258 H         1 F8G         0.1851
    105 H42       -26.8186    3.4636  -19.6923 H         1 F8G         0.1853
    106 H43       -32.7550    4.0527  -32.1313 H         1 F8G         0.2101
    107 H44       -25.1664    6.5234  -20.7927 H         1 F8G         0.2133
@<TRIPOS>BOND
     1    1    2 ar 
     2    1    6 ar 
     3   37    1 1  
     4    2    3 ar 
     5   36    2 1  
     6    3    5 ar 
     7    3   35 1  
     8    4   36 2  
     9   37    4 1  
    10    8    5 ar 
    11    6    8 ar 
    12    7    9 1  
    13    7   37 1  
    14   42    7 1  
    15   10    9 1  
    16    9   40 1  
    17   11   10 1  
    18   10   41 1  
    19   12   11 1  
    20   11   42 1  
    21   43   12 1  
    22   14   13 1  
    23   13   18 1  
    24   15   14 1  
    25   14   44 2  
    26   15   16 1  
    27   19   15 1  
    28   16   17 1  
    29   16   21 1  
    30   16   47 1  
    31   17   18 1  
    32   17   20 1  
    33   19   45 2  
    34   63   19 1  
    35   21   22 1  
    36   23   22 1  
    37   23   46 2  
    38   47   23 1  
    39   25   24 1  
    40   24   63 1  
    41   38   25 1  
    42   27   26 1  
    43   26   38 am 
    44   26   50 2  
    45   28   27 1  
    46   39   28 1  
    47   30   29 1  
    48   29   39 am 
    49   29   51 2  
    50   31   30 1  
    51   30   52 1  
    52   32   31 1  
    53   31   33 1  
    54   31   34 1  
    55   48   32 1  
    56   41   62 1  
    57   61   43 1  
    58   60   48 1  
    59   49   60 1  
    60   49   61 1  
    61   60   53 ar 
    62   60   54 ar 
    63   61   55 ar 
    64   61   56 ar 
    65   62   57 ar 
    66   62   58 ar 
    67   62   59 ar 
    68    4   64 1  
    69    7   65 1  
    70    8   66 1  
    71    9   67 1  
    72   10   68 1  
    73   11   69 1  
    74   12   70 1  
    75   12   71 1  
    76   13   72 1  
    77   13   73 1  
    78   15   74 1  
    79   17   75 1  
    80   18   76 1  
    81   18   77 1  
    82   20   78 1  
    83   20   79 1  
    84   20   80 1  
    85   21   81 1  
    86   21   82 1  
    87   22   83 1  
    88   22   84 1  
    89   24   85 1  
    90   24   86 1  
    91   25   87 1  
    92   25   88 1  
    93   27   89 1  
    94   27   90 1  
    95   28   91 1  
    96   28   92 1  
    97   30   93 1  
    98   32   94 1  
    99   32   95 1  
   100   33   96 1  
   101   33   97 1  
   102   33   98 1  
   103   34   99 1  
   104   34  100 1  
   105   34  101 1  
   106   35  102 1  
   107   35  103 1  
   108   38  104 1  
   109   39  105 1  
   110   40  106 1  
   111   52  107 1  
@<TRIPOS>SUBSTRUCTURE
     1 F8G         1

