1l0a_ligand
  -I-interpret- 

294295  0  0  0  0  0  0  0  0999 V2000
  -24.2190   31.9500   36.2950 N   0  3  0  0  0
  -22.8070   31.9770   35.8310 C   0  0  0  0  0
  -22.4070   30.6520   35.1830 C   0  0  0  0  0
  -21.5210   29.9550   35.6890 O   0  0  0  0  0
  -21.8570   32.2710   37.0040 C   0  0  0  0  0
  -21.7320   31.1530   37.8780 O   0  0  0  0  0
  -23.0670   30.2970   34.0830 N   0  0  0  0  0
  -22.7510   29.0680   33.3550 C   0  0  0  0  0
  -23.0640   29.3270   31.8930 C   0  0  0  0  0
  -24.2190   29.4070   31.4980 O   0  0  0  0  0
  -23.5810   27.8500   33.8370 C   0  0  0  0  0
  -23.0900   26.5810   33.1350 C   0  0  0  0  0
  -23.4690   27.6950   35.3560 C   0  0  0  0  0
  -22.0280   29.4530   31.0670 N   0  0  0  0  0
  -22.1560   29.7160   29.6370 C   0  0  0  0  0
  -22.9910   28.7170   28.8630 C   0  0  0  0  0
  -22.7760   27.5100   28.9460 O   0  0  0  0  0
  -20.7080   29.7190   29.1500 C   0  0  0  0  0
  -19.9270   30.0430   30.3600 C   0  0  0  0  0
  -20.6190   29.2580   31.4290 C   0  0  0  0  0
  -23.9320   29.2500   28.0950 N   0  0  0  0  0
  -24.8020   28.4570   27.2400 C   0  0  0  0  0
  -24.1460   28.5100   25.8700 C   0  0  0  0  0
  -23.8560   29.5990   25.3830 O   0  0  0  0  0
  -26.2010   29.1010   27.0750 C   0  0  0  0  0
  -26.9090   29.2180   28.4220 C   0  0  0  0  0
  -27.0310   28.2740   26.1230 C   0  0  0  0  0
  -27.1740   27.8960   29.0670 C   0  0  0  0  0
  -23.9140   27.3550   25.2490 N   0  0  0  0  0
  -23.3140   27.3040   23.9120 C   0  0  0  0  0
  -24.0610   28.2430   22.9620 C   0  0  0  0  0
  -24.7510   29.1620   23.3870 O   0  0  0  0  0
  -23.3890   25.8870   23.3450 C   0  0  0  0  0
  -22.5610   24.8370   24.0680 C   0  0  0  0  0
  -21.1490   24.7570   23.5370 C   0  0  0  0  0
  -20.9290   24.4950   22.3510 O   0  0  0  0  0
  -20.1780   24.9860   24.4100 N   0  0  0  0  0
  -23.9350   27.9950   21.6690 N   0  0  0  0  0
  -24.5840   28.8210   20.6630 C   0  0  0  0  0
  -25.1240   27.8500   19.6270 C   0  0  0  0  0
  -24.3740   27.0710   19.0500 O   0  0  0  0  0
  -23.5510   29.7880   20.0630 C   0  0  0  0  0
  -23.8330   30.3710   18.3700 S   0  0  0  0  0
  -26.4310   27.8790   19.4060 N   0  0  0  0  0
  -27.0580   26.9630   18.4600 C   0  0  0  0  0
  -26.5890   27.1570   17.0220 C   0  0  0  0  0
  -26.3180   26.1850   16.3120 O   0  0  0  0  0
  -28.5920   27.0840   18.5130 C   0  0  0  0  0
  -28.9830   28.4300   18.2130 O   0  0  0  0  0
  -29.1010   26.7070   19.8920 C   0  0  0  0  0
  -26.4870   28.4130   16.5990 N   0  0  0  0  0
  -26.0430   28.7450   15.2460 C   0  0  0  0  0
  -24.6120   28.2470   14.9830 C   0  0  0  0  0
  -23.9760   28.6420   14.0010 O   0  0  0  0  0
  -26.1280   30.2640   15.0410 C   0  0  0  0  0
  -25.8120   30.6840   13.6230 C   0  0  0  0  0
  -26.4190   30.1130   12.7000 O   0  0  0  0  0
  -24.9700   31.5870   13.4320 O   0  0  0  0  0
  -24.1020   27.3900   15.8680 N   0  0  0  0  0
  -22.7680   26.8220   15.6950 C   0  0  0  0  0
  -22.8200   25.9310   14.4490 C   0  0  0  0  0
  -21.8670   25.1850   14.1570 O   0  0  0  0  0
  -22.3740   25.9660   16.9100 C   0  0  0  0  0
  -23.2890   24.7550   17.1790 C   0  0  0  0  0
  -22.7600   23.8980   18.3400 C   0  0  0  0  0
  -23.8450   23.0290   18.9850 C   0  0  0  0  0
  -24.8360   23.8210   19.7760 N   0  3  0  0  0
  -23.9470   26.0230   13.7280 N   0  0  0  0  0
  -24.2060   25.2430   12.5120 C   0  0  0  0  0
  -24.2770   26.0740   11.2100 C   0  0  0  0  0
  -23.7870   25.6310   10.1640 O   0  0  0  0  0
  -25.5130   24.4400   12.6750 C   0  0  0  0  0
  -26.5490   25.3180   13.1310 O   0  0  0  0  0
  -25.3240   23.3130   13.6880 C   0  0  0  0  0
  -24.8760   27.2660   11.2700 N   0  0  0  0  0
  -24.9790   28.1400   10.0910 C   0  0  0  0  0
  -23.8430   29.1690    9.9890 C   0  0  0  0  0
  -23.4260   29.7590   10.9920 O   0  0  0  0  0
  -26.3050   28.8960   10.0930 C   0  0  0  0  0
  -26.1500   30.3320    9.6140 C   0  0  0  0  0
  -25.8470   30.5290    8.4180 O   0  0  0  0  0
  -26.3160   31.2590   10.4380 O   0  0  0  0  0
  -23.3750   29.4080    8.7640 N   0  0  0  0  0
  -22.2850   30.3490    8.5350 C   0  0  0  0  0
  -22.7080   31.7300    8.0390 C   0  0  0  0  0
  -22.1100   32.2740    7.1040 O   0  0  0  0  0
  -21.2500   29.7310    7.5710 C   0  0  0  0  0
  -21.8020   29.1330    6.2660 C   0  0  0  0  0
  -21.9580   30.1620    5.1430 C   0  0  0  0  0
  -23.3400   30.7850    5.1260 C   0  0  0  0  0
  -23.4210   31.8230    4.0740 N   0  3  0  0  0
  -23.7330   32.2990    8.6720 N   0  0  0  0  0
  -24.2190   33.6340    8.3120 C   0  0  0  0  0
  -23.5690   34.6040    9.3040 C   0  0  0  0  0
  -24.1200   34.8910   10.3670 O   0  0  0  0  0
  -25.7430   33.6900    8.4340 C   0  0  0  0  0
  -26.4640   34.3290    7.2550 C   0  0  0  0  0
  -26.4380   33.4680    6.0020 C   0  0  0  0  0
  -26.6170   32.2520    6.0730 O   0  0  0  0  0
  -26.2330   34.0990    4.8440 N   0  0  0  0  0
  -22.3820   35.0880    8.9580 N   0  0  0  0  0
  -21.6410   35.9920    9.8300 C   0  0  0  0  0
  -20.7780   36.9910    9.0530 C   0  0  0  0  0
  -20.2760   36.6850    7.9630 O   0  0  0  0  0
  -20.7470   35.1790   10.7610 C   0  0  0  0  0
  -19.6320   34.4600   10.0390 C   0  0  0  0  0
  -18.5950   33.8970   10.9880 C   0  0  0  0  0
  -17.5680   33.3860   10.5010 O   0  0  0  0  0
  -18.7990   33.9630   12.2230 O   0  0  0  0  0
  -20.6060   38.1860    9.6150 N   0  0  0  0  0
  -19.7980   39.2130    8.9680 C   0  0  0  0  0
  -18.7250   39.7420    9.9110 C   0  0  0  0  0
  -18.9540   39.9220   11.1130 O   0  0  0  0  0
  -20.6810   40.3670    8.4740 C   0  0  0  0  0
  -17.5440   39.9690    9.3510 N   0  0  0  0  0
  -16.4170   40.4960   10.1040 C   0  0  0  0  0
  -16.7840   41.8950   10.5750 C   0  0  0  0  0
  -17.5050   42.6240    9.8900 O   0  0  0  0  0
  -15.1730   40.5530    9.1980 C   0  0  0  0  0
  -15.2970   41.2070    7.7990 C   0  0  0  0  0
  -15.1560   42.7340    7.9100 C   0  0  0  0  0
  -14.2190   40.6470    6.8610 C   0  0  0  0  0
  -16.3140   42.2780   11.7490 N   0  0  0  0  0
  -16.6130   43.6190   12.2160 C   0  0  0  0  0
  -15.6610   44.0980   13.3060 C   0  0  0  0  0
  -15.8340   43.7900   14.4860 O   0  0  0  0  0
  -18.0460   43.7100   12.6980 C   0  0  0  0  0
  -18.4990   45.0950   12.8360 C   0  0  0  0  0
  -18.7640   45.8490   11.7140 C   0  0  0  0  0
  -18.5450   45.6950   14.0750 C   0  0  0  0  0
  -19.0670   47.2020   11.8200 C   0  0  0  0  0
  -18.8460   47.0440   14.1980 C   0  0  0  0  0
  -19.1070   47.8040   13.0650 C   0  0  0  0  0
  -14.6680   44.8770   12.8890 N   0  0  0  0  0
  -13.6320   45.3830   13.7780 C   0  0  0  0  0
  -13.8340   46.8480   14.2030 C   0  0  0  0  0
  -13.6640   47.7470   13.3490 O   0  0  0  0  0
  -12.2740   45.2100   13.0870 C   0  0  0  0  0
  -12.1770   43.9520   12.2110 C   0  0  0  0  0
  -12.2690   42.6710   13.0340 C   0  0  0  0  0
  -12.6410   41.4660   12.1710 C   0  0  0  0  0
  -11.7700   41.3240   10.9770 N   0  3  0  0  0
  -14.1620   47.0870   15.3920 O   0  0  0  0  0
  -24.8320   31.7539   35.5037 H   0  0  0  0  0
  -24.3298   31.2222   37.0010 H   0  0  0  0  0
  -24.4607   32.8555   36.6976 H   0  0  0  0  0
  -22.7266   32.7699   35.0874 H   0  0  0  0  0
  -22.2645   33.1065   37.5732 H   0  0  0  0  0
  -20.8718   32.4993   36.5974 H   0  0  0  0  0
  -21.1332   31.3742   38.5950 H   0  0  0  0  0
  -23.8145   30.8991   33.7377 H   0  0  0  0  0
  -21.7029   28.8214   33.5247 H   0  0  0  0  0
  -24.6290   28.0131   33.5856 H   0  0  0  0  0
  -23.2069   26.6951   32.0573 H   0  0  0  0  0
  -22.0386   26.4195   33.3727 H   0  0  0  0  0
  -23.6763   25.7281   33.4770 H   0  0  0  0  0
  -22.4245   27.5437   35.6285 H   0  0  0  0  0
  -23.8454   28.5959   35.8406 H   0  0  0  0  0
  -24.0576   26.8355   35.6766 H   0  0  0  0  0
  -22.6951   30.6486   29.4701 H   0  0  0  0  0
  -20.5431   30.4368   28.3464 H   0  0  0  0  0
  -20.4165   28.7641   28.7126 H   0  0  0  0  0
  -19.9007   31.1120   30.5715 H   0  0  0  0  0
  -18.8724   29.7853   30.2630 H   0  0  0  0  0
  -20.3183   28.2110   31.4664 H   0  0  0  0  0
  -20.3776   29.5882   32.4393 H   0  0  0  0  0
  -24.0512   30.2630   28.1043 H   0  0  0  0  0
  -24.9286   27.4596   27.6610 H   0  0  0  0  0
  -26.0760   30.1049   26.6692 H   0  0  0  0  0
  -27.8717   29.6985   28.2477 H   0  0  0  0  0
  -26.2587   29.7852   29.0880 H   0  0  0  0  0
  -26.5349   28.2313   25.1534 H   0  0  0  0  0
  -27.1409   27.2652   26.5210 H   0  0  0  0  0
  -28.0143   28.7304   26.0097 H   0  0  0  0  0
  -27.8066   27.2948   28.4139 H   0  0  0  0  0
  -26.2291   27.3796   29.2357 H   0  0  0  0  0
  -27.6790   28.0529   30.0201 H   0  0  0  0  0
  -24.1603   26.4823   25.7160 H   0  0  0  0  0
  -22.2719   27.6112   24.0001 H   0  0  0  0  0
  -22.9961   25.9417   22.3298 H   0  0  0  0  0
  -24.4291   25.5744   23.4374 H   0  0  0  0  0
  -23.0355   23.8676   23.9158 H   0  0  0  0  0
  -22.5116   25.1112   25.1218 H   0  0  0  0  0
  -19.2037   24.9491   24.1104 H   0  0  0  0  0
  -20.4052   25.1991   25.3813 H   0  0  0  0  0
  -23.3670   27.2026   21.3690 H   0  0  0  0  0
  -25.3913   29.4326   21.0659 H   0  0  0  0  0
  -22.6142   29.2319   20.0291 H   0  0  0  0  0
  -23.5857   30.6794   20.6894 H   0  0  0  0  0
  -22.8490   31.1928   18.0161 H   0  0  0  0  0
  -27.0086   28.5543   19.9068 H   0  0  0  0  0
  -26.7483   25.9653   18.7710 H   0  0  0  0  0
  -29.0221   26.4058   17.7760 H   0  0  0  0  0
  -29.9399   28.4993   18.2475 H   0  0  0  0  0
  -28.8160   25.6787   20.1145 H   0  0  0  0  0
  -28.6643   27.3751   20.6343 H   0  0  0  0  0
  -30.1870   26.7973   19.9143 H   0  0  0  0  0
  -26.7263   29.1701   17.2393 H   0  0  0  0  0
  -26.6981   28.2423   14.5345 H   0  0  0  0  0
  -25.3942   30.7306   15.6982 H   0  0  0  0  0
  -27.1499   30.5732   15.2603 H   0  0  0  0  0
  -24.6261   31.8862   14.2769 H   0  0  0  0  0
  -24.6554   27.1256   16.6830 H   0  0  0  0  0
  -22.0320   27.6195   15.5931 H   0  0  0  0  0
  -22.4422   26.6121   17.7852 H   0  0  0  0  0
  -21.3794   25.5694   16.7059 H   0  0  0  0  0
  -23.3200   24.1387   16.2805 H   0  0  0  0  0
  -24.2802   25.1227   17.4444 H   0  0  0  0  0
  -22.3777   24.5742   19.1047 H   0  0  0  0  0
  -21.9954   23.2322   17.9399 H   0  0  0  0  0
  -23.3528   22.3368   19.6681 H   0  0  0  0  0
  -24.3864   22.5257   18.1840 H   0  0  0  0  0
  -25.5295   23.1906   20.1787 H   0  0  0  0  0
  -24.3526   24.3188   20.5236 H   0  0  0  0  0
  -25.2997   24.4920   19.1635 H   0  0  0  0  0
  -24.6667   26.6734   14.0433 H   0  0  0  0  0
  -23.3448   24.5841   12.4013 H   0  0  0  0  0
  -25.7852   24.0057   11.7130 H   0  0  0  0  0
  -27.3647   24.8223   13.2339 H   0  0  0  0  0
  -24.5366   22.6434   13.3419 H   0  0  0  0  0
  -25.0447   23.7364   14.6528 H   0  0  0  0  0
  -26.2563   22.7576   13.7898 H   0  0  0  0  0
  -25.2724   27.5787   12.1563 H   0  0  0  0  0
  -24.9099   27.4733    9.2314 H   0  0  0  0  0
  -26.6803   28.9188   11.1161 H   0  0  0  0  0
  -26.9876   28.3844    9.4145 H   0  0  0  0  0
  -26.5421   30.8880   11.2941 H   0  0  0  0  0
  -23.7888   28.9215    7.9687 H   0  0  0  0  0
  -21.8461   30.5243    9.5172 H   0  0  0  0  0
  -20.7892   28.9042    8.1115 H   0  0  0  0  0
  -20.5887   30.5452    7.2747 H   0  0  0  0  0
  -22.7916   28.7304    6.4822 H   0  0  0  0  0
  -21.0926   28.3793    5.9244 H   0  0  0  0  0
  -21.8037   29.6524    4.1919 H   0  0  0  0  0
  -21.2297   30.9562    5.3069 H   0  0  0  0  0
  -23.5361   31.2437    6.0951 H   0  0  0  0  0
  -24.0779   30.0098    4.9194 H   0  0  0  0  0
  -24.3549   32.2331    4.0739 H   0  0  0  0  0
  -22.7295   32.5492    4.2606 H   0  0  0  0  0
  -23.2343   31.3995    3.1651 H   0  0  0  0  0
  -24.1923   31.7914    9.4282 H   0  0  0  0  0
  -23.9649   33.8891    7.2832 H   0  0  0  0  0
  -25.9650   34.3039    9.3069 H   0  0  0  0  0
  -26.0907   32.6586    8.4920 H   0  0  0  0  0
  -25.9559   35.2653    7.0241 H   0  0  0  0  0
  -27.5069   34.4674    7.5401 H   0  0  0  0  0
  -26.2203   33.5715    3.9711 H   0  0  0  0  0
  -26.0891   35.1087    4.8319 H   0  0  0  0  0
  -21.9784   34.8209    8.0601 H   0  0  0  0  0
  -22.3750   36.5651   10.3964 H   0  0  0  0  0
  -21.3700   34.4242   11.2408 H   0  0  0  0  0
  -20.2898   35.8717   11.4675 H   0  0  0  0  0
  -19.1358   35.1783    9.3864 H   0  0  0  0  0
  -20.0700   33.6281    9.4875 H   0  0  0  0  0
  -19.6433   34.3905   12.3843 H   0  0  0  0  0
  -21.0467   38.3862   10.5128 H   0  0  0  0  0
  -19.3056   38.7556    8.1098 H   0  0  0  0  0
  -21.4074   39.9855    7.7564 H   0  0  0  0  0
  -21.2038   40.8111    9.3211 H   0  0  0  0  0
  -20.0567   41.1211    7.9949 H   0  0  0  0  0
  -17.4223   39.7671    8.3586 H   0  0  0  0  0
  -16.1932   39.8580   10.9590 H   0  0  0  0  0
  -14.9193   39.5114    9.0011 H   0  0  0  0  0
  -14.4589   41.1748    9.7379 H   0  0  0  0  0
  -16.2802   40.9751    7.3896 H   0  0  0  0  0
  -15.9417   43.1241    8.5569 H   0  0  0  0  0
  -14.1813   42.9778    8.3325 H   0  0  0  0  0
  -15.2454   43.1788    6.9189 H   0  0  0  0  0
  -13.2331   40.8630    7.2727 H   0  0  0  0  0
  -14.3462   39.5686    6.7662 H   0  0  0  0  0
  -14.3148   41.1130    5.8803 H   0  0  0  0  0
  -15.7519   41.6433   12.3161 H   0  0  0  0  0
  -16.4741   44.2801   11.3606 H   0  0  0  0  0
  -18.1038   43.2361   13.6779 H   0  0  0  0  0
  -18.6821   43.2180   11.9622 H   0  0  0  0  0
  -18.7358   45.3792   10.7308 H   0  0  0  0  0
  -18.3428   45.1039   14.9682 H   0  0  0  0  0
  -19.2726   47.7873   10.9237 H   0  0  0  0  0
  -18.8776   47.5074   15.1841 H   0  0  0  0  0
  -19.3411   48.8647   13.1559 H   0  0  0  0  0
  -14.6301   45.1317   11.9020 H   0  0  0  0  0
  -13.6822   44.8050   14.7008 H   0  0  0  0  0
  -11.5212   45.1185   13.8700 H   0  0  0  0  0
  -12.1303   46.0712   12.4345 H   0  0  0  0  0
  -11.2111   43.9630   11.7061 H   0  0  0  0  0
  -13.0084   43.9637   11.5062 H   0  0  0  0  0
  -13.0444   42.8040   13.7884 H   0  0  0  0  0
  -11.2940   42.4822   13.4832 H   0  0  0  0  0
  -13.6644   41.6071   11.8233 H   0  0  0  0  0
  -12.5224   40.5696   12.7797 H   0  0  0  0  0
  -12.0619   40.5075   10.4398 H   0  0  0  0  0
  -11.8500   42.1598   10.3979 H   0  0  0  0  0
  -10.8018   41.2074   11.2759 H   0  0  0  0  0
  -14.2384   46.2603   15.8740 H   0  0  0  0  0
  1  2  1  0  0  0
  2  3  1  0  0  0
  2  5  1  0  0  0
  3  4  2  0  0  0
  3  7  1  0  0  0
  5  6  1  0  0  0
  7  8  1  0  0  0
  8  9  1  0  0  0
  8 11  1  0  0  0
  9 10  2  0  0  0
  9 14  1  0  0  0
 11 12  1  0  0  0
 11 13  1  0  0  0
 14 15  1  0  0  0
 14 20  1  0  0  0
 15 16  1  0  0  0
 15 18  1  0  0  0
 16 17  2  0  0  0
 16 21  1  0  0  0
 18 19  1  0  0  0
 19 20  1  0  0  0
 21 22  1  0  0  0
 22 23  1  0  0  0
 22 25  1  0  0  0
 23 24  2  0  0  0
 23 29  1  0  0  0
 25 26  1  0  0  0
 25 27  1  0  0  0
 26 28  1  0  0  0
 29 30  1  0  0  0
 30 31  1  0  0  0
 30 33  1  0  0  0
 31 32  2  0  0  0
 31 38  1  0  0  0
 33 34  1  0  0  0
 34 35  1  0  0  0
 35 36  2  0  0  0
 35 37  1  0  0  0
 38 39  1  0  0  0
 39 40  1  0  0  0
 39 42  1  0  0  0
 40 41  2  0  0  0
 40 44  1  0  0  0
 42 43  1  0  0  0
 44 45  1  0  0  0
 45 46  1  0  0  0
 45 48  1  0  0  0
 46 47  2  0  0  0
 46 51  1  0  0  0
 48 49  1  0  0  0
 48 50  1  0  0  0
 51 52  1  0  0  0
 52 53  1  0  0  0
 52 55  1  0  0  0
 53 54  2  0  0  0
 53 59  1  0  0  0
 55 56  1  0  0  0
 56 57  2  0  0  0
 56 58  1  0  0  0
 59 60  1  0  0  0
 60 61  1  0  0  0
 60 63  1  0  0  0
 61 62  2  0  0  0
 61 68  1  0  0  0
 63 64  1  0  0  0
 64 65  1  0  0  0
 65 66  1  0  0  0
 66 67  1  0  0  0
 68 69  1  0  0  0
 69 70  1  0  0  0
 69 72  1  0  0  0
 70 71  2  0  0  0
 70 75  1  0  0  0
 72 73  1  0  0  0
 72 74  1  0  0  0
 75 76  1  0  0  0
 76 77  1  0  0  0
 76 79  1  0  0  0
 77 78  2  0  0  0
 77 83  1  0  0  0
 79 80  1  0  0  0
 80 81  2  0  0  0
 80 82  1  0  0  0
 83 84  1  0  0  0
 84 85  1  0  0  0
 84 87  1  0  0  0
 85 86  2  0  0  0
 85 92  1  0  0  0
 87 88  1  0  0  0
 88 89  1  0  0  0
 89 90  1  0  0  0
 90 91  1  0  0  0
 92 93  1  0  0  0
 93 94  1  0  0  0
 93 96  1  0  0  0
 94 95  2  0  0  0
 94101  1  0  0  0
 96 97  1  0  0  0
 97 98  1  0  0  0
 98 99  2  0  0  0
 98100  1  0  0  0
101102  1  0  0  0
102103  1  0  0  0
102105  1  0  0  0
103104  2  0  0  0
103110  1  0  0  0
105106  1  0  0  0
106107  1  0  0  0
107108  2  0  0  0
107109  1  0  0  0
110111  1  0  0  0
111112  1  0  0  0
111114  1  0  0  0
112113  2  0  0  0
112115  1  0  0  0
115116  1  0  0  0
116117  1  0  0  0
116119  1  0  0  0
117118  2  0  0  0
117123  1  0  0  0
119120  1  0  0  0
120121  1  0  0  0
120122  1  0  0  0
123124  1  0  0  0
124125  1  0  0  0
124127  1  0  0  0
125126  2  0  0  0
125134  1  0  0  0
127128  1  0  0  0
128129  4  0  0  0
128130  4  0  0  0
129131  4  0  0  0
130132  4  0  0  0
131133  4  0  0  0
132133  4  0  0  0
134135  1  0  0  0
135136  1  0  0  0
135138  1  0  0  0
136137  2  0  0  0
136143  1  0  0  0
138139  1  0  0  0
139140  1  0  0  0
140141  1  0  0  0
141142  1  0  0  0
  1144  1  0  0  0
  1145  1  0  0  0
  1146  1  0  0  0
  2147  1  0  0  0
  5148  1  0  0  0
  5149  1  0  0  0
  6150  1  0  0  0
  7151  1  0  0  0
  8152  1  0  0  0
 11153  1  0  0  0
 12154  1  0  0  0
 12155  1  0  0  0
 12156  1  0  0  0
 13157  1  0  0  0
 13158  1  0  0  0
 13159  1  0  0  0
 15160  1  0  0  0
 18161  1  0  0  0
 18162  1  0  0  0
 19163  1  0  0  0
 19164  1  0  0  0
 20165  1  0  0  0
 20166  1  0  0  0
 21167  1  0  0  0
 22168  1  0  0  0
 25169  1  0  0  0
 26170  1  0  0  0
 26171  1  0  0  0
 27172  1  0  0  0
 27173  1  0  0  0
 27174  1  0  0  0
 28175  1  0  0  0
 28176  1  0  0  0
 28177  1  0  0  0
 29178  1  0  0  0
 30179  1  0  0  0
 33180  1  0  0  0
 33181  1  0  0  0
 34182  1  0  0  0
 34183  1  0  0  0
 37184  1  0  0  0
 37185  1  0  0  0
 38186  1  0  0  0
 39187  1  0  0  0
 42188  1  0  0  0
 42189  1  0  0  0
 43190  1  0  0  0
 44191  1  0  0  0
 45192  1  0  0  0
 48193  1  0  0  0
 49194  1  0  0  0
 50195  1  0  0  0
 50196  1  0  0  0
 50197  1  0  0  0
 51198  1  0  0  0
 52199  1  0  0  0
 55200  1  0  0  0
 55201  1  0  0  0
 58202  1  0  0  0
 59203  1  0  0  0
 60204  1  0  0  0
 63205  1  0  0  0
 63206  1  0  0  0
 64207  1  0  0  0
 64208  1  0  0  0
 65209  1  0  0  0
 65210  1  0  0  0
 66211  1  0  0  0
 66212  1  0  0  0
 67213  1  0  0  0
 67214  1  0  0  0
 67215  1  0  0  0
 68216  1  0  0  0
 69217  1  0  0  0
 72218  1  0  0  0
 73219  1  0  0  0
 74220  1  0  0  0
 74221  1  0  0  0
 74222  1  0  0  0
 75223  1  0  0  0
 76224  1  0  0  0
 79225  1  0  0  0
 79226  1  0  0  0
 82227  1  0  0  0
 83228  1  0  0  0
 84229  1  0  0  0
 87230  1  0  0  0
 87231  1  0  0  0
 88232  1  0  0  0
 88233  1  0  0  0
 89234  1  0  0  0
 89235  1  0  0  0
 90236  1  0  0  0
 90237  1  0  0  0
 91238  1  0  0  0
 91239  1  0  0  0
 91240  1  0  0  0
 92241  1  0  0  0
 93242  1  0  0  0
 96243  1  0  0  0
 96244  1  0  0  0
 97245  1  0  0  0
 97246  1  0  0  0
100247  1  0  0  0
100248  1  0  0  0
101249  1  0  0  0
102250  1  0  0  0
105251  1  0  0  0
105252  1  0  0  0
106253  1  0  0  0
106254  1  0  0  0
109255  1  0  0  0
110256  1  0  0  0
111257  1  0  0  0
114258  1  0  0  0
114259  1  0  0  0
114260  1  0  0  0
115261  1  0  0  0
116262  1  0  0  0
119263  1  0  0  0
119264  1  0  0  0
120265  1  0  0  0
121266  1  0  0  0
121267  1  0  0  0
121268  1  0  0  0
122269  1  0  0  0
122270  1  0  0  0
122271  1  0  0  0
123272  1  0  0  0
124273  1  0  0  0
127274  1  0  0  0
127275  1  0  0  0
129276  1  0  0  0
130277  1  0  0  0
131278  1  0  0  0
132279  1  0  0  0
133280  1  0  0  0
134281  1  0  0  0
135282  1  0  0  0
138283  1  0  0  0
138284  1  0  0  0
139285  1  0  0  0
139286  1  0  0  0
140287  1  0  0  0
140288  1  0  0  0
141289  1  0  0  0
141290  1  0  0  0
142291  1  0  0  0
142292  1  0  0  0
142293  1  0  0  0
143294  1  0  0  0
M  END
$$$$
