### 
### Created by X-TOOL on Mon Sep 10 21:12:49 2018
### 

@<TRIPOS>MOLECULE
1l0a_ligand
  290   291     1     0     0
SMALL
GAST_HUCK


@<TRIPOS>ATOM
      1 N         -24.2190   31.9500   36.2950 N.4       1 SER         0.2396
      2 CA        -22.8070   31.9770   35.8310 C.3       1 SER         0.0885
      3 C         -22.4070   30.6520   35.1830 C.2       1 SER         0.2290
      4 O         -21.5210   29.9550   35.6890 O.2       1 SER        -0.3906
      5 CB        -21.8570   32.2710   37.0040 C.3       1 SER         0.1041
      6 OG        -21.7320   31.1530   37.8780 O.3       1 SER        -0.3870
      7 N         -23.0670   30.2970   34.0830 N.am      1 VAL        -0.2607
      8 CA        -22.7510   29.0680   33.3550 C.3       1 VAL         0.1336
      9 C         -23.0640   29.3270   31.8930 C.2       1 VAL         0.2067
     10 O         -24.2190   29.4070   31.4980 O.2       1 VAL        -0.3942
     11 CB        -23.5810   27.8500   33.8370 C.3       1 VAL        -0.0062
     12 CG1       -23.0900   26.5810   33.1350 C.3       1 VAL        -0.0584
     13 CG2       -23.4690   27.6950   35.3560 C.3       1 VAL        -0.0584
     14 N         -22.0280   29.4530   31.0670 N.am      1 PRO        -0.2498
     15 CA        -22.1560   29.7160   29.6370 C.3       1 PRO         0.1338
     16 C         -22.9910   28.7170   28.8630 C.2       1 PRO         0.2041
     17 O         -22.7760   27.5100   28.9460 O.2       1 PRO        -0.3944
     18 CB        -20.7080   29.7190   29.1500 C.3       1 PRO        -0.0104
     19 CG        -19.9270   30.0430   30.3600 C.3       1 PRO        -0.0281
     20 CD        -20.6190   29.2580   31.4290 C.3       1 PRO         0.0369
     21 N         -23.9320   29.2500   28.0950 N.am      1 ILE        -0.2635
     22 CA        -24.8020   28.4570   27.2400 C.3       1 ILE         0.1335
     23 C         -24.1460   28.5100   25.8700 C.2       1 ILE         0.2042
     24 O         -23.8560   29.5990   25.3830 O.2       1 ILE        -0.3944
     25 CB        -26.2010   29.1010   27.0750 C.3       1 ILE        -0.0037
     26 CG1       -26.9090   29.2180   28.4220 C.3       1 ILE        -0.0491
     27 CG2       -27.0310   28.2740   26.1230 C.3       1 ILE        -0.0582
     28 CD1       -27.1740   27.8960   29.0670 C.3       1 ILE        -0.0648
     29 N         -23.9140   27.3550   25.2490 N.am      1 GLN        -0.2636
     30 CA        -23.3140   27.3040   23.9120 C.3       1 GLN         0.1330
     31 C         -24.0610   28.2430   22.9620 C.2       1 GLN         0.2041
     32 O         -24.7510   29.1620   23.3870 O.2       1 GLN        -0.3944
     33 CB        -23.3890   25.8870   23.3450 C.3       1 GLN         0.0045
     34 CG        -22.5610   24.8370   24.0680 C.3       1 GLN         0.0412
     35 CD        -21.1490   24.7570   23.5370 C.2       1 GLN         0.1737
     36 OE1       -20.9290   24.4950   22.3510 O.2       1 GLN        -0.3973
     37 NE2       -20.1780   24.9860   24.4100 N.am      1 GLN        -0.3009
     38 N         -23.9350   27.9950   21.6690 N.am      1 CYS        -0.2629
     39 CA        -24.5840   28.8210   20.6630 C.3       1 CYS         0.1396
     40 C         -25.1240   27.8500   19.6270 C.2       1 CYS         0.2048
     41 O         -24.3740   27.0710   19.0500 O.2       1 CYS        -0.3944
     42 CB        -23.5510   29.7880   20.0630 C.3       1 CYS         0.0311
     43 SG        -23.8330   30.3710   18.3700 S.3       1 CYS        -0.1735
     44 N         -26.4310   27.8790   19.4060 N.am      1 THR        -0.2613
     45 CA        -27.0580   26.9630   18.4600 C.3       1 THR         0.1565
     46 C         -26.5890   27.1570   17.0220 C.2       1 THR         0.2066
     47 O         -26.3180   26.1850   16.3120 O.2       1 THR        -0.3943
     48 CB        -28.5920   27.0840   18.5130 C.3       1 THR         0.0924
     49 OG1       -28.9830   28.4300   18.2130 O.3       1 THR        -0.3874
     50 CG2       -29.1010   26.7070   19.8920 C.3       1 THR        -0.0346
     51 N         -26.4870   28.4130   16.5990 N.am      1 ASP        -0.2621
     52 CA        -26.0430   28.7450   15.2460 C.3       1 ASP         0.1423
     53 C         -24.6120   28.2470   14.9830 C.2       1 ASP         0.2056
     54 O         -23.9760   28.6420   14.0010 O.2       1 ASP        -0.3943
     55 CB        -26.1280   30.2640   15.0410 C.3       1 ASP         0.0406
     56 CG        -25.8120   30.6840   13.6230 C.2       1 ASP         0.0393
     57 OD1       -26.4190   30.1130   12.7000 O.co2     1 ASP        -0.5688
     58 OD2       -24.9700   31.5870   13.4320 O.co2     1 ASP        -0.5688
     59 N         -24.1020   27.3900   15.8680 N.am      1 LYS        -0.2636
     60 CA        -22.7680   26.8220   15.6950 C.3       1 LYS         0.1310
     61 C         -22.8200   25.9310   14.4490 C.2       1 LYS         0.2040
     62 O         -21.8670   25.1850   14.1570 O.2       1 LYS        -0.3944
     63 CB        -22.3740   25.9660   16.9100 C.3       1 LYS        -0.0122
     64 CG        -23.2890   24.7550   17.1790 C.3       1 LYS        -0.0440
     65 CD        -22.7600   23.8980   18.3400 C.3       1 LYS        -0.0124
     66 CE        -23.8450   23.0290   18.9850 C.3       1 LYS        -0.0354
     67 NZ        -24.8360   23.8210   19.7760 N.4       1 LYS         0.2185
     68 N         -23.9470   26.0230   13.7280 N.am      1 THR        -0.2613
     69 CA        -24.2060   25.2430   12.5120 C.3       1 THR         0.1565
     70 C         -24.2770   26.0740   11.2100 C.2       1 THR         0.2066
     71 O         -23.7870   25.6310   10.1640 O.2       1 THR        -0.3943
     72 CB        -25.5130   24.4400   12.6750 C.3       1 THR         0.0924
     73 OG1       -26.5490   25.3180   13.1310 O.3       1 THR        -0.3874
     74 CG2       -25.3240   23.3130   13.6880 C.3       1 THR        -0.0346
     75 N         -24.8760   27.2660   11.2700 N.am      1 ASP        -0.2621
     76 CA        -24.9790   28.1400   10.0910 C.3       1 ASP         0.1423
     77 C         -23.8430   29.1690    9.9890 C.2       1 ASP         0.2056
     78 O         -23.4260   29.7590   10.9920 O.2       1 ASP        -0.3943
     79 CB        -26.3050   28.8960   10.0930 C.3       1 ASP         0.0406
     80 CG        -26.1500   30.3320    9.6140 C.2       1 ASP         0.0393
     81 OD1       -25.8470   30.5290    8.4180 O.co2     1 ASP        -0.5688
     82 OD2       -26.3160   31.2590   10.4380 O.co2     1 ASP        -0.5688
     83 N         -23.3750   29.4080    8.7640 N.am      1 LYS        -0.2636
     84 CA        -22.2850   30.3490    8.5350 C.3       1 LYS         0.1310
     85 C         -22.7080   31.7300    8.0390 C.2       1 LYS         0.2039
     86 O         -22.1100   32.2740    7.1040 O.2       1 LYS        -0.3944
     87 CB        -21.2500   29.7310    7.5710 C.3       1 LYS        -0.0122
     88 CG        -21.8020   29.1330    6.2660 C.3       1 LYS        -0.0440
     89 CD        -21.9580   30.1620    5.1430 C.3       1 LYS        -0.0124
     90 CE        -23.3400   30.7850    5.1260 C.3       1 LYS        -0.0354
     91 NZ        -23.4210   31.8230    4.0740 N.4       1 LYS         0.2185
     92 N         -23.7330   32.2990    8.6720 N.am      1 GLN        -0.2636
     93 CA        -24.2190   33.6340    8.3120 C.3       1 GLN         0.1330
     94 C         -23.5690   34.6040    9.3040 C.2       1 GLN         0.2040
     95 O         -24.1200   34.8910   10.3670 O.2       1 GLN        -0.3944
     96 CB        -25.7430   33.6900    8.4340 C.3       1 GLN         0.0045
     97 CG        -26.4640   34.3290    7.2550 C.3       1 GLN         0.0412
     98 CD        -26.4380   33.4680    6.0020 C.2       1 GLN         0.1737
     99 OE1       -26.6170   32.2520    6.0730 O.2       1 GLN        -0.3973
    100 NE2       -26.2330   34.0990    4.8440 N.am      1 GLN        -0.3009
    101 N         -22.3820   35.0880    8.9580 N.am      1 GLU        -0.2636
    102 CA        -21.6410   35.9920    9.8300 C.3       1 GLU         0.1325
    103 C         -20.7780   36.9910    9.0530 C.2       1 GLU         0.2040
    104 O         -20.2760   36.6850    7.9630 O.2       1 GLU        -0.3944
    105 CB        -20.7470   35.1790   10.7610 C.3       1 GLU        -0.0008
    106 CG        -19.6320   34.4600   10.0390 C.3       1 GLU         0.0044
    107 CD        -18.5950   33.8970   10.9880 C.2       1 GLU         0.0350
    108 OE1       -17.5680   33.3860   10.5010 O.co2     1 GLU        -0.5690
    109 OE2       -18.7990   33.9630   12.2230 O.co2     1 GLU        -0.5690
    110 N         -20.6060   38.1860    9.6150 N.am      1 ALA        -0.2640
    111 CA        -19.7980   39.2130    8.9680 C.3       1 ALA         0.1282
    112 C         -18.7250   39.7420    9.9110 C.2       1 ALA         0.2036
    113 O         -18.9540   39.9220   11.1130 O.2       1 ALA        -0.3944
    114 CB        -20.6810   40.3670    8.4740 C.3       1 ALA        -0.0244
    115 N         -17.5440   39.9690    9.3510 N.am      1 LEU        -0.2637
    116 CA        -16.4170   40.4960   10.1040 C.3       1 LEU         0.1312
    117 C         -16.7840   41.8950   10.5750 C.2       1 LEU         0.2040
    118 O         -17.5050   42.6240    9.8900 O.2       1 LEU        -0.3944
    119 CB        -15.1730   40.5530    9.1980 C.3       1 LEU        -0.0101
    120 CG        -15.2970   41.2070    7.7990 C.3       1 LEU        -0.0425
    121 CD1       -15.1560   42.7340    7.9100 C.3       1 LEU        -0.0625
    122 CD2       -14.2190   40.6470    6.8610 C.3       1 LEU        -0.0625
    123 N         -16.3140   42.2780   11.7490 N.am      1 PHE        -0.2619
    124 CA        -16.6130   43.6190   12.2160 C.3       1 PHE         0.1404
    125 C         -15.6610   44.0980   13.3060 C.2       1 PHE         0.2054
    126 O         -15.8340   43.7900   14.4860 O.2       1 PHE        -0.3942
    127 CB        -18.0460   43.7100   12.6980 C.3       1 PHE         0.0214
    128 CG        -18.4990   45.0950   12.8360 C.ar      1 PHE        -0.0386
    129 CD1       -18.7640   45.8490   11.7140 C.ar      1 PHE        -0.0601
    130 CD2       -18.5450   45.6950   14.0750 C.ar      1 PHE        -0.0601
    131 CE1       -19.0670   47.2020   11.8200 C.ar      1 PHE        -0.0686
    132 CE2       -18.8460   47.0440   14.1980 C.ar      1 PHE        -0.0686
    133 CZ        -19.1070   47.8040   13.0650 C.ar      1 PHE        -0.0687
    134 N         -14.6680   44.8770   12.8890 N.am      1 LYS        -0.2693
    135 CA        -13.6320   45.3830   13.7780 C.3       1 LYS         0.0944
    136 C         -13.8340   46.8480   14.2030 C.2       1 LYS         0.0601
    137 O         -13.6640   47.7470   13.3490 O.co2     1 LYS        -0.5666
    138 CB        -12.2740   45.2100   13.0870 C.3       1 LYS        -0.0177
    139 CG        -12.1770   43.9520   12.2110 C.3       1 LYS        -0.0446
    140 CD        -12.2690   42.6710   13.0340 C.3       1 LYS        -0.0125
    141 CE        -12.6410   41.4660   12.1710 C.3       1 LYS        -0.0354
    142 NZ        -11.7700   41.3240   10.9770 N.4       1 LYS         0.2185
    143 OXT       -14.1620   47.0870   15.3920 O.co2     1 LYS        -0.5666
    144 H1        -24.4512   32.8358   36.7164 H         1 SER         0.2016
    145 H2        -24.3356   31.2142   36.9740 H         1 SER         0.2016
    146 H3        -24.8277   31.7819   35.5094 H         1 SER         0.2016
    147 H4        -22.7044   32.7777   35.0838 H         1 SER         0.1122
    148 H5        -22.2494   33.1261   37.5740 H         1 SER         0.0640
    149 H6        -20.8639   32.5221   36.6033 H         1 SER         0.0640
    150 H7        -21.3882   30.4112   37.3943 H         1 SER         0.2099
    151 H8        -23.7998   30.8872   33.7445 H         1 VAL         0.1885
    152 H9        -21.6819   28.8398   33.4769 H         1 VAL         0.0803
    153 H10       -24.6369   28.0144   33.5763 H         1 VAL         0.0343
    154 H11       -23.6809   25.7195   33.4794 H         1 VAL         0.0234
    155 H12       -22.0289   26.4169   33.3741 H         1 VAL         0.0234
    156 H13       -23.2074   26.6949   32.0472 H         1 VAL         0.0234
    157 H14       -23.8250   28.6135   35.8455 H         1 VAL         0.0234
    158 H15       -22.4187   27.5170   35.6300 H         1 VAL         0.0234
    159 H16       -24.0829   26.8432   35.6839 H         1 VAL         0.0234
    160 H17       -22.6050   30.7096   29.4915 H         1 PRO         0.0802
    161 H18       -20.5584   30.4819   28.3718 H         1 PRO         0.0313
    162 H19       -20.4259   28.7319   28.7549 H         1 PRO         0.0313
    163 H20       -19.9621   31.1210   30.5760 H         1 PRO         0.0287
    164 H21       -18.8797   29.7247   30.2513 H         1 PRO         0.0287
    165 H22       -20.3379   28.1951   31.3931 H         1 PRO         0.0524
    166 H23       -20.4011   29.6614   32.4289 H         1 PRO         0.0524
    167 H24       -24.0489   30.2431   28.1041 H         1 ILE         0.1883
    168 H25       -24.8916   27.4276   27.6173 H         1 ILE         0.0803
    169 H26       -26.0774   30.1099   26.6546 H         1 ILE         0.0345
    170 H27       -27.8702   29.7303   28.2680 H         1 ILE         0.0267
    171 H28       -26.2789   29.8158   29.0970 H         1 ILE         0.0267
    172 H29       -26.5118   28.1963   25.1564 H         1 ILE         0.0235
    173 H30       -28.0091   28.7554   25.9761 H         1 ILE         0.0235
    174 H31       -27.1768   27.2678   26.5428 H         1 ILE         0.0235
    175 H32       -27.6836   28.0530   30.0291 H         1 ILE         0.0230
    176 H33       -26.2211   27.3738   29.2378 H         1 ILE         0.0230
    177 H34       -27.8124   27.2883   28.4089 H         1 ILE         0.0230
    178 H35       -24.1555   26.4994   25.7068 H         1 GLN         0.1883
    179 H36       -22.2609   27.6142   23.9800 H         1 GLN         0.0801
    180 H37       -23.0480   25.9239   22.2999 H         1 GLN         0.0337
    181 H38       -24.4409   25.5668   23.3765 H         1 GLN         0.0337
    182 H39       -23.0431   23.8565   23.9407 H         1 GLN         0.0504
    183 H40       -22.5231   25.0908   25.1376 H         1 GLN         0.0504
    184 H41       -19.2227   24.9471   24.1169 H         1 GLN         0.1814
    185 H42       -20.4008   25.1977   25.3616 H         1 GLN         0.1814
    186 H43       -23.3782   27.2182   21.3749 H         1 CYS         0.1884
    187 H44       -25.4090   29.3975   21.1067 H         1 CYS         0.0808
    188 H45       -22.5760   29.2790   20.0778 H         1 CYS         0.0422
    189 H46       -23.5121   30.6738   20.7140 H         1 CYS         0.0422
    190 H47       -23.0873   30.9938   18.1018 H         1 CYS         0.1019
    191 H48       -26.9972   28.5411   19.8970 H         1 THR         0.1884
    192 H49       -26.7846   25.9419   18.7641 H         1 THR         0.0826
    193 H50       -29.0318   26.4045   17.7682 H         1 THR         0.0639
    194 H51       -28.5985   29.0199   18.8507 H         1 THR         0.2101
    195 H52       -30.1970   26.7978   19.9157 H         1 THR         0.0257
    196 H53       -28.6610   27.3806   20.6421 H         1 THR         0.0257
    197 H54       -28.8141   25.6694   20.1178 H         1 THR         0.0257
    198 H55       -26.7216   29.1552   17.2267 H         1 ASP         0.1884
    199 H56       -26.7163   28.2541   14.5279 H         1 ASP         0.0819
    200 H57       -25.4116   30.7506   15.7192 H         1 ASP         0.0478
    201 H58       -27.1480   30.5950   15.2862 H         1 ASP         0.0478
    202 H59       -24.6445   27.1308   16.6671 H         1 LYS         0.1883
    203 H60       -22.0316   27.6276   15.5583 H         1 LYS         0.0800
    204 H61       -22.3906   26.6106   17.8012 H         1 LYS         0.0312
    205 H62       -21.3525   25.5920   16.7469 H         1 LYS         0.0312
    206 H63       -23.3390   24.1358   16.2712 H         1 LYS         0.0269
    207 H64       -24.2965   25.1170   17.4318 H         1 LYS         0.0269
    208 H65       -22.3438   24.5665   19.1080 H         1 LYS         0.0317
    209 H66       -21.9659   23.2403   17.9569 H         1 LYS         0.0317
    210 H67       -23.3605   22.3042   19.6558 H         1 LYS         0.0813
    211 H68       -24.3815   22.4909   18.1897 H         1 LYS         0.0813
    212 H69       -25.5219   23.1990   20.1745 H         1 LYS         0.1994
    213 H70       -25.2950   24.4845   19.1717 H         1 LYS         0.1994
    214 H71       -24.3594   24.3134   20.5152 H         1 LYS         0.1994
    215 H72       -24.6526   26.6607   14.0371 H         1 THR         0.1884
    216 H73       -23.3752   24.5308   12.4000 H         1 THR         0.0826
    217 H74       -25.7979   24.0096   11.7036 H         1 THR         0.0639
    218 H75       -26.2985   25.6946   13.9664 H         1 THR         0.2101
    219 H76       -26.2643   22.7517   13.7916 H         1 THR         0.0257
    220 H77       -25.0421   23.7390   14.6622 H         1 THR         0.0257
    221 H78       -24.5296   22.6365   13.3399 H         1 THR         0.0257
    222 H79       -25.2647   27.5725   12.1389 H         1 ASP         0.1884
    223 H80       -24.9407   27.4991    9.1978 H         1 ASP         0.0819
    224 H81       -26.7054   28.9058   11.1175 H         1 ASP         0.0478
    225 H82       -27.0104   28.3754    9.4286 H         1 ASP         0.0478
    226 H83       -23.7807   28.9311    7.9843 H         1 LYS         0.1883
    227 H84       -21.7896   30.5008    9.5053 H         1 LYS         0.0800
    228 H85       -20.7267   28.9286    8.1116 H         1 LYS         0.0312
    229 H86       -20.5323   30.5194    7.3004 H         1 LYS         0.0312
    230 H87       -22.7881   28.6923    6.4743 H         1 LYS         0.0269
    231 H88       -21.1134   28.3461    5.9245 H         1 LYS         0.0269
    232 H89       -21.7823   29.6633    4.1784 H         1 LYS         0.0317
    233 H90       -21.2123   30.9579    5.2855 H         1 LYS         0.0317
    234 H91       -23.5438   31.2435    6.1049 H         1 LYS         0.0813
    235 H92       -24.0879   30.0041    4.9240 H         1 LYS         0.0813
    236 H93       -24.3436   32.2290    4.0730 H         1 LYS         0.1994
    237 H94       -23.2367   31.4056    3.1752 H         1 LYS         0.1994
    238 H95       -22.7380   32.5413    4.2574 H         1 LYS         0.1994
    239 H96       -24.1833   31.8014    9.4134 H         1 GLN         0.1883
    240 H97       -23.9231   33.8847    7.2826 H         1 GLN         0.0801
    241 H98       -25.9913   34.2661    9.3376 H         1 GLN         0.0337
    242 H99       -26.1140   32.6601    8.5422 H         1 GLN         0.0337
    243 H100      -25.9808   35.2909    7.0288 H         1 GLN         0.0504
    244 H101      -27.5125   34.5030    7.5384 H         1 GLN         0.0504
    245 H102      -26.2066   33.5800    3.9896 H         1 GLN         0.1814
    246 H103      -26.1058   35.0908    4.8307 H         1 GLN         0.1814
    247 H104      -21.9864   34.8262    8.0777 H         1 GLU         0.1883
    248 H105      -22.3653   36.5581   10.4341 H         1 GLU         0.0801
    249 H106      -21.3678   34.4319   11.2772 H         1 GLU         0.0330
    250 H107      -20.3018   35.8603   11.5010 H         1 GLU         0.0330
    251 H108      -19.1386   35.1685    9.3574 H         1 GLU         0.0433
    252 H109      -20.0643   33.6323    9.4576 H         1 GLU         0.0433
    253 H110      -21.0381   38.3823   10.4952 H         1 ALA         0.1883
    254 H111      -19.3002   38.7603    8.0978 H         1 ALA         0.0797
    255 H112      -20.0520   41.1288    7.9902 H         1 ALA         0.0277
    256 H113      -21.2092   40.8161    9.3280 H         1 ALA         0.0277
    257 H114      -21.4146   39.9833    7.7497 H         1 ALA         0.0277
    258 H115      -17.4247   39.7710    8.3781 H         1 LEU         0.1883
    259 H116      -16.2107   39.8518   10.9714 H         1 LEU         0.0800
    260 H117      -14.8393   39.5166    9.0417 H         1 LEU         0.0315
    261 H118      -14.3986   41.1088    9.7470 H         1 LEU         0.0315
    262 H119      -16.2878   40.9713    7.3835 H         1 LEU         0.0298
    263 H120      -15.2460   43.1841    6.9104 H         1 LEU         0.0232
    264 H121      -14.1726   42.9814    8.3363 H         1 LEU         0.0232
    265 H122      -15.9485   43.1290    8.5627 H         1 LEU         0.0232
    266 H123      -14.3279   39.5548    6.7880 H         1 LEU         0.0232
    267 H124      -13.2233   40.8903    7.2601 H         1 LEU         0.0232
    268 H125      -14.3332   41.0944    5.8626 H         1 LEU         0.0232
    269 H126      -15.7629   41.6558   12.3050 H         1 PHE         0.1885
    270 H127      -16.5006   44.2980   11.3579 H         1 PHE         0.0823
    271 H128      -18.1222   43.2138   13.6768 H         1 PHE         0.0474
    272 H129      -18.6958   43.1958   11.9746 H         1 PHE         0.0474
    273 H130      -18.7360   45.3818   10.7363 H         1 PHE         0.0557
    274 H131      -18.3440   45.1072   14.9633 H         1 PHE         0.0557
    275 H132      -19.2715   47.7840   10.9287 H         1 PHE         0.0599
    276 H133      -18.8775   47.5049   15.1786 H         1 PHE         0.0599
    277 H134      -19.3398   48.8588   13.1554 H         1 PHE         0.0559
    278 H135      -14.6309   45.1267   11.9214 H         1 LYS         0.1875
    279 H136      -13.6415   44.7696   14.6910 H         1 LYS         0.0726
    280 H137      -11.4957   45.1530   13.8622 H         1 LYS         0.0305
    281 H138      -12.0944   46.0894   12.4511 H         1 LYS         0.0305
    282 H139      -11.2142   43.9635   11.6792 H         1 LYS         0.0269
    283 H140      -12.9994   43.9641   11.4806 H         1 LYS         0.0269
    284 H141      -13.0359   42.8020   13.8117 H         1 LYS         0.0317
    285 H142      -11.2946   42.4819   13.5080 H         1 LYS         0.0317
    286 H143      -13.6820   41.5820   11.8351 H         1 LYS         0.0813
    287 H144      -12.5520   40.5553   12.7815 H         1 LYS         0.0813
    288 H145      -12.0576   40.5173   10.4454 H         1 LYS         0.1994
    289 H146      -10.8128   41.2087   11.2711 H         1 LYS         0.1994
    290 H147      -11.8483   42.1495   10.4039 H         1 LYS         0.1994
@<TRIPOS>BOND
     1    1    2 1  
     2    2    3 1  
     3    2    5 1  
     4    3    4 2  
     5    3    7 am 
     6    5    6 1  
     7    7    8 1  
     8    8    9 1  
     9    8   11 1  
    10    9   10 2  
    11    9   14 am 
    12   11   12 1  
    13   11   13 1  
    14   14   15 1  
    15   14   20 1  
    16   15   16 1  
    17   15   18 1  
    18   16   17 2  
    19   16   21 am 
    20   18   19 1  
    21   19   20 1  
    22   21   22 1  
    23   22   23 1  
    24   22   25 1  
    25   23   24 2  
    26   23   29 am 
    27   25   26 1  
    28   25   27 1  
    29   26   28 1  
    30   29   30 1  
    31   30   31 1  
    32   30   33 1  
    33   31   32 2  
    34   31   38 am 
    35   33   34 1  
    36   34   35 1  
    37   35   36 2  
    38   35   37 am 
    39   38   39 1  
    40   39   40 1  
    41   39   42 1  
    42   40   41 2  
    43   40   44 am 
    44   42   43 1  
    45   44   45 1  
    46   45   46 1  
    47   45   48 1  
    48   46   47 2  
    49   46   51 am 
    50   48   49 1  
    51   48   50 1  
    52   51   52 1  
    53   52   53 1  
    54   52   55 1  
    55   53   54 2  
    56   53   59 am 
    57   55   56 1  
    58   56   57 ar 
    59   56   58 ar 
    60   59   60 1  
    61   60   61 1  
    62   60   63 1  
    63   61   62 2  
    64   61   68 am 
    65   63   64 1  
    66   64   65 1  
    67   65   66 1  
    68   66   67 1  
    69   68   69 1  
    70   69   70 1  
    71   69   72 1  
    72   70   71 2  
    73   70   75 am 
    74   72   73 1  
    75   72   74 1  
    76   75   76 1  
    77   76   77 1  
    78   76   79 1  
    79   77   78 2  
    80   77   83 am 
    81   79   80 1  
    82   80   81 ar 
    83   80   82 ar 
    84   83   84 1  
    85   84   85 1  
    86   84   87 1  
    87   85   86 2  
    88   85   92 am 
    89   87   88 1  
    90   88   89 1  
    91   89   90 1  
    92   90   91 1  
    93   92   93 1  
    94   93   94 1  
    95   93   96 1  
    96   94   95 2  
    97   94  101 am 
    98   96   97 1  
    99   97   98 1  
   100   98   99 2  
   101   98  100 am 
   102  101  102 1  
   103  102  103 1  
   104  102  105 1  
   105  103  104 2  
   106  103  110 am 
   107  105  106 1  
   108  106  107 1  
   109  107  108 ar 
   110  107  109 ar 
   111  110  111 1  
   112  111  112 1  
   113  111  114 1  
   114  112  113 2  
   115  112  115 am 
   116  115  116 1  
   117  116  117 1  
   118  116  119 1  
   119  117  118 2  
   120  117  123 am 
   121  119  120 1  
   122  120  121 1  
   123  120  122 1  
   124  123  124 1  
   125  124  125 1  
   126  124  127 1  
   127  125  126 2  
   128  125  134 am 
   129  127  128 1  
   130  128  129 ar 
   131  128  130 ar 
   132  129  131 ar 
   133  130  132 ar 
   134  131  133 ar 
   135  132  133 ar 
   136  134  135 1  
   137  135  136 1  
   138  135  138 1  
   139  136  137 ar 
   140  136  143 ar 
   141  138  139 1  
   142  139  140 1  
   143  140  141 1  
   144  141  142 1  
   145    1  144 1  
   146    1  145 1  
   147    1  146 1  
   148    2  147 1  
   149    5  148 1  
   150    5  149 1  
   151    6  150 1  
   152    7  151 1  
   153    8  152 1  
   154   11  153 1  
   155   12  154 1  
   156   12  155 1  
   157   12  156 1  
   158   13  157 1  
   159   13  158 1  
   160   13  159 1  
   161   15  160 1  
   162   18  161 1  
   163   18  162 1  
   164   19  163 1  
   165   19  164 1  
   166   20  165 1  
   167   20  166 1  
   168   21  167 1  
   169   22  168 1  
   170   25  169 1  
   171   26  170 1  
   172   26  171 1  
   173   27  172 1  
   174   27  173 1  
   175   27  174 1  
   176   28  175 1  
   177   28  176 1  
   178   28  177 1  
   179   29  178 1  
   180   30  179 1  
   181   33  180 1  
   182   33  181 1  
   183   34  182 1  
   184   34  183 1  
   185   37  184 1  
   186   37  185 1  
   187   38  186 1  
   188   39  187 1  
   189   42  188 1  
   190   42  189 1  
   191   43  190 1  
   192   44  191 1  
   193   45  192 1  
   194   48  193 1  
   195   49  194 1  
   196   50  195 1  
   197   50  196 1  
   198   50  197 1  
   199   51  198 1  
   200   52  199 1  
   201   55  200 1  
   202   55  201 1  
   203   59  202 1  
   204   60  203 1  
   205   63  204 1  
   206   63  205 1  
   207   64  206 1  
   208   64  207 1  
   209   65  208 1  
   210   65  209 1  
   211   66  210 1  
   212   66  211 1  
   213   67  212 1  
   214   67  213 1  
   215   67  214 1  
   216   68  215 1  
   217   69  216 1  
   218   72  217 1  
   219   73  218 1  
   220   74  219 1  
   221   74  220 1  
   222   74  221 1  
   223   75  222 1  
   224   76  223 1  
   225   79  224 1  
   226   79  225 1  
   227   83  226 1  
   228   84  227 1  
   229   87  228 1  
   230   87  229 1  
   231   88  230 1  
   232   88  231 1  
   233   89  232 1  
   234   89  233 1  
   235   90  234 1  
   236   90  235 1  
   237   91  236 1  
   238   91  237 1  
   239   91  238 1  
   240   92  239 1  
   241   93  240 1  
   242   96  241 1  
   243   96  242 1  
   244   97  243 1  
   245   97  244 1  
   246  100  245 1  
   247  100  246 1  
   248  101  247 1  
   249  102  248 1  
   250  105  249 1  
   251  105  250 1  
   252  106  251 1  
   253  106  252 1  
   254  110  253 1  
   255  111  254 1  
   256  114  255 1  
   257  114  256 1  
   258  114  257 1  
   259  115  258 1  
   260  116  259 1  
   261  119  260 1  
   262  119  261 1  
   263  120  262 1  
   264  121  263 1  
   265  121  264 1  
   266  121  265 1  
   267  122  266 1  
   268  122  267 1  
   269  122  268 1  
   270  123  269 1  
   271  124  270 1  
   272  127  271 1  
   273  127  272 1  
   274  129  273 1  
   275  130  274 1  
   276  131  275 1  
   277  132  276 1  
   278  133  277 1  
   279  134  278 1  
   280  135  279 1  
   281  138  280 1  
   282  138  281 1  
   283  139  282 1  
   284  139  283 1  
   285  140  284 1  
   286  140  285 1  
   287  141  286 1  
   288  141  287 1  
   289  142  288 1  
   290  142  289 1  
   291  142  290 1  
@<TRIPOS>SUBSTRUCTURE
     1 SER         1

