6aa4_ligand
  -I-interpret- 

 62 64  0  0  0  0  0  0  0  0999 V2000
   22.5950  -16.2030   18.0380 C   0  0  0  0  0
   23.1840  -15.6210   16.7410 C   0  0  0  0  0
   22.6620  -16.0840   15.4050 C   0  0  0  0  0
   24.2830  -14.5690   16.7870 C   0  0  0  0  0
   24.3320  -13.5820   17.9810 C   0  0  0  0  0
   24.0300  -12.0980   17.7120 C   0  0  0  0  0
   25.0310  -11.1150   17.2530 C   0  0  0  0  0
   26.4290  -11.4510   16.8240 C   0  0  0  0  0
   26.8990  -12.7380   16.5630 O   0  0  0  0  0
   27.2970  -10.3250   16.4180 C   0  0  0  0  0
   28.6320  -10.5780   16.0070 C   0  0  0  0  0
   29.0860  -11.8850   15.9640 O   0  0  0  0  0
   29.5170   -9.5010   15.8070 C   0  0  0  0  0
   30.9270   -9.7410   15.3680 C   0  0  0  0  0
   31.9870   -9.8410   16.4490 C   0  0  0  0  0
   33.2120   -8.8940   16.3180 C   0  0  0  0  0
   33.7420   -8.1640   17.5330 C   0  0  0  0  0
   33.8720   -8.6970   14.9930 C   0  0  0  0  0
   29.0650   -8.1560   16.0220 C   0  0  0  0  0
   29.9370   -7.0980   15.8260 O   0  0  0  0  0
   27.7490   -7.9080   16.4290 C   0  0  0  0  0
   26.8550   -9.0120   16.6290 C   0  0  0  0  0
   25.5450   -8.7600   16.8450 O   0  0  0  0  0
   24.6400   -9.7790   17.0910 C   0  0  0  0  0
   23.2800   -9.3570   17.3650 C   0  0  0  0  0
   22.3330  -10.3040   17.8070 C   0  0  0  0  0
   21.0160   -9.9070   18.0390 O   0  0  0  0  0
   22.7100  -11.6710   17.9790 C   0  0  0  0  0
   21.7180  -12.6240   18.1700 O   0  0  0  0  0
   20.8720  -12.9970   17.1120 C   0  0  0  0  0
   23.3871  -16.6852   18.6109 H   0  0  0  0  0
   22.1554  -15.3992   18.6286 H   0  0  0  0  0
   21.8268  -16.9354   17.7900 H   0  0  0  0  0
   23.6605  -16.0112   17.6403 H   0  0  0  0  0
   22.2464  -15.2337   14.8643 H   0  0  0  0  0
   23.4783  -16.5191   14.8284 H   0  0  0  0  0
   21.8852  -16.8328   15.5596 H   0  0  0  0  0
   24.1074  -13.9423   15.9127 H   0  0  0  0  0
   25.2112  -15.1365   16.8546 H   0  0  0  0  0
   25.3640  -13.6060   18.3310 H   0  0  0  0  0
   23.5485  -13.9155   18.6614 H   0  0  0  0  0
   26.4739  -11.8171   17.8497 H   0  0  0  0  0
   27.8229  -12.6940   16.3059 H   0  0  0  0  0
   29.9997  -11.8956   15.6698 H   0  0  0  0  0
   31.2000   -8.8733   14.7674 H   0  0  0  0  0
   30.9197  -10.7117   14.8722 H   0  0  0  0  0
   32.3838  -10.8543   16.3865 H   0  0  0  0  0
   31.4924   -9.5638   17.3799 H   0  0  0  0  0
   32.5362   -9.7491   16.3328 H   0  0  0  0  0
   32.9590   -7.5254   17.9418 H   0  0  0  0  0
   34.0505   -8.8898   18.2854 H   0  0  0  0  0
   34.5970   -7.5529   17.2438 H   0  0  0  0  0
   34.2412   -9.6548   14.6264 H   0  0  0  0  0
   33.1495   -8.2898   14.2856 H   0  0  0  0  0
   34.7053   -8.0030   15.1032 H   0  0  0  0  0
   29.4832   -6.2724   16.0104 H   0  0  0  0  0
   27.4068   -6.8861   16.5924 H   0  0  0  0  0
   22.9915   -8.3146   17.2302 H   0  0  0  0  0
   20.5022  -10.6628   18.3328 H   0  0  0  0  0
   20.3255  -12.1222   16.7597 H   0  0  0  0  0
   21.4697  -13.4059   16.2974 H   0  0  0  0  0
   20.1668  -13.7513   17.4610 H   0  0  0  0  0
  1  2  1  0  0  0
  2  3  1  0  0  0
  2  4  1  0  0  0
  4  5  1  0  0  0
  5  6  1  0  0  0
  6  7  4  0  0  0
  6 28  4  0  0  0
  7  8  1  0  0  0
  7 24  4  0  0  0
  8  9  1  0  0  0
  8 10  1  0  0  0
 10 11  4  0  0  0
 10 22  4  0  0  0
 11 12  1  0  0  0
 11 13  4  0  0  0
 13 14  1  0  0  0
 13 19  4  0  0  0
 14 15  1  0  0  0
 15 16  1  0  0  0
 16 17  1  0  0  0
 16 18  1  0  0  0
 19 20  1  0  0  0
 19 21  4  0  0  0
 21 22  4  0  0  0
 22 23  1  0  0  0
 23 24  1  0  0  0
 24 25  4  0  0  0
 25 26  4  0  0  0
 26 27  1  0  0  0
 26 28  4  0  0  0
 28 29  1  0  0  0
 29 30  1  0  0  0
  1 31  1  0  0  0
  1 32  1  0  0  0
  1 33  1  0  0  0
  2 34  1  0  0  0
  3 35  1  0  0  0
  3 36  1  0  0  0
  3 37  1  0  0  0
  4 38  1  0  0  0
  4 39  1  0  0  0
  5 40  1  0  0  0
  5 41  1  0  0  0
  8 42  1  0  0  0
  9 43  1  0  0  0
 12 44  1  0  0  0
 14 45  1  0  0  0
 14 46  1  0  0  0
 15 47  1  0  0  0
 15 48  1  0  0  0
 16 49  1  0  0  0
 17 50  1  0  0  0
 17 51  1  0  0  0
 17 52  1  0  0  0
 18 53  1  0  0  0
 18 54  1  0  0  0
 18 55  1  0  0  0
 20 56  1  0  0  0
 21 57  1  0  0  0
 25 58  1  0  0  0
 27 59  1  0  0  0
 30 60  1  0  0  0
 30 61  1  0  0  0
 30 62  1  0  0  0
M  END
$$$$
