4g0c_ligand
  -I-interpret- 

 19 19  0  0  0  0  0  0  0  0999 V2000
   -5.1110    2.1470   16.0550 C   0  0  0  0  0
   -4.5240    4.0650   14.7520 C   0  0  0  0  0
   -5.2850    5.8830   13.3520 C   0  0  0  0  0
   -4.8750    7.1140   12.3920 C   0  0  0  0  0
   -5.0080   -0.5080   16.3480 N   0  0  0  0  0
   -3.5120    3.3460   15.2980 N   0  0  0  0  0
   -3.7950    2.3970   15.9430 N   0  0  0  0  0
   -4.3570    5.1240   13.9490 N   0  0  0  0  0
   -5.5660    0.9360   18.4100 O   0  0  0  0  0
   -7.3140    0.8490   16.6270 O   0  0  0  0  0
   -6.4740    5.6200   13.4870 O   0  0  0  0  0
   -5.8200    0.8340   16.9100 S   0  0  0  0  0
   -5.9820    3.2970   15.2110 S   0  0  0  0  0
   -5.2354    6.9208   11.3816 H   0  0  0  0  0
   -5.3237    8.0327   12.7697 H   0  0  0  0  0
   -3.7899    7.2169   12.3786 H   0  0  0  0  0
   -4.4673   -1.0842   16.9930 H   0  0  0  0  0
   -5.0516   -0.7534   15.3589 H   0  0  0  0  0
   -3.3890    5.3891   13.7670 H   0  0  0  0  0
  1  7  4  0  0  0
  1 12  1  0  0  0
 13  1  4  0  0  0
  2  6  4  0  0  0
  8  2  1  0  0  0
  2 13  4  0  0  0
  3  4  1  0  0  0
  3  8  1  0  0  0
  3 11  2  0  0  0
 12  5  1  0  0  0
  6  7  4  0  0  0
 12  9  2  0  0  0
 12 10  2  0  0  0
  4 14  1  0  0  0
  4 15  1  0  0  0
  4 16  1  0  0  0
  5 17  1  0  0  0
  5 18  1  0  0  0
  8 19  1  0  0  0
M  END
$$$$
