1gca_ligand
  -I-interpret- 

 24 24  0  0  0  0  0  0  0  0999 V2000
   82.5060   28.9040   85.2000 C   0  0  0  0  0
   81.6930   27.9420   86.0690 C   0  0  0  0  0
   81.9450   28.2770   87.5230 C   0  0  0  0  0
   83.4670   28.2860   87.8830 C   0  0  0  0  0
   84.2570   29.1710   86.8750 C   0  0  0  0  0
   85.7920   29.0160   87.0290 C   0  0  0  0  0
   82.3000   28.6130   83.8690 O   0  0  0  0  0
   80.3100   28.0700   85.7670 O   0  0  0  0  0
   81.2830   27.3400   88.2950 O   0  0  0  0  0
   83.9180   26.9610   87.8120 O   0  0  0  0  0
   83.8940   28.7880   85.5160 O   0  0  0  0  0
   86.4570   29.9630   86.2050 O   0  0  0  0  0
   82.1830   29.9264   85.3962 H   0  0  0  0  0
   81.9941   26.9132   85.8715 H   0  0  0  0  0
   81.5754   29.2838   87.7173 H   0  0  0  0  0
   83.6216   28.6972   88.8805 H   0  0  0  0  0
   83.9966   30.2091   87.0816 H   0  0  0  0  0
   86.0842   28.0096   86.7291 H   0  0  0  0  0
   86.0686   29.1868   88.0694 H   0  0  0  0  0
   81.3652   28.6935   83.6660 H   0  0  0  0  0
   80.1642   27.8549   84.8428 H   0  0  0  0  0
   80.3503   27.3411   88.0678 H   0  0  0  0  0
   83.4259   26.4228   88.4363 H   0  0  0  0  0
   87.4064   29.8617   86.3050 H   0  0  0  0  0
  1  2  1  0  0  0
  1  7  1  0  0  0
  1 11  1  0  0  0
  2  3  1  0  0  0
  2  8  1  0  0  0
  3  4  1  0  0  0
  3  9  1  0  0  0
  4  5  1  0  0  0
  4 10  1  0  0  0
  5  6  1  0  0  0
  5 11  1  0  0  0
  6 12  1  0  0  0
  1 13  1  0  0  0
  2 14  1  0  0  0
  3 15  1  0  0  0
  4 16  1  0  0  0
  5 17  1  0  0  0
  6 18  1  0  0  0
  6 19  1  0  0  0
  7 20  1  0  0  0
  8 21  1  0  0  0
  9 22  1  0  0  0
 10 23  1  0  0  0
 12 24  1  0  0  0
M  END
$$$$
