1o35_ligand
  -I-interpret- 

 30 32  0  0  0  0  0  0  0  0999 V2000
   44.3020   -2.8610   26.6630 C   0  0  0  0  0
   44.7860   -1.5240   26.6370 C   0  0  0  0  0
   44.7880   -0.7410   27.7960 C   0  0  0  0  0
   44.3120   -1.2930   28.9670 C   0  0  0  0  0
   43.7690   -2.5260   29.0090 C   0  0  0  0  0
   43.7580   -3.3510   27.8630 C   0  0  0  0  0
   44.3110   -3.6160   25.4790 C   0  0  0  0  0
   44.1310   -4.9040   25.5110 N   0  0  0  0  0
   44.5530   -3.0780   24.3050 N   0  0  0  0  0
   44.1810   -0.7830   30.1530 N   0  0  0  0  0
   43.3780   -2.8400   30.2310 N   0  0  0  0  0
   43.6250   -1.7090   30.8870 C   0  0  0  0  0
   43.3440   -1.5260   32.2390 C   0  0  0  0  0
   42.9840   -2.5940   33.0670 C   0  0  0  0  0
   42.6920   -2.3630   34.4070 C   0  0  0  0  0
   42.3250   -3.3910   35.2510 F   0  0  0  0  0
   42.7420   -1.0770   34.9140 C   0  0  0  0  0
   43.0700   -0.0010   34.0860 C   0  0  0  0  0
   43.3780   -0.2310   32.7640 C   0  0  0  0  0
   43.7070    0.8320   31.9570 O   0  0  0  0  0
   45.1598   -1.1045   25.7030 H   0  0  0  0  0
   45.1580    0.2840   27.7743 H   0  0  0  0  0
   43.3335   -4.3539   27.9083 H   0  0  0  0  0
   44.1808   -5.4475   24.6493 H   0  0  0  0  0
   44.5925   -3.6664   23.4727 H   0  0  0  0  0
   44.7014   -2.0720   24.2259 H   0  0  0  0  0
   42.9324   -3.6051   32.6631 H   0  0  0  0  0
   42.5238   -0.9020   35.9675 H   0  0  0  0  0
   43.0820    1.0138   34.4838 H   0  0  0  0  0
   43.6831    1.6422   32.4714 H   0  0  0  0  0
  1  2  4  0  0  0
  1  6  4  0  0  0
  1  7  1  0  0  0
  2  3  4  0  0  0
  3  4  4  0  0  0
  4  5  4  0  0  0
  4 10  4  0  0  0
  5  6  4  0  0  0
  5 11  4  0  0  0
  7  8  2  0  0  0
  7  9  1  0  0  0
 10 12  4  0  0  0
 11 12  4  0  0  0
 12 13  1  0  0  0
 13 14  4  0  0  0
 13 19  4  0  0  0
 14 15  4  0  0  0
 15 16  1  0  0  0
 15 17  4  0  0  0
 17 18  4  0  0  0
 18 19  4  0  0  0
 19 20  1  0  0  0
  2 21  1  0  0  0
  3 22  1  0  0  0
  6 23  1  0  0  0
  8 24  1  0  0  0
  9 25  1  0  0  0
  9 26  1  0  0  0
 14 27  1  0  0  0
 17 28  1  0  0  0
 18 29  1  0  0  0
 20 30  1  0  0  0
M  END
$$$$
