### 
### Created by X-TOOL on Mon Sep 10 21:12:59 2018
### 

@<TRIPOS>MOLECULE
3eqy_ligand
  195   199     1     0     0
SMALL
GAST_HUCK


@<TRIPOS>ATOM
      1 N         -25.4930   13.3170   16.6030 N.4       1 THR         0.2398
      2 CA        -24.3550   14.2480   16.3790 C.3       1 THR         0.0910
      3 C         -24.1470   14.4520   14.8750 C.2       1 THR         0.2293
      4 O         -24.0660   13.4750   14.0920 O.2       1 THR        -0.3906
      5 CB        -23.0530   13.7260   17.0410 C.3       1 THR         0.1120
      6 OG1       -23.3210   13.4370   18.4210 O.3       1 THR        -0.3840
      7 CG2       -21.9190   14.7680   16.9170 C.3       1 THR        -0.0314
      8 N         -24.0990   15.7230   14.4750 N.am      1 SER        -0.2588
      9 CA        -23.9680   16.0580   13.0730 C.3       1 SER         0.1540
     10 C         -22.5220   16.0120   12.6500 C.2       1 SER         0.2063
     11 O         -21.6010   16.1040   13.4770 O.2       1 SER        -0.3943
     12 CB        -24.4780   17.4790   12.8020 C.3       1 SER         0.0843
     13 OG        -23.6230   18.4250   13.4370 O.3       1 SER        -0.3903
     14 N         -22.3420   15.9040   11.3400 N.am      1 PHE        -0.2619
     15 CA        -21.0050   16.0240   10.7670 C.3       1 PHE         0.1404
     16 C         -20.3030   17.2830   11.2860 C.2       1 PHE         0.2059
     17 O         -19.1370   17.2120   11.7340 O.2       1 PHE        -0.3942
     18 CB        -21.0360   16.0360    9.2450 C.3       1 PHE         0.0214
     19 CG        -19.6910   16.4000    8.6710 C.ar      1 PHE        -0.0386
     20 CD1       -18.6580   15.4500    8.6290 C.ar      1 PHE        -0.0601
     21 CD2       -19.4300   17.7070    8.2440 C.ar      1 PHE        -0.0601
     22 CE1       -17.3910   15.8220    8.1870 C.ar      1 PHE        -0.0686
     23 CE2       -18.1650   18.0570    7.7840 C.ar      1 PHE        -0.0686
     24 CZ        -17.1520   17.1210    7.7560 C.ar      1 PHE        -0.0687
     25 N         -20.9900   18.4310   11.2280 N.am      1 ALA        -0.2639
     26 CA        -20.3300   19.6680   11.6520 C.3       1 ALA         0.1282
     27 C         -19.8390   19.5870   13.1060 C.2       1 ALA         0.2036
     28 O         -18.7830   20.1460   13.4600 O.2       1 ALA        -0.3944
     29 CB        -21.2550   20.8690   11.4390 C.3       1 ALA        -0.0244
     30 N         -20.6240   18.9240   13.9620 N.am      1 GLU        -0.2636
     31 CA        -20.2460   18.8200   15.3680 C.3       1 GLU         0.1325
     32 C         -19.0430   17.8860   15.5340 C.2       1 GLU         0.2041
     33 O         -18.1010   18.2020   16.2630 O.2       1 GLU        -0.3944
     34 CB        -21.4460   18.3680   16.1910 C.3       1 GLU        -0.0008
     35 CG        -22.5450   19.4260   16.2980 C.3       1 GLU         0.0044
     36 CD        -23.8570   18.8820   16.8820 C.2       1 GLU         0.0350
     37 OE1       -24.2540   17.7320   16.6230 O.co2     1 GLU        -0.5690
     38 OE2       -24.5210   19.6420   17.6290 O.co2     1 GLU        -0.5690
     39 N         -19.0030   16.7950   14.7600 N.am      1 TYR        -0.2621
     40 CA        -17.8320   15.9290   14.8190 C.3       1 TYR         0.1390
     41 C         -16.6050   16.7000   14.2890 C.2       1 TYR         0.2058
     42 O         -15.5000   16.6250   14.8610 O.2       1 TYR        -0.3942
     43 CB        -18.0440   14.6830   13.9350 C.3       1 TYR         0.0163
     44 CG        -18.8840   13.5960   14.5230 C.ar      1 TYR        -0.0493
     45 CD1       -18.4840   12.9230   15.6440 C.ar      1 TYR        -0.0685
     46 CD2       -20.0860   13.2340   13.9110 C.ar      1 TYR        -0.0685
     47 CE1       -19.2720   11.8690   16.1770 C.ar      1 TYR        -0.0398
     48 CE2       -20.8930   12.2460   14.4340 C.ar      1 TYR        -0.0398
     49 CZ        -20.4700   11.5400   15.5630 C.ar      1 TYR         0.0805
     50 OH        -21.3190   10.5320   16.0490 O.3       1 TYR        -0.3376
     51 N         -16.7960   17.4010   13.1810 N.am      1 TRP        -0.2625
     52 CA        -15.6670   18.0660   12.4840 C.3       1 TRP         0.1352
     53 C         -15.1060   19.1670   13.3820 C.2       1 TRP         0.2053
     54 O         -13.8870   19.4030   13.4120 O.2       1 TRP        -0.3942
     55 CB        -16.1970   18.6500   11.1760 C.3       1 TRP         0.0042
     56 CG        -15.0830   19.1910   10.3210 C.2       1 TRP        -0.0418
     57 CD1       -14.7740   20.5060   10.1240 C.2       1 TRP         0.0167
     58 CD2       -14.1750   18.4200    9.5170 C.ar      1 TRP        -0.0214
     59 NE1       -13.7020   20.6010    9.2640 N.pl3     1 TRP        -0.2890
     60 CE2       -13.3160   19.3430    8.8770 C.ar      1 TRP         0.0603
     61 CE3       -13.9810   17.0350    9.2950 C.ar      1 TRP        -0.0747
     62 CZ2       -12.2860   18.9420    8.0260 C.ar      1 TRP        -0.0443
     63 CZ3       -12.9630   16.6320    8.4320 C.ar      1 TRP        -0.0792
     64 CH2       -12.1260   17.5820    7.8070 C.ar      1 TRP        -0.0768
     65 N         -15.9680   19.8250   14.1700 N.am      1 ASN        -0.2615
     66 CA        -15.4830   20.9010   15.0060 C.3       1 ASN         0.1476
     67 C         -14.5630   20.4470   16.1280 C.2       1 ASN         0.2063
     68 O         -13.7970   21.2900   16.6990 O.2       1 ASN        -0.3942
     69 CB        -16.6640   21.6410   15.5970 C.3       1 ASN         0.0773
     70 CG        -16.2520   23.0000   16.1930 C.2       1 ASN         0.1780
     71 OD1       -15.7020   23.8390   15.5470 O.2       1 ASN        -0.3970
     72 ND2       -16.4630   23.1680   17.4090 N.am      1 ASN        -0.3007
     73 N         -14.6510   19.1560   16.4970 N.am      1 LEU        -0.2636
     74 CA        -13.7810   18.6340   17.5270 C.3       1 LEU         0.1312
     75 C         -12.3580   18.4070   17.0640 C.2       1 LEU         0.2039
     76 O         -11.4970   18.1170   17.9050 O.2       1 LEU        -0.3944
     77 CB        -14.3550   17.3190   18.0670 C.3       1 LEU        -0.0101
     78 CG        -15.7090   17.5310   18.7600 C.3       1 LEU        -0.0425
     79 CD1       -16.2640   16.1860   19.2110 C.3       1 LEU        -0.0625
     80 CD2       -15.6470   18.5200   19.9460 C.3       1 LEU        -0.0625
     81 N         -12.0930   18.4780   15.7630 N.am      1 LEU        -0.2637
     82 CA        -10.7100   18.2570   15.2680 C.3       1 LEU         0.1312
     83 C          -9.8450   19.4440   15.7120 C.2       1 LEU         0.2040
     84 O         -10.3490   20.6060   15.8320 O.2       1 LEU        -0.3944
     85 CB        -10.7230   18.1440   13.7520 C.3       1 LEU        -0.0101
     86 CG        -11.5380   16.9270   13.2700 C.3       1 LEU        -0.0425
     87 CD1       -11.3660   16.8510   11.7780 C.3       1 LEU        -0.0625
     88 CD2       -11.0550   15.6270   13.8910 C.3       1 LEU        -0.0625
     89 N          -8.5530   19.1810   15.9430 N.am      1 SER        -0.2616
     90 CA         -7.6810   20.2090   16.4890 C.3       1 SER         0.1541
     91 C          -6.2650   19.9180   15.9740 C.2       1 SER         0.2081
     92 O          -5.3630   19.6630   16.7660 O.2       1 SER        -0.3941
     93 CB         -7.7280   20.2130   18.0510 C.3       1 SER         0.0843
     94 OG         -7.5720   18.8920   18.5900 O.3       1 SER        -0.3903
     95 N          -6.0760   19.9900   14.6430 N.am      1 PRO        -0.2555
     96 CA         -4.7240   19.6840   14.0800 C.3       1 PRO         0.0972
     97 C          -3.6580   20.6720   14.4750 C.2       1 PRO         0.0603
     98 O          -3.9050   21.8630   14.7250 O.co2     1 PRO        -0.5666
     99 CB         -4.9140   19.7970   12.5790 C.3       1 PRO        -0.0159
    100 CG         -6.0650   20.8560   12.4760 C.3       1 PRO        -0.0288
    101 CD         -7.0090   20.4780   13.6280 C.3       1 PRO         0.0362
    102 OXT        -2.4740   20.3340   14.5210 O.co2     1 PRO        -0.5666
    103 H1        -26.3206   13.6855   16.1610 H         1 THR         0.2016
    104 H2        -25.6565   13.2181   17.5927 H         1 THR         0.2016
    105 H3        -25.2733   12.4164   16.2071 H         1 THR         0.2016
    106 H4        -24.6060   15.2180   16.8330 H         1 THR         0.1125
    107 H5        -22.7388   12.8015   16.5344 H         1 THR         0.0674
    108 H6        -22.5288   13.1163   18.8358 H         1 THR         0.2102
    109 H7        -21.0077   14.3765   17.3926 H         1 THR         0.0258
    110 H8        -22.2215   15.7003   17.4162 H         1 THR         0.0258
    111 H9        -21.7204   14.9690   15.8539 H         1 THR         0.0258
    112 H10       -24.1543   16.4555   15.1535 H         1 SER         0.1885
    113 H11       -24.5497   15.3382   12.4784 H         1 SER         0.0823
    114 H12       -25.4982   17.5835   13.1998 H         1 SER         0.0606
    115 H13       -24.4865   17.6639   11.7177 H         1 SER         0.0606
    116 H14       -23.9425   19.3033   13.2666 H         1 SER         0.2097
    117 H15       -23.1265   15.7395   10.7420 H         1 PHE         0.1885
    118 H16       -20.4217   15.1482   11.0875 H         1 PHE         0.0823
    119 H17       -21.7802   16.7725    8.9079 H         1 PHE         0.0474
    120 H18       -21.3202   15.0363    8.8848 H         1 PHE         0.0474
    121 H19       -18.8464   14.4288    8.9401 H         1 PHE         0.0557
    122 H20       -20.2182   18.4507    8.2720 H         1 PHE         0.0557
    123 H21       -16.5873   15.0946    8.1792 H         1 PHE         0.0599
    124 H22       -17.9743   19.0692    7.4462 H         1 PHE         0.0599
    125 H23       -16.1678   17.3995    7.3971 H         1 PHE         0.0559
    126 H24       -21.9352   18.4435   10.9016 H         1 ALA         0.1883
    127 H25       -19.4458   19.8094   11.0132 H         1 ALA         0.0797
    128 H26       -20.7435   21.7876   11.7624 H         1 ALA         0.0277
    129 H27       -22.1734   20.7337   12.0290 H         1 ALA         0.0277
    130 H28       -21.5126   20.9488   10.3726 H         1 ALA         0.0277
    131 H29       -21.4698   18.4996   13.6389 H         1 GLU         0.1883
    132 H30       -19.9485   19.8184   15.7211 H         1 GLU         0.0801
    133 H31       -21.0997   18.1218   17.2056 H         1 GLU         0.0330
    134 H32       -21.8722   17.4695   15.7209 H         1 GLU         0.0330
    135 H33       -22.7482   19.8214   15.2918 H         1 GLU         0.0433
    136 H34       -22.1852   20.2390   16.9457 H         1 GLU         0.0433
    137 H35       -19.7651   16.5771   14.1503 H         1 TYR         0.1885
    138 H36       -17.6572   15.6184   15.8597 H         1 TYR         0.0821
    139 H37       -17.0546   14.2585   13.7093 H         1 TYR         0.0453
    140 H38       -18.5240   15.0109   13.0012 H         1 TYR         0.0453
    141 H39       -17.5552   13.1971   16.1311 H         1 TYR         0.0530
    142 H40       -20.3917   13.7418   13.0034 H         1 TYR         0.0530
    143 H41       -18.9399   11.3272   17.0552 H         1 TYR         0.0525
    144 H42       -21.8475   12.0189   13.9732 H         1 TYR         0.0525
    145 H43       -21.4486    9.8760   15.3742 H         1 TYR         0.2458
    146 H44       -17.7196   17.4837   12.8068 H         1 TRP         0.1884
    147 H45       -14.8759   17.3332   12.2669 H         1 TRP         0.0815
    148 H46       -16.8982   19.4654   11.4070 H         1 TRP         0.0397
    149 H47       -16.7232   17.8604   10.6195 H         1 TRP         0.0397
    150 H48       -15.2941   21.3490   10.5764 H         1 TRP         0.0795
    151 H49       -13.2594   21.4797    8.9592 H         1 TRP         0.2216
    152 H50       -14.6115   16.3027    9.7863 H         1 TRP         0.0540
    153 H51       -11.6341   19.6674    7.5529 H         1 TRP         0.0541
    154 H52       -12.8121   15.5762    8.2384 H         1 TRP         0.0510
    155 H53       -11.3413   17.2408    7.1415 H         1 TRP         0.0530
    156 H54       -16.9361   19.5746   14.1797 H         1 ASN         0.1885
    157 H55       -14.9160   21.5937   14.3668 H         1 ASN         0.0826
    158 H56       -17.1081   21.0242   16.3922 H         1 ASN         0.0551
    159 H57       -17.4089   21.8112   14.8057 H         1 ASN         0.0551
    160 H58       -16.2138   24.0328   17.8449 H         1 ASN         0.1814
    161 H59       -16.8816   22.4381   17.9494 H         1 ASN         0.1814
    162 H60       -15.3198   18.5562   16.0577 H         1 LEU         0.1883
    163 H61       -13.7544   19.3676   18.3462 H         1 LEU         0.0800
    164 H62       -13.6466   16.8922   18.7923 H         1 LEU         0.0315
    165 H63       -14.4892   16.6184   17.2297 H         1 LEU         0.0315
    166 H64       -16.3999   17.9545   18.0161 H         1 LEU         0.0298
    167 H65       -17.2339   16.3374   19.7074 H         1 LEU         0.0232
    168 H66       -15.5611   15.7167   19.9150 H         1 LEU         0.0232
    169 H67       -16.3979   15.5326   18.3363 H         1 LEU         0.0232
    170 H68       -15.2442   19.4832   19.5995 H         1 LEU         0.0232
    171 H69       -14.9942   18.1107   20.7310 H         1 LEU         0.0232
    172 H70       -16.6584   18.6702   20.3515 H         1 LEU         0.0232
    173 H71       -12.8274   18.6809   15.1154 H         1 LEU         0.1883
    174 H72       -10.3067   17.3279   15.6972 H         1 LEU         0.0800
    175 H73        -9.6877   18.0420   13.3947 H         1 LEU         0.0315
    176 H74       -11.1677   19.0581   13.3316 H         1 LEU         0.0315
    177 H75       -12.5987   17.0728   13.5221 H         1 LEU         0.0298
    178 H76       -11.9326   15.9932   11.3868 H         1 LEU         0.0232
    179 H77       -10.2998   16.7265   11.5377 H         1 LEU         0.0232
    180 H78       -11.7398   17.7777   11.3181 H         1 LEU         0.0232
    181 H79       -11.1776   15.6746   14.9831 H         1 LEU         0.0232
    182 H80        -9.9929   15.4767   13.6475 H         1 LEU         0.0232
    183 H81       -11.6449   14.7886   13.4921 H         1 LEU         0.0232
    184 H82        -8.1857   18.2735   15.7392 H         1 SER         0.1884
    185 H83        -8.0059   21.1952   16.1260 H         1 SER         0.0823
    186 H84        -8.6967   20.6191   18.3775 H         1 SER         0.0606
    187 H85        -6.9163   20.8510   18.4305 H         1 SER         0.0606
    188 H86        -7.6055   18.9322   19.5385 H         1 SER         0.2097
    189 H87        -4.4122   18.6704   14.3722 H         1 PRO         0.0728
    190 H88        -5.2160   18.8344   12.1406 H         1 PRO         0.0306
    191 H89        -3.9977   20.1532   12.0857 H         1 PRO         0.0306
    192 H90        -6.5798   20.7833   11.5067 H         1 PRO         0.0286
    193 H91        -5.6735   21.8755   12.6077 H         1 PRO         0.0286
    194 H92        -7.5689   21.3535   13.9886 H         1 PRO         0.0524
    195 H93        -7.7149   19.6912   13.3236 H         1 PRO         0.0524
@<TRIPOS>BOND
     1    1    2 1  
     2    2    3 1  
     3    2    5 1  
     4    3    4 2  
     5    3    8 am 
     6    5    6 1  
     7    5    7 1  
     8    8    9 1  
     9    9   10 1  
    10    9   12 1  
    11   10   11 2  
    12   10   14 am 
    13   12   13 1  
    14   14   15 1  
    15   15   16 1  
    16   15   18 1  
    17   16   17 2  
    18   16   25 am 
    19   18   19 1  
    20   19   20 ar 
    21   19   21 ar 
    22   20   22 ar 
    23   21   23 ar 
    24   22   24 ar 
    25   23   24 ar 
    26   25   26 1  
    27   26   27 1  
    28   26   29 1  
    29   27   28 2  
    30   27   30 am 
    31   30   31 1  
    32   31   32 1  
    33   31   34 1  
    34   32   33 2  
    35   32   39 am 
    36   34   35 1  
    37   35   36 1  
    38   36   37 ar 
    39   36   38 ar 
    40   39   40 1  
    41   40   41 1  
    42   40   43 1  
    43   41   42 2  
    44   41   51 am 
    45   43   44 1  
    46   44   45 ar 
    47   44   46 ar 
    48   45   47 ar 
    49   46   48 ar 
    50   47   49 ar 
    51   48   49 ar 
    52   49   50 1  
    53   51   52 1  
    54   52   53 1  
    55   52   55 1  
    56   53   54 2  
    57   53   65 am 
    58   55   56 1  
    59   56   57 2  
    60   56   58 1  
    61   57   59 1  
    62   58   60 ar 
    63   58   61 ar 
    64   59   60 1  
    65   60   62 ar 
    66   61   63 ar 
    67   62   64 ar 
    68   63   64 ar 
    69   65   66 1  
    70   66   67 1  
    71   66   69 1  
    72   67   68 2  
    73   67   73 am 
    74   69   70 1  
    75   70   71 2  
    76   70   72 am 
    77   73   74 1  
    78   74   75 1  
    79   74   77 1  
    80   75   76 2  
    81   75   81 am 
    82   77   78 1  
    83   78   79 1  
    84   78   80 1  
    85   81   82 1  
    86   82   83 1  
    87   82   85 1  
    88   83   84 2  
    89   83   89 am 
    90   85   86 1  
    91   86   87 1  
    92   86   88 1  
    93   89   90 1  
    94   90   91 1  
    95   90   93 1  
    96   91   92 2  
    97   91   95 am 
    98   93   94 1  
    99   95   96 1  
   100   95  101 1  
   101   96   97 1  
   102   96   99 1  
   103   97   98 ar 
   104   97  102 ar 
   105   99  100 1  
   106  100  101 1  
   107    1  103 1  
   108    1  104 1  
   109    1  105 1  
   110    2  106 1  
   111    5  107 1  
   112    6  108 1  
   113    7  109 1  
   114    7  110 1  
   115    7  111 1  
   116    8  112 1  
   117    9  113 1  
   118   12  114 1  
   119   12  115 1  
   120   13  116 1  
   121   14  117 1  
   122   15  118 1  
   123   18  119 1  
   124   18  120 1  
   125   20  121 1  
   126   21  122 1  
   127   22  123 1  
   128   23  124 1  
   129   24  125 1  
   130   25  126 1  
   131   26  127 1  
   132   29  128 1  
   133   29  129 1  
   134   29  130 1  
   135   30  131 1  
   136   31  132 1  
   137   34  133 1  
   138   34  134 1  
   139   35  135 1  
   140   35  136 1  
   141   39  137 1  
   142   40  138 1  
   143   43  139 1  
   144   43  140 1  
   145   45  141 1  
   146   46  142 1  
   147   47  143 1  
   148   48  144 1  
   149   50  145 1  
   150   51  146 1  
   151   52  147 1  
   152   55  148 1  
   153   55  149 1  
   154   57  150 1  
   155   59  151 1  
   156   61  152 1  
   157   62  153 1  
   158   63  154 1  
   159   64  155 1  
   160   65  156 1  
   161   66  157 1  
   162   69  158 1  
   163   69  159 1  
   164   72  160 1  
   165   72  161 1  
   166   73  162 1  
   167   74  163 1  
   168   77  164 1  
   169   77  165 1  
   170   78  166 1  
   171   79  167 1  
   172   79  168 1  
   173   79  169 1  
   174   80  170 1  
   175   80  171 1  
   176   80  172 1  
   177   81  173 1  
   178   82  174 1  
   179   85  175 1  
   180   85  176 1  
   181   86  177 1  
   182   87  178 1  
   183   87  179 1  
   184   87  180 1  
   185   88  181 1  
   186   88  182 1  
   187   88  183 1  
   188   89  184 1  
   189   90  185 1  
   190   93  186 1  
   191   93  187 1  
   192   94  188 1  
   193   96  189 1  
   194   99  190 1  
   195   99  191 1  
   196  100  192 1  
   197  100  193 1  
   198  101  194 1  
   199  101  195 1  
@<TRIPOS>SUBSTRUCTURE
     1 THR         1

