3eqy_ligand
  -I-interpret- 

196200  0  0  0  0  0  0  0  0999 V2000
  -25.4930   13.3170   16.6030 N   0  3  0  0  0
  -24.3550   14.2480   16.3790 C   0  0  0  0  0
  -24.1470   14.4520   14.8750 C   0  0  0  0  0
  -24.0660   13.4750   14.0920 O   0  0  0  0  0
  -23.0530   13.7260   17.0410 C   0  0  0  0  0
  -23.3210   13.4370   18.4210 O   0  0  0  0  0
  -21.9190   14.7680   16.9170 C   0  0  0  0  0
  -24.0990   15.7230   14.4750 N   0  0  0  0  0
  -23.9680   16.0580   13.0730 C   0  0  0  0  0
  -22.5220   16.0120   12.6500 C   0  0  0  0  0
  -21.6010   16.1040   13.4770 O   0  0  0  0  0
  -24.4780   17.4790   12.8020 C   0  0  0  0  0
  -23.6230   18.4250   13.4370 O   0  0  0  0  0
  -22.3420   15.9040   11.3400 N   0  0  0  0  0
  -21.0050   16.0240   10.7670 C   0  0  0  0  0
  -20.3030   17.2830   11.2860 C   0  0  0  0  0
  -19.1370   17.2120   11.7340 O   0  0  0  0  0
  -21.0360   16.0360    9.2450 C   0  0  0  0  0
  -19.6910   16.4000    8.6710 C   0  0  0  0  0
  -18.6580   15.4500    8.6290 C   0  0  0  0  0
  -19.4300   17.7070    8.2440 C   0  0  0  0  0
  -17.3910   15.8220    8.1870 C   0  0  0  0  0
  -18.1650   18.0570    7.7840 C   0  0  0  0  0
  -17.1520   17.1210    7.7560 C   0  0  0  0  0
  -20.9900   18.4310   11.2280 N   0  0  0  0  0
  -20.3300   19.6680   11.6520 C   0  0  0  0  0
  -19.8390   19.5870   13.1060 C   0  0  0  0  0
  -18.7830   20.1460   13.4600 O   0  0  0  0  0
  -21.2550   20.8690   11.4390 C   0  0  0  0  0
  -20.6240   18.9240   13.9620 N   0  0  0  0  0
  -20.2460   18.8200   15.3680 C   0  0  0  0  0
  -19.0430   17.8860   15.5340 C   0  0  0  0  0
  -18.1010   18.2020   16.2630 O   0  0  0  0  0
  -21.4460   18.3680   16.1910 C   0  0  0  0  0
  -22.5450   19.4260   16.2980 C   0  0  0  0  0
  -23.8570   18.8820   16.8820 C   0  0  0  0  0
  -24.2540   17.7320   16.6230 O   0  0  0  0  0
  -24.5210   19.6420   17.6290 O   0  0  0  0  0
  -19.0030   16.7950   14.7600 N   0  0  0  0  0
  -17.8320   15.9290   14.8190 C   0  0  0  0  0
  -16.6050   16.7000   14.2890 C   0  0  0  0  0
  -15.5000   16.6250   14.8610 O   0  0  0  0  0
  -18.0440   14.6830   13.9350 C   0  0  0  0  0
  -18.8840   13.5960   14.5230 C   0  0  0  0  0
  -18.4840   12.9230   15.6440 C   0  0  0  0  0
  -20.0860   13.2340   13.9110 C   0  0  0  0  0
  -19.2720   11.8690   16.1770 C   0  0  0  0  0
  -20.8930   12.2460   14.4340 C   0  0  0  0  0
  -20.4700   11.5400   15.5630 C   0  0  0  0  0
  -21.3190   10.5320   16.0490 O   0  0  0  0  0
  -16.7960   17.4010   13.1810 N   0  0  0  0  0
  -15.6670   18.0660   12.4840 C   0  0  0  0  0
  -15.1060   19.1670   13.3820 C   0  0  0  0  0
  -13.8870   19.4030   13.4120 O   0  0  0  0  0
  -16.1970   18.6500   11.1760 C   0  0  0  0  0
  -15.0830   19.1910   10.3210 C   0  0  0  0  0
  -14.7740   20.5060   10.1240 C   0  0  0  0  0
  -14.1750   18.4200    9.5170 C   0  0  0  0  0
  -13.7020   20.6010    9.2640 N   0  0  0  0  0
  -13.3160   19.3430    8.8770 C   0  0  0  0  0
  -13.9810   17.0350    9.2950 C   0  0  0  0  0
  -12.2860   18.9420    8.0260 C   0  0  0  0  0
  -12.9630   16.6320    8.4320 C   0  0  0  0  0
  -12.1260   17.5820    7.8070 C   0  0  0  0  0
  -15.9680   19.8250   14.1700 N   0  0  0  0  0
  -15.4830   20.9010   15.0060 C   0  0  0  0  0
  -14.5630   20.4470   16.1280 C   0  0  0  0  0
  -13.7970   21.2900   16.6990 O   0  0  0  0  0
  -16.6640   21.6410   15.5970 C   0  0  0  0  0
  -16.2520   23.0000   16.1930 C   0  0  0  0  0
  -15.7020   23.8390   15.5470 O   0  0  0  0  0
  -16.4630   23.1680   17.4090 N   0  0  0  0  0
  -14.6510   19.1560   16.4970 N   0  0  0  0  0
  -13.7810   18.6340   17.5270 C   0  0  0  0  0
  -12.3580   18.4070   17.0640 C   0  0  0  0  0
  -11.4970   18.1170   17.9050 O   0  0  0  0  0
  -14.3550   17.3190   18.0670 C   0  0  0  0  0
  -15.7090   17.5310   18.7600 C   0  0  0  0  0
  -16.2640   16.1860   19.2110 C   0  0  0  0  0
  -15.6470   18.5200   19.9460 C   0  0  0  0  0
  -12.0930   18.4780   15.7630 N   0  0  0  0  0
  -10.7100   18.2570   15.2680 C   0  0  0  0  0
   -9.8450   19.4440   15.7120 C   0  0  0  0  0
  -10.3490   20.6060   15.8320 O   0  0  0  0  0
  -10.7230   18.1440   13.7520 C   0  0  0  0  0
  -11.5380   16.9270   13.2700 C   0  0  0  0  0
  -11.3660   16.8510   11.7780 C   0  0  0  0  0
  -11.0550   15.6270   13.8910 C   0  0  0  0  0
   -8.5530   19.1810   15.9430 N   0  0  0  0  0
   -7.6810   20.2090   16.4890 C   0  0  0  0  0
   -6.2650   19.9180   15.9740 C   0  0  0  0  0
   -5.3630   19.6630   16.7660 O   0  0  0  0  0
   -7.7280   20.2130   18.0510 C   0  0  0  0  0
   -7.5720   18.8920   18.5900 O   0  0  0  0  0
   -6.0760   19.9900   14.6430 N   0  0  0  0  0
   -4.7240   19.6840   14.0800 C   0  0  0  0  0
   -3.6580   20.6720   14.4750 C   0  0  0  0  0
   -3.9050   21.8630   14.7250 O   0  0  0  0  0
   -4.9140   19.7970   12.5790 C   0  0  0  0  0
   -6.0650   20.8560   12.4760 C   0  0  0  0  0
   -7.0090   20.4780   13.6280 C   0  0  0  0  0
   -2.4740   20.3340   14.5210 O   0  0  0  0  0
  -26.3298   13.6909   16.1553 H   0  0  0  0  0
  -25.2695   12.4061   16.2020 H   0  0  0  0  0
  -25.6574   13.2177   17.6048 H   0  0  0  0  0
  -24.5969   15.2033   16.8448 H   0  0  0  0  0
  -22.7258   12.8194   16.5320 H   0  0  0  0  0
  -24.0269   12.7890   18.4798 H   0  0  0  0  0
  -22.2158   15.6878   17.4210 H   0  0  0  0  0
  -21.0137   14.3747   17.3794 H   0  0  0  0  0
  -21.7303   14.9741   15.8634 H   0  0  0  0  0
  -24.1554   16.4701   15.1671 H   0  0  0  0  0
  -24.5554   15.3303   12.5130 H   0  0  0  0  0
  -25.4883   17.5820   13.1981 H   0  0  0  0  0
  -24.4844   17.6619   11.7275 H   0  0  0  0  0
  -23.9458   19.3125   13.2648 H   0  0  0  0  0
  -23.1422   15.7362   10.7301 H   0  0  0  0  0
  -20.4427   15.1452   11.0826 H   0  0  0  0  0
  -21.7641   16.7789    8.9193 H   0  0  0  0  0
  -21.3029   15.0384    8.8962 H   0  0  0  0  0
  -18.8475   14.4232    8.9418 H   0  0  0  0  0
  -20.2225   18.4548    8.2721 H   0  0  0  0  0
  -16.5829   15.0906    8.1791 H   0  0  0  0  0
  -17.9733   19.0748    7.4443 H   0  0  0  0  0
  -16.1623   17.4010    7.3951 H   0  0  0  0  0
  -21.9541   18.4438   10.8951 H   0  0  0  0  0
  -19.4455   19.8035   11.0295 H   0  0  0  0  0
  -21.5096   20.9470   10.3820 H   0  0  0  0  0
  -22.1646   20.7336   12.0241 H   0  0  0  0  0
  -20.7471   21.7785   11.7598 H   0  0  0  0  0
  -21.4867   18.4911   13.6324 H   0  0  0  0  0
  -19.9397   19.7988   15.7370 H   0  0  0  0  0
  -21.0915   18.1603   17.2006 H   0  0  0  0  0
  -21.8756   17.4983   15.6939 H   0  0  0  0  0
  -22.7564   19.7845   15.2906 H   0  0  0  0  0
  -22.1857   20.2078   16.9672 H   0  0  0  0  0
  -24.0651   20.4824   17.7152 H   0  0  0  0  0
  -19.7803   16.5728   14.1381 H   0  0  0  0  0
  -17.6748   15.6202   15.8525 H   0  0  0  0  0
  -17.0561   14.2518   13.7727 H   0  0  0  0  0
  -18.5690   15.0265   13.0436 H   0  0  0  0  0
  -17.5501   13.1986   16.1338 H   0  0  0  0  0
  -20.3934   13.7446   12.9984 H   0  0  0  0  0
  -18.9381   11.3242   17.0601 H   0  0  0  0  0
  -21.8528   12.0177   13.9706 H   0  0  0  0  0
  -22.0907   10.4643   15.4820 H   0  0  0  0  0
  -17.7381   17.4853   12.7993 H   0  0  0  0  0
  -14.8670   17.3583   12.2667 H   0  0  0  0  0
  -16.8774   19.4677   11.4140 H   0  0  0  0  0
  -16.7018   17.8573   10.6238 H   0  0  0  0  0
  -15.2946   21.3498   10.5768 H   0  0  0  0  0
  -14.6150   16.2987    9.7890 H   0  0  0  0  0
  -11.6305   19.6714    7.5503 H   0  0  0  0  0
  -12.8113   15.5703    8.2373 H   0  0  0  0  0
  -11.3369   17.2389    7.1378 H   0  0  0  0  0
  -16.9554   19.5696   14.1799 H   0  0  0  0  0
  -14.8866   21.5481   14.3628 H   0  0  0  0  0
  -17.0837   21.0307   16.3967 H   0  0  0  0  0
  -17.3863   21.8223   14.8010 H   0  0  0  0  0
  -16.1646   24.0308   17.8640 H   0  0  0  0  0
  -16.9342   22.4428   17.9498 H   0  0  0  0  0
  -15.3331   18.5442   16.0490 H   0  0  0  0  0
  -13.7388   19.3927   18.3085 H   0  0  0  0  0
  -13.6553   16.9139   18.7980 H   0  0  0  0  0
  -14.5018   16.6387   17.2281 H   0  0  0  0  0
  -16.3756   17.9867   18.0279 H   0  0  0  0  0
  -16.3962   15.5396   18.3434 H   0  0  0  0  0
  -15.5666   15.7220   19.9085 H   0  0  0  0  0
  -17.2249   16.3374   19.7027 H   0  0  0  0  0
  -14.9516   18.1429   20.6959 H   0  0  0  0  0
  -15.3067   19.4922   19.5893 H   0  0  0  0  0
  -16.6391   18.6200   20.3863 H   0  0  0  0  0
  -12.8421   18.6850   15.1024 H   0  0  0  0  0
  -10.3005   17.3330   15.6762 H   0  0  0  0  0
   -9.6950   18.0224   13.4106 H   0  0  0  0  0
  -11.1842   19.0448   13.3472 H   0  0  0  0  0
  -12.5800   17.0537   13.5638 H   0  0  0  0  0
  -11.7367   17.7698   11.3235 H   0  0  0  0  0
  -10.3092   16.7277   11.5412 H   0  0  0  0  0
  -11.9279   16.0007   11.3916 H   0  0  0  0  0
  -10.0114   15.4631   13.6222 H   0  0  0  0  0
  -11.1470   15.6876   14.9754 H   0  0  0  0  0
  -11.6613   14.8010   13.5193 H   0  0  0  0  0
   -8.1783   18.2554   15.7351 H   0  0  0  0  0
   -8.0057   21.1992   16.1694 H   0  0  0  0  0
   -8.6977   20.5996   18.3645 H   0  0  0  0  0
   -6.9095   20.8325   18.4177 H   0  0  0  0  0
   -7.6058   18.9327   19.5485 H   0  0  0  0  0
   -4.3903   18.7125   14.4445 H   0  0  0  0  0
   -4.8510   22.0128   14.6604 H   0  0  0  0  0
   -5.1564   18.8476   12.1015 H   0  0  0  0  0
   -4.0077   20.0911   12.0497 H   0  0  0  0  0
   -6.5627   20.8374   11.5064 H   0  0  0  0  0
   -5.6981   21.8792   12.5568 H   0  0  0  0  0
   -7.6226   21.3105   13.9723 H   0  0  0  0  0
   -7.7604   19.7411   13.3444 H   0  0  0  0  0
  1  2  1  0  0  0
  2  3  1  0  0  0
  2  5  1  0  0  0
  3  4  2  0  0  0
  3  8  1  0  0  0
  5  6  1  0  0  0
  5  7  1  0  0  0
  8  9  1  0  0  0
  9 10  1  0  0  0
  9 12  1  0  0  0
 10 11  2  0  0  0
 10 14  1  0  0  0
 12 13  1  0  0  0
 14 15  1  0  0  0
 15 16  1  0  0  0
 15 18  1  0  0  0
 16 17  2  0  0  0
 16 25  1  0  0  0
 18 19  1  0  0  0
 19 20  4  0  0  0
 19 21  4  0  0  0
 20 22  4  0  0  0
 21 23  4  0  0  0
 22 24  4  0  0  0
 23 24  4  0  0  0
 25 26  1  0  0  0
 26 27  1  0  0  0
 26 29  1  0  0  0
 27 28  2  0  0  0
 27 30  1  0  0  0
 30 31  1  0  0  0
 31 32  1  0  0  0
 31 34  1  0  0  0
 32 33  2  0  0  0
 32 39  1  0  0  0
 34 35  1  0  0  0
 35 36  1  0  0  0
 36 37  2  0  0  0
 36 38  1  0  0  0
 39 40  1  0  0  0
 40 41  1  0  0  0
 40 43  1  0  0  0
 41 42  2  0  0  0
 41 51  1  0  0  0
 43 44  1  0  0  0
 44 45  4  0  0  0
 44 46  4  0  0  0
 45 47  4  0  0  0
 46 48  4  0  0  0
 47 49  4  0  0  0
 48 49  4  0  0  0
 49 50  1  0  0  0
 51 52  1  0  0  0
 52 53  1  0  0  0
 52 55  1  0  0  0
 53 54  2  0  0  0
 53 65  1  0  0  0
 55 56  1  0  0  0
 56 57  4  0  0  0
 56 58  4  0  0  0
 57 59  4  0  0  0
 58 60  4  0  0  0
 58 61  4  0  0  0
 59 60  4  0  0  0
 60 62  4  0  0  0
 61 63  4  0  0  0
 62 64  4  0  0  0
 63 64  4  0  0  0
 65 66  1  0  0  0
 66 67  1  0  0  0
 66 69  1  0  0  0
 67 68  2  0  0  0
 67 73  1  0  0  0
 69 70  1  0  0  0
 70 71  2  0  0  0
 70 72  1  0  0  0
 73 74  1  0  0  0
 74 75  1  0  0  0
 74 77  1  0  0  0
 75 76  2  0  0  0
 75 81  1  0  0  0
 77 78  1  0  0  0
 78 79  1  0  0  0
 78 80  1  0  0  0
 81 82  1  0  0  0
 82 83  1  0  0  0
 82 85  1  0  0  0
 83 84  2  0  0  0
 83 89  1  0  0  0
 85 86  1  0  0  0
 86 87  1  0  0  0
 86 88  1  0  0  0
 89 90  1  0  0  0
 90 91  1  0  0  0
 90 93  1  0  0  0
 91 92  2  0  0  0
 91 95  1  0  0  0
 93 94  1  0  0  0
 95 96  1  0  0  0
 95101  1  0  0  0
 96 97  1  0  0  0
 96 99  1  0  0  0
 97 98  1  0  0  0
 97102  2  0  0  0
 99100  1  0  0  0
100101  1  0  0  0
  1103  1  0  0  0
  1104  1  0  0  0
  1105  1  0  0  0
  2106  1  0  0  0
  5107  1  0  0  0
  6108  1  0  0  0
  7109  1  0  0  0
  7110  1  0  0  0
  7111  1  0  0  0
  8112  1  0  0  0
  9113  1  0  0  0
 12114  1  0  0  0
 12115  1  0  0  0
 13116  1  0  0  0
 14117  1  0  0  0
 15118  1  0  0  0
 18119  1  0  0  0
 18120  1  0  0  0
 20121  1  0  0  0
 21122  1  0  0  0
 22123  1  0  0  0
 23124  1  0  0  0
 24125  1  0  0  0
 25126  1  0  0  0
 26127  1  0  0  0
 29128  1  0  0  0
 29129  1  0  0  0
 29130  1  0  0  0
 30131  1  0  0  0
 31132  1  0  0  0
 34133  1  0  0  0
 34134  1  0  0  0
 35135  1  0  0  0
 35136  1  0  0  0
 38137  1  0  0  0
 39138  1  0  0  0
 40139  1  0  0  0
 43140  1  0  0  0
 43141  1  0  0  0
 45142  1  0  0  0
 46143  1  0  0  0
 47144  1  0  0  0
 48145  1  0  0  0
 50146  1  0  0  0
 51147  1  0  0  0
 52148  1  0  0  0
 55149  1  0  0  0
 55150  1  0  0  0
 57151  1  0  0  0
 61152  1  0  0  0
 62153  1  0  0  0
 63154  1  0  0  0
 64155  1  0  0  0
 65156  1  0  0  0
 66157  1  0  0  0
 69158  1  0  0  0
 69159  1  0  0  0
 72160  1  0  0  0
 72161  1  0  0  0
 73162  1  0  0  0
 74163  1  0  0  0
 77164  1  0  0  0
 77165  1  0  0  0
 78166  1  0  0  0
 79167  1  0  0  0
 79168  1  0  0  0
 79169  1  0  0  0
 80170  1  0  0  0
 80171  1  0  0  0
 80172  1  0  0  0
 81173  1  0  0  0
 82174  1  0  0  0
 85175  1  0  0  0
 85176  1  0  0  0
 86177  1  0  0  0
 87178  1  0  0  0
 87179  1  0  0  0
 87180  1  0  0  0
 88181  1  0  0  0
 88182  1  0  0  0
 88183  1  0  0  0
 89184  1  0  0  0
 90185  1  0  0  0
 93186  1  0  0  0
 93187  1  0  0  0
 94188  1  0  0  0
 96189  1  0  0  0
 98190  1  0  0  0
 99191  1  0  0  0
 99192  1  0  0  0
100193  1  0  0  0
100194  1  0  0  0
101195  1  0  0  0
101196  1  0  0  0
M  END
$$$$
