5ml5_ligand
  -I-interpret- 

 59 62  0  0  0  0  0  0  0  0999 V2000
   17.8440    7.8970  -24.4510 C   0  0  0  0  0
   18.5070    9.1920  -24.5330 O   0  0  0  0  0
   19.5320    9.2830  -25.4490 C   0  0  0  0  0
   19.3750   10.0510  -26.6430 C   0  0  0  0  0
   20.3870   10.1350  -27.5980 C   0  0  0  0  0
   21.6050    9.4460  -27.3380 C   0  0  0  0  0
   22.6880    9.4550  -28.1930 O   0  0  0  0  0
   23.6350    8.3050  -28.2510 C   0  0  0  0  0
   21.7460    8.7270  -26.1510 C   0  0  0  0  0
   20.7520    8.6120  -25.1680 C   0  0  0  0  0
   21.1100    7.7830  -24.0260 C   0  0  0  0  0
   21.6540    6.4610  -24.6000 C   0  0  0  0  0
   21.8010    5.2760  -23.6200 C   0  0  0  0  0
   22.0350    5.4540  -22.4490 O   0  0  0  0  0
   21.8290    4.1070  -24.2690 N   0  0  0  0  0
   21.9300    2.8750  -23.7200 C   0  0  0  0  0
   22.0530    2.5590  -22.3620 C   0  0  0  0  0
   21.8500    1.8860  -24.6550 N   0  0  0  0  0
   21.9640    0.5350  -24.2360 C   0  0  0  0  0
   22.1170    0.2360  -22.9060 C   0  0  0  0  0
   22.2110    1.2280  -21.9120 C   0  0  0  0  0
   22.2910    0.9040  -20.5680 C   0  0  0  0  0
   21.8280    1.7400  -19.6000 N   0  0  0  0  0
   21.9490    1.1620  -18.4400 C   0  0  0  0  0
   21.4670    1.9360  -16.9310 S   0  0  0  0  0
   21.6990    0.6630  -15.7260 C   0  0  0  0  0
   22.4700   -0.0560  -18.6210 N   0  0  0  0  0
   22.6950   -0.2460  -19.9190 C   0  0  0  0  0
   23.2750   -1.4200  -20.3580 C   0  0  0  0  0
   24.4150   -1.4830  -21.1870 C   0  0  0  0  0
   25.0020   -2.7060  -21.5950 C   0  0  0  0  0
   24.4380   -3.9040  -21.1980 C   0  0  0  0  0
   24.9620   -5.1310  -21.6070 F   0  0  0  0  0
   23.2900   -3.8530  -20.3900 C   0  0  0  0  0
   22.7050   -2.6600  -19.9680 C   0  0  0  0  0
   17.4106    7.6502  -25.4202 H   0  0  0  0  0
   18.5716    7.1348  -24.1722 H   0  0  0  0  0
   17.0557    7.9408  -23.6995 H   0  0  0  0  0
   18.4399   10.5851  -26.8118 H   0  0  0  0  0
   20.2500   10.7096  -28.5140 H   0  0  0  0  0
   24.0886    8.1597  -27.2706 H   0  0  0  0  0
   23.0933    7.4041  -28.5392 H   0  0  0  0  0
   24.4130    8.5133  -28.9854 H   0  0  0  0  0
   22.6944    8.2193  -25.9751 H   0  0  0  0  0
   20.2456    7.6048  -23.3864 H   0  0  0  0  0
   21.8575    8.2760  -23.4045 H   0  0  0  0  0
   22.6618    6.6824  -24.9512 H   0  0  0  0  0
   20.9273    6.1403  -25.3465 H   0  0  0  0  0
   21.7677    4.1490  -25.2863 H   0  0  0  0  0
   22.0261    3.3645  -21.6282 H   0  0  0  0  0
   21.9299   -0.2673  -24.9730 H   0  0  0  0  0
   22.1678   -0.8110  -22.6072 H   0  0  0  0  0
   21.0692   -0.1909  -15.9756 H   0  0  0  0  0
   22.7448    0.3556  -15.7208 H   0  0  0  0  0
   21.4255    1.0423  -14.7414 H   0  0  0  0  0
   24.8635   -0.5500  -21.5283 H   0  0  0  0  0
   25.8952   -2.7024  -22.2197 H   0  0  0  0  0
   22.8341   -4.7925  -20.0776 H   0  0  0  0  0
   21.8135   -2.6794  -19.3411 H   0  0  0  0  0
  1  2  1  0  0  0
  2  3  1  0  0  0
  3  4  4  0  0  0
  3 10  4  0  0  0
  4  5  4  0  0  0
  5  6  4  0  0  0
  6  7  1  0  0  0
  6  9  4  0  0  0
  7  8  1  0  0  0
  9 10  4  0  0  0
 10 11  1  0  0  0
 11 12  1  0  0  0
 12 13  1  0  0  0
 13 14  2  0  0  0
 13 15  1  0  0  0
 15 16  1  0  0  0
 16 17  4  0  0  0
 16 18  4  0  0  0
 17 21  4  0  0  0
 18 19  4  0  0  0
 19 20  4  0  0  0
 20 21  4  0  0  0
 21 22  1  0  0  0
 22 23  4  0  0  0
 22 28  4  0  0  0
 23 24  4  0  0  0
 24 25  1  0  0  0
 24 27  4  0  0  0
 25 26  1  0  0  0
 27 28  4  0  0  0
 28 29  1  0  0  0
 29 30  4  0  0  0
 29 35  4  0  0  0
 30 31  4  0  0  0
 31 32  4  0  0  0
 32 33  1  0  0  0
 32 34  4  0  0  0
 34 35  4  0  0  0
  1 36  1  0  0  0
  1 37  1  0  0  0
  1 38  1  0  0  0
  4 39  1  0  0  0
  5 40  1  0  0  0
  8 41  1  0  0  0
  8 42  1  0  0  0
  8 43  1  0  0  0
  9 44  1  0  0  0
 11 45  1  0  0  0
 11 46  1  0  0  0
 12 47  1  0  0  0
 12 48  1  0  0  0
 15 49  1  0  0  0
 17 50  1  0  0  0
 19 51  1  0  0  0
 20 52  1  0  0  0
 26 53  1  0  0  0
 26 54  1  0  0  0
 26 55  1  0  0  0
 30 56  1  0  0  0
 31 57  1  0  0  0
 34 58  1  0  0  0
 35 59  1  0  0  0
M  END
$$$$
