4c1h_ligand
  -I-interpret- 

 29 29  0  0  0  0  0  0  0  0999 V2000
   13.5050   13.2500   42.0170 O   0  0  0  0  0
   12.9420   13.3410   43.0980 C   0  0  0  0  0
   13.7400   13.2950   44.3750 C   0  0  0  0  0
   14.7720   12.1880   44.3260 C   0  0  0  0  0
   14.0450   10.5750   44.1510 S   0  0  0  0  0
   14.4240   14.6360   44.5380 C   0  0  0  0  0
   11.5330   13.4800   43.1450 N   0  0  0  0  0
   10.8580   13.5360   41.9390 C   0  0  0  0  0
   11.1150   14.8230   41.1850 C   0  0  0  0  0
   10.7820   14.9020   39.9730 O   0  0  0  0  0
   11.6530   15.8120   41.7550 O   0  0  0  0  0
   10.8140   13.5990   44.3030 C   0  0  0  0  0
    9.3610   13.6370   43.8950 C   0  0  0  0  0
    9.3740   13.4140   42.3430 C   0  0  0  0  0
   13.0805   13.0927   45.2189 H   0  0  0  0  0
   15.3243   12.2049   45.2655 H   0  0  0  0  0
   15.4083   12.3631   43.4585 H   0  0  0  0  0
   15.0077    9.6580   44.1154 H   0  0  0  0  0
   14.9979   14.6394   45.4647 H   0  0  0  0  0
   15.0928   14.8062   43.6943 H   0  0  0  0  0
   13.6720   15.4243   44.5720 H   0  0  0  0  0
   11.1845   12.7513   41.2565 H   0  0  0  0  0
   11.8432   15.5886   42.6691 H   0  0  0  0  0
   11.0928   14.5011   44.8476 H   0  0  0  0  0
   11.0115   12.7643   44.9755 H   0  0  0  0  0
    8.8885   14.5814   44.1650 H   0  0  0  0  0
    8.7753   12.8750   44.4093 H   0  0  0  0  0
    8.9575   12.4447   42.0691 H   0  0  0  0  0
    8.7511   14.1421   41.8235 H   0  0  0  0  0
  1  2  2  0  0  0
  2  3  1  0  0  0
  2  7  1  0  0  0
  3  4  1  0  0  0
  3  6  1  0  0  0
  4  5  1  0  0  0
  7  8  1  0  0  0
  7 12  1  0  0  0
  8  9  1  0  0  0
  8 14  1  0  0  0
  9 10  2  0  0  0
  9 11  1  0  0  0
 12 13  1  0  0  0
 13 14  1  0  0  0
  3 15  1  0  0  0
  4 16  1  0  0  0
  4 17  1  0  0  0
  5 18  1  0  0  0
  6 19  1  0  0  0
  6 20  1  0  0  0
  6 21  1  0  0  0
  8 22  1  0  0  0
 11 23  1  0  0  0
 12 24  1  0  0  0
 12 25  1  0  0  0
 13 26  1  0  0  0
 13 27  1  0  0  0
 14 28  1  0  0  0
 14 29  1  0  0  0
M  END
$$$$
