4aza_ligand
  -I-interpret- 

232234  0  0  0  0  0  0  0  0999 V2000
  -40.9510  -18.0520  -13.9810 C   0  0  0  0  0
  -39.7950  -17.7060  -13.7820 O   0  0  0  0  0
  -41.7720  -18.5620  -12.8120 C   0  0  0  0  0
  -41.6450  -17.6450  -15.0540 N   0  0  0  0  0
  -41.8160  -16.1900  -15.3800 C   0  0  0  0  0
  -42.2600  -15.4000  -14.1490 C   0  0  0  0  0
  -43.2510  -15.7390  -13.5070 O   0  0  0  0  0
  -42.8100  -15.9890  -16.5300 C   0  0  0  0  0
  -42.3650  -16.5680  -17.8670 C   0  0  0  0  0
  -41.4640  -15.6170  -18.6450 C   0  0  0  0  0
  -41.0090  -16.2260  -19.9690 C   0  0  0  0  0
  -40.1360  -17.4260  -19.7930 N   0  3  0  0  0
  -41.4990  -14.3690  -13.8130 N   0  0  0  0  0
  -41.8570  -13.4700  -12.7330 C   0  0  0  0  0
  -41.8540  -12.0500  -13.2590 C   0  0  0  0  0
  -40.8160  -11.5300  -13.6610 O   0  0  0  0  0
  -40.8880  -13.6090  -11.5560 C   0  0  0  0  0
  -41.2490  -14.6940  -10.5570 C   0  0  0  0  0
  -42.3690  -14.2470   -9.6200 C   0  0  0  0  0
  -42.7680  -15.3640   -8.6640 C   0  0  0  0  0
  -43.5230  -14.8960   -7.4670 N   0  3  0  0  0
  -43.0280  -11.4300  -13.2740 N   0  0  0  0  0
  -43.1360  -10.0350  -13.6540 C   0  0  0  0  0
  -43.6370   -9.2300  -12.4760 C   0  0  0  0  0
  -44.5320   -9.6660  -11.7470 O   0  0  0  0  0
  -44.0540   -9.8510  -14.8550 C   0  0  0  0  0
  -43.6000  -10.6120  -16.0850 C   0  0  0  0  0
  -44.1220   -9.9850  -17.3690 C   0  0  0  0  0
  -44.2280  -10.9840  -18.4330 N   0  0  0  0  0
  -43.1950  -11.5140  -19.0940 C   0  0  0  0  0
  -41.9430  -11.1450  -18.8130 N   0  0  0  0  0
  -43.4160  -12.4200  -20.0460 N   0  0  0  0  0
  -43.0440   -8.0530  -12.2940 N   0  0  0  0  0
  -43.4060   -7.1630  -11.2040 C   0  0  0  0  0
  -43.6430   -5.7730  -11.7730 C   0  0  0  0  0
  -42.8450   -5.2890  -12.5840 O   0  0  0  0  0
  -42.2820   -7.1150  -10.1710 C   0  0  0  0  0
  -42.0150   -8.4210   -9.4270 C   0  0  0  0  0
  -42.8670   -8.8550   -8.4090 C   0  0  0  0  0
  -40.8940   -9.2050   -9.7190 C   0  0  0  0  0
  -42.6230  -10.0340   -7.7180 C   0  0  0  0  0
  -40.6430  -10.3900   -9.0290 C   0  0  0  0  0
  -41.5110  -10.7970   -8.0260 C   0  0  0  0  0
  -41.2820  -11.9690   -7.3280 O   0  0  0  0  0
  -44.7380   -5.1380  -11.3640 N   0  0  0  0  0
  -45.0260   -3.7650  -11.7860 C   0  0  0  0  0
  -44.1020   -2.8220  -11.0310 C   0  0  0  0  0
  -43.5040   -3.2160  -10.0320 O   0  0  0  0  0
  -46.4770   -3.4030  -11.4960 C   0  0  0  0  0
  -46.6800   -3.1950  -10.1090 O   0  0  0  0  0
  -43.9930   -1.5800  -11.4940 N   0  0  0  0  0
  -43.1510   -0.5920  -10.8220 C   0  0  0  0  0
  -43.6700   -0.2230   -9.4270 C   0  0  0  0  0
  -42.8730    0.0640   -8.5310 O   0  0  0  0  0
  -42.9690    0.6580  -11.6830 C   0  0  0  0  0
  -44.2580    1.3600  -12.0520 C   0  0  0  0  0
  -44.0240    2.5530  -12.9660 C   0  0  0  0  0
  -42.9240    3.3990  -12.5060 N   0  0  0  0  0
  -43.0110    4.2770  -11.5140 C   0  0  0  0  0
  -44.1500    4.4400  -10.8530 N   0  0  0  0  0
  -41.9530    4.9890  -11.1750 N   0  0  0  0  0
  -44.9950   -0.2460   -9.2520 N   0  0  0  0  0
  -45.6310    0.1060   -7.9730 C   0  0  0  0  0
  -45.3720   -0.9720   -6.9250 C   0  0  0  0  0
  -45.0780   -0.6610   -5.7730 O   0  0  0  0  0
  -47.1470    0.3340   -8.1290 C   0  0  0  0  0
  -47.5420    1.4690   -9.0660 C   0  0  0  0  0
  -47.4770    1.0870  -10.5420 C   0  0  0  0  0
  -47.3080   -0.1150  -10.8560 O   0  0  0  0  0
  -47.5970    1.9960  -11.3980 O   0  0  0  0  0
  -45.4770   -2.2350   -7.3360 N   0  0  0  0  0
  -45.1240   -3.3530   -6.4730 C   0  0  0  0  0
  -43.6750   -3.2530   -5.9940 C   0  0  0  0  0
  -43.4150   -3.3240   -4.7960 O   0  0  0  0  0
  -45.3590   -4.6880   -7.1870 C   0  0  0  0  0
  -45.1940   -5.8910   -6.2970 C   0  0  0  0  0
  -46.2500   -6.3420   -5.5090 C   0  0  0  0  0
  -43.9810   -6.5720   -6.2390 C   0  0  0  0  0
  -46.1020   -7.4530   -4.6930 C   0  0  0  0  0
  -43.8280   -7.6830   -5.4220 C   0  0  0  0  0
  -44.8900   -8.1200   -4.6460 C   0  0  0  0  0
  -42.7480   -3.0810   -6.9390 N   0  0  0  0  0
  -41.3150   -3.0000   -6.6450 C   0  0  0  0  0
  -40.9710   -1.8400   -5.7110 C   0  0  0  0  0
  -40.1840   -2.0090   -4.7660 O   0  0  0  0  0
  -40.4930   -2.9030   -7.9380 C   0  0  0  0  0
  -40.4560   -4.1290   -8.8600 C   0  0  0  0  0
  -39.6640   -3.8340  -10.1310 C   0  0  0  0  0
  -39.9000   -5.3650   -8.1530 C   0  0  0  0  0
  -41.5700   -0.6780   -5.9730 N   0  0  0  0  0
  -41.3330    0.5270   -5.1730 C   0  0  0  0  0
  -41.8620    0.4090   -3.7380 C   0  0  0  0  0
  -41.3710    1.0930   -2.8400 O   0  0  0  0  0
  -41.9120    1.7750   -5.8650 C   0  0  0  0  0
  -41.1420    2.3420   -7.0630 C   0  0  0  0  0
  -42.0160    3.2900   -7.8750 C   0  0  0  0  0
  -39.8530    3.0240   -6.6170 C   0  0  0  0  0
  -42.8450   -0.4650   -3.5280 N   0  0  0  0  0
  -43.3520   -0.7740   -2.1860 C   0  0  0  0  0
  -42.3060   -1.3970   -1.2700 C   0  0  0  0  0
  -42.3880   -1.2690   -0.0450 O   0  0  0  0  0
  -41.3150   -2.0630   -1.8630 N   0  0  0  0  0
  -40.2060   -2.6530   -1.1040 C   0  0  0  0  0
  -39.0490   -1.6910   -0.8480 C   0  0  0  0  0
  -38.0650   -2.0810   -0.2160 O   0  0  0  0  0
  -39.6810   -3.8940   -1.8120 C   0  0  0  0  0
  -40.6320   -5.0420   -1.7900 C   0  0  0  0  0
  -41.6590   -5.1290   -2.7310 C   0  0  0  0  0
  -40.5190   -6.0310   -0.8230 C   0  0  0  0  0
  -42.5530   -6.1860   -2.7040 C   0  0  0  0  0
  -41.4100   -7.0920   -0.7920 C   0  0  0  0  0
  -42.4250   -7.1730   -1.7360 C   0  0  0  0  0
  -39.1180   -0.5300   -1.4730 N   0  0  0  0  0
  -41.2894  -19.4422  -12.3873 H   0  0  0  0  0
  -41.8435  -17.7833  -12.0527 H   0  0  0  0  0
  -42.7711  -18.8257  -13.1590 H   0  0  0  0  0
  -42.0682  -18.3434  -15.6652 H   0  0  0  0  0
  -40.8454  -15.8116  -15.7007 H   0  0  0  0  0
  -42.9179  -14.9135  -16.6709 H   0  0  0  0  0
  -43.7271  -16.5073  -16.2500 H   0  0  0  0  0
  -43.2564  -16.7522  -18.4667 H   0  0  0  0  0
  -41.7998  -17.4784  -17.6674 H   0  0  0  0  0
  -40.5807  -15.4097  -18.0409 H   0  0  0  0  0
  -42.0276  -14.7092  -18.8604 H   0  0  0  0  0
  -40.4300  -15.4701  -20.4996 H   0  0  0  0  0
  -41.8999  -16.5414  -20.5120 H   0  0  0  0  0
  -39.8661  -17.7858  -20.7085 H   0  0  0  0  0
  -39.3007  -17.1635  -19.2697 H   0  0  0  0  0
  -40.6474  -18.1449  -19.2811 H   0  0  0  0  0
  -40.6353  -14.2025  -14.3295 H   0  0  0  0  0
  -42.8518  -13.7260  -12.3683 H   0  0  0  0  0
  -40.9091  -12.6625  -11.0159 H   0  0  0  0  0
  -39.9178  -13.8756  -11.9752 H   0  0  0  0  0
  -40.3667  -14.9163   -9.9569 H   0  0  0  0  0
  -41.5911  -15.5696  -11.1088 H   0  0  0  0  0
  -43.2375  -13.9770  -10.2207 H   0  0  0  0  0
  -42.0144  -13.3987   -9.0345 H   0  0  0  0  0
  -41.8486  -15.8271   -8.3059 H   0  0  0  0  0
  -43.4208  -16.0423   -9.2134 H   0  0  0  0  0
  -43.7536  -15.6960   -6.8778 H   0  0  0  0  0
  -42.9485  -14.2384   -6.9399 H   0  0  0  0  0
  -44.3817  -14.4345   -7.7671 H   0  0  0  0  0
  -43.8693  -11.9445  -13.0134 H   0  0  0  0  0
  -42.1473   -9.6796  -13.9443 H   0  0  0  0  0
  -44.0548   -8.7906  -15.1074 H   0  0  0  0  0
  -45.0367  -10.2325  -14.5778 H   0  0  0  0  0
  -43.9890  -11.6281  -16.0196 H   0  0  0  0  0
  -42.5106  -10.5923  -16.1148 H   0  0  0  0  0
  -43.4275   -9.2072  -17.6866 H   0  0  0  0  0
  -45.1115   -9.5694  -17.1788 H   0  0  0  0  0
  -45.1631  -11.3002  -18.6899 H   0  0  0  0  0
  -41.1629  -11.5560  -19.3258 H   0  0  0  0  0
  -41.7666  -10.4521  -18.0856 H   0  0  0  0  0
  -44.3700  -12.7055  -20.2668 H   0  0  0  0  0
  -42.3103   -7.7656  -12.9417 H   0  0  0  0  0
  -44.3102   -7.5262  -10.7154 H   0  0  0  0  0
  -42.5833   -6.3859   -9.4188 H   0  0  0  0  0
  -41.3691   -6.8773  -10.7172 H   0  0  0  0  0
  -43.7408   -8.2562   -8.1520 H   0  0  0  0  0
  -40.2046   -8.8837  -10.4998 H   0  0  0  0  0
  -43.3069  -10.3582   -6.9336 H   0  0  0  0  0
  -39.7696  -10.9935   -9.2761 H   0  0  0  0  0
  -40.4791  -12.3824   -7.6536 H   0  0  0  0  0
  -45.3907   -5.6170  -10.7436 H   0  0  0  0  0
  -44.8625   -3.6774  -12.8601 H   0  0  0  0  0
  -47.1149   -4.2238  -11.8240 H   0  0  0  0  0
  -46.7213   -2.4832  -12.0274 H   0  0  0  0  0
  -47.5996   -2.9687   -9.9517 H   0  0  0  0  0
  -44.5065   -1.3119  -12.3336 H   0  0  0  0  0
  -42.1766   -1.0604  -10.6833 H   0  0  0  0  0
  -42.5023    0.3381  -12.6146 H   0  0  0  0  0
  -42.3776    1.3636  -11.0995 H   0  0  0  0  0
  -44.7204    1.7227  -11.1340 H   0  0  0  0  0
  -44.8916    0.6479  -12.5807 H   0  0  0  0  0
  -44.9324    3.1553  -12.9742 H   0  0  0  0  0
  -43.7680    2.1749  -13.9557 H   0  0  0  0  0
  -42.0259    3.3082  -12.9810 H   0  0  0  0  0
  -44.2039    5.1125  -10.0880 H   0  0  0  0  0
  -44.9716    3.8928  -11.1099 H   0  0  0  0  0
  -41.0726    4.8637  -11.6745 H   0  0  0  0  0
  -45.5882   -0.5182  -10.0358 H   0  0  0  0  0
  -45.1831    1.0423   -7.6401 H   0  0  0  0  0
  -47.5260    0.5982   -7.1418 H   0  0  0  0  0
  -47.5578   -0.5807   -8.5564 H   0  0  0  0  0
  -46.8385    2.2862   -8.9069 H   0  0  0  0  0
  -48.5745    1.7365   -8.8410 H   0  0  0  0  0
  -47.7171    2.8385  -10.9538 H   0  0  0  0  0
  -45.8136   -2.4236   -8.2802 H   0  0  0  0  0
  -45.7717   -3.3084   -5.5974 H   0  0  0  0  0
  -44.6163   -4.7669   -7.9809 H   0  0  0  0  0
  -46.3884   -4.6879   -7.5455 H   0  0  0  0  0
  -47.2040   -5.8154   -5.5341 H   0  0  0  0  0
  -43.1412   -6.2281   -6.8428 H   0  0  0  0  0
  -46.9397   -7.8011   -4.0887 H   0  0  0  0  0
  -42.8749   -8.2109   -5.3905 H   0  0  0  0  0
  -44.7708   -8.9889   -3.9987 H   0  0  0  0  0
  -43.0511   -3.0024   -7.9098 H   0  0  0  0  0
  -41.0533   -3.9220   -6.1258 H   0  0  0  0  0
  -39.4628   -2.7518   -7.6157 H   0  0  0  0  0
  -40.9659   -2.1145   -8.5234 H   0  0  0  0  0
  -41.4869   -4.3496   -9.1370 H   0  0  0  0  0
  -40.1323   -3.0077  -10.6658 H   0  0  0  0  0
  -38.6417   -3.5641   -9.8661 H   0  0  0  0  0
  -39.6544   -4.7202  -10.7655 H   0  0  0  0  0
  -38.8834   -5.1627   -7.8159 H   0  0  0  0  0
  -40.5279   -5.6043   -7.2947 H   0  0  0  0  0
  -39.8937   -6.2063   -8.8460 H   0  0  0  0  0
  -42.2173   -0.6257   -6.7595 H   0  0  0  0  0
  -40.2509    0.6357   -5.0998 H   0  0  0  0  0
  -41.8998    2.5611   -5.1100 H   0  0  0  0  0
  -42.8816    1.4691   -6.2579 H   0  0  0  0  0
  -40.8669    1.5078   -7.7084 H   0  0  0  0  0
  -42.8893    2.7515   -8.2432 H   0  0  0  0  0
  -42.3378    4.1172   -7.2423 H   0  0  0  0  0
  -41.4440    3.6770   -8.7183 H   0  0  0  0  0
  -40.0926    3.8422   -5.9379 H   0  0  0  0  0
  -39.2184    2.3000   -6.1060 H   0  0  0  0  0
  -39.3299    3.4156   -7.4895 H   0  0  0  0  0
  -43.2612   -0.9375   -4.3305 H   0  0  0  0  0
  -44.1603   -1.4964   -2.2994 H   0  0  0  0  0
  -43.6686    0.1646   -1.7312 H   0  0  0  0  0
  -41.3279   -2.1659   -2.8777 H   0  0  0  0  0
  -40.6212   -2.9124   -0.1302 H   0  0  0  0  0
  -38.7768   -4.2091   -1.2912 H   0  0  0  0  0
  -39.5140   -3.6283   -2.8558 H   0  0  0  0  0
  -41.7583   -4.3575   -3.4945 H   0  0  0  0  0
  -39.7224   -5.9728   -0.0813 H   0  0  0  0  0
  -43.3547   -6.2430   -3.4403 H   0  0  0  0  0
  -41.3140   -7.8625   -0.0270 H   0  0  0  0  0
  -43.1213   -8.0114   -1.7171 H   0  0  0  0  0
  -38.3232    0.1090   -1.4512 H   0  0  0  0  0
  -39.9661   -0.2721   -1.9776 H   0  0  0  0  0
  1  2  2  0  0  0
  1  3  1  0  0  0
  1  4  1  0  0  0
  4  5  1  0  0  0
  5  6  1  0  0  0
  5  8  1  0  0  0
  6  7  2  0  0  0
  6 13  1  0  0  0
  8  9  1  0  0  0
  9 10  1  0  0  0
 10 11  1  0  0  0
 11 12  1  0  0  0
 13 14  1  0  0  0
 14 15  1  0  0  0
 14 17  1  0  0  0
 15 16  2  0  0  0
 15 22  1  0  0  0
 17 18  1  0  0  0
 18 19  1  0  0  0
 19 20  1  0  0  0
 20 21  1  0  0  0
 22 23  1  0  0  0
 23 24  1  0  0  0
 23 26  1  0  0  0
 24 25  2  0  0  0
 24 33  1  0  0  0
 26 27  1  0  0  0
 27 28  1  0  0  0
 28 29  1  0  0  0
 29 30  1  0  0  0
 30 31  1  0  0  0
 30 32  2  0  0  0
 33 34  1  0  0  0
 34 35  1  0  0  0
 34 37  1  0  0  0
 35 36  2  0  0  0
 35 45  1  0  0  0
 37 38  1  0  0  0
 38 39  4  0  0  0
 38 40  4  0  0  0
 39 41  4  0  0  0
 40 42  4  0  0  0
 41 43  4  0  0  0
 42 43  4  0  0  0
 43 44  1  0  0  0
 45 46  1  0  0  0
 46 47  1  0  0  0
 46 49  1  0  0  0
 47 48  2  0  0  0
 47 51  1  0  0  0
 49 50  1  0  0  0
 51 52  1  0  0  0
 52 53  1  0  0  0
 52 55  1  0  0  0
 53 54  2  0  0  0
 53 62  1  0  0  0
 55 56  1  0  0  0
 56 57  1  0  0  0
 57 58  1  0  0  0
 58 59  1  0  0  0
 59 60  1  0  0  0
 59 61  2  0  0  0
 62 63  1  0  0  0
 63 64  1  0  0  0
 63 66  1  0  0  0
 64 65  2  0  0  0
 64 71  1  0  0  0
 66 67  1  0  0  0
 67 68  1  0  0  0
 68 69  2  0  0  0
 68 70  1  0  0  0
 71 72  1  0  0  0
 72 73  1  0  0  0
 72 75  1  0  0  0
 73 74  2  0  0  0
 73 82  1  0  0  0
 75 76  1  0  0  0
 76 77  4  0  0  0
 76 78  4  0  0  0
 77 79  4  0  0  0
 78 80  4  0  0  0
 79 81  4  0  0  0
 80 81  4  0  0  0
 82 83  1  0  0  0
 83 84  1  0  0  0
 83 86  1  0  0  0
 84 85  2  0  0  0
 84 90  1  0  0  0
 86 87  1  0  0  0
 87 88  1  0  0  0
 87 89  1  0  0  0
 90 91  1  0  0  0
 91 92  1  0  0  0
 91 94  1  0  0  0
 92 93  2  0  0  0
 92 98  1  0  0  0
 94 95  1  0  0  0
 95 96  1  0  0  0
 95 97  1  0  0  0
 98 99  1  0  0  0
 99100  1  0  0  0
100101  2  0  0  0
100102  1  0  0  0
102103  1  0  0  0
103104  1  0  0  0
103106  1  0  0  0
104105  2  0  0  0
104113  1  0  0  0
106107  1  0  0  0
107108  4  0  0  0
107109  4  0  0  0
108110  4  0  0  0
109111  4  0  0  0
110112  4  0  0  0
111112  4  0  0  0
  3114  1  0  0  0
  3115  1  0  0  0
  3116  1  0  0  0
  4117  1  0  0  0
  5118  1  0  0  0
  8119  1  0  0  0
  8120  1  0  0  0
  9121  1  0  0  0
  9122  1  0  0  0
 10123  1  0  0  0
 10124  1  0  0  0
 11125  1  0  0  0
 11126  1  0  0  0
 12127  1  0  0  0
 12128  1  0  0  0
 12129  1  0  0  0
 13130  1  0  0  0
 14131  1  0  0  0
 17132  1  0  0  0
 17133  1  0  0  0
 18134  1  0  0  0
 18135  1  0  0  0
 19136  1  0  0  0
 19137  1  0  0  0
 20138  1  0  0  0
 20139  1  0  0  0
 21140  1  0  0  0
 21141  1  0  0  0
 21142  1  0  0  0
 22143  1  0  0  0
 23144  1  0  0  0
 26145  1  0  0  0
 26146  1  0  0  0
 27147  1  0  0  0
 27148  1  0  0  0
 28149  1  0  0  0
 28150  1  0  0  0
 29151  1  0  0  0
 31152  1  0  0  0
 31153  1  0  0  0
 32154  1  0  0  0
 33155  1  0  0  0
 34156  1  0  0  0
 37157  1  0  0  0
 37158  1  0  0  0
 39159  1  0  0  0
 40160  1  0  0  0
 41161  1  0  0  0
 42162  1  0  0  0
 44163  1  0  0  0
 45164  1  0  0  0
 46165  1  0  0  0
 49166  1  0  0  0
 49167  1  0  0  0
 50168  1  0  0  0
 51169  1  0  0  0
 52170  1  0  0  0
 55171  1  0  0  0
 55172  1  0  0  0
 56173  1  0  0  0
 56174  1  0  0  0
 57175  1  0  0  0
 57176  1  0  0  0
 58177  1  0  0  0
 60178  1  0  0  0
 60179  1  0  0  0
 61180  1  0  0  0
 62181  1  0  0  0
 63182  1  0  0  0
 66183  1  0  0  0
 66184  1  0  0  0
 67185  1  0  0  0
 67186  1  0  0  0
 70187  1  0  0  0
 71188  1  0  0  0
 72189  1  0  0  0
 75190  1  0  0  0
 75191  1  0  0  0
 77192  1  0  0  0
 78193  1  0  0  0
 79194  1  0  0  0
 80195  1  0  0  0
 81196  1  0  0  0
 82197  1  0  0  0
 83198  1  0  0  0
 86199  1  0  0  0
 86200  1  0  0  0
 87201  1  0  0  0
 88202  1  0  0  0
 88203  1  0  0  0
 88204  1  0  0  0
 89205  1  0  0  0
 89206  1  0  0  0
 89207  1  0  0  0
 90208  1  0  0  0
 91209  1  0  0  0
 94210  1  0  0  0
 94211  1  0  0  0
 95212  1  0  0  0
 96213  1  0  0  0
 96214  1  0  0  0
 96215  1  0  0  0
 97216  1  0  0  0
 97217  1  0  0  0
 97218  1  0  0  0
 98219  1  0  0  0
 99220  1  0  0  0
 99221  1  0  0  0
102222  1  0  0  0
103223  1  0  0  0
106224  1  0  0  0
106225  1  0  0  0
108226  1  0  0  0
109227  1  0  0  0
110228  1  0  0  0
111229  1  0  0  0
112230  1  0  0  0
113231  1  0  0  0
113232  1  0  0  0
M  END
$$$$
