### 
### Created by X-TOOL on Mon Sep 10 21:13:11 2018
### 

@<TRIPOS>MOLECULE
4aza_ligand
  233   235     1     0     0
SMALL
GAST_HUCK


@<TRIPOS>ATOM
      1 C         -40.9510  -18.0520  -13.9810 C.2       1 ACE         0.1751
      2 O         -39.7950  -17.7060  -13.7820 O.2       1 ACE        -0.3972
      3 CH3       -41.7720  -18.5620  -12.8120 C.3       1 ACE         0.0258
      4 N         -41.6450  -17.6450  -15.0540 N.am      1 LYS        -0.2658
      5 CA        -41.8160  -16.1900  -15.3800 C.3       1 LYS         0.1309
      6 C         -42.2600  -15.4000  -14.1490 C.2       1 LYS         0.2039
      7 O         -43.2510  -15.7390  -13.5070 O.2       1 LYS        -0.3944
      8 CB        -42.8100  -15.9890  -16.5300 C.3       1 LYS        -0.0122
      9 CG        -42.3650  -16.5680  -17.8670 C.3       1 LYS        -0.0440
     10 CD        -41.4640  -15.6170  -18.6450 C.3       1 LYS        -0.0124
     11 CE        -41.0090  -16.2260  -19.9690 C.3       1 LYS        -0.0354
     12 NZ        -40.1360  -17.4260  -19.7930 N.4       1 LYS         0.2185
     13 N         -41.4990  -14.3690  -13.8130 N.am      1 LYS        -0.2637
     14 CA        -41.8570  -13.4700  -12.7330 C.3       1 LYS         0.1310
     15 C         -41.8540  -12.0500  -13.2590 C.2       1 LYS         0.2039
     16 O         -40.8160  -11.5300  -13.6610 O.2       1 LYS        -0.3944
     17 CB        -40.8880  -13.6090  -11.5560 C.3       1 LYS        -0.0122
     18 CG        -41.2490  -14.6940  -10.5570 C.3       1 LYS        -0.0440
     19 CD        -42.3690  -14.2470   -9.6200 C.3       1 LYS        -0.0124
     20 CE        -42.7680  -15.3640   -8.6640 C.3       1 LYS        -0.0354
     21 NZ        -43.5230  -14.8960   -7.4670 N.4       1 LYS         0.2185
     22 N         -43.0280  -11.4300  -13.2740 N.am      1 ARG        -0.2637
     23 CA        -43.1360  -10.0350  -13.6540 C.3       1 ARG         0.1311
     24 C         -43.6370   -9.2300  -12.4760 C.2       1 ARG         0.2040
     25 O         -44.5320   -9.6660  -11.7470 O.2       1 ARG        -0.3944
     26 CB        -44.0540   -9.8510  -14.8550 C.3       1 ARG        -0.0092
     27 CG        -43.6000  -10.6120  -16.0850 C.3       1 ARG        -0.0156
     28 CD        -44.1220   -9.9850  -17.3690 C.3       1 ARG         0.0627
     29 NE        -44.2280  -10.9840  -18.4330 N.pl3     1 ARG        -0.2723
     30 CZ        -43.1950  -11.5140  -19.0940 C.cat     1 ARG         0.2882
     31 NH1       -41.9430  -11.1450  -18.8130 N.pl3     1 ARG        -0.2849
     32 NH2       -43.4160  -12.4200  -20.0460 N.pl3     1 ARG        -0.2849
     33 N         -43.0440   -8.0530  -12.2940 N.am      1 TYR        -0.2621
     34 CA        -43.4060   -7.1630  -11.2040 C.3       1 TYR         0.1390
     35 C         -43.6430   -5.7730  -11.7730 C.2       1 TYR         0.2058
     36 O         -42.8450   -5.2890  -12.5840 O.2       1 TYR        -0.3942
     37 CB        -42.2820   -7.1150  -10.1710 C.3       1 TYR         0.0163
     38 CG        -42.0150   -8.4210   -9.4270 C.ar      1 TYR        -0.0493
     39 CD1       -42.8670   -8.8550   -8.4090 C.ar      1 TYR        -0.0685
     40 CD2       -40.8940   -9.2050   -9.7190 C.ar      1 TYR        -0.0685
     41 CE1       -42.6230  -10.0340   -7.7180 C.ar      1 TYR        -0.0398
     42 CE2       -40.6430  -10.3900   -9.0290 C.ar      1 TYR        -0.0398
     43 CZ        -41.5110  -10.7970   -8.0260 C.ar      1 TYR         0.0805
     44 OH        -41.2820  -11.9690   -7.3280 O.3       1 TYR        -0.3376
     45 N         -44.7380   -5.1380  -11.3640 N.am      1 SER        -0.2614
     46 CA        -45.0260   -3.7650  -11.7860 C.3       1 SER         0.1539
     47 C         -44.1020   -2.8220  -11.0310 C.2       1 SER         0.2062
     48 O         -43.5040   -3.2160  -10.0320 O.2       1 SER        -0.3943
     49 CB        -46.4770   -3.4030  -11.4960 C.3       1 SER         0.0843
     50 OG        -46.6800   -3.1950  -10.1090 O.3       1 SER        -0.3903
     51 N         -43.9930   -1.5800  -11.4940 N.am      1 ARG        -0.2637
     52 CA        -43.1510   -0.5920  -10.8220 C.3       1 ARG         0.1311
     53 C         -43.6700   -0.2230   -9.4270 C.2       1 ARG         0.2039
     54 O         -42.8730    0.0640   -8.5310 O.2       1 ARG        -0.3944
     55 CB        -42.9690    0.6580  -11.6830 C.3       1 ARG        -0.0092
     56 CG        -44.2580    1.3600  -12.0520 C.3       1 ARG        -0.0156
     57 CD        -44.0240    2.5530  -12.9660 C.3       1 ARG         0.0627
     58 NE        -42.9240    3.3990  -12.5060 N.pl3     1 ARG        -0.2723
     59 CZ        -43.0110    4.2770  -11.5140 C.cat     1 ARG         0.2882
     60 NH1       -44.1500    4.4400  -10.8530 N.pl3     1 ARG        -0.2849
     61 NH2       -41.9530    4.9890  -11.1750 N.pl3     1 ARG        -0.2849
     62 N         -44.9950   -0.2460   -9.2520 N.am      1 GLU        -0.2636
     63 CA        -45.6310    0.1060   -7.9730 C.3       1 GLU         0.1325
     64 C         -45.3720   -0.9720   -6.9250 C.2       1 GLU         0.2041
     65 O         -45.0780   -0.6610   -5.7730 O.2       1 GLU        -0.3944
     66 CB        -47.1470    0.3340   -8.1290 C.3       1 GLU        -0.0008
     67 CG        -47.5420    1.4690   -9.0660 C.3       1 GLU         0.0044
     68 CD        -47.4770    1.0870  -10.5420 C.2       1 GLU         0.0350
     69 OE1       -47.3080   -0.1150  -10.8560 O.co2     1 GLU        -0.5690
     70 OE2       -47.5970    1.9960  -11.3980 O.co2     1 GLU        -0.5690
     71 N         -45.4770   -2.2350   -7.3360 N.am      1 PHE        -0.2619
     72 CA        -45.1240   -3.3530   -6.4730 C.3       1 PHE         0.1404
     73 C         -43.6750   -3.2530   -5.9940 C.2       1 PHE         0.2060
     74 O         -43.4150   -3.3240   -4.7960 O.2       1 PHE        -0.3942
     75 CB        -45.3590   -4.6880   -7.1870 C.3       1 PHE         0.0214
     76 CG        -45.1940   -5.8910   -6.2970 C.ar      1 PHE        -0.0386
     77 CD1       -46.2500   -6.3420   -5.5090 C.ar      1 PHE        -0.0601
     78 CD2       -43.9810   -6.5720   -6.2390 C.ar      1 PHE        -0.0601
     79 CE1       -46.1020   -7.4530   -4.6930 C.ar      1 PHE        -0.0686
     80 CE2       -43.8280   -7.6830   -5.4220 C.ar      1 PHE        -0.0686
     81 CZ        -44.8900   -8.1200   -4.6460 C.ar      1 PHE        -0.0687
     82 N         -42.7480   -3.0810   -6.9390 N.am      1 LEU        -0.2636
     83 CA        -41.3150   -3.0000   -6.6450 C.3       1 LEU         0.1312
     84 C         -40.9710   -1.8400   -5.7110 C.2       1 LEU         0.2039
     85 O         -40.1840   -2.0090   -4.7660 O.2       1 LEU        -0.3944
     86 CB        -40.4930   -2.9030   -7.9380 C.3       1 LEU        -0.0101
     87 CG        -40.4560   -4.1290   -8.8600 C.3       1 LEU        -0.0425
     88 CD1       -39.6640   -3.8340  -10.1310 C.3       1 LEU        -0.0625
     89 CD2       -39.9000   -5.3650   -8.1530 C.3       1 LEU        -0.0625
     90 N         -41.5700   -0.6780   -5.9730 N.am      1 LEU        -0.2637
     91 CA        -41.3330    0.5270   -5.1730 C.3       1 LEU         0.1312
     92 C         -41.8620    0.4090   -3.7380 C.2       1 LEU         0.2037
     93 O         -41.3710    1.0930   -2.8400 O.2       1 LEU        -0.3944
     94 CB        -41.9120    1.7750   -5.8650 C.3       1 LEU        -0.0101
     95 CG        -41.1420    2.3420   -7.0630 C.3       1 LEU        -0.0425
     96 CD1       -42.0160    3.2900   -7.8750 C.3       1 LEU        -0.0625
     97 CD2       -39.8530    3.0240   -6.6170 C.3       1 LEU        -0.0625
     98 N         -42.8450   -0.4650   -3.5280 N.am      1 GLY        -0.2664
     99 CA        -43.3520   -0.7740   -2.1860 C.3       1 GLY         0.1201
    100 C         -42.3060   -1.3970   -1.2700 C.2       1 GLY         0.2009
    101 O         -42.3880   -1.2690   -0.0450 O.2       1 GLY        -0.3947
    102 N         -41.3150   -2.0630   -1.8630 N.am      1 PHE        -0.2622
    103 CA        -40.2060   -2.6530   -1.1040 C.3       1 PHE         0.1401
    104 C         -39.0490   -1.6910   -0.8480 C.2       1 PHE         0.2012
    105 O         -38.0650   -2.0810   -0.2160 O.2       1 PHE        -0.3946
    106 CB        -39.6810   -3.8940   -1.8120 C.3       1 PHE         0.0214
    107 CG        -40.6320   -5.0420   -1.7900 C.ar      1 PHE        -0.0386
    108 CD1       -41.6590   -5.1290   -2.7310 C.ar      1 PHE        -0.0601
    109 CD2       -40.5190   -6.0310   -0.8230 C.ar      1 PHE        -0.0601
    110 CE1       -42.5530   -6.1860   -2.7040 C.ar      1 PHE        -0.0686
    111 CE2       -41.4100   -7.0920   -0.7920 C.ar      1 PHE        -0.0686
    112 CZ        -42.4250   -7.1730   -1.7360 C.ar      1 PHE        -0.0687
    113 N         -39.1180   -0.5300   -1.4730 N.am      1 NH2        -0.2988
    114 H1        -42.7806  -18.8285  -13.1609 H         1 ACE         0.0467
    115 H2        -41.8449  -17.7770  -12.0449 H         1 ACE         0.0467
    116 H3        -41.2860  -19.4504  -12.3824 H         1 ACE         0.0467
    117 H4        -42.0599  -18.3297  -15.6532 H         1 LYS         0.1882
    118 H5        -40.8396  -15.7992  -15.7023 H         1 LYS         0.0800
    119 H6        -42.9683  -14.9083  -16.6607 H         1 LYS         0.0312
    120 H7        -43.7598  -16.4674  -16.2490 H         1 LYS         0.0312
    121 H8        -43.2576  -16.7827  -18.4729 H         1 LYS         0.0269
    122 H9        -41.8146  -17.5021  -17.6811 H         1 LYS         0.0269
    123 H10       -40.5778  -15.3868  -18.0354 H         1 LYS         0.0317
    124 H11       -42.0182  -14.6895  -18.8512 H         1 LYS         0.0317
    125 H12       -40.4480  -15.4643  -20.5303 H         1 LYS         0.0813
    126 H13       -41.8997  -16.5222  -20.5426 H         1 LYS         0.0813
    127 H14       -39.8686  -17.7825  -20.6972 H         1 LYS         0.1994
    128 H15       -40.6404  -18.1372  -19.2872 H         1 LYS         0.1994
    129 H16       -39.3101  -17.1678  -19.2760 H         1 LYS         0.1994
    130 H17       -40.6523  -14.2058  -14.3194 H         1 LYS         0.1883
    131 H18       -42.8695  -13.7197  -12.3832 H         1 LYS         0.0800
    132 H19       -40.8591  -12.6480  -11.0215 H         1 LYS         0.0312
    133 H20       -39.8898  -13.8343  -11.9596 H         1 LYS         0.0312
    134 H21       -40.3591  -14.9381   -9.9582 H         1 LYS         0.0269
    135 H22       -41.5786  -15.5887  -11.1055 H         1 LYS         0.0269
    136 H23       -43.2448  -13.9587  -10.2199 H         1 LYS         0.0317
    137 H24       -42.0236  -13.3814   -9.0357 H         1 LYS         0.0317
    138 H25       -41.8530  -15.8687   -8.3204 H         1 LYS         0.0813
    139 H26       -43.3979  -16.0800   -9.2121 H         1 LYS         0.0813
    140 H27       -43.7515  -15.6859   -6.8839 H         1 LYS         0.1994
    141 H28       -44.3719  -14.4397   -7.7624 H         1 LYS         0.1994
    142 H29       -42.9562  -14.2460   -6.9452 H         1 LYS         0.1994
    143 H30       -43.8528  -11.9344  -13.0185 H         1 ARG         0.1883
    144 H31       -42.1348   -9.6710  -13.9280 H         1 ARG         0.0800
    145 H32       -44.0928   -8.7800  -15.1028 H         1 ARG         0.0313
    146 H33       -45.0603  -10.2007  -14.5810 H         1 ARG         0.0313
    147 H34       -43.9695  -11.6460  -16.0192 H         1 ARG         0.0301
    148 H35       -42.5004  -10.6166  -16.1138 H         1 ARG         0.0301
    149 H36       -43.4314   -9.1907  -17.6885 H         1 ARG         0.0689
    150 H37       -45.1159   -9.5529  -17.1806 H         1 ARG         0.0689
    151 H38       -45.1723  -11.3033  -18.6924 H         1 ARG         0.2642
    152 H39       -41.1552  -11.5611  -19.3298 H         1 ARG         0.2615
    153 H40       -41.7650  -10.4443  -18.0794 H         1 ARG         0.2615
    154 H41       -44.3793  -12.7093  -20.2680 H         1 ARG         0.2615
    155 H42       -42.6235  -12.8309  -20.5598 H         1 ARG         0.2615
    156 H43       -42.3247   -7.7713  -12.9290 H         1 TYR         0.1885
    157 H44       -44.3261   -7.5262  -10.7228 H         1 TYR         0.0821
    158 H45       -42.5392   -6.3475   -9.4262 H         1 TYR         0.0453
    159 H46       -41.3566   -6.8261  -10.6907 H         1 TYR         0.0453
    160 H47       -43.7359   -8.2595   -8.1534 H         1 TYR         0.0530
    161 H48       -40.2084   -8.8855  -10.4955 H         1 TYR         0.0530
    162 H49       -43.3031  -10.3564   -6.9379 H         1 TYR         0.0525
    163 H50       -39.7744  -10.9902   -9.2747 H         1 TYR         0.0525
    164 H51       -41.9693  -12.0920   -6.6837 H         1 TYR         0.2458
    165 H52       -45.3779   -5.6077  -10.7558 H         1 SER         0.1884
    166 H53       -44.8421   -3.6716  -12.8665 H         1 SER         0.0823
    167 H54       -47.1273   -4.2225  -11.8360 H         1 SER         0.0606
    168 H55       -46.7336   -2.4817  -12.0394 H         1 SER         0.0606
    169 H56       -47.5900   -2.9710   -9.9534 H         1 SER         0.2097
    170 H57       -44.4964   -1.3172  -12.3171 H         1 ARG         0.1883
    171 H58       -42.1592   -1.0488  -10.6894 H         1 ARG         0.0800
    172 H59       -42.4601    0.3636  -12.6127 H         1 ARG         0.0313
    173 H60       -42.3379    1.3681  -11.1285 H         1 ARG         0.0313
    174 H61       -44.7462    1.7106  -11.1307 H         1 ARG         0.0301
    175 H62       -44.9161    0.6441  -12.5662 H         1 ARG         0.0301
    176 H63       -44.9429    3.1565  -13.0017 H         1 ARG         0.0689
    177 H64       -43.7881    2.1842  -13.9751 H         1 ARG         0.0689
    178 H65       -42.0171    3.3073  -12.9856 H         1 ARG         0.2642
    179 H66       -44.2064    5.1240  -10.0850 H         1 ARG         0.2615
    180 H67       -44.9777    3.8825  -11.1079 H         1 ARG         0.2615
    181 H68       -41.0658    4.8674  -11.6839 H         1 ARG         0.2615
    182 H69       -42.0144    5.6663  -10.4015 H         1 ARG         0.2615
    183 H70       -45.5766   -0.5129  -10.0204 H         1 GLU         0.1883
    184 H71       -45.1804    1.0451   -7.6195 H         1 GLU         0.0801
    185 H72       -47.5616    0.5547   -7.1343 H         1 GLU         0.0330
    186 H73       -47.5925   -0.5951   -8.5141 H         1 GLU         0.0330
    187 H74       -46.8609    2.3156   -8.8947 H         1 GLU         0.0433
    188 H75       -48.5722    1.7736   -8.8298 H         1 GLU         0.0433
    189 H76       -45.8070   -2.4199   -8.2617 H         1 PHE         0.1885
    190 H77       -45.7777   -3.3179   -5.5890 H         1 PHE         0.0823
    191 H78       -44.6406   -4.7690   -8.0160 H         1 PHE         0.0474
    192 H79       -46.3834   -4.6912   -7.5878 H         1 PHE         0.0474
    193 H80       -47.1988   -5.8183   -5.5340 H         1 PHE         0.0557
    194 H81       -43.1458   -6.2300   -6.8395 H         1 PHE         0.0557
    195 H82       -46.9351   -7.7992   -4.0920 H         1 PHE         0.0599
    196 H83       -42.8801   -8.2080   -5.3907 H         1 PHE         0.0599
    197 H84       -44.7715   -8.9841   -4.0023 H         1 PHE         0.0559
    198 H85       -43.0451   -3.0039   -7.8907 H         1 LEU         0.1883
    199 H86       -41.0311   -3.9319   -6.1342 H         1 LEU         0.0800
    200 H87       -39.4553   -2.6784   -7.6502 H         1 LEU         0.0315
    201 H88       -40.9007   -2.0656   -8.5231 H         1 LEU         0.0315
    202 H89       -41.4920   -4.3529   -9.1541 H         1 LEU         0.0298
    203 H90       -39.6536   -4.7277  -10.7722 H         1 LEU         0.0232
    204 H91       -38.6320   -3.5615   -9.8651 H         1 LEU         0.0232
    205 H92       -40.1356   -3.0003  -10.6717 H         1 LEU         0.0232
    206 H93       -40.4839   -5.5596   -7.2413 H         1 LEU         0.0232
    207 H94       -38.8476   -5.1914   -7.8842 H         1 LEU         0.0232
    208 H95       -39.9685   -6.2335   -8.8246 H         1 LEU         0.0232
    209 H96       -42.2046   -0.6267   -6.7441 H         1 LEU         0.1883
    210 H97       -40.2432    0.6609   -5.1067 H         1 LEU         0.0800
    211 H98       -41.9767    2.5709   -5.1085 H         1 LEU         0.0315
    212 H99       -42.9229    1.5185   -6.2148 H         1 LEU         0.0315
    213 H100      -40.8666    1.4993   -7.7141 H         1 LEU         0.0298
    214 H101      -41.4398    3.6813   -8.7264 H         1 LEU         0.0232
    215 H102      -42.3414    4.1254   -7.2376 H         1 LEU         0.0232
    216 H103      -42.8977    2.7477   -8.2472 H         1 LEU         0.0232
    217 H104      -39.2457    2.3153   -6.0348 H         1 LEU         0.0232
    218 H105      -40.0967    3.8967   -5.9933 H         1 LEU         0.0232
    219 H106      -39.2867    3.3519   -7.5012 H         1 LEU         0.0232
    220 H107      -43.2530   -0.9282   -4.3148 H         1 GLY         0.1881
    221 H108      -44.1919   -1.4775   -2.2845 H         1 GLY         0.0763
    222 H109      -43.7074    0.1592   -1.7246 H         1 GLY         0.0763
    223 H110      -41.3277   -2.1639   -2.8578 H         1 PHE         0.1885
    224 H111      -40.6052   -2.9582   -0.1255 H         1 PHE         0.0823
    225 H112      -38.7479   -4.2062   -1.3202 H         1 PHE         0.0474
    226 H113      -39.4738   -3.6344   -2.8606 H         1 PHE         0.0474
    227 H114      -41.7577   -4.3617   -3.4903 H         1 PHE         0.0557
    228 H115      -39.7268   -5.9731   -0.0854 H         1 PHE         0.0557
    229 H116      -43.3503   -6.2427   -3.4363 H         1 PHE         0.0599
    230 H117      -41.3146   -7.8582   -0.0312 H         1 PHE         0.0599
    231 H118      -43.1174   -8.0068   -1.7172 H         1 PHE         0.0559
    232 H119      -38.3931    0.1478   -1.3502 H         1 NH2         0.1815
    233 H120      -39.8952   -0.3285   -2.0692 H         1 NH2         0.1815
@<TRIPOS>BOND
     1    1    2 2  
     2    1    3 1  
     3    1    4 am 
     4    4    5 1  
     5    5    6 1  
     6    5    8 1  
     7    6    7 2  
     8    6   13 am 
     9    8    9 1  
    10    9   10 1  
    11   10   11 1  
    12   11   12 1  
    13   13   14 1  
    14   14   15 1  
    15   14   17 1  
    16   15   16 2  
    17   15   22 am 
    18   17   18 1  
    19   18   19 1  
    20   19   20 1  
    21   20   21 1  
    22   22   23 1  
    23   23   24 1  
    24   23   26 1  
    25   24   25 2  
    26   24   33 am 
    27   26   27 1  
    28   27   28 1  
    29   28   29 1  
    30   29   30 ar 
    31   30   31 ar 
    32   30   32 ar 
    33   33   34 1  
    34   34   35 1  
    35   34   37 1  
    36   35   36 2  
    37   35   45 am 
    38   37   38 1  
    39   38   39 ar 
    40   38   40 ar 
    41   39   41 ar 
    42   40   42 ar 
    43   41   43 ar 
    44   42   43 ar 
    45   43   44 1  
    46   45   46 1  
    47   46   47 1  
    48   46   49 1  
    49   47   48 2  
    50   47   51 am 
    51   49   50 1  
    52   51   52 1  
    53   52   53 1  
    54   52   55 1  
    55   53   54 2  
    56   53   62 am 
    57   55   56 1  
    58   56   57 1  
    59   57   58 1  
    60   58   59 ar 
    61   59   60 ar 
    62   59   61 ar 
    63   62   63 1  
    64   63   64 1  
    65   63   66 1  
    66   64   65 2  
    67   64   71 am 
    68   66   67 1  
    69   67   68 1  
    70   68   69 ar 
    71   68   70 ar 
    72   71   72 1  
    73   72   73 1  
    74   72   75 1  
    75   73   74 2  
    76   73   82 am 
    77   75   76 1  
    78   76   77 ar 
    79   76   78 ar 
    80   77   79 ar 
    81   78   80 ar 
    82   79   81 ar 
    83   80   81 ar 
    84   82   83 1  
    85   83   84 1  
    86   83   86 1  
    87   84   85 2  
    88   84   90 am 
    89   86   87 1  
    90   87   88 1  
    91   87   89 1  
    92   90   91 1  
    93   91   92 1  
    94   91   94 1  
    95   92   93 2  
    96   92   98 am 
    97   94   95 1  
    98   95   96 1  
    99   95   97 1  
   100   98   99 1  
   101   99  100 1  
   102  100  101 2  
   103  100  102 am 
   104  102  103 1  
   105  103  104 1  
   106  103  106 1  
   107  104  105 2  
   108  104  113 am 
   109  106  107 1  
   110  107  108 ar 
   111  107  109 ar 
   112  108  110 ar 
   113  109  111 ar 
   114  110  112 ar 
   115  111  112 ar 
   116    3  114 1  
   117    3  115 1  
   118    3  116 1  
   119    4  117 1  
   120    5  118 1  
   121    8  119 1  
   122    8  120 1  
   123    9  121 1  
   124    9  122 1  
   125   10  123 1  
   126   10  124 1  
   127   11  125 1  
   128   11  126 1  
   129   12  127 1  
   130   12  128 1  
   131   12  129 1  
   132   13  130 1  
   133   14  131 1  
   134   17  132 1  
   135   17  133 1  
   136   18  134 1  
   137   18  135 1  
   138   19  136 1  
   139   19  137 1  
   140   20  138 1  
   141   20  139 1  
   142   21  140 1  
   143   21  141 1  
   144   21  142 1  
   145   22  143 1  
   146   23  144 1  
   147   26  145 1  
   148   26  146 1  
   149   27  147 1  
   150   27  148 1  
   151   28  149 1  
   152   28  150 1  
   153   29  151 1  
   154   31  152 1  
   155   31  153 1  
   156   32  154 1  
   157   32  155 1  
   158   33  156 1  
   159   34  157 1  
   160   37  158 1  
   161   37  159 1  
   162   39  160 1  
   163   40  161 1  
   164   41  162 1  
   165   42  163 1  
   166   44  164 1  
   167   45  165 1  
   168   46  166 1  
   169   49  167 1  
   170   49  168 1  
   171   50  169 1  
   172   51  170 1  
   173   52  171 1  
   174   55  172 1  
   175   55  173 1  
   176   56  174 1  
   177   56  175 1  
   178   57  176 1  
   179   57  177 1  
   180   58  178 1  
   181   60  179 1  
   182   60  180 1  
   183   61  181 1  
   184   61  182 1  
   185   62  183 1  
   186   63  184 1  
   187   66  185 1  
   188   66  186 1  
   189   67  187 1  
   190   67  188 1  
   191   71  189 1  
   192   72  190 1  
   193   75  191 1  
   194   75  192 1  
   195   77  193 1  
   196   78  194 1  
   197   79  195 1  
   198   80  196 1  
   199   81  197 1  
   200   82  198 1  
   201   83  199 1  
   202   86  200 1  
   203   86  201 1  
   204   87  202 1  
   205   88  203 1  
   206   88  204 1  
   207   88  205 1  
   208   89  206 1  
   209   89  207 1  
   210   89  208 1  
   211   90  209 1  
   212   91  210 1  
   213   94  211 1  
   214   94  212 1  
   215   95  213 1  
   216   96  214 1  
   217   96  215 1  
   218   96  216 1  
   219   97  217 1  
   220   97  218 1  
   221   97  219 1  
   222   98  220 1  
   223   99  221 1  
   224   99  222 1  
   225  102  223 1  
   226  103  224 1  
   227  106  225 1  
   228  106  226 1  
   229  108  227 1  
   230  109  228 1  
   231  110  229 1  
   232  111  230 1  
   233  112  231 1  
   234  113  232 1  
   235  113  233 1  
@<TRIPOS>SUBSTRUCTURE
     1 ACE         1

