### 
### Created by X-TOOL on Mon Aug  2 16:12:52 2021
### 

@<TRIPOS>MOLECULE
6d1k_ligand
   23    24     1     0     0
SMALL
GAST_HUCK


@<TRIPOS>ATOM
      1 C05        14.6050   11.5830    5.0370 C.3       1 M3Q         0.0568
      2 C06        14.0060   12.9720    5.3380 C.ar      1 M3Q        -0.0012
      3 C07        13.3320   13.1300    6.4860 C.ar      1 M3Q        -0.0540
      4 C08        12.7660   14.3650    6.8170 C.ar      1 M3Q        -0.0653
      5 C09        12.8540   15.4070    5.9150 C.ar      1 M3Q        -0.0549
      6 C10        13.5410   15.2620    4.7100 C.ar      1 M3Q         0.0010
      7 C11        13.6530   16.2890    3.7540 C.ar      1 M3Q        -0.0372
      8 C12        14.3170   16.0810    2.5870 C.ar      1 M3Q        -0.0332
      9 C13        14.8960   14.8180    2.3300 C.ar      1 M3Q         0.0096
     10 C15        14.1040   14.0320    4.4050 C.ar      1 M3Q         0.0540
     11 N14        14.7730   13.8660    3.2570 N.ar      1 M3Q        -0.2957
     12 O01        13.8580    9.0340    4.2610 O.co2     1 M3Q        -0.5606
     13 O03        12.5660   10.9520    3.2870 O.co2     1 M3Q        -0.5606
     14 O04        12.3510   10.3430    5.7490 O.co2     1 M3Q        -0.5606
     15 P02        13.2640   10.4150    4.5510 P.3       1 M3Q         0.0710
     16 H1         15.1129   11.2021    5.9353 H         1 M3Q         0.0628
     17 H2         15.3301   11.6687    4.2143 H         1 M3Q         0.0628
     18 H3         13.2247   12.2916    7.1647 H         1 M3Q         0.0564
     19 H4         12.2651   14.5026    7.7684 H         1 M3Q         0.0618
     20 H5         12.3808   16.3541    6.1476 H         1 M3Q         0.0573
     21 H6         13.2047   17.2561    3.9509 H         1 M3Q         0.0758
     22 H7         14.4020   16.8787    1.8580 H         1 M3Q         0.0692
     23 H8         15.4263   14.6273    1.4040 H         1 M3Q         0.0849
@<TRIPOS>BOND
     1    1    2 1  
     2    1   15 1  
     3    2    3 ar 
     4    2   10 ar 
     5    3    4 ar 
     6    4    5 ar 
     7    5    6 ar 
     8    6    7 ar 
     9    6   10 ar 
    10    7    8 ar 
    11    8    9 ar 
    12    9   11 ar 
    13   10   11 ar 
    14   15   12 ar 
    15   15   13 ar 
    16   15   14 ar 
    17    1   16 1  
    18    1   17 1  
    19    3   18 1  
    20    4   19 1  
    21    5   20 1  
    22    7   21 1  
    23    8   22 1  
    24    9   23 1  
@<TRIPOS>SUBSTRUCTURE
     1 M3Q         1

