6d1k_ligand
  -I-interpret- 

 25 26  0  0  0  0  0  0  0  0999 V2000
   14.6050   11.5830    5.0370 C   0  0  0  0  0
   14.0060   12.9720    5.3380 C   0  0  0  0  0
   13.3320   13.1300    6.4860 C   0  0  0  0  0
   12.7660   14.3650    6.8170 C   0  0  0  0  0
   12.8540   15.4070    5.9150 C   0  0  0  0  0
   13.5410   15.2620    4.7100 C   0  0  0  0  0
   13.6530   16.2890    3.7540 C   0  0  0  0  0
   14.3170   16.0810    2.5870 C   0  0  0  0  0
   14.8960   14.8180    2.3300 C   0  0  0  0  0
   14.1040   14.0320    4.4050 C   0  0  0  0  0
   14.7730   13.8660    3.2570 N   0  0  0  0  0
   13.8580    9.0340    4.2610 O   0  0  0  0  0
   12.5660   10.9520    3.2870 O   0  0  0  0  0
   12.3510   10.3430    5.7490 O   0  0  0  0  0
   13.2640   10.4150    4.5510 P   0  0  0  0  0
   15.1052   11.2057    5.9289 H   0  0  0  0  0
   15.3210   11.6692    4.2197 H   0  0  0  0  0
   13.2241   12.2870    7.1685 H   0  0  0  0  0
   12.2623   14.5034    7.7737 H   0  0  0  0  0
   12.3782   16.3594    6.1489 H   0  0  0  0  0
   13.2023   17.2615    3.9520 H   0  0  0  0  0
   14.4025   16.8831    1.8539 H   0  0  0  0  0
   15.4292   14.6263    1.3989 H   0  0  0  0  0
   14.4372    9.0899    3.4975 H   0  0  0  0  0
   13.1940   10.9748    2.5613 H   0  0  0  0  0
  1  2  1  0  0  0
  1 15  1  0  0  0
  2  3  4  0  0  0
  2 10  4  0  0  0
  3  4  4  0  0  0
  4  5  4  0  0  0
  5  6  4  0  0  0
  6  7  4  0  0  0
  6 10  4  0  0  0
  7  8  4  0  0  0
  8  9  4  0  0  0
  9 11  4  0  0  0
 10 11  4  0  0  0
 15 12  1  0  0  0
 15 13  1  0  0  0
 15 14  2  0  0  0
  1 16  1  0  0  0
  1 17  1  0  0  0
  3 18  1  0  0  0
  4 19  1  0  0  0
  5 20  1  0  0  0
  7 21  1  0  0  0
  8 22  1  0  0  0
  9 23  1  0  0  0
 12 24  1  0  0  0
 13 25  1  0  0  0
M  END
$$$$
