6hgf_ligand
  -I-interpret- 

 56 59  0  0  0  0  0  0  0  0999 V2000
  -41.1600  -16.3850    8.8390 C   0  0  0  0  0
  -41.2540  -16.7180   10.3160 C   0  0  0  0  0
  -39.9930  -17.3940   10.7890 C   0  0  0  0  0
  -38.7440  -17.0070   10.1390 C   0  0  0  0  0
  -38.6870  -16.1270    9.1430 C   0  0  0  0  0
  -37.3730  -15.5360    8.7400 C   0  0  0  0  0
  -37.1260  -15.7690    7.2380 C   0  0  0  0  0
  -38.3070  -15.2260    6.4400 C   0  0  0  0  0
  -39.6340  -15.8970    6.8870 C   0  0  0  0  0
  -39.8960  -15.6450    8.4080 C   0  0  0  0  0
  -40.5360  -15.7700    4.4650 C   0  0  0  0  0
  -40.8950  -15.6310    5.9530 C   0  0  0  0  0
  -39.2980  -14.9560    4.1040 C   0  0  0  0  0
  -38.1000  -15.4680    4.9470 C   0  0  0  0  0
  -36.9120  -14.7330    4.2990 C   0  0  0  0  0
  -37.2950  -14.6390    2.8000 C   0  0  0  0  0
  -38.7290  -15.1920    2.6770 C   0  0  0  0  0
  -39.4980  -13.4140    4.2590 C   0  0  0  0  0
  -40.0480  -14.1450    8.7840 C   0  0  0  0  0
  -39.5620  -14.4460    1.5880 C   0  0  0  0  0
  -40.7550  -15.1980    0.9800 C   0  0  0  0  0
  -40.0190  -18.2310   11.6740 O   0  0  0  0  0
  -41.5550  -14.4200    6.2280 O   0  0  0  0  0
  -38.7390  -16.5840    2.4430 O   0  0  0  0  0
  -39.2830  -13.3200    1.2060 O   0  0  0  0  0
  -41.5760  -14.2030    0.4010 O   0  0  0  0  0
  -41.9969  -15.7227    8.6174 H   0  0  0  0  0
  -41.1580  -17.3364    8.3070 H   0  0  0  0  0
  -42.0961  -17.3920   10.4730 H   0  0  0  0  0
  -41.3915  -15.7943   10.8781 H   0  0  0  0  0
  -37.8154  -17.4602   10.4860 H   0  0  0  0  0
  -36.5764  -16.0123    9.3115 H   0  0  0  0  0
  -37.3871  -14.4642    8.9380 H   0  0  0  0  0
  -37.0188  -16.8370    7.0482 H   0  0  0  0  0
  -36.2144  -15.2540    6.9349 H   0  0  0  0  0
  -38.3696  -14.1543    6.6290 H   0  0  0  0  0
  -39.4858  -16.9680    6.7491 H   0  0  0  0  0
  -41.3740  -15.4004    3.8739 H   0  0  0  0  0
  -40.3283  -16.8200    4.2588 H   0  0  0  0  0
  -41.6157  -16.4126    6.1935 H   0  0  0  0  0
  -37.9478  -16.5472    4.9314 H   0  0  0  0  0
  -35.9700  -15.2601    4.4506 H   0  0  0  0  0
  -36.7438  -13.7518    4.7429 H   0  0  0  0  0
  -36.6022  -15.2125    2.1842 H   0  0  0  0  0
  -37.2434  -13.6085    2.4486 H   0  0  0  0  0
  -40.3065  -13.0863    3.6055 H   0  0  0  0  0
  -39.7499  -13.1838    5.2942 H   0  0  0  0  0
  -38.5766  -12.9001    3.9850 H   0  0  0  0  0
  -39.1342  -13.6117    8.5219 H   0  0  0  0  0
  -40.8889  -13.7181    8.2373 H   0  0  0  0  0
  -40.2272  -14.0567    9.8555 H   0  0  0  0  0
  -41.2937  -15.7689    1.7363 H   0  0  0  0  0
  -40.4301  -15.9279    0.2385 H   0  0  0  0  0
  -42.3018  -14.3215    5.6328 H   0  0  0  0  0
  -38.3918  -16.7624    1.5659 H   0  0  0  0  0
  -42.3448  -14.6166    0.0016 H   0  0  0  0  0
  1  2  1  0  0  0
  1 10  1  0  0  0
  2  3  1  0  0  0
  3  4  1  0  0  0
  3 22  2  0  0  0
  4  5  2  0  0  0
  5  6  1  0  0  0
  5 10  1  0  0  0
  6  7  1  0  0  0
  7  8  1  0  0  0
  8  9  1  0  0  0
  8 14  1  0  0  0
  9 10  1  0  0  0
  9 12  1  0  0  0
 10 19  1  0  0  0
 12 11  1  0  0  0
 11 13  1  0  0  0
 12 23  1  0  0  0
 13 14  1  0  0  0
 13 17  1  0  0  0
 13 18  1  0  0  0
 14 15  1  0  0  0
 15 16  1  0  0  0
 16 17  1  0  0  0
 17 20  1  0  0  0
 17 24  1  0  0  0
 20 21  1  0  0  0
 20 25  2  0  0  0
 21 26  1  0  0  0
  1 27  1  0  0  0
  1 28  1  0  0  0
  2 29  1  0  0  0
  2 30  1  0  0  0
  4 31  1  0  0  0
  6 32  1  0  0  0
  6 33  1  0  0  0
  7 34  1  0  0  0
  7 35  1  0  0  0
  8 36  1  0  0  0
  9 37  1  0  0  0
 11 38  1  0  0  0
 11 39  1  0  0  0
 12 40  1  0  0  0
 14 41  1  0  0  0
 15 42  1  0  0  0
 15 43  1  0  0  0
 16 44  1  0  0  0
 16 45  1  0  0  0
 18 46  1  0  0  0
 18 47  1  0  0  0
 18 48  1  0  0  0
 19 49  1  0  0  0
 19 50  1  0  0  0
 19 51  1  0  0  0
 21 52  1  0  0  0
 21 53  1  0  0  0
 23 54  1  0  0  0
 24 55  1  0  0  0
 26 56  1  0  0  0
M  END
$$$$
