### 
### Created by X-TOOL on Mon Sep 10 21:13:18 2018
### 

@<TRIPOS>MOLECULE
4o36_ligand
  205   208     1     0     0
SMALL
GAST_HUCK


@<TRIPOS>ATOM
      1 N         -14.3440    5.7900   16.7420 N.4       1 GLU         0.2380
      2 CA        -14.1700    4.4710   17.4780 C.3       1 GLU         0.0665
      3 C         -12.7090    3.9540   17.5460 C.2       1 GLU         0.2269
      4 O         -11.8660    4.3760   16.7560 O.2       1 GLU        -0.3907
      5 CB        -14.9520    3.3750   16.7550 C.3       1 GLU         0.0194
      6 CG        -16.4450    3.6680   16.6650 C.3       1 GLU         0.0075
      7 CD        -17.2660    2.5650   16.0370 C.2       1 GLU         0.0351
      8 OE1       -16.7130    1.6460   15.3030 O.co2     1 GLU        -0.5690
      9 OE2       -18.4900    2.5160   16.3540 O.co2     1 GLU        -0.5690
     10 N         -12.4380    3.0070   18.4470 N.am      1 THR        -0.2586
     11 CA        -11.1420    2.2920   18.4600 C.3       1 THR         0.1566
     12 C         -10.9920    1.4880   17.2210 C.2       1 THR         0.2065
     13 O         -11.9300    1.0580   16.6220 O.2       1 THR        -0.3943
     14 CB        -10.9430    1.3830   19.6990 C.3       1 THR         0.0924
     15 OG1       -11.9220    0.3520   19.6300 O.3       1 THR        -0.3874
     16 CG2       -11.0590    2.1110   21.0020 C.3       1 THR        -0.0346
     17 N          -9.7540    1.0880   16.9430 N.am      1 ALA        -0.2639
     18 CA         -9.4850    0.1630   15.8320 C.3       1 ALA         0.1282
     19 C         -10.1530   -1.1790   16.0600 C.2       1 ALA         0.2036
     20 O         -10.7670   -1.7420   15.1130 O.2       1 ALA        -0.3944
     21 CB         -7.9970   -0.0150   15.6350 C.3       1 ALA        -0.0244
     22 N         -10.1700   -1.6240   17.2920 N.am      1 ALA        -0.2640
     23 CA        -10.8620   -2.8770   17.6500 C.3       1 ALA         0.1282
     24 C         -12.3550   -2.8110   17.4120 C.2       1 ALA         0.2036
     25 O         -12.9840   -3.7380   16.8750 O.2       1 ALA        -0.3944
     26 CB        -10.5620   -3.2690   19.0870 C.3       1 ALA        -0.0244
     27 N         -12.9510   -1.7070   17.8000 N.am      1 ALA        -0.2640
     28 CA        -14.4400   -1.4650   17.5970 C.3       1 ALA         0.1282
     29 C         -14.7670   -1.3570   16.1360 C.2       1 ALA         0.2037
     30 O         -15.7480   -1.9540   15.6580 O.2       1 ALA        -0.3944
     31 CB        -14.8720   -0.2380   18.3390 C.3       1 ALA        -0.0244
     32 N         -13.9010   -0.6860   15.3700 N.am      1 HIS        -0.2625
     33 CA        -14.1050   -0.5840   13.9730 C.3       1 HIS         0.1369
     34 C         -14.0830   -1.9630   13.3330 C.2       1 HIS         0.2055
     35 O         -14.8580   -2.2850   12.4110 O.2       1 HIS        -0.3942
     36 CB        -13.0800    0.3170   13.2890 C.3       1 HIS         0.0145
     37 CG        -13.4630    1.7420   13.2840 C.2       1 HIS        -0.0027
     38 ND1       -12.5770    2.7470   13.5030 N.2       1 HIS        -0.3252
     39 CD2       -14.6660    2.3230   13.0940 C.2       1 HIS         0.0291
     40 CE1       -13.1980    3.9060   13.4290 C.2       1 HIS         0.0907
     41 NE2       -14.4600    3.6770   13.1510 N.pl3     1 HIS        -0.2752
     42 N         -13.1110   -2.7570   13.7520 N.am      1 PHE        -0.2618
     43 CA        -13.0160   -4.1130   13.1880 C.3       1 PHE         0.1404
     44 C         -14.3260   -4.9320   13.3790 C.2       1 PHE         0.2060
     45 O         -14.8290   -5.5460   12.4270 O.2       1 PHE        -0.3942
     46 CB        -11.8060   -4.8680   13.8130 C.3       1 PHE         0.0214
     47 CG        -11.7160   -6.3210   13.3500 C.ar      1 PHE        -0.0386
     48 CD1       -10.8540   -6.6460   12.2980 C.ar      1 PHE        -0.0601
     49 CD2       -12.4570   -7.2760   13.9190 C.ar      1 PHE        -0.0601
     50 CE1       -10.7480   -7.9360   11.8860 C.ar      1 PHE        -0.0686
     51 CE2       -12.4510   -8.6010   13.4850 C.ar      1 PHE        -0.0686
     52 CZ        -11.5680   -8.8920   12.4510 C.ar      1 PHE        -0.0687
     53 N         -14.8560   -4.8890   14.6040 N.am      1 GLU        -0.2635
     54 CA        -16.0440   -5.6790   14.8760 C.3       1 GLU         0.1325
     55 C         -17.2410   -5.1560   14.0680 C.2       1 GLU         0.2040
     56 O         -17.9560   -5.9430   13.4620 O.2       1 GLU        -0.3944
     57 CB        -16.4220   -5.5830   16.3570 C.3       1 GLU        -0.0008
     58 CG        -15.4060   -6.1420   17.3420 C.3       1 GLU         0.0044
     59 CD        -15.7570   -5.8930   18.8070 C.2       1 GLU         0.0350
     60 OE1       -14.9760   -5.2460   19.5390 O.co2     1 GLU        -0.5690
     61 OE2       -16.8380   -6.3010   19.2410 O.co2     1 GLU        -0.5690
     62 N         -17.4010   -3.8360   14.0100 N.am      1 GLN        -0.2636
     63 CA        -18.4640   -3.2190   13.2240 C.3       1 GLN         0.1330
     64 C         -18.3420   -3.5130   11.7240 C.2       1 GLN         0.2042
     65 O         -19.3550   -3.7030   11.0170 O.2       1 GLN        -0.3944
     66 CB        -18.4370   -1.6980   13.4500 C.3       1 GLN         0.0045
     67 CG        -19.5440   -0.9540   12.7330 C.3       1 GLN         0.0412
     68 CD        -19.5130    0.5430   12.9340 C.2       1 GLN         0.1737
     69 OE1       -19.5050    1.3080   11.9660 O.2       1 GLN        -0.3973
     70 NE2       -19.3400    0.9400   14.1490 N.am      1 GLN        -0.3009
     71 N         -17.1090   -3.5600   11.2070 N.am      1 HIS        -0.2619
     72 CA        -16.9230   -3.6840    9.7880 C.3       1 HIS         0.1421
     73 C         -16.9200   -5.1500    9.3130 C.2       1 HIS         0.2061
     74 O         -17.1490   -5.3590    8.1620 O.2       1 HIS        -0.3942
     75 CB        -15.6450   -2.9970    9.3910 C.3       1 HIS         0.0427
     76 CG        -15.6810   -1.5030    9.5430 C.2       1 HIS         0.0561
     77 ND1       -14.5230   -0.7630    9.7060 N.pl3     1 HIS        -0.2623
     78 CD2       -16.7110   -0.6360    9.6040 C.2       1 HIS        -0.0276
     79 CE1       -14.8650    0.5040    9.8500 C.2       1 HIS         0.0875
     80 NE2       -16.1730    0.5970    9.7520 N.2       1 HIS        -0.3437
     81 N         -16.6020   -6.0630   10.1940 N.am      1 HIS        -0.2623
     82 CA        -16.4470   -7.4510    9.7720 C.3       1 HIS         0.1369
     83 C         -17.3140   -8.4860   10.4100 C.2       1 HIS         0.2054
     84 O         -17.4230   -9.5850    9.8760 O.2       1 HIS        -0.3942
     85 CB        -14.9890   -7.8220    9.9010 C.3       1 HIS         0.0145
     86 CG        -14.0170   -6.9450    9.1340 C.2       1 HIS        -0.0027
     87 ND1       -13.9320   -6.9430    7.7690 N.2       1 HIS        -0.3252
     88 CD2       -13.1340   -5.9970    9.5320 C.2       1 HIS         0.0291
     89 CE1       -13.1040   -6.0230    7.3530 C.2       1 HIS         0.0907
     90 NE2       -12.6060   -5.4420    8.4070 N.pl3     1 HIS        -0.2752
     91 N         -17.8220   -8.2800   11.6010 N.am      1 MET        -0.2636
     92 CA        -18.5600   -9.3560   12.2810 C.3       1 MET         0.1317
     93 C         -20.0490   -9.4060   11.9560 C.2       1 MET         0.2040
     94 O         -20.7080   -8.3730   11.9930 O.2       1 MET        -0.3944
     95 CB        -18.3490   -9.2050   13.7810 C.3       1 MET        -0.0034
     96 CG        -16.8980   -9.3450   14.2020 C.3       1 MET        -0.0024
     97 SD        -16.1510  -10.9230   13.8110 S.3       1 MET        -0.1639
     98 CE        -17.5490  -11.9860   14.3450 C.3       1 MET        -0.0181
     99 N         -20.5090  -10.5750   11.6320 N.am      1 ASP        -0.2622
    100 CA        -21.9510  -10.7990   11.4230 C.3       1 ASP         0.1423
    101 C         -22.3460  -12.1270   11.9920 C.2       1 ASP         0.2051
    102 O         -22.5770  -13.0710   11.2780 O.2       1 ASP        -0.3943
    103 CB        -22.3260  -10.7390    9.9570 C.3       1 ASP         0.0406
    104 CG        -23.8250  -10.7990    9.7300 C.2       1 ASP         0.0393
    105 OD1       -24.5960  -10.4950   10.6820 O.co2     1 ASP        -0.5688
    106 OD2       -24.1910  -11.0050    8.5960 O.co2     1 ASP        -0.5688
    107 N         -22.3420  -12.2220   13.2980 N.am      1 SER        -0.2671
    108 CA        -22.4490  -13.5190   13.9570 C.3       1 SER         0.1173
    109 C         -23.6900  -14.3280   13.5560 C.2       1 SER         0.0623
    110 O         -24.7490  -13.6080   13.4920 O.co2     1 SER        -0.5665
    111 CB        -22.4510  -13.2810   15.4140 C.3       1 SER         0.0789
    112 OG        -21.2680  -12.6050   15.7380 O.3       1 SER        -0.3910
    113 OXT       -23.6570  -15.6010   13.2690 O.co2     1 SER        -0.5665
    114 H         -15.3177    6.0506   16.7453 H         1 GLU         0.2015
    115 H         -14.0266    5.6884   15.7907 H         1 GLU         0.2015
    116 H         -13.8032    6.5054   17.2021 H         1 GLU         0.2015
    117 H         -14.5537    4.5958   18.5013 H         1 GLU         0.1099
    118 H         -14.8128    2.4287   17.2983 H         1 GLU         0.0363
    119 H         -14.5527    3.2744   15.7350 H         1 GLU         0.0363
    120 H         -16.5801    4.5802   16.0653 H         1 GLU         0.0434
    121 H         -16.8230    3.8395   17.6837 H         1 GLU         0.0434
    122 H         -13.1290    2.7744   19.1314 H         1 THR         0.1885
    123 H         -10.3467    3.0517   18.4759 H         1 THR         0.0826
    124 H          -9.9395    0.9354   19.6471 H         1 THR         0.0639
    125 H         -11.8262   -0.2247   20.3788 H         1 THR         0.2101
    126 H         -10.9069    1.4047   21.8314 H         1 THR         0.0257
    127 H         -12.0594    2.5613   21.0827 H         1 THR         0.0257
    128 H         -10.2960    2.9019   21.0494 H         1 THR         0.0257
    129 H          -8.9931    1.4222   17.4993 H         1 ALA         0.1883
    130 H          -9.9035    0.6016   14.9141 H         1 ALA         0.0797
    131 H          -7.8181   -0.7093   14.8008 H         1 ALA         0.0277
    132 H          -7.5517   -0.4237   16.5541 H         1 ALA         0.0277
    133 H          -7.5383    0.9584   15.4067 H         1 ALA         0.0277
    134 H          -9.7032   -1.1025   18.0062 H         1 ALA         0.1883
    135 H         -10.4623   -3.6679   16.9983 H         1 ALA         0.0797
    136 H         -11.0881   -4.2041   19.3294 H         1 ALA         0.0277
    137 H         -10.9021   -2.4710   19.7634 H         1 ALA         0.0277
    138 H          -9.4786   -3.4157   19.2085 H         1 ALA         0.0277
    139 H         -12.4053   -0.9977   18.2462 H         1 ALA         0.1883
    140 H         -14.9885   -2.3256   18.0074 H         1 ALA         0.0797
    141 H         -15.9488   -0.0756   18.1835 H         1 ALA         0.0277
    142 H         -14.3123    0.6323   17.9658 H         1 ALA         0.0277
    143 H         -14.6724   -0.3695   19.4127 H         1 ALA         0.0277
    144 H         -13.1024   -0.2525   15.7874 H         1 HIS         0.1885
    145 H         -15.1003   -0.1441   13.8119 H         1 HIS         0.0817
    146 H         -12.9630   -0.0162   12.2472 H         1 HIS         0.0420
    147 H         -12.1200    0.2159   13.8163 H         1 HIS         0.0420
    148 H         -15.6150    1.8154   12.9279 H         1 HIS         0.0729
    149 H         -12.7431    4.8848   13.5735 H         1 HIS         0.1199
    150 H         -15.1796    4.3983   13.0000 H         1 HIS         0.2361
    151 H         -12.4546   -2.4422   14.4376 H         1 PHE         0.1885
    152 H         -12.8379   -4.0150   12.1070 H         1 PHE         0.0823
    153 H         -11.9093   -4.8532   14.9080 H         1 PHE         0.0474
    154 H         -10.8801   -4.3487   13.5249 H         1 PHE         0.0474
    155 H         -10.2721   -5.8708   11.8127 H         1 PHE         0.0557
    156 H         -13.0917   -7.0086   14.7561 H         1 PHE         0.0557
    157 H         -10.0286   -8.2112   11.1232 H         1 PHE         0.0599
    158 H         -13.0931   -9.3554   13.9251 H         1 PHE         0.0599
    159 H         -11.5218   -9.9075   12.0745 H         1 PHE         0.0559
    160 H         -14.4435   -4.3246   15.3191 H         1 GLU         0.1883
    161 H         -15.8466   -6.7279   14.6098 H         1 GLU         0.0801
    162 H         -17.3655   -6.1302   16.4998 H         1 GLU         0.0330
    163 H         -16.5744   -4.5205   16.5973 H         1 GLU         0.0330
    164 H         -14.4316   -5.6750   17.1359 H         1 GLU         0.0433
    165 H         -15.3328   -7.2281   17.1840 H         1 GLU         0.0433
    166 H         -16.7731   -3.2489   14.5210 H         1 GLN         0.1883
    167 H         -19.4279   -3.6158   13.5751 H         1 GLN         0.0801
    168 H         -17.4712   -1.3113   13.0926 H         1 GLN         0.0337
    169 H         -18.5323   -1.5059   14.5289 H         1 GLN         0.0337
    170 H         -20.5090   -1.3319   13.1016 H         1 GLN         0.0504
    171 H         -19.4569   -1.1596   11.6559 H         1 GLN         0.0504
    172 H         -19.3090    1.9179   14.3559 H         1 GLN         0.1814
    173 H         -19.2368    0.2699   14.8841 H         1 GLN         0.1814
    174 H         -16.3136   -3.5086   11.8109 H         1 HIS         0.1885
    175 H         -17.7604   -3.1729    9.2905 H         1 HIS         0.0824
    176 H         -15.4391   -3.2323    8.3364 H         1 HIS         0.0491
    177 H         -14.8320   -3.3890   10.0197 H         1 HIS         0.0491
    178 H         -13.5627   -1.1354    9.7136 H         1 HIS         0.2386
    179 H         -17.7707   -0.8802    9.5455 H         1 HIS         0.0324
    180 H         -14.1793    1.3326   10.0211 H         1 HIS         0.1149
    181 H         -16.4658   -5.8109   11.1521 H         1 HIS         0.1885
    182 H         -16.7011   -7.4729    8.7020 H         1 HIS         0.0817
    183 H         -14.8697   -8.8543    9.5404 H         1 HIS         0.0420
    184 H         -14.7205   -7.7724   10.9666 H         1 HIS         0.0420
    185 H         -12.8922   -5.7294   10.5596 H         1 HIS         0.0729
    186 H         -12.8725   -5.7853    6.3158 H         1 HIS         0.1199
    187 H         -11.9161   -4.6773    8.3915 H         1 HIS         0.2361
    188 H         -17.7080   -7.3922   12.0469 H         1 MET         0.1883
    189 H         -18.1237  -10.3139   11.9616 H         1 MET         0.0800
    190 H         -18.9376   -9.9787   14.2957 H         1 MET         0.0320
    191 H         -18.7059   -8.2099   14.0850 H         1 MET         0.0320
    192 H         -16.8424   -9.2009   15.2911 H         1 MET         0.0378
    193 H         -16.3181   -8.5579   13.6979 H         1 MET         0.0378
    194 H         -17.2886  -13.0425   14.1838 H         1 MET         0.0340
    195 H         -18.4451  -11.7356   13.7582 H         1 MET         0.0340
    196 H         -17.7510  -11.8170   15.4130 H         1 MET         0.0340
    197 H         -19.8731  -11.3389   11.5219 H         1 ASP         0.1884
    198 H         -22.5033  -10.0093   11.9533 H         1 ASP         0.0819
    199 H         -21.8580  -11.5894    9.4395 H         1 ASP         0.0478
    200 H         -21.9442   -9.7977    9.5349 H         1 ASP         0.0478
    201 H         -22.2644  -11.3930   13.8519 H         1 SER         0.1876
    202 H         -21.5620  -14.1130   13.6918 H         1 SER         0.0749
    203 H         -22.4926  -14.2406   15.9501 H         1 SER         0.0599
    204 H         -23.3208  -12.6677   15.6920 H         1 SER         0.0599
    205 H         -20.5218  -13.1388   15.4914 H         1 SER         0.2096
@<TRIPOS>BOND
     1    1    2 1  
     2    2    3 1  
     3    2    5 1  
     4    3    4 2  
     5    3   10 am 
     6    5    6 1  
     7    6    7 1  
     8    7    8 ar 
     9    7    9 ar 
    10   10   11 1  
    11   11   12 1  
    12   11   14 1  
    13   12   13 2  
    14   12   17 am 
    15   14   15 1  
    16   14   16 1  
    17   17   18 1  
    18   18   19 1  
    19   18   21 1  
    20   19   20 2  
    21   19   22 am 
    22   22   23 1  
    23   23   24 1  
    24   23   26 1  
    25   24   25 2  
    26   24   27 am 
    27   27   28 1  
    28   28   29 1  
    29   28   31 1  
    30   29   30 2  
    31   29   32 am 
    32   32   33 1  
    33   33   34 1  
    34   33   36 1  
    35   34   35 2  
    36   34   42 am 
    37   36   37 1  
    38   37   38 1  
    39   37   39 2  
    40   38   40 2  
    41   39   41 1  
    42   40   41 1  
    43   42   43 1  
    44   43   44 1  
    45   43   46 1  
    46   44   45 2  
    47   44   53 am 
    48   46   47 1  
    49   47   48 ar 
    50   47   49 ar 
    51   48   50 ar 
    52   49   51 ar 
    53   50   52 ar 
    54   51   52 ar 
    55   53   54 1  
    56   54   55 1  
    57   54   57 1  
    58   55   56 2  
    59   55   62 am 
    60   57   58 1  
    61   58   59 1  
    62   59   60 ar 
    63   59   61 ar 
    64   62   63 1  
    65   63   64 1  
    66   63   66 1  
    67   64   65 2  
    68   64   71 am 
    69   66   67 1  
    70   67   68 1  
    71   68   69 2  
    72   68   70 am 
    73   71   72 1  
    74   72   73 1  
    75   72   75 1  
    76   73   74 2  
    77   73   81 am 
    78   75   76 1  
    79   76   77 1  
    80   76   78 2  
    81   77   79 1  
    82   78   80 1  
    83   79   80 2  
    84   81   82 1  
    85   82   83 1  
    86   82   85 1  
    87   83   84 2  
    88   83   91 am 
    89   85   86 1  
    90   86   87 1  
    91   86   88 2  
    92   87   89 2  
    93   88   90 1  
    94   89   90 1  
    95   91   92 1  
    96   92   93 1  
    97   92   95 1  
    98   93   94 2  
    99   93   99 am 
   100   95   96 1  
   101   96   97 1  
   102   97   98 1  
   103   99  100 1  
   104  100  101 1  
   105  100  103 1  
   106  101  102 2  
   107  101  107 am 
   108  103  104 1  
   109  104  105 ar 
   110  104  106 ar 
   111  107  108 1  
   112  108  109 1  
   113  108  111 1  
   114  109  110 ar 
   115  109  113 ar 
   116  111  112 1  
   117    1  114 1  
   118    1  115 1  
   119    1  116 1  
   120    2  117 1  
   121    5  118 1  
   122    5  119 1  
   123    6  120 1  
   124    6  121 1  
   125   10  122 1  
   126   11  123 1  
   127   14  124 1  
   128   15  125 1  
   129   16  126 1  
   130   16  127 1  
   131   16  128 1  
   132   17  129 1  
   133   18  130 1  
   134   21  131 1  
   135   21  132 1  
   136   21  133 1  
   137   22  134 1  
   138   23  135 1  
   139   26  136 1  
   140   26  137 1  
   141   26  138 1  
   142   27  139 1  
   143   28  140 1  
   144   31  141 1  
   145   31  142 1  
   146   31  143 1  
   147   32  144 1  
   148   33  145 1  
   149   36  146 1  
   150   36  147 1  
   151   39  148 1  
   152   40  149 1  
   153   41  150 1  
   154   42  151 1  
   155   43  152 1  
   156   46  153 1  
   157   46  154 1  
   158   48  155 1  
   159   49  156 1  
   160   50  157 1  
   161   51  158 1  
   162   52  159 1  
   163   53  160 1  
   164   54  161 1  
   165   57  162 1  
   166   57  163 1  
   167   58  164 1  
   168   58  165 1  
   169   62  166 1  
   170   63  167 1  
   171   66  168 1  
   172   66  169 1  
   173   67  170 1  
   174   67  171 1  
   175   70  172 1  
   176   70  173 1  
   177   71  174 1  
   178   72  175 1  
   179   75  176 1  
   180   75  177 1  
   181   77  178 1  
   182   78  179 1  
   183   79  180 1  
   184   81  181 1  
   185   82  182 1  
   186   85  183 1  
   187   85  184 1  
   188   88  185 1  
   189   89  186 1  
   190   90  187 1  
   191   91  188 1  
   192   92  189 1  
   193   95  190 1  
   194   95  191 1  
   195   96  192 1  
   196   96  193 1  
   197   98  194 1  
   198   98  195 1  
   199   98  196 1  
   200   99  197 1  
   201  100  198 1  
   202  103  199 1  
   203  103  200 1  
   204  107  201 1  
   205  108  202 1  
   206  111  203 1  
   207  111  204 1  
   208  112  205 1  
@<TRIPOS>SUBSTRUCTURE
     1 GLU         1

