4o36_ligand
  -I-interpret- 

206209  0  0  0  0  0  0  0  0999 V2000
  -14.3440    5.7900   16.7420 N   0  3  0  0  0
  -14.1700    4.4710   17.4780 C   0  0  0  0  0
  -12.7090    3.9540   17.5460 C   0  0  0  0  0
  -11.8660    4.3760   16.7560 O   0  0  0  0  0
  -14.9520    3.3750   16.7550 C   0  0  0  0  0
  -16.4450    3.6680   16.6650 C   0  0  0  0  0
  -17.2660    2.5650   16.0370 C   0  0  0  0  0
  -16.7130    1.6460   15.3030 O   0  0  0  0  0
  -18.4900    2.5160   16.3540 O   0  0  0  0  0
  -12.4380    3.0070   18.4470 N   0  0  0  0  0
  -11.1420    2.2920   18.4600 C   0  0  0  0  0
  -10.9920    1.4880   17.2210 C   0  0  0  0  0
  -11.9300    1.0580   16.6220 O   0  0  0  0  0
  -10.9430    1.3830   19.6990 C   0  0  0  0  0
  -11.9220    0.3520   19.6300 O   0  0  0  0  0
  -11.0590    2.1110   21.0020 C   0  0  0  0  0
   -9.7540    1.0880   16.9430 N   0  0  0  0  0
   -9.4850    0.1630   15.8320 C   0  0  0  0  0
  -10.1530   -1.1790   16.0600 C   0  0  0  0  0
  -10.7670   -1.7420   15.1130 O   0  0  0  0  0
   -7.9970   -0.0150   15.6350 C   0  0  0  0  0
  -10.1700   -1.6240   17.2920 N   0  0  0  0  0
  -10.8620   -2.8770   17.6500 C   0  0  0  0  0
  -12.3550   -2.8110   17.4120 C   0  0  0  0  0
  -12.9840   -3.7380   16.8750 O   0  0  0  0  0
  -10.5620   -3.2690   19.0870 C   0  0  0  0  0
  -12.9510   -1.7070   17.8000 N   0  0  0  0  0
  -14.4400   -1.4650   17.5970 C   0  0  0  0  0
  -14.7670   -1.3570   16.1360 C   0  0  0  0  0
  -15.7480   -1.9540   15.6580 O   0  0  0  0  0
  -14.8720   -0.2380   18.3390 C   0  0  0  0  0
  -13.9010   -0.6860   15.3700 N   0  0  0  0  0
  -14.1050   -0.5840   13.9730 C   0  0  0  0  0
  -14.0830   -1.9630   13.3330 C   0  0  0  0  0
  -14.8580   -2.2850   12.4110 O   0  0  0  0  0
  -13.0800    0.3170   13.2890 C   0  0  0  0  0
  -13.4630    1.7420   13.2840 C   0  0  0  0  0
  -12.5770    2.7470   13.5030 N   0  0  0  0  0
  -14.6660    2.3230   13.0940 C   0  0  0  0  0
  -13.1980    3.9060   13.4290 C   0  0  0  0  0
  -14.4600    3.6770   13.1510 N   0  0  0  0  0
  -13.1110   -2.7570   13.7520 N   0  0  0  0  0
  -13.0160   -4.1130   13.1880 C   0  0  0  0  0
  -14.3260   -4.9320   13.3790 C   0  0  0  0  0
  -14.8290   -5.5460   12.4270 O   0  0  0  0  0
  -11.8060   -4.8680   13.8130 C   0  0  0  0  0
  -11.7160   -6.3210   13.3500 C   0  0  0  0  0
  -10.8540   -6.6460   12.2980 C   0  0  0  0  0
  -12.4570   -7.2760   13.9190 C   0  0  0  0  0
  -10.7480   -7.9360   11.8860 C   0  0  0  0  0
  -12.4510   -8.6010   13.4850 C   0  0  0  0  0
  -11.5680   -8.8920   12.4510 C   0  0  0  0  0
  -14.8560   -4.8890   14.6040 N   0  0  0  0  0
  -16.0440   -5.6790   14.8760 C   0  0  0  0  0
  -17.2410   -5.1560   14.0680 C   0  0  0  0  0
  -17.9560   -5.9430   13.4620 O   0  0  0  0  0
  -16.4220   -5.5830   16.3570 C   0  0  0  0  0
  -15.4060   -6.1420   17.3420 C   0  0  0  0  0
  -15.7570   -5.8930   18.8070 C   0  0  0  0  0
  -14.9760   -5.2460   19.5390 O   0  0  0  0  0
  -16.8380   -6.3010   19.2410 O   0  0  0  0  0
  -17.4010   -3.8360   14.0100 N   0  0  0  0  0
  -18.4640   -3.2190   13.2240 C   0  0  0  0  0
  -18.3420   -3.5130   11.7240 C   0  0  0  0  0
  -19.3550   -3.7030   11.0170 O   0  0  0  0  0
  -18.4370   -1.6980   13.4500 C   0  0  0  0  0
  -19.5440   -0.9540   12.7330 C   0  0  0  0  0
  -19.5130    0.5430   12.9340 C   0  0  0  0  0
  -19.5050    1.3080   11.9660 O   0  0  0  0  0
  -19.3400    0.9400   14.1490 N   0  0  0  0  0
  -17.1090   -3.5600   11.2070 N   0  0  0  0  0
  -16.9230   -3.6840    9.7880 C   0  0  0  0  0
  -16.9200   -5.1500    9.3130 C   0  0  0  0  0
  -17.1490   -5.3590    8.1620 O   0  0  0  0  0
  -15.6450   -2.9970    9.3910 C   0  0  0  0  0
  -15.6810   -1.5030    9.5430 C   0  0  0  0  0
  -14.5230   -0.7630    9.7060 N   0  0  0  0  0
  -16.7110   -0.6360    9.6040 C   0  0  0  0  0
  -14.8650    0.5040    9.8500 C   0  0  0  0  0
  -16.1730    0.5970    9.7520 N   0  0  0  0  0
  -16.6020   -6.0630   10.1940 N   0  0  0  0  0
  -16.4470   -7.4510    9.7720 C   0  0  0  0  0
  -17.3140   -8.4860   10.4100 C   0  0  0  0  0
  -17.4230   -9.5850    9.8760 O   0  0  0  0  0
  -14.9890   -7.8220    9.9010 C   0  0  0  0  0
  -14.0170   -6.9450    9.1340 C   0  0  0  0  0
  -13.9320   -6.9430    7.7690 N   0  0  0  0  0
  -13.1340   -5.9970    9.5320 C   0  0  0  0  0
  -13.1040   -6.0230    7.3530 C   0  0  0  0  0
  -12.6060   -5.4420    8.4070 N   0  0  0  0  0
  -17.8220   -8.2800   11.6010 N   0  0  0  0  0
  -18.5600   -9.3560   12.2810 C   0  0  0  0  0
  -20.0490   -9.4060   11.9560 C   0  0  0  0  0
  -20.7080   -8.3730   11.9930 O   0  0  0  0  0
  -18.3490   -9.2050   13.7810 C   0  0  0  0  0
  -16.8980   -9.3450   14.2020 C   0  0  0  0  0
  -16.1510  -10.9230   13.8110 S   0  0  0  0  0
  -17.5490  -11.9860   14.3450 C   0  0  0  0  0
  -20.5090  -10.5750   11.6320 N   0  0  0  0  0
  -21.9510  -10.7990   11.4230 C   0  0  0  0  0
  -22.3460  -12.1270   11.9920 C   0  0  0  0  0
  -22.5770  -13.0710   11.2780 O   0  0  0  0  0
  -22.3260  -10.7390    9.9570 C   0  0  0  0  0
  -23.8250  -10.7990    9.7300 C   0  0  0  0  0
  -24.5960  -10.4950   10.6820 O   0  0  0  0  0
  -24.1910  -11.0050    8.5960 O   0  0  0  0  0
  -22.3420  -12.2220   13.2980 N   0  0  0  0  0
  -22.4490  -13.5190   13.9570 C   0  0  0  0  0
  -23.6900  -14.3280   13.5560 C   0  0  0  0  0
  -24.7490  -13.6080   13.4920 O   0  0  0  0  0
  -22.4510  -13.2810   15.4140 C   0  0  0  0  0
  -21.2680  -12.6050   15.7380 O   0  0  0  0  0
  -23.6570  -15.6010   13.2690 O   0  0  0  0  0
  -13.8213    6.5198   17.2263 H   0  0  0  0  0
  -13.9937    5.6949   15.7888 H   0  0  0  0  0
  -15.3333    6.0371   16.7189 H   0  0  0  0  0
  -14.5198    4.6737   18.4902 H   0  0  0  0  0
  -14.8287    2.4514   17.3205 H   0  0  0  0  0
  -14.5653    3.3073   15.7381 H   0  0  0  0  0
  -16.5588    4.5486   16.0328 H   0  0  0  0  0
  -16.8069    3.7923   17.6856 H   0  0  0  0  0
  -15.7857    1.8574   15.1723 H   0  0  0  0  0
  -13.1428    2.7698   19.1451 H   0  0  0  0  0
  -10.3716    3.0613   18.5122 H   0  0  0  0  0
   -9.9278    0.9870   19.6737 H   0  0  0  0  0
  -11.8252   -0.2308   20.3867 H   0  0  0  0  0
  -10.3025    2.8944   21.0477 H   0  0  0  0  0
  -12.0506    2.5567   21.0807 H   0  0  0  0  0
  -10.9081    1.4101   21.8230 H   0  0  0  0  0
   -8.9779    1.4289   17.5104 H   0  0  0  0  0
   -9.9065    0.5994   14.9265 H   0  0  0  0  0
   -7.5437    0.9501   15.4089 H   0  0  0  0  0
   -7.5570   -0.4199   16.5463 H   0  0  0  0  0
   -7.8210   -0.7031   14.8082 H   0  0  0  0  0
   -9.6939   -1.0920   18.0205 H   0  0  0  0  0
  -10.4727   -3.6490   16.9862 H   0  0  0  0  0
   -9.4883   -3.4140   19.2061 H   0  0  0  0  0
  -10.8994   -2.4775   19.7562 H   0  0  0  0  0
  -11.0838   -4.1957   19.3260 H   0  0  0  0  0
  -12.3944   -0.9835   18.2551 H   0  0  0  0  0
  -14.9891   -2.3170   17.9978 H   0  0  0  0  0
  -14.6736   -0.3695   19.4027 H   0  0  0  0  0
  -14.3167    0.6236   17.9683 H   0  0  0  0  0
  -15.9390   -0.0781   18.1841 H   0  0  0  0  0
  -13.0864   -0.2438   15.7958 H   0  0  0  0  0
  -15.0840   -0.1254   13.8339 H   0  0  0  0  0
  -13.0002   -0.0054   12.2508 H   0  0  0  0  0
  -12.1450    0.2301   13.8425 H   0  0  0  0  0
  -15.6159    1.8149   12.9277 H   0  0  0  0  0
  -12.7427    4.8857   13.5736 H   0  0  0  0  0
  -12.4415   -2.4359   14.4513 H   0  0  0  0  0
  -12.8633   -4.0070   12.1140 H   0  0  0  0  0
  -11.9344   -4.8686   14.8954 H   0  0  0  0  0
  -10.8949   -4.3591   13.4984 H   0  0  0  0  0
  -10.2689   -5.8665   11.8100 H   0  0  0  0  0
  -13.0952   -7.0071   14.7607 H   0  0  0  0  0
  -10.0247   -8.2128   11.1190 H   0  0  0  0  0
  -13.0966   -9.3596   13.9276 H   0  0  0  0  0
  -11.5216   -9.9131   12.0725 H   0  0  0  0  0
  -14.4353   -4.3134   15.3334 H   0  0  0  0  0
  -15.8176   -6.7089   14.6001 H   0  0  0  0  0
  -17.3275   -6.1769   16.4810 H   0  0  0  0  0
  -16.5134   -4.5203   16.5814 H   0  0  0  0  0
  -14.4580   -5.6404   17.1474 H   0  0  0  0  0
  -15.3756   -7.2218   17.1964 H   0  0  0  0  0
  -14.1907   -5.0118   19.0390 H   0  0  0  0  0
  -16.7606   -3.2372   14.5312 H   0  0  0  0  0
  -19.4088   -3.6473   13.5587 H   0  0  0  0  0
  -17.4897   -1.3279   13.0580 H   0  0  0  0  0
  -18.5684   -1.5257   14.5182 H   0  0  0  0  0
  -20.4895   -1.3140   13.1387 H   0  0  0  0  0
  -19.4177   -1.1385   11.6662 H   0  0  0  0  0
  -19.1873    1.9292   14.3455 H   0  0  0  0  0
  -19.3559    0.2648   14.9133 H   0  0  0  0  0
  -16.2977   -3.5076   11.8229 H   0  0  0  0  0
  -17.7713   -3.2043    9.2997 H   0  0  0  0  0
  -15.4779   -3.2104    8.3352 H   0  0  0  0  0
  -14.8599   -3.3699   10.0488 H   0  0  0  0  0
  -17.7716   -0.8804    9.5455 H   0  0  0  0  0
  -14.1787    1.3333   10.0213 H   0  0  0  0  0
  -16.4631   -5.8059   11.1712 H   0  0  0  0  0
  -16.8048   -7.4671    8.7425 H   0  0  0  0  0
  -14.8885   -8.8267    9.4905 H   0  0  0  0  0
  -14.7353   -7.7151   10.9557 H   0  0  0  0  0
  -12.8920   -5.7292   10.5605 H   0  0  0  0  0
  -12.8722   -5.7851    6.3148 H   0  0  0  0  0
  -17.7057   -7.3745   12.0558 H   0  0  0  0  0
  -18.1614  -10.3016   11.9135 H   0  0  0  0  0
  -18.9122   -9.9976   14.2736 H   0  0  0  0  0
  -18.6771   -8.2037   14.0600 H   0  0  0  0  0
  -16.8724   -9.2434   15.2869 H   0  0  0  0  0
  -16.3363   -8.5858   13.6577 H   0  0  0  0  0
  -17.7482  -11.8176   15.4033 H   0  0  0  0  0
  -18.4362  -11.7368   13.7629 H   0  0  0  0  0
  -17.2898  -13.0325   14.1848 H   0  0  0  0  0
  -19.8604  -11.3542   11.5197 H   0  0  0  0  0
  -22.4873  -10.0005   11.9358 H   0  0  0  0  0
  -21.8790  -11.6015    9.4627 H   0  0  0  0  0
  -21.9661   -9.7902    9.5592 H   0  0  0  0  0
  -24.0818  -10.3802   11.4845 H   0  0  0  0  0
  -22.2629  -11.3764   13.8630 H   0  0  0  0  0
  -21.5986  -14.1230   13.6408 H   0  0  0  0  0
  -22.5062  -14.2272   15.9523 H   0  0  0  0  0
  -23.3180  -12.6852   15.6993 H   0  0  0  0  0
  -21.2449  -12.4378   16.6830 H   0  0  0  0  0
  -22.7634  -15.9314   13.3870 H   0  0  0  0  0
  1  2  1  0  0  0
  2  3  1  0  0  0
  2  5  1  0  0  0
  3  4  2  0  0  0
  3 10  1  0  0  0
  5  6  1  0  0  0
  6  7  1  0  0  0
  7  8  1  0  0  0
  7  9  2  0  0  0
 10 11  1  0  0  0
 11 12  1  0  0  0
 11 14  1  0  0  0
 12 13  2  0  0  0
 12 17  1  0  0  0
 14 15  1  0  0  0
 14 16  1  0  0  0
 17 18  1  0  0  0
 18 19  1  0  0  0
 18 21  1  0  0  0
 19 20  2  0  0  0
 19 22  1  0  0  0
 22 23  1  0  0  0
 23 24  1  0  0  0
 23 26  1  0  0  0
 24 25  2  0  0  0
 24 27  1  0  0  0
 27 28  1  0  0  0
 28 29  1  0  0  0
 28 31  1  0  0  0
 29 30  2  0  0  0
 29 32  1  0  0  0
 32 33  1  0  0  0
 33 34  1  0  0  0
 33 36  1  0  0  0
 34 35  2  0  0  0
 34 42  1  0  0  0
 36 37  1  0  0  0
 37 38  4  0  0  0
 37 39  4  0  0  0
 38 40  4  0  0  0
 39 41  4  0  0  0
 40 41  4  0  0  0
 42 43  1  0  0  0
 43 44  1  0  0  0
 43 46  1  0  0  0
 44 45  2  0  0  0
 44 53  1  0  0  0
 46 47  1  0  0  0
 47 48  4  0  0  0
 47 49  4  0  0  0
 48 50  4  0  0  0
 49 51  4  0  0  0
 50 52  4  0  0  0
 51 52  4  0  0  0
 53 54  1  0  0  0
 54 55  1  0  0  0
 54 57  1  0  0  0
 55 56  2  0  0  0
 55 62  1  0  0  0
 57 58  1  0  0  0
 58 59  1  0  0  0
 59 60  1  0  0  0
 59 61  2  0  0  0
 62 63  1  0  0  0
 63 64  1  0  0  0
 63 66  1  0  0  0
 64 65  2  0  0  0
 64 71  1  0  0  0
 66 67  1  0  0  0
 67 68  1  0  0  0
 68 69  2  0  0  0
 68 70  1  0  0  0
 71 72  1  0  0  0
 72 73  1  0  0  0
 72 75  1  0  0  0
 73 74  2  0  0  0
 73 81  1  0  0  0
 75 76  1  0  0  0
 76 77  4  0  0  0
 76 78  4  0  0  0
 77 79  4  0  0  0
 78 80  4  0  0  0
 79 80  4  0  0  0
 81 82  1  0  0  0
 82 83  1  0  0  0
 82 85  1  0  0  0
 83 84  2  0  0  0
 83 91  1  0  0  0
 85 86  1  0  0  0
 86 87  4  0  0  0
 86 88  4  0  0  0
 87 89  4  0  0  0
 88 90  4  0  0  0
 89 90  4  0  0  0
 91 92  1  0  0  0
 92 93  1  0  0  0
 92 95  1  0  0  0
 93 94  2  0  0  0
 93 99  1  0  0  0
 95 96  1  0  0  0
 96 97  1  0  0  0
 97 98  1  0  0  0
 99100  1  0  0  0
100101  1  0  0  0
100103  1  0  0  0
101102  2  0  0  0
101107  1  0  0  0
103104  1  0  0  0
104105  1  0  0  0
104106  2  0  0  0
107108  1  0  0  0
108109  1  0  0  0
108111  1  0  0  0
109110  2  0  0  0
109113  1  0  0  0
111112  1  0  0  0
  1114  1  0  0  0
  1115  1  0  0  0
  1116  1  0  0  0
  2117  1  0  0  0
  5118  1  0  0  0
  5119  1  0  0  0
  6120  1  0  0  0
  6121  1  0  0  0
  8122  1  0  0  0
 10123  1  0  0  0
 11124  1  0  0  0
 14125  1  0  0  0
 15126  1  0  0  0
 16127  1  0  0  0
 16128  1  0  0  0
 16129  1  0  0  0
 17130  1  0  0  0
 18131  1  0  0  0
 21132  1  0  0  0
 21133  1  0  0  0
 21134  1  0  0  0
 22135  1  0  0  0
 23136  1  0  0  0
 26137  1  0  0  0
 26138  1  0  0  0
 26139  1  0  0  0
 27140  1  0  0  0
 28141  1  0  0  0
 31142  1  0  0  0
 31143  1  0  0  0
 31144  1  0  0  0
 32145  1  0  0  0
 33146  1  0  0  0
 36147  1  0  0  0
 36148  1  0  0  0
 39149  1  0  0  0
 40150  1  0  0  0
 42151  1  0  0  0
 43152  1  0  0  0
 46153  1  0  0  0
 46154  1  0  0  0
 48155  1  0  0  0
 49156  1  0  0  0
 50157  1  0  0  0
 51158  1  0  0  0
 52159  1  0  0  0
 53160  1  0  0  0
 54161  1  0  0  0
 57162  1  0  0  0
 57163  1  0  0  0
 58164  1  0  0  0
 58165  1  0  0  0
 60166  1  0  0  0
 62167  1  0  0  0
 63168  1  0  0  0
 66169  1  0  0  0
 66170  1  0  0  0
 67171  1  0  0  0
 67172  1  0  0  0
 70173  1  0  0  0
 70174  1  0  0  0
 71175  1  0  0  0
 72176  1  0  0  0
 75177  1  0  0  0
 75178  1  0  0  0
 78179  1  0  0  0
 79180  1  0  0  0
 81181  1  0  0  0
 82182  1  0  0  0
 85183  1  0  0  0
 85184  1  0  0  0
 88185  1  0  0  0
 89186  1  0  0  0
 91187  1  0  0  0
 92188  1  0  0  0
 95189  1  0  0  0
 95190  1  0  0  0
 96191  1  0  0  0
 96192  1  0  0  0
 98193  1  0  0  0
 98194  1  0  0  0
 98195  1  0  0  0
 99196  1  0  0  0
100197  1  0  0  0
103198  1  0  0  0
103199  1  0  0  0
105200  1  0  0  0
107201  1  0  0  0
108202  1  0  0  0
111203  1  0  0  0
111204  1  0  0  0
112205  1  0  0  0
113206  1  0  0  0
M  END
$$$$
