5lne_ligand
  -I-interpret- 

 51 52  0  0  0  0  0  0  0  0999 V2000
  -17.2050  -17.2540   38.0730 O   0  0  0  0  0
  -16.2910  -17.8500   38.9970 C   0  0  0  0  0
  -15.3620  -16.8410   39.3600 O   0  0  0  0  0
  -15.4900  -18.9980   38.3550 C   0  0  0  0  0
  -14.4970  -19.5380   39.2510 N   0  0  0  0  0
  -14.7230  -18.5200   37.0940 C   0  0  0  0  0
  -14.0600  -19.6130   36.3620 O   0  0  0  0  0
  -15.7030  -17.8020   36.1930 C   0  0  0  0  0
  -16.5510  -18.8130   35.6280 O   0  0  0  0  0
  -16.5170  -16.7210   36.9120 C   0  0  0  0  0
  -17.4950  -16.0380   35.9560 C   0  0  0  0  0
  -17.9970  -14.8850   36.6520 O   0  0  0  0  0
  -14.4900  -20.7810   39.6960 C   0  0  0  0  0
  -15.3510  -21.5740   39.3230 O   0  0  0  0  0
  -13.3430  -21.1100   40.6370 C   0  0  0  0  0
  -12.7380  -19.6760   36.2100 C   0  0  0  0  0
  -12.2580  -21.1000   35.8770 C   0  0  0  0  0
  -10.7590  -21.1210   35.7490 C   0  0  0  0  0
  -10.2180  -20.0380   34.8170 C   0  0  0  0  0
  -10.6520  -18.6640   35.3730 C   0  0  0  0  0
  -10.1990  -17.4980   34.4650 C   0  0  0  0  0
  -12.6810  -21.9160   36.9910 O   0  0  0  0  0
  -10.4050  -22.4110   35.3230 O   0  0  0  0  0
  -10.7130  -20.2350   33.4850 O   0  0  0  0  0
  -12.0730  -18.6020   35.4880 O   0  0  0  0  0
  -10.9530  -17.4470   33.2730 O   0  0  0  0  0
  -16.8516  -18.2503   39.8417 H   0  0  0  0  0
  -15.8302  -16.1072   39.7649 H   0  0  0  0  0
  -16.2307  -19.7570   38.1032 H   0  0  0  0  0
  -13.7495  -18.9175   39.5619 H   0  0  0  0  0
  -13.9225  -17.8547   37.4175 H   0  0  0  0  0
  -15.1582  -17.2578   35.4216 H   0  0  0  0  0
  -16.0106  -19.4723   35.1865 H   0  0  0  0  0
  -15.8148  -15.9666   37.2668 H   0  0  0  0  0
  -18.3051  -16.7112   35.6755 H   0  0  0  0  0
  -17.0016  -15.7522   35.0271 H   0  0  0  0  0
  -18.6197  -14.4190   36.0893 H   0  0  0  0  0
  -13.7441  -21.4501   41.5917 H   0  0  0  0  0
  -12.7292  -21.8967   40.1984 H   0  0  0  0  0
  -12.7359  -20.2183   40.7934 H   0  0  0  0  0
  -12.3656  -19.4431   37.2076 H   0  0  0  0  0
  -12.6672  -21.4618   34.9337 H   0  0  0  0  0
  -10.3050  -20.8928   36.7133 H   0  0  0  0  0
   -9.1300  -20.0862   34.7709 H   0  0  0  0  0
  -10.1773  -18.5606   36.3487 H   0  0  0  0  0
   -9.1516  -17.6503   34.2045 H   0  0  0  0  0
  -10.3447  -16.5629   35.0057 H   0  0  0  0  0
  -12.4088  -22.8245   36.8423 H   0  0  0  0  0
   -9.4512  -22.4652   35.2290 H   0  0  0  0  0
  -10.3656  -19.5484   32.9109 H   0  0  0  0  0
  -10.6474  -16.7141   32.7335 H   0  0  0  0  0
  1  2  1  0  0  0
  1 10  1  0  0  0
  2  3  1  0  0  0
  2  4  1  0  0  0
  4  5  1  0  0  0
  4  6  1  0  0  0
  5 13  1  0  0  0
  6  7  1  0  0  0
  6  8  1  0  0  0
  7 16  1  0  0  0
  8  9  1  0  0  0
  8 10  1  0  0  0
 10 11  1  0  0  0
 11 12  1  0  0  0
 13 14  2  0  0  0
 13 15  1  0  0  0
 16 17  1  0  0  0
 16 25  1  0  0  0
 17 18  1  0  0  0
 17 22  1  0  0  0
 18 19  1  0  0  0
 18 23  1  0  0  0
 19 20  1  0  0  0
 19 24  1  0  0  0
 20 21  1  0  0  0
 20 25  1  0  0  0
 21 26  1  0  0  0
  2 27  1  0  0  0
  3 28  1  0  0  0
  4 29  1  0  0  0
  5 30  1  0  0  0
  6 31  1  0  0  0
  8 32  1  0  0  0
  9 33  1  0  0  0
 10 34  1  0  0  0
 11 35  1  0  0  0
 11 36  1  0  0  0
 12 37  1  0  0  0
 15 38  1  0  0  0
 15 39  1  0  0  0
 15 40  1  0  0  0
 16 41  1  0  0  0
 17 42  1  0  0  0
 18 43  1  0  0  0
 19 44  1  0  0  0
 20 45  1  0  0  0
 21 46  1  0  0  0
 21 47  1  0  0  0
 22 48  1  0  0  0
 23 49  1  0  0  0
 24 50  1  0  0  0
 26 51  1  0  0  0
M  END
$$$$
