### 
### Created by X-TOOL on Mon Sep 10 21:13:24 2018
### 

@<TRIPOS>MOLECULE
4x1q_ligand
  155   158     1     0     0
SMALL
GAST_HUCK


@<TRIPOS>ATOM
      1 N           9.3440  -24.8960  -14.1240 N.4       1 CYS         0.2385
      2 CA          8.6750  -26.0980  -13.5330 C.3       1 CYS         0.0751
      3 C           9.2860  -27.4050  -14.0400 C.2       1 CYS         0.2300
      4 O           9.6300  -27.5030  -15.2270 O.2       1 CYS        -0.3905
      5 CB          7.1750  -26.1010  -13.8620 C.3       1 CYS         0.0643
      6 SG          6.1180  -24.9970  -12.8380 S.3       1 CYS        -0.0848
      7 N           9.4100  -28.4200  -13.1540 N.am      1 PRO        -0.2471
      8 CA          9.6950  -29.7840  -13.6450 C.3       1 PRO         0.1339
      9 C           8.5700  -30.2610  -14.5630 C.2       1 PRO         0.2041
     10 O           7.4150  -29.9010  -14.3400 O.2       1 PRO        -0.3944
     11 CB          9.7240  -30.6220  -12.3640 C.3       1 PRO        -0.0104
     12 CG         10.1020  -29.6630  -11.3190 C.3       1 PRO        -0.0281
     13 CD          9.4470  -28.3550  -11.6820 C.3       1 PRO         0.0371
     14 N           8.9020  -31.0500  -15.5860 N.am      1 ALA        -0.2640
     15 CA          7.9350  -31.3990  -16.6350 C.3       1 ALA         0.1282
     16 C           6.7460  -32.2370  -16.1320 C.2       1 ALA         0.2037
     17 O           5.6870  -32.2810  -16.7650 O.2       1 ALA        -0.3944
     18 CB          8.6370  -32.0900  -17.8120 C.3       1 ALA        -0.0244
     19 N           6.9370  -32.8870  -14.9840 N.am      1 TYR        -0.2621
     20 CA          5.9570  -33.8170  -14.4390 C.3       1 TYR         0.1390
     21 C           5.2530  -33.3240  -13.1570 C.2       1 TYR         0.2058
     22 O           4.5260  -34.0880  -12.5110 O.2       1 TYR        -0.3942
     23 CB          6.6230  -35.1730  -14.1740 C.3       1 TYR         0.0163
     24 CG          7.2020  -35.8760  -15.3820 C.ar      1 TYR        -0.0493
     25 CD1         6.8960  -35.4540  -16.6850 C.ar      1 TYR        -0.0685
     26 CD2         8.0120  -37.0110  -15.2220 C.ar      1 TYR        -0.0685
     27 CE1         7.4220  -36.1080  -17.7940 C.ar      1 TYR        -0.0398
     28 CE2         8.5210  -37.6920  -16.3200 C.ar      1 TYR        -0.0398
     29 CZ          8.2300  -37.2280  -17.6090 C.ar      1 TYR         0.0805
     30 OH          8.7310  -37.8810  -18.7150 O.3       1 TYR        -0.3376
     31 N           5.4770  -32.0630  -12.7870 N.am      1 SER        -0.2614
     32 CA          4.7760  -31.4390  -11.6510 C.3       1 SER         0.1539
     33 C           3.2460  -31.5690  -11.7390 C.2       1 SER         0.2062
     34 O           2.6750  -31.5400  -12.8480 O.2       1 SER        -0.3943
     35 CB          5.1470  -29.9590  -11.5450 C.3       1 SER         0.0843
     36 OG          4.7310  -29.4140  -10.2940 O.3       1 SER        -0.3903
     37 N           2.6110  -31.7280  -10.5690 N.am      1 ARG        -0.2637
     38 CA          1.1410  -31.7380  -10.4280 C.3       1 ARG         0.1311
     39 C           0.7100  -30.5450   -9.5400 C.2       1 ARG         0.2040
     40 O          -0.3870  -30.5040   -8.9350 O.2       1 ARG        -0.3944
     41 CB          0.6320  -33.0890   -9.8920 C.3       1 ARG        -0.0092
     42 CG          0.9630  -34.2590  -10.7830 C.3       1 ARG        -0.0156
     43 CD          0.1500  -35.4760  -10.4220 C.3       1 ARG         0.0627
     44 NE         -0.0200  -36.4060  -11.5500 N.pl3     1 ARG        -0.2723
     45 CZ         -0.3200  -37.7060  -11.4220 C.cat     1 ARG         0.2882
     46 NH1        -0.4530  -38.2390  -10.2180 N.pl3     1 ARG        -0.2849
     47 NH2        -0.4640  -38.4890  -12.4880 N.pl3     1 ARG        -0.2849
     48 N           1.6120  -29.5690   -9.4870 N.am      1 TYR        -0.2621
     49 CA          1.3890  -28.2880   -8.8320 C.3       1 TYR         0.1390
     50 C           0.5060  -27.3810   -9.6830 C.2       1 TYR         0.2057
     51 O           0.7160  -27.2470  -10.9040 O.2       1 TYR        -0.3942
     52 CB          2.7320  -27.6160   -8.6200 C.3       1 TYR         0.0163
     53 CG          2.6830  -26.2860   -7.9200 C.ar      1 TYR        -0.0493
     54 CD1         1.7490  -26.0390   -6.9040 C.ar      1 TYR        -0.0685
     55 CD2         3.6060  -25.2850   -8.2490 C.ar      1 TYR        -0.0685
     56 CE1         1.7120  -24.8300   -6.2640 C.ar      1 TYR        -0.0398
     57 CE2         3.5900  -24.0670   -7.6030 C.ar      1 TYR        -0.0398
     58 CZ          2.6350  -23.8360   -6.6050 C.ar      1 TYR         0.0805
     59 OH          2.6180  -22.6170   -5.9450 O.3       1 TYR        -0.3376
     60 N          -0.4650  -26.7440   -9.0360 N.am      1 LEU        -0.2636
     61 CA         -1.4590  -25.9390   -9.7550 C.3       1 LEU         0.1312
     62 C          -0.8760  -24.7330  -10.5300 C.2       1 LEU         0.2040
     63 O          -1.4240  -24.3630  -11.5700 O.2       1 LEU        -0.3944
     64 CB         -2.6510  -25.5580   -8.8460 C.3       1 LEU        -0.0101
     65 CG         -2.9090  -24.2260   -8.1180 C.3       1 LEU        -0.0425
     66 CD1        -1.6370  -23.6300   -7.4940 C.3       1 LEU        -0.0625
     67 CD2        -3.6110  -23.2110   -9.0470 C.3       1 LEU        -0.0625
     68 N           0.2320  -24.1550  -10.0410 N.am      1 ASP        -0.2622
     69 CA          0.9040  -23.0200  -10.7060 C.3       1 ASP         0.1423
     70 C           1.7780  -23.4140  -11.9120 C.2       1 ASP         0.2051
     71 O           2.2830  -22.5430  -12.6220 O.2       1 ASP        -0.3943
     72 CB          1.7330  -22.2030   -9.6980 C.3       1 ASP         0.0406
     73 CG          1.0010  -20.9650   -9.1960 C.2       1 ASP         0.0393
     74 OD1         0.6280  -20.1060  -10.0190 O.co2     1 ASP        -0.5688
     75 OD2         0.7850  -20.8420   -7.9750 O.co2     1 ASP        -0.5688
     76 N           1.9460  -24.7140  -12.1420 N.am      1 CYS        -0.2686
     77 CA          2.8170  -25.2140  -13.2090 C.3       1 CYS         0.1041
     78 C           2.0810  -25.3600  -14.5350 C.2       1 CYS         0.0609
     79 O           1.1180  -24.6270  -14.7880 O.co2     1 CYS        -0.5666
     80 CB          3.4820  -26.5330  -12.7870 C.3       1 CYS         0.0388
     81 SG          4.9400  -26.2670  -11.7090 S.3       1 CYS        -0.0887
     82 OXT         2.4500  -26.2110  -15.3530 O.co2     1 CYS        -0.5666
     83 H1          8.9115  -24.0597  -13.7639 H         1 CYS         0.2015
     84 H2          9.2492  -24.9180  -15.1273 H         1 CYS         0.2015
     85 H3         10.3217  -24.9010  -13.8787 H         1 CYS         0.2015
     86 H4          8.7984  -26.0552  -12.4408 H         1 CYS         0.1107
     87 H5          6.8059  -27.1297  -13.7373 H         1 CYS         0.0466
     88 H6          7.0610  -25.7953  -14.9125 H         1 CYS         0.0466
     89 H7         10.6580  -29.8271  -14.1749 H         1 PRO         0.0802
     90 H8         10.4678  -31.4287  -12.4415 H         1 PRO         0.0313
     91 H9          8.7340  -31.0547  -12.1576 H         1 PRO         0.0313
     92 H10        11.1952  -29.5451  -11.2887 H         1 PRO         0.0287
     93 H11         9.7431  -30.0084  -10.3383 H         1 PRO         0.0287
     94 H12         8.4332  -28.2868  -11.2607 H         1 PRO         0.0524
     95 H13        10.0462  -27.4999  -11.3359 H         1 PRO         0.0524
     96 H14         9.8323  -31.4129  -15.6401 H         1 ALA         0.1883
     97 H15         7.5188  -30.4528  -17.0111 H         1 ALA         0.0797
     98 H16         7.8955  -32.3420  -18.5844 H         1 ALA         0.0277
     99 H17         9.1255  -33.0100  -17.4587 H         1 ALA         0.0277
    100 H18         9.3931  -31.4132  -18.2366 H         1 ALA         0.0277
    101 H19         7.7850  -32.7303  -14.4778 H         1 TYR         0.1885
    102 H20         5.1800  -33.9590  -15.2046 H         1 TYR         0.0821
    103 H21         5.8680  -35.8372  -13.7282 H         1 TYR         0.0453
    104 H22         7.4398  -35.0118  -13.4551 H         1 TYR         0.0453
    105 H23         6.2387  -34.6042  -16.8295 H         1 TYR         0.0530
    106 H24         8.2445  -37.3624  -14.2232 H         1 TYR         0.0530
    107 H25         7.2052  -35.7495  -18.7938 H         1 TYR         0.0525
    108 H26         9.1369  -38.5732  -16.1809 H         1 TYR         0.0525
    109 H27         8.4388  -37.4373  -19.5027 H         1 TYR         0.2458
    110 H28         6.1443  -31.5215  -13.2984 H         1 SER         0.1884
    111 H29         5.1069  -31.9481  -10.7338 H         1 SER         0.0823
    112 H30         4.6554  -29.4061  -12.3590 H         1 SER         0.0606
    113 H31         6.2381  -29.8545  -11.6374 H         1 SER         0.0606
    114 H32         5.1558  -29.8858   -9.5874 H         1 SER         0.2097
    115 H33         3.1644  -31.8466   -9.7446 H         1 ARG         0.1883
    116 H34         0.7010  -31.5931  -11.4257 H         1 ARG         0.0800
    117 H35        -0.4614  -33.0311   -9.7871 H         1 ARG         0.0313
    118 H36         1.0862  -33.2645   -8.9057 H         1 ARG         0.0313
    119 H37         2.0313  -34.4984  -10.6764 H         1 ARG         0.0301
    120 H38         0.7511  -33.9845  -11.8269 H         1 ARG         0.0301
    121 H39        -0.8442  -35.1469  -10.0855 H         1 ARG         0.0689
    122 H40         0.6573  -36.0068   -9.6029 H         1 ARG         0.0689
    123 H41         0.0997  -36.0325  -12.5024 H         1 ARG         0.2642
    124 H42        -0.6835  -39.2380  -10.1197 H         1 ARG         0.2615
    125 H43        -0.3260  -37.6548   -9.3793 H         1 ARG         0.2615
    126 H44        -0.3645  -38.0943  -13.4341 H         1 ARG         0.2615
    127 H45        -0.6750  -39.4899  -12.3671 H         1 ARG         0.2615
    128 H46         2.4979  -29.7246   -9.9240 H         1 TYR         0.1885
    129 H47         0.9020  -28.4571   -7.8603 H         1 TYR         0.0821
    130 H48         3.1951  -27.4639   -9.6061 H         1 TYR         0.0453
    131 H49         3.3593  -28.2922   -8.0207 H         1 TYR         0.0453
    132 H50         1.0473  -26.8156   -6.6218 H         1 TYR         0.0530
    133 H51         4.3429  -25.4705   -9.0220 H         1 TYR         0.0530
    134 H52         0.9703  -24.6434   -5.4958 H         1 TYR         0.0525
    135 H53         4.3077  -23.2978   -7.8643 H         1 TYR         0.0525
    136 H54         3.4508  -22.4831   -5.5080 H         1 TYR         0.2458
    137 H55        -0.5190  -26.8148   -8.0400 H         1 LEU         0.1883
    138 H56        -1.8726  -26.6047  -10.5269 H         1 LEU         0.0800
    139 H57        -2.6417  -26.3132   -8.0463 H         1 LEU         0.0315
    140 H58        -3.5391  -25.7044   -9.4783 H         1 LEU         0.0315
    141 H59        -3.6001  -24.4418   -7.2899 H         1 LEU         0.0298
    142 H60        -1.8843  -22.6837   -6.9906 H         1 LEU         0.0232
    143 H61        -0.8946  -23.4421   -8.2836 H         1 LEU         0.0232
    144 H62        -1.2219  -24.3375   -6.7612 H         1 LEU         0.0232
    145 H63        -4.5146  -23.6697   -9.4749 H         1 LEU         0.0232
    146 H64        -2.9268  -22.9225   -9.8585 H         1 LEU         0.0232
    147 H65        -3.8916  -22.3181   -8.4691 H         1 LEU         0.0232
    148 H66         0.6196  -24.5080   -9.1894 H         1 ASP         0.1884
    149 H67         0.1089  -22.3638  -11.0897 H         1 ASP         0.0819
    150 H68         2.6661  -21.8854  -10.1863 H         1 ASP         0.0478
    151 H69         1.9699  -22.8444   -8.8364 H         1 ASP         0.0478
    152 H70         1.4609  -25.3725  -11.5666 H         1 CYS         0.1876
    153 H71         3.6150  -24.4718  -13.3585 H         1 CYS         0.0734
    154 H72         3.8044  -27.0710  -13.6907 H         1 CYS         0.0425
    155 H73         2.7455  -27.1411  -12.2413 H         1 CYS         0.0425
@<TRIPOS>BOND
     1    1    2 1  
     2    2    3 1  
     3    2    5 1  
     4    3    4 2  
     5    3    7 am 
     6    5    6 1  
     7    6   81 1  
     8    7    8 1  
     9    7   13 1  
    10    8    9 1  
    11    8   11 1  
    12    9   10 2  
    13    9   14 am 
    14   11   12 1  
    15   12   13 1  
    16   14   15 1  
    17   15   16 1  
    18   15   18 1  
    19   16   17 2  
    20   16   19 am 
    21   19   20 1  
    22   20   21 1  
    23   20   23 1  
    24   21   22 2  
    25   21   31 am 
    26   23   24 1  
    27   24   25 ar 
    28   24   26 ar 
    29   25   27 ar 
    30   26   28 ar 
    31   27   29 ar 
    32   28   29 ar 
    33   29   30 1  
    34   31   32 1  
    35   32   33 1  
    36   32   35 1  
    37   33   34 2  
    38   33   37 am 
    39   35   36 1  
    40   37   38 1  
    41   38   39 1  
    42   38   41 1  
    43   39   40 2  
    44   39   48 am 
    45   41   42 1  
    46   42   43 1  
    47   43   44 1  
    48   44   45 ar 
    49   45   46 ar 
    50   45   47 ar 
    51   48   49 1  
    52   49   50 1  
    53   49   52 1  
    54   50   51 2  
    55   50   60 am 
    56   52   53 1  
    57   53   54 ar 
    58   53   55 ar 
    59   54   56 ar 
    60   55   57 ar 
    61   56   58 ar 
    62   57   58 ar 
    63   58   59 1  
    64   60   61 1  
    65   61   62 1  
    66   61   64 1  
    67   62   63 2  
    68   62   68 am 
    69   64   65 1  
    70   65   66 1  
    71   65   67 1  
    72   68   69 1  
    73   69   70 1  
    74   69   72 1  
    75   70   71 2  
    76   70   76 am 
    77   72   73 1  
    78   73   74 ar 
    79   73   75 ar 
    80   76   77 1  
    81   77   78 1  
    82   77   80 1  
    83   78   79 ar 
    84   78   82 ar 
    85   80   81 1  
    86    1   83 1  
    87    1   84 1  
    88    1   85 1  
    89    2   86 1  
    90    5   87 1  
    91    5   88 1  
    92    8   89 1  
    93   11   90 1  
    94   11   91 1  
    95   12   92 1  
    96   12   93 1  
    97   13   94 1  
    98   13   95 1  
    99   14   96 1  
   100   15   97 1  
   101   18   98 1  
   102   18   99 1  
   103   18  100 1  
   104   19  101 1  
   105   20  102 1  
   106   23  103 1  
   107   23  104 1  
   108   25  105 1  
   109   26  106 1  
   110   27  107 1  
   111   28  108 1  
   112   30  109 1  
   113   31  110 1  
   114   32  111 1  
   115   35  112 1  
   116   35  113 1  
   117   36  114 1  
   118   37  115 1  
   119   38  116 1  
   120   41  117 1  
   121   41  118 1  
   122   42  119 1  
   123   42  120 1  
   124   43  121 1  
   125   43  122 1  
   126   44  123 1  
   127   46  124 1  
   128   46  125 1  
   129   47  126 1  
   130   47  127 1  
   131   48  128 1  
   132   49  129 1  
   133   52  130 1  
   134   52  131 1  
   135   54  132 1  
   136   55  133 1  
   137   56  134 1  
   138   57  135 1  
   139   59  136 1  
   140   60  137 1  
   141   61  138 1  
   142   64  139 1  
   143   64  140 1  
   144   65  141 1  
   145   66  142 1  
   146   66  143 1  
   147   66  144 1  
   148   67  145 1  
   149   67  146 1  
   150   67  147 1  
   151   68  148 1  
   152   69  149 1  
   153   72  150 1  
   154   72  151 1  
   155   76  152 1  
   156   77  153 1  
   157   80  154 1  
   158   80  155 1  
@<TRIPOS>SUBSTRUCTURE
     1 CYS         1

