4x1q_ligand
  -I-interpret- 

156159  0  0  0  0  0  0  0  0999 V2000
    9.3440  -24.8960  -14.1240 N   0  3  0  0  0
    8.6750  -26.0980  -13.5330 C   0  0  0  0  0
    9.2860  -27.4050  -14.0400 C   0  0  0  0  0
    9.6300  -27.5030  -15.2270 O   0  0  0  0  0
    7.1750  -26.1010  -13.8620 C   0  0  0  0  0
    6.1180  -24.9970  -12.8380 S   0  0  0  0  0
    9.4100  -28.4200  -13.1540 N   0  0  0  0  0
    9.6950  -29.7840  -13.6450 C   0  0  0  0  0
    8.5700  -30.2610  -14.5630 C   0  0  0  0  0
    7.4150  -29.9010  -14.3400 O   0  0  0  0  0
    9.7240  -30.6220  -12.3640 C   0  0  0  0  0
   10.1020  -29.6630  -11.3190 C   0  0  0  0  0
    9.4470  -28.3550  -11.6820 C   0  0  0  0  0
    8.9020  -31.0500  -15.5860 N   0  0  0  0  0
    7.9350  -31.3990  -16.6350 C   0  0  0  0  0
    6.7460  -32.2370  -16.1320 C   0  0  0  0  0
    5.6870  -32.2810  -16.7650 O   0  0  0  0  0
    8.6370  -32.0900  -17.8120 C   0  0  0  0  0
    6.9370  -32.8870  -14.9840 N   0  0  0  0  0
    5.9570  -33.8170  -14.4390 C   0  0  0  0  0
    5.2530  -33.3240  -13.1570 C   0  0  0  0  0
    4.5260  -34.0880  -12.5110 O   0  0  0  0  0
    6.6230  -35.1730  -14.1740 C   0  0  0  0  0
    7.2020  -35.8760  -15.3820 C   0  0  0  0  0
    6.8960  -35.4540  -16.6850 C   0  0  0  0  0
    8.0120  -37.0110  -15.2220 C   0  0  0  0  0
    7.4220  -36.1080  -17.7940 C   0  0  0  0  0
    8.5210  -37.6920  -16.3200 C   0  0  0  0  0
    8.2300  -37.2280  -17.6090 C   0  0  0  0  0
    8.7310  -37.8810  -18.7150 O   0  0  0  0  0
    5.4770  -32.0630  -12.7870 N   0  0  0  0  0
    4.7760  -31.4390  -11.6510 C   0  0  0  0  0
    3.2460  -31.5690  -11.7390 C   0  0  0  0  0
    2.6750  -31.5400  -12.8480 O   0  0  0  0  0
    5.1470  -29.9590  -11.5450 C   0  0  0  0  0
    4.7310  -29.4140  -10.2940 O   0  0  0  0  0
    2.6110  -31.7280  -10.5690 N   0  0  0  0  0
    1.1410  -31.7380  -10.4280 C   0  0  0  0  0
    0.7100  -30.5450   -9.5400 C   0  0  0  0  0
   -0.3870  -30.5040   -8.9350 O   0  0  0  0  0
    0.6320  -33.0890   -9.8920 C   0  0  0  0  0
    0.9630  -34.2590  -10.7830 C   0  0  0  0  0
    0.1500  -35.4760  -10.4220 C   0  0  0  0  0
   -0.0200  -36.4060  -11.5500 N   0  0  0  0  0
   -0.3200  -37.7060  -11.4220 C   0  0  0  0  0
   -0.4530  -38.2390  -10.2180 N   0  0  0  0  0
   -0.4640  -38.4890  -12.4880 N   0  0  0  0  0
    1.6120  -29.5690   -9.4870 N   0  0  0  0  0
    1.3890  -28.2880   -8.8320 C   0  0  0  0  0
    0.5060  -27.3810   -9.6830 C   0  0  0  0  0
    0.7160  -27.2470  -10.9040 O   0  0  0  0  0
    2.7320  -27.6160   -8.6200 C   0  0  0  0  0
    2.6830  -26.2860   -7.9200 C   0  0  0  0  0
    1.7490  -26.0390   -6.9040 C   0  0  0  0  0
    3.6060  -25.2850   -8.2490 C   0  0  0  0  0
    1.7120  -24.8300   -6.2640 C   0  0  0  0  0
    3.5900  -24.0670   -7.6030 C   0  0  0  0  0
    2.6350  -23.8360   -6.6050 C   0  0  0  0  0
    2.6180  -22.6170   -5.9450 O   0  0  0  0  0
   -0.4650  -26.7440   -9.0360 N   0  0  0  0  0
   -1.4590  -25.9390   -9.7550 C   0  0  0  0  0
   -0.8760  -24.7330  -10.5300 C   0  0  0  0  0
   -1.4240  -24.3630  -11.5700 O   0  0  0  0  0
   -2.6510  -25.5580   -8.8460 C   0  0  0  0  0
   -2.9090  -24.2260   -8.1180 C   0  0  0  0  0
   -1.6370  -23.6300   -7.4940 C   0  0  0  0  0
   -3.6110  -23.2110   -9.0470 C   0  0  0  0  0
    0.2320  -24.1550  -10.0410 N   0  0  0  0  0
    0.9040  -23.0200  -10.7060 C   0  0  0  0  0
    1.7780  -23.4140  -11.9120 C   0  0  0  0  0
    2.2830  -22.5430  -12.6220 O   0  0  0  0  0
    1.7330  -22.2030   -9.6980 C   0  0  0  0  0
    1.0010  -20.9650   -9.1960 C   0  0  0  0  0
    0.6280  -20.1060  -10.0190 O   0  0  0  0  0
    0.7850  -20.8420   -7.9750 O   0  0  0  0  0
    1.9460  -24.7140  -12.1420 N   0  0  0  0  0
    2.8170  -25.2140  -13.2090 C   0  0  0  0  0
    2.0810  -25.3600  -14.5350 C   0  0  0  0  0
    1.1180  -24.6270  -14.7880 O   0  0  0  0  0
    3.4820  -26.5330  -12.7870 C   0  0  0  0  0
    4.9400  -26.2670  -11.7090 S   0  0  0  0  0
    2.4500  -26.2110  -15.3530 O   0  0  0  0  0
   10.3375  -24.9138  -13.8939 H   0  0  0  0  0
    9.2282  -24.9078  -15.1373 H   0  0  0  0  0
    8.9204  -24.0504  -13.7420 H   0  0  0  0  0
    8.8245  -26.0363  -12.4551 H   0  0  0  0  0
    6.8244  -27.1163  -13.6768 H   0  0  0  0  0
    7.0872  -25.7419  -14.8874 H   0  0  0  0  0
   10.6179  -29.8487  -14.2214 H   0  0  0  0  0
   10.4234  -31.4553  -12.4318 H   0  0  0  0  0
    8.7646  -31.0975  -12.1602 H   0  0  0  0  0
   11.1851  -29.5546  -11.2618 H   0  0  0  0  0
    9.7733  -30.0052  -10.3377 H   0  0  0  0  0
    8.4615  -28.2299  -11.2334 H   0  0  0  0  0
    9.9862  -27.4861  -11.3045 H   0  0  0  0  0
    9.8509  -31.4201  -15.6411 H   0  0  0  0  0
    7.5075  -30.4562  -16.9764 H   0  0  0  0  0
    9.3859  -31.4184  -18.2317 H   0  0  0  0  0
    9.1207  -33.0014  -17.4606 H   0  0  0  0  0
    7.9012  -32.3392  -18.5766 H   0  0  0  0  0
    7.8020  -32.7272  -14.4676 H   0  0  0  0  0
    5.1760  -33.9055  -15.1942 H   0  0  0  0  0
    5.8420  -35.8264  -13.7852 H   0  0  0  0  0
    7.4601  -34.9767  -13.5041 H   0  0  0  0  0
    6.2351  -34.5995  -16.8303 H   0  0  0  0  0
    8.2458  -37.3643  -14.2177 H   0  0  0  0  0
    7.2040  -35.7475  -18.7993 H   0  0  0  0  0
    9.1403  -38.5780  -16.1802 H   0  0  0  0  0
    9.2648  -38.6265  -18.4305 H   0  0  0  0  0
    6.1576  -31.5107  -13.3086 H   0  0  0  0  0
    5.1003  -31.9781  -10.7609 H   0  0  0  0  0
    4.6463  -29.4155  -12.3462 H   0  0  0  0  0
    6.2300  -29.8642  -11.6241 H   0  0  0  0  0
    4.9752  -28.4865  -10.2532 H   0  0  0  0  0
    3.1755  -31.8490   -9.7281 H   0  0  0  0  0
    0.6818  -31.6192  -11.4094 H   0  0  0  0  0
   -0.4543  -33.0255   -9.8281 H   0  0  0  0  0
    1.1187  -33.2627   -8.9323 H   0  0  0  0  0
    2.0188  -34.4998  -10.6586 H   0  0  0  0  0
    0.7344  -33.9842  -11.8127 H   0  0  0  0  0
   -0.8402  -35.1368  -10.1178 H   0  0  0  0  0
    0.6783  -36.0064   -9.6297 H   0  0  0  0  0
    0.0985  -36.0361  -12.4931 H   0  0  0  0  0
   -0.3272  -37.6605   -9.3874 H   0  0  0  0  0
   -0.6729  -39.4802  -12.3683 H   0  0  0  0  0
   -0.3655  -38.0981  -13.4250 H   0  0  0  0  0
    2.5156  -29.7277   -9.9327 H   0  0  0  0  0
    0.8853  -28.4610   -7.8810 H   0  0  0  0  0
    3.1482  -27.4318   -9.6104 H   0  0  0  0  0
    3.3166  -28.2813   -7.9846 H   0  0  0  0  0
    1.0434  -26.8198   -6.6203 H   0  0  0  0  0
    4.3470  -25.4715   -9.0263 H   0  0  0  0  0
    0.9662  -24.6424   -5.4916 H   0  0  0  0  0
    4.3117  -23.2935   -7.8658 H   0  0  0  0  0
    3.3109  -22.0538   -6.2976 H   0  0  0  0  0
   -0.5201  -26.8162   -8.0201 H   0  0  0  0  0
   -1.8450  -26.5885  -10.5406 H   0  0  0  0  0
   -2.4896  -26.2277   -8.0013 H   0  0  0  0  0
   -3.4698  -25.5627   -9.5655 H   0  0  0  0  0
   -3.5801  -24.4491   -7.2885 H   0  0  0  0  0
   -1.2266  -24.3320   -6.7682 H   0  0  0  0  0
   -0.9022  -23.4443   -8.2774 H   0  0  0  0  0
   -1.8833  -22.6925   -6.9955 H   0  0  0  0  0
   -2.9803  -23.0181   -9.9148 H   0  0  0  0  0
   -4.5665  -23.6206   -9.3745 H   0  0  0  0  0
   -3.7798  -22.2806   -8.5049 H   0  0  0  0  0
    0.6273  -24.5150   -9.1724 H   0  0  0  0  0
    0.0960  -22.4073  -11.1058 H   0  0  0  0  0
    2.6403  -21.8719  -10.2033 H   0  0  0  0  0
    1.9363  -22.8416   -8.8384 H   0  0  0  0  0
    0.8853  -20.3783  -10.9029 H   0  0  0  0  0
    1.4512  -25.3857  -11.5551 H   0  0  0  0  0
    3.5981  -24.4709  -13.3696 H   0  0  0  0  0
    3.8183  -27.0447  -13.6888 H   0  0  0  0  0
    2.7504  -27.1154  -12.2270 H   0  0  0  0  0
    3.2042  -26.6878  -14.9988 H   0  0  0  0  0
  1  2  1  0  0  0
  2  3  1  0  0  0
  2  5  1  0  0  0
  3  4  2  0  0  0
  3  7  1  0  0  0
  5  6  1  0  0  0
  6 81  1  0  0  0
  7  8  1  0  0  0
  7 13  1  0  0  0
  8  9  1  0  0  0
  8 11  1  0  0  0
  9 10  2  0  0  0
  9 14  1  0  0  0
 11 12  1  0  0  0
 12 13  1  0  0  0
 14 15  1  0  0  0
 15 16  1  0  0  0
 15 18  1  0  0  0
 16 17  2  0  0  0
 16 19  1  0  0  0
 19 20  1  0  0  0
 20 21  1  0  0  0
 20 23  1  0  0  0
 21 22  2  0  0  0
 21 31  1  0  0  0
 23 24  1  0  0  0
 24 25  4  0  0  0
 24 26  4  0  0  0
 25 27  4  0  0  0
 26 28  4  0  0  0
 27 29  4  0  0  0
 28 29  4  0  0  0
 29 30  1  0  0  0
 31 32  1  0  0  0
 32 33  1  0  0  0
 32 35  1  0  0  0
 33 34  2  0  0  0
 33 37  1  0  0  0
 35 36  1  0  0  0
 37 38  1  0  0  0
 38 39  1  0  0  0
 38 41  1  0  0  0
 39 40  2  0  0  0
 39 48  1  0  0  0
 41 42  1  0  0  0
 42 43  1  0  0  0
 43 44  1  0  0  0
 44 45  1  0  0  0
 45 46  2  0  0  0
 45 47  1  0  0  0
 48 49  1  0  0  0
 49 50  1  0  0  0
 49 52  1  0  0  0
 50 51  2  0  0  0
 50 60  1  0  0  0
 52 53  1  0  0  0
 53 54  4  0  0  0
 53 55  4  0  0  0
 54 56  4  0  0  0
 55 57  4  0  0  0
 56 58  4  0  0  0
 57 58  4  0  0  0
 58 59  1  0  0  0
 60 61  1  0  0  0
 61 62  1  0  0  0
 61 64  1  0  0  0
 62 63  2  0  0  0
 62 68  1  0  0  0
 64 65  1  0  0  0
 65 66  1  0  0  0
 65 67  1  0  0  0
 68 69  1  0  0  0
 69 70  1  0  0  0
 69 72  1  0  0  0
 70 71  2  0  0  0
 70 76  1  0  0  0
 72 73  1  0  0  0
 73 74  1  0  0  0
 73 75  2  0  0  0
 76 77  1  0  0  0
 77 78  1  0  0  0
 77 80  1  0  0  0
 78 79  2  0  0  0
 78 82  1  0  0  0
 80 81  1  0  0  0
  1 83  1  0  0  0
  1 84  1  0  0  0
  1 85  1  0  0  0
  2 86  1  0  0  0
  5 87  1  0  0  0
  5 88  1  0  0  0
  8 89  1  0  0  0
 11 90  1  0  0  0
 11 91  1  0  0  0
 12 92  1  0  0  0
 12 93  1  0  0  0
 13 94  1  0  0  0
 13 95  1  0  0  0
 14 96  1  0  0  0
 15 97  1  0  0  0
 18 98  1  0  0  0
 18 99  1  0  0  0
 18100  1  0  0  0
 19101  1  0  0  0
 20102  1  0  0  0
 23103  1  0  0  0
 23104  1  0  0  0
 25105  1  0  0  0
 26106  1  0  0  0
 27107  1  0  0  0
 28108  1  0  0  0
 30109  1  0  0  0
 31110  1  0  0  0
 32111  1  0  0  0
 35112  1  0  0  0
 35113  1  0  0  0
 36114  1  0  0  0
 37115  1  0  0  0
 38116  1  0  0  0
 41117  1  0  0  0
 41118  1  0  0  0
 42119  1  0  0  0
 42120  1  0  0  0
 43121  1  0  0  0
 43122  1  0  0  0
 44123  1  0  0  0
 46124  1  0  0  0
 47125  1  0  0  0
 47126  1  0  0  0
 48127  1  0  0  0
 49128  1  0  0  0
 52129  1  0  0  0
 52130  1  0  0  0
 54131  1  0  0  0
 55132  1  0  0  0
 56133  1  0  0  0
 57134  1  0  0  0
 59135  1  0  0  0
 60136  1  0  0  0
 61137  1  0  0  0
 64138  1  0  0  0
 64139  1  0  0  0
 65140  1  0  0  0
 66141  1  0  0  0
 66142  1  0  0  0
 66143  1  0  0  0
 67144  1  0  0  0
 67145  1  0  0  0
 67146  1  0  0  0
 68147  1  0  0  0
 69148  1  0  0  0
 72149  1  0  0  0
 72150  1  0  0  0
 74151  1  0  0  0
 76152  1  0  0  0
 77153  1  0  0  0
 80154  1  0  0  0
 80155  1  0  0  0
 82156  1  0  0  0
M  END
$$$$
