3igb_ligand
  -I-interpret- 

 40 43  0  0  0  0  0  0  0  0999 V2000
    9.9100   -7.7440   16.0740 C   0  0  0  0  0
   14.1760   -6.1000   18.6390 N   0  0  0  0  0
   10.6400   -8.6090   16.8850 C   0  0  0  0  0
   15.3640   -5.3080   16.7130 N   0  0  0  0  0
   12.0270   -8.4660   16.9910 C   0  0  0  0  0
   14.8410   -6.8160   15.1370 N   0  0  0  0  0
   12.7170   -7.4550   16.2860 C   0  0  0  0  0
   16.3620   -5.0820   14.5680 N   0  0  0  0  0
   11.9570   -6.5950   15.4750 C   0  0  0  0  0
   10.5720   -6.7420   15.3720 C   0  0  0  0  0
   14.2430   -7.3390   16.4470 C   0  0  0  0  0
   14.6700   -6.2290   17.4510 C   0  0  0  0  0
   14.5390   -4.8500   19.3420 C   0  0  0  0  0
   15.8130   -4.1930   18.7830 C   0  0  0  0  0
   15.6600   -4.0060   17.2780 C   0  0  0  0  0
   15.5330   -5.7400   15.4240 C   0  0  0  0  0
   14.9280   -8.6750   16.7790 C   0  0  0  0  0
   14.8620   -9.7420   15.8680 C   0  0  0  0  0
   15.4770  -10.9650   16.1360 C   0  0  0  0  0
   16.1650  -11.1410   17.3310 C   0  0  0  0  0
   16.2470  -10.0950   18.2440 C   0  0  0  0  0
   15.6300   -8.8720   17.9730 C   0  0  0  0  0
    8.8285   -7.8511   15.9899 H   0  0  0  0  0
   10.1300   -9.3981   17.4376 H   0  0  0  0  0
   12.5869   -9.1484   17.6305 H   0  0  0  0  0
   14.7226   -7.2289   14.2119 H   0  0  0  0  0
   16.4835   -5.4214   13.6138 H   0  0  0  0  0
   12.4558   -5.8017   14.9182 H   0  0  0  0  0
   10.0037   -6.0644   14.7348 H   0  0  0  0  0
   14.7252   -5.0990   20.3867 H   0  0  0  0  0
   13.7177   -4.1454   19.2113 H   0  0  0  0  0
   16.6735   -4.8301   18.9873 H   0  0  0  0  0
   15.9645   -3.2242   19.2589 H   0  0  0  0  0
   14.8587   -3.3006   17.0580 H   0  0  0  0  0
   16.5744   -3.5989   16.8465 H   0  0  0  0  0
   14.3188   -9.6116   14.9320 H   0  0  0  0  0
   15.4184  -11.7781   15.4124 H   0  0  0  0  0
   16.6394  -12.0971   17.5521 H   0  0  0  0  0
   16.7958  -10.2306   19.1760 H   0  0  0  0  0
   15.6960   -8.0621   18.6995 H   0  0  0  0  0
  3  1  4  0  0  0
  1 10  4  0  0  0
 12  2  2  0  0  0
  2 13  1  0  0  0
  5  3  4  0  0  0
  4 12  1  0  0  0
  4 15  1  0  0  0
 16  4  1  0  0  0
  7  5  4  0  0  0
 11  6  1  0  0  0
  6 16  1  0  0  0
  7  9  4  0  0  0
  7 11  1  0  0  0
 16  8  2  0  0  0
  9 10  4  0  0  0
 11 12  1  0  0  0
 11 17  1  0  0  0
 13 14  1  0  0  0
 14 15  1  0  0  0
 17 18  4  0  0  0
 17 22  4  0  0  0
 18 19  4  0  0  0
 19 20  4  0  0  0
 20 21  4  0  0  0
 21 22  4  0  0  0
  1 23  1  0  0  0
  3 24  1  0  0  0
  5 25  1  0  0  0
  6 26  1  0  0  0
  8 27  1  0  0  0
  9 28  1  0  0  0
 10 29  1  0  0  0
 13 30  1  0  0  0
 13 31  1  0  0  0
 14 32  1  0  0  0
 14 33  1  0  0  0
 15 34  1  0  0  0
 15 35  1  0  0  0
 18 36  1  0  0  0
 19 37  1  0  0  0
 20 38  1  0  0  0
 21 39  1  0  0  0
 22 40  1  0  0  0
M  END
$$$$
