6dj7_ligand
  -I-interpret- 

 75 78  0  0  0  0  0  0  0  0999 V2000
    7.2430   14.5440   14.4920 N   0  0  0  0  0
    7.9680   15.6030   14.8620 C   0  0  0  0  0
    9.3130   15.6980   14.5250 C   0  0  0  0  0
   10.1160   16.7670   14.8780 C   0  0  0  0  0
    9.5220   17.7890   15.6200 C   0  0  0  0  0
    8.1910   17.7010   15.9920 C   0  0  0  0  0
    7.3940   16.6180   15.6290 C   0  0  0  0  0
   10.4670   19.1960   16.1230 S   0  0  0  0  0
   11.5240   19.4110   15.1530 O   0  0  0  0  0
    9.5320   20.3070   16.3530 O   0  0  0  0  0
   11.0840   18.8320   17.5960 N   0  0  0  0  0
   10.1120   18.5310   18.6140 C   0  0  0  0  0
   10.4460   19.1920   19.9600 C   0  0  0  0  0
   10.4310   20.7180   19.8380 C   0  0  0  0  0
    9.4820   18.7200   21.0660 C   0  0  0  0  0
   12.3560   18.1550   17.5350 C   0  0  0  0  0
   13.4830   19.0280   18.0660 C   0  0  0  0  0
   14.6350   18.2470   18.4340 O   0  0  0  0  0
   13.9050   20.1840   17.1500 C   0  0  0  0  0
   14.7980   21.1010   17.8670 N   0  0  0  0  0
   14.4870   22.3480   18.2480 C   0  0  0  0  0
   13.3650   22.8380   18.0090 O   0  0  0  0  0
   15.5060   22.9830   18.8800 O   0  0  0  0  0
   15.3180   24.3680   19.2150 C   0  0  0  0  0
   15.9200   24.5910   20.6020 C   0  0  0  0  0
   17.3410   24.6130   20.4250 O   0  0  0  0  0
   17.5970   25.1540   19.1340 C   0  0  0  0  0
   18.4250   24.2220   18.4360 O   0  0  0  0  0
   17.8090   23.7220   17.2500 C   0  0  0  0  0
   16.6650   24.6870   17.0260 C   0  0  0  0  0
   16.2910   25.2300   18.3810 C   0  0  0  0  0
   14.6620   19.6770   15.9160 C   0  0  0  0  0
   16.4070   21.1370   14.8550 C   0  0  0  0  0
   16.8140   22.1620   14.0270 C   0  0  0  0  0
   15.8810   22.9050   13.3010 C   0  0  0  0  0
   14.5410   22.5530   13.3740 C   0  0  0  0  0
   14.1090   21.5200   14.2140 C   0  0  0  0  0
   15.0490   20.8070   14.9670 C   0  0  0  0  0
   15.6060   24.1190   16.4060 F   0  0  0  0  0
   17.1300   25.6850   16.2310 F   0  0  0  0  0
    7.6755   13.7921   13.9553 H   0  0  0  0  0
    6.2568   14.4871   14.7461 H   0  0  0  0  0
    9.7591   14.8857   13.9512 H   0  0  0  0  0
   11.1663   16.8096   14.5896 H   0  0  0  0  0
    7.7540   18.5032   16.5866 H   0  0  0  0  0
    6.3495   16.5645   15.9359 H   0  0  0  0  0
   10.1038   17.4512   18.7624 H   0  0  0  0  0
    9.1471   18.9139   18.2815 H   0  0  0  0  0
   11.4532   18.8846   20.2414 H   0  0  0  0  0
   11.1710   21.0296   19.1008 H   0  0  0  0  0
    9.4408   21.0462   19.5219 H   0  0  0  0  0
   10.6706   21.1609   20.8047 H   0  0  0  0  0
    8.4603   18.9832   20.7923 H   0  0  0  0  0
    9.5622   17.6388   21.1790 H   0  0  0  0  0
    9.7441   19.2053   22.0061 H   0  0  0  0  0
   12.5684   17.9156   16.4930 H   0  0  0  0  0
   12.2975   17.2572   18.1504 H   0  0  0  0  0
   13.0535   19.4940   18.9528 H   0  0  0  0  0
   15.3232   18.8296   18.7634 H   0  0  0  0  0
   12.9915   20.6910   16.8393 H   0  0  0  0  0
   15.7326   20.7617   18.0943 H   0  0  0  0  0
   14.2613   24.6056   19.0920 H   0  0  0  0  0
   15.6230   23.7995   21.2900 H   0  0  0  0  0
   15.5648   25.5248   21.0379 H   0  0  0  0  0
   18.0627   26.1363   19.2142 H   0  0  0  0  0
   17.4760   22.6890   17.3509 H   0  0  0  0  0
   18.4955   23.6780   16.4045 H   0  0  0  0  0
   15.8083   26.1973   18.2416 H   0  0  0  0  0
   14.0076   18.9924   15.3764 H   0  0  0  0  0
   15.5778   19.1940   16.2568 H   0  0  0  0  0
   17.1476   20.5785   15.4274 H   0  0  0  0  0
   17.8752   22.3946   13.9384 H   0  0  0  0  0
   16.2001   23.7474   12.6872 H   0  0  0  0  0
   13.8122   23.0900   12.7669 H   0  0  0  0  0
   13.0495   21.2729   14.2811 H   0  0  0  0  0
  2  1  1  0  0  0
  3  2  4  0  0  0
  7  2  4  0  0  0
  4  3  4  0  0  0
  5  4  4  0  0  0
  5  6  4  0  0  0
  8  5  1  0  0  0
  6  7  4  0  0  0
  8  9  2  0  0  0
  8 10  2  0  0  0
 11  8  1  0  0  0
 11 12  1  0  0  0
 16 11  1  0  0  0
 12 13  1  0  0  0
 13 14  1  0  0  0
 13 15  1  0  0  0
 17 16  1  0  0  0
 17 18  1  0  0  0
 19 17  1  0  0  0
 19 20  1  0  0  0
 32 19  1  0  0  0
 20 21  1  0  0  0
 21 22  2  0  0  0
 21 23  1  0  0  0
 23 24  1  0  0  0
 24 25  1  0  0  0
 24 31  1  0  0  0
 25 26  1  0  0  0
 27 26  1  0  0  0
 27 28  1  0  0  0
 31 27  1  0  0  0
 29 28  1  0  0  0
 30 29  1  0  0  0
 31 30  1  0  0  0
 30 39  1  0  0  0
 30 40  1  0  0  0
 38 32  1  0  0  0
 33 34  4  0  0  0
 33 38  4  0  0  0
 34 35  4  0  0  0
 35 36  4  0  0  0
 36 37  4  0  0  0
 37 38  4  0  0  0
  1 41  1  0  0  0
  1 42  1  0  0  0
  3 43  1  0  0  0
  4 44  1  0  0  0
  6 45  1  0  0  0
  7 46  1  0  0  0
 12 47  1  0  0  0
 12 48  1  0  0  0
 13 49  1  0  0  0
 14 50  1  0  0  0
 14 51  1  0  0  0
 14 52  1  0  0  0
 15 53  1  0  0  0
 15 54  1  0  0  0
 15 55  1  0  0  0
 16 56  1  0  0  0
 16 57  1  0  0  0
 17 58  1  0  0  0
 18 59  1  0  0  0
 19 60  1  0  0  0
 20 61  1  0  0  0
 24 62  1  0  0  0
 25 63  1  0  0  0
 25 64  1  0  0  0
 27 65  1  0  0  0
 29 66  1  0  0  0
 29 67  1  0  0  0
 31 68  1  0  0  0
 32 69  1  0  0  0
 32 70  1  0  0  0
 33 71  1  0  0  0
 34 72  1  0  0  0
 35 73  1  0  0  0
 36 74  1  0  0  0
 37 75  1  0  0  0
M  END
$$$$
