4mk1_ligand
  -I-interpret- 

 13 13  0  0  0  0  0  0  0  0999 V2000
   10.0340   22.3100   -7.9810 O   0  0  0  0  0
   10.3280   21.7660   -9.2090 C   0  0  0  0  0
   11.1550   22.4480  -10.1070 C   0  0  0  0  0
   11.4360   21.8200  -11.3260 C   0  0  0  0  0
   12.5800   22.6870  -12.6410 Br  0  0  0  0  0
   10.8960   20.5720  -11.6120 C   0  0  0  0  0
   10.1150   19.9560  -10.7210 N   0  0  0  0  0
    9.8240   20.5160   -9.5460 C   0  0  0  0  0
    9.0530   19.8520   -8.6560 O   0  0  0  0  0
    9.4584   21.7130   -7.4973 H   0  0  0  0  0
   11.5644   23.4293   -9.8673 H   0  0  0  0  0
   11.1108   20.0938  -12.5677 H   0  0  0  0  0
    8.7841   19.0107   -9.0322 H   0  0  0  0  0
  1  2  1  0  0  0
  2  3  4  0  0  0
  2  8  4  0  0  0
  3  4  4  0  0  0
  4  5  1  0  0  0
  4  6  4  0  0  0
  6  7  4  0  0  0
  7  8  4  0  0  0
  8  9  1  0  0  0
  1 10  1  0  0  0
  3 11  1  0  0  0
  6 12  1  0  0  0
  9 13  1  0  0  0
M  END
$$$$
