5e2k_ligand
  -I-interpret- 

 29 30  0  0  0  0  0  0  0  0999 V2000
   -5.9330    0.9240   16.6280 S   0  0  0  0  0
   -5.4210   -0.4260   15.9150 N   0  0  0  0  0
   -5.5600    0.8470   18.0130 O   0  0  0  0  0
   -7.3190    1.0890   16.2900 O   0  0  0  0  0
   -5.0450    2.2760   15.9100 C   0  0  0  0  0
   -3.6730    2.1770   15.7080 C   0  0  0  0  0
   -2.9750    3.2380   15.1440 C   0  0  0  0  0
   -3.6480    4.3990   14.7830 C   0  0  0  0  0
   -5.0200    4.4980   14.9850 C   0  0  0  0  0
   -5.7180    3.4370   15.5480 C   0  0  0  0  0
   -2.9020    5.5350   14.1790 C   0  0  0  0  0
   -3.1380    6.8320   14.6170 C   0  0  0  0  0
   -2.4400    7.8940   14.0540 C   0  0  0  0  0
   -1.5050    7.6580   13.0520 C   0  0  0  0  0
   -1.2690    6.3600   12.6140 C   0  0  0  0  0
   -1.9670    5.2980   13.1780 C   0  0  0  0  0
   -0.3420    6.1250   11.6190 N   0  0  0  0  0
   -4.9303   -1.1356   16.4591 H   0  0  0  0  0
   -5.5874   -0.5715   14.9192 H   0  0  0  0  0
   -3.1447    1.2669   15.9921 H   0  0  0  0  0
   -1.8996    3.1596   14.9847 H   0  0  0  0  0
   -5.5481    5.4084   14.7015 H   0  0  0  0  0
   -6.7937    3.5150   15.7059 H   0  0  0  0  0
   -3.8708    7.0169   15.4024 H   0  0  0  0  0
   -2.6255    8.9116   14.3978 H   0  0  0  0  0
   -0.9574    8.4905   12.6102 H   0  0  0  0  0
   -1.7811    4.2801   12.8354 H   0  0  0  0  0
    0.1701    6.9038   11.2048 H   0  0  0  0  0
   -0.1690    5.1725   11.2978 H   0  0  0  0  0
  1  2  1  0  0  0
  1  3  2  0  0  0
  1  4  2  0  0  0
  1  5  1  0  0  0
  5  6  4  0  0  0
  5 10  4  0  0  0
  6  7  4  0  0  0
  7  8  4  0  0  0
  8  9  4  0  0  0
  8 11  1  0  0  0
  9 10  4  0  0  0
 11 12  4  0  0  0
 11 16  4  0  0  0
 12 13  4  0  0  0
 13 14  4  0  0  0
 14 15  4  0  0  0
 15 16  4  0  0  0
 15 17  1  0  0  0
  2 18  1  0  0  0
  2 19  1  0  0  0
  6 20  1  0  0  0
  7 21  1  0  0  0
  9 22  1  0  0  0
 10 23  1  0  0  0
 12 24  1  0  0  0
 13 25  1  0  0  0
 14 26  1  0  0  0
 16 27  1  0  0  0
 17 28  1  0  0  0
 17 29  1  0  0  0
M  END
$$$$
