6c9r_ligand
  -I-interpret- 

 37 40  0  0  0  0  0  0  0  0999 V2000
  -11.6360   15.6280   17.9500 N   0  0  0  0  0
  -11.2790   14.2160   16.1640 N   0  0  0  0  0
  -12.5980   13.9680   16.0490 C   0  0  0  0  0
  -13.4870   14.5730   16.9050 C   0  0  0  0  0
  -12.9470   15.4370   17.9120 C   0  0  0  0  0
  -14.6250   13.3220   15.5390 C   0  0  0  0  0
  -13.2030   16.9450   19.7800 C   0  0  0  0  0
  -15.7980   16.5810   20.0270 C   0  0  0  0  0
  -12.8060   12.4190   14.1030 C   0  0  0  0  0
  -13.7540   16.0720   18.8510 C   0  0  0  0  0
  -10.8180   15.0230   17.1110 C   0  0  0  0  0
  -13.4530   11.0370   13.9120 C   0  0  0  0  0
  -15.1490   15.8710   18.9780 C   0  0  0  0  0
  -13.6670   10.9350   12.3770 C   0  0  0  0  0
  -13.0910   12.2280   11.8190 C   0  0  0  0  0
  -13.8650   12.8310   10.6640 C   0  0  0  0  0
  -14.7360   14.1470   16.5540 N   0  0  0  0  0
  -13.3350   13.2000   15.2170 N   0  0  0  0  0
  -12.6430   10.0020   14.4260 O   0  0  0  0  0
  -12.9290    9.8330   11.8410 O   0  0  0  0  0
  -13.0970   13.1480   12.9260 O   0  0  0  0  0
  -13.3560   14.1220   10.3500 O   0  0  0  0  0
  -14.5800   17.4940   20.7260 S   0  0  0  0  0
  -15.4524   12.8179   15.0397 H   0  0  0  0  0
  -12.1562   17.2257   19.8962 H   0  0  0  0  0
  -16.8495   16.5399   20.3112 H   0  0  0  0  0
  -11.7481   12.2567   14.3095 H   0  0  0  0  0
   -9.7441   15.1888   17.1970 H   0  0  0  0  0
  -14.3898   10.9281   14.4585 H   0  0  0  0  0
  -15.6970   15.2081   18.3084 H   0  0  0  0  0
  -14.7173   10.7873   12.1258 H   0  0  0  0  0
  -12.1037   12.0211   11.4061 H   0  0  0  0  0
  -14.9139   12.9208   10.9465 H   0  0  0  0  0
  -13.7627   12.1859    9.7914 H   0  0  0  0  0
  -13.0790    9.1578   14.2886 H   0  0  0  0  0
  -13.0721    9.7843   10.8930 H   0  0  0  0  0
  -13.8546   14.4919    9.6178 H   0  0  0  0  0
  5  1  4  0  0  0
 11  1  4  0  0  0
  3  2  4  0  0  0
  2 11  4  0  0  0
  3  4  4  0  0  0
 18  3  4  0  0  0
  4  5  4  0  0  0
 17  4  4  0  0  0
  5 10  1  0  0  0
  6 17  4  0  0  0
 18  6  4  0  0  0
 10  7  4  0  0  0
  7 23  4  0  0  0
  8 13  4  0  0  0
 23  8  4  0  0  0
  9 12  1  0  0  0
  9 18  1  0  0  0
  9 21  1  0  0  0
 10 13  4  0  0  0
 12 14  1  0  0  0
 12 19  1  0  0  0
 14 15  1  0  0  0
 14 20  1  0  0  0
 15 16  1  0  0  0
 15 21  1  0  0  0
 16 22  1  0  0  0
  6 24  1  0  0  0
  7 25  1  0  0  0
  8 26  1  0  0  0
  9 27  1  0  0  0
 11 28  1  0  0  0
 12 29  1  0  0  0
 13 30  1  0  0  0
 14 31  1  0  0  0
 15 32  1  0  0  0
 16 33  1  0  0  0
 16 34  1  0  0  0
 19 35  1  0  0  0
 20 36  1  0  0  0
 22 37  1  0  0  0
M  END
$$$$
