1hnn_ligand
  -I-interpret- 

 27 28  0  0  0  0  0  0  0  0999 V2000
   28.3480   46.0370   16.7830 C   0  0  0  0  0
   27.8990   45.5320   15.5700 C   0  0  0  0  0
   27.8220   44.1470   15.3850 C   0  0  0  0  0
   28.1930   43.2860   16.4100 C   0  0  0  0  0
   27.2610   43.4900   13.8470 S   0  0  0  0  0
   28.6420   43.7900   17.6160 C   0  0  0  0  0
   28.7200   45.1740   17.8070 C   0  0  0  0  0
   27.4850   44.4300   12.7700 O   0  0  0  0  0
   25.8660   43.1330   13.8730 O   0  0  0  0  0
   28.1050   42.1870   13.5730 N   0  0  0  0  0
   28.9650   42.8430   18.7440 C   0  0  0  0  0
   29.2110   44.8480   20.1940 C   0  0  0  0  0
   29.4880   45.7050   18.9780 C   0  0  0  0  0
   29.7000   43.4830   19.8600 N   0  3  0  0  0
   28.4090   47.1149   16.9328 H   0  0  0  0  0
   27.6085   46.2098   14.7673 H   0  0  0  0  0
   28.1297   42.2079   16.2625 H   0  0  0  0  0
   28.6850   42.1215   12.7365 H   0  0  0  0  0
   28.0711   41.4094   14.2322 H   0  0  0  0  0
   29.6026   42.0568   18.3396 H   0  0  0  0  0
   28.0202   42.4737   19.1428 H   0  0  0  0  0
   28.1476   44.8369   20.4329 H   0  0  0  0  0
   29.7167   45.2417   21.0757 H   0  0  0  0  0
   29.1801   46.7311   19.1791 H   0  0  0  0  0
   30.5543   45.6827   18.7532 H   0  0  0  0  0
   30.6748   43.5703   19.5727 H   0  0  0  0  0
   29.5664   42.9006   20.6867 H   0  0  0  0  0
  1  2  4  0  0  0
  1  7  4  0  0  0
  2  3  4  0  0  0
  3  4  4  0  0  0
  3  5  1  0  0  0
  4  6  4  0  0  0
  5  8  2  0  0  0
  5  9  2  0  0  0
  5 10  1  0  0  0
  6  7  4  0  0  0
  6 11  1  0  0  0
  7 13  1  0  0  0
 11 14  1  0  0  0
 13 12  1  0  0  0
 12 14  1  0  0  0
  1 15  1  0  0  0
  2 16  1  0  0  0
  4 17  1  0  0  0
 10 18  1  0  0  0
 10 19  1  0  0  0
 11 20  1  0  0  0
 11 21  1  0  0  0
 12 22  1  0  0  0
 12 23  1  0  0  0
 13 24  1  0  0  0
 13 25  1  0  0  0
 14 26  1  0  0  0
 14 27  1  0  0  0
M  END
$$$$
