4enx_ligand
  -I-interpret- 

 35 37  0  0  0  0  0  0  0  0999 V2000
  -44.4890   -1.2920    2.4760 O   0  0  0  0  0
  -43.4040   -1.4610    1.9490 N   0  0  0  0  0
  -42.3660   -1.5750    2.5730 O   0  0  0  0  0
  -43.3300   -1.5540    0.4400 C   0  0  0  0  0
  -44.4660   -1.2190   -0.3210 C   0  0  0  0  0
  -45.5700   -0.8250    0.3490 O   0  0  0  0  0
  -44.4040   -1.3140   -1.7170 C   0  0  0  0  0
  -43.2300   -1.7290   -2.3200 C   0  0  0  0  0
  -42.1490   -1.9730   -0.1720 C   0  0  0  0  0
  -42.0930   -2.0540   -1.5630 C   0  0  0  0  0
  -40.8830   -2.5040   -2.2730 C   0  0  0  0  0
  -39.6180   -2.6600   -1.8360 C   0  0  0  0  0
  -38.5390   -3.2890   -2.6490 C   0  0  0  0  0
  -38.6260   -3.7470   -3.7620 O   0  0  0  0  0
  -37.2360   -3.3190   -1.9420 N   0  0  0  0  0
  -38.9200   -2.1550   -0.2360 S   0  0  0  0  0
  -37.2650   -2.7550   -0.6440 C   0  0  0  0  0
  -36.3460   -2.6050    0.2550 N   0  0  0  0  0
  -36.4630   -2.0300    1.5730 C   0  0  0  0  0
  -35.9800   -0.7290    1.8320 C   0  0  0  0  0
  -35.3050    0.2170    0.5830 Cl  0  0  0  0  0
  -36.0510   -0.1640    3.0990 C   0  0  0  0  0
  -36.6030   -0.9090    4.1340 C   0  0  0  0  0
  -37.0700   -2.2030    3.8980 C   0  0  0  0  0
  -36.9970   -2.7770    2.6290 C   0  0  0  0  0
  -46.2695   -0.6264   -0.2778 H   0  0  0  0  0
  -45.2740   -1.0629   -2.3237 H   0  0  0  0  0
  -43.1868   -1.8053   -3.4065 H   0  0  0  0  0
  -41.2791   -2.2344    0.4305 H   0  0  0  0  0
  -41.0362   -2.7511   -3.3235 H   0  0  0  0  0
  -36.3908   -3.7125   -2.3557 H   0  0  0  0  0
  -35.6805    0.8453    3.2781 H   0  0  0  0  0
  -36.6716   -0.4812    5.1342 H   0  0  0  0  0
  -37.4995   -2.7752    4.7203 H   0  0  0  0  0
  -37.3513   -3.7942    2.4619 H   0  0  0  0  0
  1  2  2  0  0  0
  2  3  2  0  0  0
  2  4  1  0  0  0
  4  5  4  0  0  0
  4  9  4  0  0  0
  5  6  1  0  0  0
  5  7  4  0  0  0
  7  8  4  0  0  0
  8 10  4  0  0  0
  9 10  4  0  0  0
 10 11  1  0  0  0
 11 12  2  0  0  0
 12 13  1  0  0  0
 12 16  1  0  0  0
 13 14  2  0  0  0
 13 15  1  0  0  0
 15 17  1  0  0  0
 16 17  1  0  0  0
 17 18  2  0  0  0
 18 19  1  0  0  0
 19 20  4  0  0  0
 19 25  4  0  0  0
 20 21  1  0  0  0
 20 22  4  0  0  0
 22 23  4  0  0  0
 23 24  4  0  0  0
 24 25  4  0  0  0
  6 26  1  0  0  0
  7 27  1  0  0  0
  8 28  1  0  0  0
  9 29  1  0  0  0
 11 30  1  0  0  0
 15 31  1  0  0  0
 22 32  1  0  0  0
 23 33  1  0  0  0
 24 34  1  0  0  0
 25 35  1  0  0  0
M  END
$$$$
