6bw5_ligand
  -I-interpret- 

117120  0  0  0  0  0  0  0  0999 V2000
   22.5310    7.0520   36.5860 C   0  0  0  0  0
   23.7650    6.2350   36.1470 C   0  0  0  0  0
   26.3290    5.9380   36.2420 C   0  0  0  0  0
   28.0650    4.0340   35.0230 C   0  0  0  0  0
   29.3560    1.9410   35.6010 C   0  0  0  0  0
   30.6990    1.4240   36.0130 C   0  0  0  0  0
   32.4980    0.1570   35.2310 C   0  0  0  0  0
   31.5680    1.2070   34.8320 C   0  0  0  0  0
   30.2290   -3.0530   34.0580 C   0  0  0  0  0
   23.6140    5.2880   35.4540 O   0  0  0  0  0
   25.1050    6.6580   36.5970 N   0  0  0  0  0
   26.8690    6.2740   34.8610 C   0  0  0  0  0
   27.1130    7.6500   34.7680 O   0  0  0  0  0
   28.1910    5.5220   34.6970 C   0  0  0  0  0
   29.1210    6.1080   35.5730 O   0  0  0  0  0
   29.4650    3.4320   35.1960 C   0  0  0  0  0
   28.8730    1.1930   34.5100 O   0  0  0  0  0
   30.5580    0.0800   36.6510 O   0  0  0  0  0
   31.8010   -0.6620   36.2550 C   0  0  0  0  0
   33.6790    0.7690   35.8100 O   0  0  0  0  0
   32.2920    2.4150   34.4770 O   0  0  0  0  0
   31.4200   -1.9050   35.6830 N   0  0  0  0  0
   30.6210   -1.8950   34.6370 C   0  0  0  0  0
   30.6570   -4.2320   34.5530 C   0  0  0  0  0
   30.3120   -5.2490   34.0460 O   0  0  0  0  0
   31.4590   -4.2490   35.6020 N   0  0  0  0  0
   31.8490   -3.0880   36.1830 C   0  0  0  0  0
   32.5690   -3.1090   37.1280 O   0  0  0  0  0
   27.3600    3.8080   36.2220 O   0  0  0  0  0
   26.1080    4.4240   36.2830 C   0  0  0  0  0
   25.4760    4.0780   37.4780 O   0  0  0  0  0
   24.5950    2.9960   37.3040 C   0  0  0  0  0
   25.2900    1.8370   36.9210 O   0  0  0  0  0
   26.1100    1.1800   37.8790 C   0  0  0  0  0
   26.4440   -0.1980   37.3580 C   0  0  0  0  0
   26.8230   -0.0950   36.0150 O   0  0  0  0  0
   25.4100    1.0020   39.2290 C   0  0  0  0  0
   26.3310    0.5500   40.1780 O   0  0  0  0  0
   24.8510    2.3380   39.6700 C   0  0  0  0  0
   24.2150    2.1960   40.9140 O   0  0  0  0  0
   23.8610    2.7760   38.6130 C   0  0  0  0  0
   23.2450    4.0070   39.0640 N   0  0  0  0  0
   22.2010    3.9180   40.0580 C   0  0  0  0  0
   21.8810    2.8650   40.4780 O   0  0  0  0  0
   21.5310    5.1700   40.5800 C   0  0  0  0  0
   21.4130    6.4060   36.9580 C   0  0  0  0  0
   20.1760    7.2140   37.3970 C   0  0  0  0  0
   18.9930    6.2520   37.6490 C   0  0  0  0  0
   17.6670    7.0320   37.6270 C   0  0  0  0  0
   16.5330    6.1610   37.0510 C   0  0  0  0  0
   15.5110    7.0810   36.3770 C   0  0  0  0  0
   14.3610    6.2940   35.7340 C   0  0  0  0  0
   13.1060    7.1750   35.7500 C   0  0  0  0  0
   12.0320    6.6140   34.8060 C   0  0  0  0  0
   10.6450    7.1000   35.2530 C   0  0  0  0  0
   10.3450    8.4650   34.6270 C   0  0  0  0  0
    9.5800    6.0960   34.8070 C   0  0  0  0  0
   22.5662    8.1414   36.5941 H   0  0  0  0  0
   27.0574    6.2598   36.9863 H   0  0  0  0  0
   27.5214    3.5720   34.1989 H   0  0  0  0  0
   28.6671    1.8460   36.4403 H   0  0  0  0  0
   31.1259    2.1617   36.6925 H   0  0  0  0  0
   32.8027   -0.4569   34.3834 H   0  0  0  0  0
   30.9834    0.9326   33.9539 H   0  0  0  0  0
   29.5676   -3.0331   33.1919 H   0  0  0  0  0
   25.1819    7.4900   37.1821 H   0  0  0  0  0
   26.1522    5.9909   34.0902 H   0  0  0  0  0
   26.2867    8.1280   34.8702 H   0  0  0  0  0
   28.5054    5.5937   33.6558 H   0  0  0  0  0
   29.9639    5.6556   35.4925 H   0  0  0  0  0
   29.9952    3.9772   35.9768 H   0  0  0  0  0
   30.0065    3.5082   34.2531 H   0  0  0  0  0
   28.8057    0.2690   34.7617 H   0  0  0  0  0
   32.4502   -0.8388   37.1126 H   0  0  0  0  0
   34.2961    0.0831   36.0752 H   0  0  0  0  0
   31.6676    3.0962   34.2169 H   0  0  0  0  0
   30.2719   -0.9445   34.2335 H   0  0  0  0  0
   31.7864   -5.1394   35.9766 H   0  0  0  0  0
   25.4836    4.1052   35.4483 H   0  0  0  0  0
   23.8846    3.2197   36.5081 H   0  0  0  0  0
   26.9958    1.7973   38.0282 H   0  0  0  0  0
   25.5725   -0.8466   37.4463 H   0  0  0  0  0
   27.2613   -0.6239   37.9400 H   0  0  0  0  0
   27.0370   -0.9674   35.6763 H   0  0  0  0  0
   24.6046    0.2738   39.1335 H   0  0  0  0  0
   25.8896    0.4393   41.0233 H   0  0  0  0  0
   25.6408    3.0809   39.7814 H   0  0  0  0  0
   23.8619    3.0449   41.1903 H   0  0  0  0  0
   23.0943    2.0175   38.4550 H   0  0  0  0  0
   23.5396    4.9094   38.6909 H   0  0  0  0  0
   20.4606    5.1177   40.3809 H   0  0  0  0  0
   21.6986    5.2494   41.6541 H   0  0  0  0  0
   21.9528    6.0418   40.0798 H   0  0  0  0  0
   21.3811    5.3165   36.9494 H   0  0  0  0  0
   19.9075    7.9213   36.6123 H   0  0  0  0  0
   20.4040    7.7566   38.3144 H   0  0  0  0  0
   19.1156    5.7804   38.6240 H   0  0  0  0  0
   18.9754    5.4925   36.8673 H   0  0  0  0  0
   17.7874    7.9147   36.9990 H   0  0  0  0  0
   17.4090    7.3178   38.6467 H   0  0  0  0  0
   16.0549    5.5950   37.8505 H   0  0  0  0  0
   16.9367    5.4563   36.3240 H   0  0  0  0  0
   16.0216    7.6389   35.5921 H   0  0  0  0  0
   15.0897    7.7369   37.1389 H   0  0  0  0  0
   14.1796    5.3750   36.2913 H   0  0  0  0  0
   14.6177    6.0278   34.7086 H   0  0  0  0  0
   13.3765    8.1773   35.4177 H   0  0  0  0  0
   12.7056    7.1971   36.7635 H   0  0  0  0  0
   12.0596    5.5247   34.8340 H   0  0  0  0  0
   12.2265    6.9603   33.7909 H   0  0  0  0  0
   10.6330    7.1890   36.3393 H   0  0  0  0  0
   11.0992    9.1838   34.9473 H   0  0  0  0  0
   10.3632    8.3770   33.5407 H   0  0  0  0  0
    9.3598    8.8023   34.9490 H   0  0  0  0  0
    9.5998    6.0057   33.7209 H   0  0  0  0  0
    9.7865    5.1251   35.2574 H   0  0  0  0  0
    8.5977    6.4445   35.1260 H   0  0  0  0  0
  2  1  1  0  0  0
  1 46  2  0  0  0
  2 10  2  0  0  0
 11  2  1  0  0  0
  3 11  1  0  0  0
 12  3  1  0  0  0
  3 30  1  0  0  0
  4 14  1  0  0  0
 16  4  1  0  0  0
  4 29  1  0  0  0
  6  5  1  0  0  0
  5 16  1  0  0  0
  5 17  1  0  0  0
  6  8  1  0  0  0
 18  6  1  0  0  0
  7  8  1  0  0  0
 19  7  1  0  0  0
  7 20  1  0  0  0
  8 21  1  0  0  0
 23  9  2  0  0  0
  9 24  1  0  0  0
 12 13  1  0  0  0
 14 12  1  0  0  0
 14 15  1  0  0  0
 19 18  1  0  0  0
 22 19  1  0  0  0
 22 23  1  0  0  0
 22 27  1  0  0  0
 24 25  2  0  0  0
 24 26  1  0  0  0
 26 27  1  0  0  0
 27 28  2  0  0  0
 29 30  1  0  0  0
 30 31  1  0  0  0
 31 32  1  0  0  0
 32 33  1  0  0  0
 32 41  1  0  0  0
 33 34  1  0  0  0
 34 35  1  0  0  0
 34 37  1  0  0  0
 35 36  1  0  0  0
 37 38  1  0  0  0
 37 39  1  0  0  0
 39 40  1  0  0  0
 39 41  1  0  0  0
 41 42  1  0  0  0
 42 43  1  0  0  0
 43 44  2  0  0  0
 43 45  1  0  0  0
 46 47  1  0  0  0
 47 48  1  0  0  0
 48 49  1  0  0  0
 49 50  1  0  0  0
 50 51  1  0  0  0
 51 52  1  0  0  0
 52 53  1  0  0  0
 53 54  1  0  0  0
 54 55  1  0  0  0
 55 56  1  0  0  0
 55 57  1  0  0  0
  1 58  1  0  0  0
  3 59  1  0  0  0
  4 60  1  0  0  0
  5 61  1  0  0  0
  6 62  1  0  0  0
  7 63  1  0  0  0
  8 64  1  0  0  0
  9 65  1  0  0  0
 11 66  1  0  0  0
 12 67  1  0  0  0
 13 68  1  0  0  0
 14 69  1  0  0  0
 15 70  1  0  0  0
 16 71  1  0  0  0
 16 72  1  0  0  0
 17 73  1  0  0  0
 19 74  1  0  0  0
 20 75  1  0  0  0
 21 76  1  0  0  0
 23 77  1  0  0  0
 26 78  1  0  0  0
 30 79  1  0  0  0
 32 80  1  0  0  0
 34 81  1  0  0  0
 35 82  1  0  0  0
 35 83  1  0  0  0
 36 84  1  0  0  0
 37 85  1  0  0  0
 38 86  1  0  0  0
 39 87  1  0  0  0
 40 88  1  0  0  0
 41 89  1  0  0  0
 42 90  1  0  0  0
 45 91  1  0  0  0
 45 92  1  0  0  0
 45 93  1  0  0  0
 46 94  1  0  0  0
 47 95  1  0  0  0
 47 96  1  0  0  0
 48 97  1  0  0  0
 48 98  1  0  0  0
 49 99  1  0  0  0
 49100  1  0  0  0
 50101  1  0  0  0
 50102  1  0  0  0
 51103  1  0  0  0
 51104  1  0  0  0
 52105  1  0  0  0
 52106  1  0  0  0
 53107  1  0  0  0
 53108  1  0  0  0
 54109  1  0  0  0
 54110  1  0  0  0
 55111  1  0  0  0
 56112  1  0  0  0
 56113  1  0  0  0
 56114  1  0  0  0
 57115  1  0  0  0
 57116  1  0  0  0
 57117  1  0  0  0
M  END
$$$$
