### 
### Created by X-TOOL on Mon Sep 10 21:13:20 2018
### 

@<TRIPOS>MOLECULE
4s3e_ligand
   15    14     1     0     0
SMALL
GAST_HUCK


@<TRIPOS>ATOM
      1 O20        12.0190   20.7620  -15.8230 O.co2     1 0CG        -0.5891
      2 P17        12.5660   21.9060  -14.9490 P.3       1 0CG         0.2069
      3 O18        13.3510   21.4210  -13.6890 O.co2     1 0CG        -0.5891
      4 O19        13.3520   22.9500  -15.7250 O.co2     1 0CG        -0.5891
      5 O16        11.1830   22.6660  -14.4400 O.3       1 0CG        -0.1548
      6 P13        11.0230   23.9600  -13.5390 P.3       1 0CG         0.3284
      7 O14         9.5150   24.2300  -13.4490 O.co2     1 0CG        -0.5556
      8 O15        11.8300   23.8400  -12.2190 O.co2     1 0CG        -0.5556
      9 O29        11.8900   25.1230  -14.2000 O.3       1 0CG        -0.2334
     10 C28        11.4350   25.5820  -15.4110 C.3       1 0CG         0.1445
     11 C27        12.6160   26.3560  -15.9340 C.1       1 0CG        -0.0715
     12 C30        13.6180   27.0130  -16.3780 C.1       1 0CG        -0.1165
     13 H1         10.5578   26.2336  -15.2845 H         1 0CG         0.0759
     14 H2         11.1788   24.7480  -16.0809 H         1 0CG         0.0759
     15 H3         14.4461   27.5560  -16.7449 H         1 0CG         0.1229
@<TRIPOS>BOND
     1    1    2 ar 
     2    2    3 ar 
     3    2    4 ar 
     4    2    5 1  
     5    5    6 1  
     6    6    7 ar 
     7    6    8 ar 
     8    6    9 1  
     9    9   10 1  
    10   10   11 1  
    11   11   12 3  
    12   10   13 1  
    13   10   14 1  
    14   12   15 1  
@<TRIPOS>SUBSTRUCTURE
     1 0CG         1

