2a8g_ligand
  -I-interpret- 

 32 34  0  0  0  0  0  0  0  0999 V2000
    9.3980    3.5290    0.1720 O   0  0  0  0  0
    9.7610    2.1560    0.2790 C   0  0  0  0  0
   10.9090    2.1550    1.2640 C   0  0  0  0  0
   10.3990    1.8720    2.5630 O   0  0  0  0  0
   11.4440    1.2120    3.2680 C   0  0  0  0  0
   11.0050    0.6070    4.5510 N   0  0  0  0  0
    9.8890    0.9350    5.2250 C   0  0  0  0  0
    9.8400    0.1690    6.3250 N   0  0  0  0  0
   10.9410   -0.6090    6.3430 C   0  0  0  0  0
   11.6880   -0.3360    5.2230 C   0  0  0  0  0
   12.8630   -1.0100    5.0090 N   0  0  0  0  0
   13.2930   -1.9410    5.9120 C   0  0  0  0  0
   12.5570   -2.2150    6.9990 N   0  0  0  0  0
   11.4090   -1.5690    7.2070 C   0  0  0  0  0
   10.7720   -1.8490    8.2170 O   0  0  0  0  0
   14.4390   -2.6400    5.7710 N   0  0  0  0  0
   11.9820    0.2230    2.2550 C   0  0  0  0  0
   11.9530    1.0830    1.0060 C   0  0  0  0  0
   13.2210    1.7220    0.9510 O   0  0  0  0  0
    8.6661    3.6184   -0.4428 H   0  0  0  0  0
   10.0424    1.7275   -0.6829 H   0  0  0  0  0
    8.9302    1.5344    0.6130 H   0  0  0  0  0
   11.3748    3.1355    1.1651 H   0  0  0  0  0
   12.2187    1.8969    3.6127 H   0  0  0  0  0
    9.1568    1.6870    4.9309 H   0  0  0  0  0
   12.8752   -2.9174    7.6666 H   0  0  0  0  0
   15.0341   -2.4849    4.9573 H   0  0  0  0  0
   14.7099   -3.3233    6.4782 H   0  0  0  0  0
   11.4085   -0.7008    2.1791 H   0  0  0  0  0
   12.9636   -0.1830    2.4995 H   0  0  0  0  0
   11.7396    0.5220    0.0962 H   0  0  0  0  0
   13.2612    2.2845    0.1741 H   0  0  0  0  0
  1  2  1  0  0  0
  2  3  1  0  0  0
  3  4  1  0  0  0
  3 18  1  0  0  0
  4  5  1  0  0  0
  5  6  1  0  0  0
  5 17  1  0  0  0
  6  7  4  0  0  0
  6 10  4  0  0  0
  7  8  4  0  0  0
  8  9  4  0  0  0
  9 10  4  0  0  0
  9 14  1  0  0  0
 10 11  1  0  0  0
 11 12  2  0  0  0
 12 13  1  0  0  0
 12 16  1  0  0  0
 13 14  1  0  0  0
 14 15  2  0  0  0
 17 18  1  0  0  0
 18 19  1  0  0  0
  1 20  1  0  0  0
  2 21  1  0  0  0
  2 22  1  0  0  0
  3 23  1  0  0  0
  5 24  1  0  0  0
  7 25  1  0  0  0
 13 26  1  0  0  0
 16 27  1  0  0  0
 16 28  1  0  0  0
 17 29  1  0  0  0
 17 30  1  0  0  0
 18 31  1  0  0  0
 19 32  1  0  0  0
M  END
$$$$
