4yqv_ligand
  -I-interpret- 

 32 33  0  0  0  0  0  0  0  0999 V2000
    6.1660  -18.2180   29.9660 O   0  0  0  0  0
    7.3520  -17.9240   29.9100 C   0  0  0  0  0
    7.7300  -16.5170   30.4910 C   0  0  0  0  0
    8.2790  -18.7860   29.4300 N   0  0  0  0  0
    9.7090  -18.5340   29.5450 C   0  0  0  0  0
    7.8900  -19.9780   28.6890 C   0  0  0  0  0
    8.0460  -19.8400   27.1940 C   0  0  0  0  0
    9.2160  -19.7400   26.4280 C   0  0  0  0  0
    8.8510  -19.6770   25.1280 N   0  0  0  0  0
    7.4930  -19.7120   25.0050 N   0  0  0  0  0
    6.9940  -19.8150   26.2270 C   0  0  0  0  0
    9.6780  -19.6690   23.9570 C   0  0  0  0  0
   10.9630  -19.1310   24.0170 C   0  0  0  0  0
   11.8190  -19.2720   22.9340 C   0  0  0  0  0
   11.4000  -19.9280   21.7910 C   0  0  0  0  0
   10.1130  -20.4340   21.7160 C   0  0  0  0  0
    9.2460  -20.3100   22.7940 C   0  0  0  0  0
    7.1954  -15.7426   29.9409 H   0  0  0  0  0
    7.4524  -16.4737   31.5442 H   0  0  0  0  0
    8.8040  -16.3604   30.3903 H   0  0  0  0  0
   10.1845  -19.3722   30.0543 H   0  0  0  0  0
   10.1380  -18.4215   28.5493 H   0  0  0  0  0
    9.8708  -17.6204   30.1171 H   0  0  0  0  0
    6.8342  -20.1579   28.8916 H   0  0  0  0  0
    8.5420  -20.7898   29.0114 H   0  0  0  0  0
   10.2360  -19.7172   26.8116 H   0  0  0  0  0
    5.9312  -19.8726   26.4622 H   0  0  0  0  0
   11.2937  -18.6019   24.9108 H   0  0  0  0  0
   12.8281  -18.8631   22.9845 H   0  0  0  0  0
   12.0824  -20.0468   20.9494 H   0  0  0  0  0
    9.7787  -20.9323   20.8060 H   0  0  0  0  0
    8.2342  -20.7107   22.7326 H   0  0  0  0  0
  1  2  2  0  0  0
  2  3  1  0  0  0
  2  4  1  0  0  0
  4  5  1  0  0  0
  4  6  1  0  0  0
  6  7  1  0  0  0
  7  8  4  0  0  0
  7 11  4  0  0  0
  8  9  4  0  0  0
  9 10  4  0  0  0
  9 12  1  0  0  0
 10 11  4  0  0  0
 12 13  4  0  0  0
 12 17  4  0  0  0
 13 14  4  0  0  0
 14 15  4  0  0  0
 15 16  4  0  0  0
 16 17  4  0  0  0
  3 18  1  0  0  0
  3 19  1  0  0  0
  3 20  1  0  0  0
  5 21  1  0  0  0
  5 22  1  0  0  0
  5 23  1  0  0  0
  6 24  1  0  0  0
  6 25  1  0  0  0
  8 26  1  0  0  0
 11 27  1  0  0  0
 13 28  1  0  0  0
 14 29  1  0  0  0
 15 30  1  0  0  0
 16 31  1  0  0  0
 17 32  1  0  0  0
M  END
$$$$
