5em5_ligand
  -I-interpret- 

 62 65  0  0  0  0  0  0  0  0999 V2000
  -53.1760   -0.1460  -15.6080 C   0  0  0  0  0
  -50.9400    0.9570  -15.8280 C   0  0  0  0  0
  -53.4590    1.4910  -20.2650 C   0  0  0  0  0
  -50.7720    0.8490  -14.2950 C   0  0  0  0  0
  -52.6830    1.1350  -17.5790 C   0  0  0  0  0
  -51.9070    0.5980  -18.6240 C   0  0  0  0  0
  -52.2860    0.7820  -19.9530 C   0  0  0  0  0
  -54.2340    1.9980  -19.2220 C   0  0  0  0  0
  -53.8570    1.8260  -17.9010 C   0  0  0  0  0
  -51.6020   -0.2580  -13.7650 N   0  3  0  0  0
  -53.0350   -0.1100  -14.0810 C   0  0  0  0  0
  -51.3960   -0.4830  -12.3270 C   0  0  0  0  0
  -52.3770    0.9530  -16.2090 N   0  0  0  0  0
  -53.9660    1.6930  -21.5690 N   0  0  0  0  0
  -53.8600    0.8780  -22.6580 C   0  0  0  0  0
  -53.2020   -0.1460  -22.5840 O   0  0  0  0  0
  -54.5720    1.1990  -23.9260 C   0  0  0  0  0
  -54.3120    0.4830  -25.1430 C   0  0  0  0  0
  -55.0540    0.8310  -26.3050 C   0  0  0  0  0
  -55.9980    1.7960  -26.2800 C   0  0  0  0  0
  -56.2650    2.4610  -25.1300 N   0  0  0  0  0
  -55.6060    2.2070  -23.9720 C   0  0  0  0  0
  -55.9300    2.8740  -22.9960 O   0  0  0  0  0
  -53.3470   -0.5210  -25.2040 N   0  0  0  0  0
  -53.1530   -1.4860  -26.3050 C   0  0  0  0  0
  -51.8700   -1.1600  -27.0840 C   0  0  0  0  0
  -52.0730    0.1420  -27.8180 C   0  0  0  0  0
  -51.8040    1.3430  -27.1620 C   0  0  0  0  0
  -52.0640    2.5580  -27.7690 C   0  0  0  0  0
  -52.5450    2.5620  -29.0690 C   0  0  0  0  0
  -52.7570    1.3690  -29.7580 C   0  0  0  0  0
  -52.5530    0.1490  -29.1250 C   0  0  0  0  0
  -52.8310    4.0860  -29.8300 Cl  0  0  0  0  0
  -54.2246   -0.0204  -15.8777 H   0  0  0  0  0
  -52.8138   -1.1034  -15.9825 H   0  0  0  0  0
  -50.4526    0.1006  -16.2940 H   0  0  0  0  0
  -50.4922    1.8924  -16.1635 H   0  0  0  0  0
  -51.0898    1.7846  -13.8348 H   0  0  0  0  0
  -49.7252    0.6516  -14.0642 H   0  0  0  0  0
  -51.0033    0.0343  -18.3922 H   0  0  0  0  0
  -51.6697    0.3740  -20.7541 H   0  0  0  0  0
  -55.1522    2.5389  -19.4509 H   0  0  0  0  0
  -54.4801    2.2324  -17.1043 H   0  0  0  0  0
  -51.2761   -1.0923  -14.2531 H   0  0  0  0  0
  -53.6111   -0.9156  -13.6257 H   0  0  0  0  0
  -53.4178    0.8305  -13.6847 H   0  0  0  0  0
  -51.7906    0.3653  -11.7676 H   0  0  0  0  0
  -51.9154   -1.3924  -12.0248 H   0  0  0  0  0
  -50.3298   -0.5881  -12.1261 H   0  0  0  0  0
  -54.4786    2.5627  -21.7150 H   0  0  0  0  0
  -54.8558    0.3056  -27.2392 H   0  0  0  0  0
  -56.5477    2.0411  -27.1888 H   0  0  0  0  0
  -56.9888    3.1797  -25.1353 H   0  0  0  0  0
  -52.7119   -0.5967  -24.4095 H   0  0  0  0  0
  -54.0044   -1.4265  -26.9830 H   0  0  0  0  0
  -53.0689   -2.4891  -25.8868 H   0  0  0  0  0
  -51.6535   -1.9577  -27.7946 H   0  0  0  0  0
  -51.0293   -1.0718  -26.3958 H   0  0  0  0  0
  -51.3829    1.3237  -26.1568 H   0  0  0  0  0
  -51.8942    3.4935  -27.2360 H   0  0  0  0  0
  -53.0841    1.3932  -30.7975 H   0  0  0  0  0
  -52.7651   -0.7865  -29.6427 H   0  0  0  0  0
  1 11  1  0  0  0
 13  1  1  0  0  0
  2  4  1  0  0  0
 13  2  1  0  0  0
  7  3  4  0  0  0
  3  8  4  0  0  0
  3 14  1  0  0  0
  4 10  1  0  0  0
  6  5  4  0  0  0
  5  9  4  0  0  0
  5 13  1  0  0  0
  6  7  4  0  0  0
  8  9  4  0  0  0
 10 11  1  0  0  0
 10 12  1  0  0  0
 14 15  1  0  0  0
 15 16  2  0  0  0
 15 17  1  0  0  0
 17 18  2  0  0  0
 17 22  1  0  0  0
 18 19  1  0  0  0
 18 24  1  0  0  0
 19 20  2  0  0  0
 20 21  1  0  0  0
 21 22  1  0  0  0
 22 23  2  0  0  0
 24 25  1  0  0  0
 25 26  1  0  0  0
 26 27  1  0  0  0
 27 28  4  0  0  0
 27 32  4  0  0  0
 28 29  4  0  0  0
 29 30  4  0  0  0
 30 31  4  0  0  0
 30 33  1  0  0  0
 31 32  4  0  0  0
  1 34  1  0  0  0
  1 35  1  0  0  0
  2 36  1  0  0  0
  2 37  1  0  0  0
  4 38  1  0  0  0
  4 39  1  0  0  0
  6 40  1  0  0  0
  7 41  1  0  0  0
  8 42  1  0  0  0
  9 43  1  0  0  0
 10 44  1  0  0  0
 11 45  1  0  0  0
 11 46  1  0  0  0
 12 47  1  0  0  0
 12 48  1  0  0  0
 12 49  1  0  0  0
 14 50  1  0  0  0
 19 51  1  0  0  0
 20 52  1  0  0  0
 21 53  1  0  0  0
 24 54  1  0  0  0
 25 55  1  0  0  0
 25 56  1  0  0  0
 26 57  1  0  0  0
 26 58  1  0  0  0
 28 59  1  0  0  0
 29 60  1  0  0  0
 31 61  1  0  0  0
 32 62  1  0  0  0
M  END
$$$$
