### 
### Created by X-TOOL on Fri Nov 18 12:09:16 2016
### 

@<TRIPOS>MOLECULE
1nox_ligand
   50    52     1     0     0
SMALL
GAST_HUCK


@<TRIPOS>ATOM
      1 N1         15.9670   32.4900   41.8920 N.2       1 FMN        -0.2549
      2 C2         16.9610   33.3810   42.3110 C.2       1 FMN         0.2439
      3 O2         17.9440   33.5950   41.7040 O.2       1 FMN        -0.3902
      4 N3         16.6700   34.1060   43.5420 N.am      1 FMN        -0.1938
      5 C4         15.5680   33.9770   44.3350 C.2       1 FMN         0.2704
      6 O4         15.3460   34.5980   45.3800 O.2       1 FMN        -0.3655
      7 C4A        14.5540   32.9890   43.9520 C.2       1 FMN         0.2076
      8 N5         13.3770   32.7920   44.4830 N.2       1 FMN        -0.2387
      9 C5A        12.3470   32.1140   43.9010 C.ar      1 FMN         0.0856
     10 C6         11.0040   32.2590   44.4270 C.ar      1 FMN        -0.0403
     11 C7          9.9130   31.6890   43.7530 C.ar      1 FMN        -0.0428
     12 C7M         8.5120   31.8030   44.3130 C.3       1 FMN        -0.0352
     13 C8         10.1070   30.9960   42.4970 C.ar      1 FMN        -0.0416
     14 C8M         9.0060   30.3080   41.7300 C.3       1 FMN        -0.0312
     15 C9         11.4060   30.8550   41.9690 C.ar      1 FMN        -0.0258
     16 C9A        12.5840   31.4040   42.6030 C.ar      1 FMN         0.1048
     17 N10        13.9070   31.4910   42.0960 N.pl3     1 FMN        -0.2138
     18 C10        14.9240   32.3170   42.6950 C.2       1 FMN         0.1894
     19 C1         14.1790   30.7910   40.7400 C.3       1 FMN         0.0886
     20 C2         14.0410   29.3120   41.0750 C.3       1 FMN         0.1102
     21 O2         15.2640   28.7040   41.6530 O.3       1 FMN        -0.3865
     22 C3         13.8690   28.3640   39.7970 C.3       1 FMN         0.1118
     23 O3         12.5520   28.8390   39.2860 O.3       1 FMN        -0.3865
     24 C4         13.8690   26.8400   39.6440 C.3       1 FMN         0.1111
     25 O4         15.2400   26.5150   40.1490 O.3       1 FMN        -0.3865
     26 C5         13.5970   26.1320   38.2950 C.3       1 FMN         0.1068
     27 O5         14.3950   26.9110   37.3700 O.3       1 FMN        -0.2734
     28 P          13.7540   27.6690   36.1160 P.3       1 FMN         0.2008
     29 O1P        12.9050   26.7060   35.3400 O.co2     1 FMN        -0.5537
     30 O2P        14.9960   28.0810   35.3310 O.co2     1 FMN        -0.5537
     31 O3P        12.9100   28.8380   36.6790 O.co2     1 FMN        -0.5537
     32 H1         17.3547   34.7721   43.8378 H         1 FMN         0.2248
     33 H2         10.8416   32.8107   45.3459 H         1 FMN         0.0564
     34 H3          8.5412   32.3541   45.2645 H         1 FMN         0.0366
     35 H4          8.1027   30.7965   44.4847 H         1 FMN         0.0366
     36 H5          7.8736   32.3413   43.5970 H         1 FMN         0.0366
     37 H6          9.4207   29.8619   40.8140 H         1 FMN         0.0395
     38 H7          8.2317   31.0419   41.4623 H         1 FMN         0.0395
     39 H8          8.5625   29.5182   42.3541 H         1 FMN         0.0395
     40 H9         11.5282   30.3077   41.0413 H         1 FMN         0.0493
     41 H10        15.1911   31.0194   40.3747 H         1 FMN         0.0631
     42 H11        13.4393   31.0945   39.9846 H         1 FMN         0.0631
     43 H12        13.1884   29.2000   41.7609 H         1 FMN         0.0647
     44 H13        15.4892   29.1535   42.4591 H         1 FMN         0.2100
     45 H14        14.6684   28.6848   39.1129 H         1 FMN         0.0647
     46 H15        12.3201   28.3477   38.5066 H         1 FMN         0.2100
     47 H16        13.1134   26.4433   40.3381 H         1 FMN         0.0646
     48 H17        15.3231   26.8096   41.0484 H         1 FMN         0.2100
     49 H18        12.5297   26.1726   38.0321 H         1 FMN         0.0639
     50 H19        13.9285   25.0835   38.3216 H         1 FMN         0.0639
@<TRIPOS>BOND
     1    1    2 1  
     2    1   18 2  
     3    2    3 2  
     4    2    4 am 
     5    4    5 am 
     6    5    6 2  
     7    5    7 1  
     8    7    8 2  
     9    7   18 1  
    10    8    9 1  
    11    9   10 ar 
    12    9   16 ar 
    13   10   11 ar 
    14   11   12 1  
    15   11   13 ar 
    16   13   14 1  
    17   13   15 ar 
    18   15   16 ar 
    19   16   17 1  
    20   17   18 1  
    21   17   19 1  
    22   19   20 1  
    23   20   21 1  
    24   20   22 1  
    25   22   23 1  
    26   22   24 1  
    27   24   25 1  
    28   24   26 1  
    29   26   27 1  
    30   27   28 1  
    31   28   29 ar 
    32   28   30 ar 
    33   28   31 ar 
    34    4   32 1  
    35   10   33 1  
    36   12   34 1  
    37   12   35 1  
    38   12   36 1  
    39   14   37 1  
    40   14   38 1  
    41   14   39 1  
    42   15   40 1  
    43   19   41 1  
    44   19   42 1  
    45   20   43 1  
    46   21   44 1  
    47   22   45 1  
    48   23   46 1  
    49   24   47 1  
    50   25   48 1  
    51   26   49 1  
    52   26   50 1  
@<TRIPOS>SUBSTRUCTURE
     1 FMN         1

