1xmy_ligand
  -I-interpret- 

 41 43  0  0  0  0  0  0  0  0999 V2000
   42.7690    1.9210   61.6930 C   0  0  0  0  0
   42.8690    1.6580   63.0710 C   0  0  0  0  0
   44.1190    1.4740   63.7140 C   0  0  0  0  0
   45.2880    1.5110   62.9460 C   0  0  0  0  0
   45.1830    1.7440   61.5780 C   0  0  0  0  0
   43.9520    1.9370   60.9670 C   0  0  0  0  0
   41.4730    2.1000   60.8260 C   0  0  0  0  0
   40.4790    1.0970   61.4040 C   0  0  0  0  0
   39.7570    2.0300   62.2930 C   0  0  0  0  0
   38.9610    1.6460   63.1230 O   0  0  0  0  0
   40.1640    3.2950   62.0950 N   0  0  0  0  0
   40.9230    3.5040   60.8930 C   0  0  0  0  0
   44.2790    1.2380   65.1040 O   0  0  0  0  0
   43.1130    1.3130   65.9190 C   0  0  0  0  0
   42.5890   -0.0590   66.3550 C   0  0  0  0  0
   42.6170    0.0890   67.9000 C   0  0  0  0  0
   43.9760    0.7200   68.1660 C   0  0  0  0  0
   43.9160    1.8620   67.1350 C   0  0  0  0  0
   46.5620    1.3250   63.5180 O   0  0  0  0  0
   47.7590    1.9950   63.0260 C   0  0  0  0  0
   41.9563    1.5936   63.6635 H   0  0  0  0  0
   46.0887    1.7756   60.9723 H   0  0  0  0  0
   43.9131    2.1053   59.8908 H   0  0  0  0  0
   41.6789    1.9280   59.7695 H   0  0  0  0  0
   40.9153    0.2234   61.8884 H   0  0  0  0  0
   39.8654    0.5656   60.6766 H   0  0  0  0  0
   39.9506    4.0491   62.7478 H   0  0  0  0  0
   40.3769    3.8623   60.0204 H   0  0  0  0  0
   41.6477    4.3181   60.9021 H   0  0  0  0  0
   42.2534    1.8291   65.4915 H   0  0  0  0  0
   43.1801   -0.8953   65.9818 H   0  0  0  0  0
   41.6054   -0.3028   65.9536 H   0  0  0  0  0
   42.4879   -0.8628   68.4154 H   0  0  0  0  0
   41.7924    0.6927   68.2790 H   0  0  0  0  0
   44.8256    0.0459   68.0571 H   0  0  0  0  0
   44.1423    1.0376   69.1953 H   0  0  0  0  0
   43.4345    2.7447   67.5559 H   0  0  0  0  0
   44.9171    2.1721   66.8354 H   0  0  0  0  0
   47.9273    1.7177   61.9854 H   0  0  0  0  0
   47.6255    3.0744   63.0987 H   0  0  0  0  0
   48.6163    1.6923   63.6272 H   0  0  0  0  0
  1  2  4  0  0  0
  1  6  4  0  0  0
  1  7  1  0  0  0
  2  3  4  0  0  0
  3  4  4  0  0  0
  3 13  1  0  0  0
  4  5  4  0  0  0
  4 19  1  0  0  0
  5  6  4  0  0  0
  7  8  1  0  0  0
  7 12  1  0  0  0
  8  9  1  0  0  0
  9 10  2  0  0  0
  9 11  1  0  0  0
 11 12  1  0  0  0
 13 14  1  0  0  0
 14 15  1  0  0  0
 14 18  1  0  0  0
 15 16  1  0  0  0
 16 17  1  0  0  0
 17 18  1  0  0  0
 19 20  1  0  0  0
  2 21  1  0  0  0
  5 22  1  0  0  0
  6 23  1  0  0  0
  7 24  1  0  0  0
  8 25  1  0  0  0
  8 26  1  0  0  0
 11 27  1  0  0  0
 12 28  1  0  0  0
 12 29  1  0  0  0
 14 30  1  0  0  0
 15 31  1  0  0  0
 15 32  1  0  0  0
 16 33  1  0  0  0
 16 34  1  0  0  0
 17 35  1  0  0  0
 17 36  1  0  0  0
 18 37  1  0  0  0
 18 38  1  0  0  0
 20 39  1  0  0  0
 20 40  1  0  0  0
 20 41  1  0  0  0
M  END
$$$$
