### 
### Created by X-TOOL on Mon Sep 10 21:12:45 2018
### 

@<TRIPOS>MOLECULE
1hti_ligand
   11    10     1     0     0
SMALL
GAST_HUCK


@<TRIPOS>ATOM
      1 P          11.6140  -11.2290    7.0850 P.3       1 PGA         0.2032
      2 O1P        10.2180  -10.3770    7.1440 O.3       1 PGA        -0.2622
      3 O2P        12.3370  -10.7180    8.3070 O.co2     1 PGA        -0.5536
      4 O3P        12.1980  -10.7140    5.7980 O.co2     1 PGA        -0.5536
      5 O4P        11.1740  -12.6660    7.0420 O.co2     1 PGA        -0.5536
      6 C2          9.1230  -10.6080    8.0370 C.3       1 PGA         0.1305
      7 C1          8.1160   -9.8010    7.3670 C.2       1 PGA         0.0653
      8 O1          8.3190   -8.5460    6.8640 O.co2     1 PGA        -0.5663
      9 O2          6.8330  -10.1290    7.0800 O.co2     1 PGA        -0.5663
     10 H1          9.3347  -10.2446    9.0534 H         1 PGA         0.0783
     11 H2          8.8407  -11.6703    8.0788 H         1 PGA         0.0783
@<TRIPOS>BOND
     1    1    2 1  
     2    1    3 ar 
     3    1    4 ar 
     4    1    5 ar 
     5    2    6 1  
     6    6    7 1  
     7    7    8 ar 
     8    7    9 ar 
     9    6   10 1  
    10    6   11 1  
@<TRIPOS>SUBSTRUCTURE
     1 PGA         1

