1hti_ligand
  -I-interpret- 

 14 13  0  0  0  0  0  0  0  0999 V2000
   11.6140  -11.2290    7.0850 P   0  0  0  0  0
   10.2180  -10.3770    7.1440 O   0  0  0  0  0
   12.3370  -10.7180    8.3070 O   0  0  0  0  0
   12.1980  -10.7140    5.7980 O   0  0  0  0  0
   11.1740  -12.6660    7.0420 O   0  0  0  0  0
    9.1230  -10.6080    8.0370 C   0  0  0  0  0
    8.1160   -9.8010    7.3670 C   0  0  0  0  0
    8.3190   -8.5460    6.8640 O   0  0  0  0  0
    6.8330  -10.1290    7.0800 O   0  0  0  0  0
   12.5513   -9.7901    8.1860 H   0  0  0  0  0
   12.4523   -9.7949    5.9085 H   0  0  0  0  0
    9.3112  -10.3416    9.0771 H   0  0  0  0  0
    8.8560  -11.6552    8.1791 H   0  0  0  0  0
    9.2208   -8.2716    7.0458 H   0  0  0  0  0
  1  2  1  0  0  0
  1  3  1  0  0  0
  1  4  1  0  0  0
  1  5  2  0  0  0
  2  6  1  0  0  0
  6  7  1  0  0  0
  7  8  1  0  0  0
  7  9  2  0  0  0
  3 10  1  0  0  0
  4 11  1  0  0  0
  6 12  1  0  0  0
  6 13  1  0  0  0
  8 14  1  0  0  0
M  END
$$$$
