3vzv_ligand
  -I-interpret- 

 72 76  0  0  0  0  0  0  0  0999 V2000
   10.1510   -3.5540  -32.2010 O   0  0  0  0  0
    9.2080   -3.9500  -31.5020 C   0  0  0  0  0
    8.2350   -4.7920  -31.9980 N   0  0  0  0  0
    8.1770   -5.2340  -33.3980 C   0  0  0  0  0
    7.7870   -3.9400  -34.2390 C   0  0  0  0  0
    7.9820   -4.0040  -35.4730 O   0  0  0  0  0
    7.2710   -2.7160  -33.6980 N   0  0  0  0  0
    5.9070   -2.5370  -33.0190 C   0  0  0  0  0
    8.1050   -1.4560  -33.8040 C   0  0  0  0  0
    7.0850   -6.2890  -33.3440 C   0  0  0  0  0
    6.8330   -6.6030  -31.8580 C   0  0  0  0  0
    7.0540   -5.2500  -31.2180 C   0  0  0  0  0
    9.1520   -3.3520  -30.1050 C   0  0  0  0  0
   10.2610   -3.4980  -29.0450 C   0  0  0  0  0
   10.9650   -4.8370  -28.6520 C   0  0  0  0  0
   10.5100   -6.1860  -29.2050 C   0  0  0  0  0
   12.4810   -4.6530  -28.8210 C   0  0  0  0  0
    9.5080   -2.9420  -27.8980 N   0  0  0  0  0
    9.9030   -2.7800  -26.5390 C   0  0  0  0  0
    9.3540   -3.9140  -25.6910 C   0  0  0  0  0
   10.1780   -4.3570  -24.6700 C   0  0  0  0  0
    9.7020   -5.3560  -23.8720 C   0  0  0  0  0
    8.0940   -4.4820  -25.9540 C   0  0  0  0  0
    7.6220   -5.5060  -25.1400 C   0  0  0  0  0
    8.4410   -5.9200  -24.1030 C   0  0  0  0  0
    7.9610   -7.1870  -22.9740 Cl  0  0  0  0  0
    8.0750   -2.1260  -29.7810 S   0  0  0  0  0
    8.6840   -1.9040  -28.1970 C   0  0  0  0  0
    8.5370   -1.0180  -27.3510 N   0  0  0  0  0
    9.3900   -1.3490  -26.1780 C   0  0  0  0  0
   10.5900   -0.3800  -26.1020 C   0  0  0  0  0
    8.6360   -1.3260  -24.8030 C   0  0  0  0  0
    9.4350   -1.2800  -23.6510 C   0  0  0  0  0
    8.8800   -1.2840  -22.3890 C   0  0  0  0  0
    7.2350   -1.3900  -24.6720 C   0  0  0  0  0
    6.6910   -1.3960  -23.4050 C   0  0  0  0  0
    7.5130   -1.3420  -22.2760 C   0  0  0  0  0
    6.8510   -1.3150  -20.6410 Cl  0  0  0  0  0
    9.0811   -5.6442  -33.8480 H   0  0  0  0  0
    6.0538   -2.1731  -32.0021 H   0  0  0  0  0
    5.3140   -1.8163  -33.5821 H   0  0  0  0  0
    5.3875   -3.4949  -32.9920 H   0  0  0  0  0
    7.5623   -0.7104  -34.3850 H   0  0  0  0  0
    8.3020   -1.0671  -32.8050 H   0  0  0  0  0
    9.0488   -1.6870  -34.2980 H   0  0  0  0  0
    7.3904   -7.1871  -33.8809 H   0  0  0  0  0
    6.1745   -5.9255  -33.8205 H   0  0  0  0  0
    7.4833   -7.3829  -31.4619 H   0  0  0  0  0
    5.8450   -7.0201  -31.6631 H   0  0  0  0  0
    6.1942   -4.5816  -31.2641 H   0  0  0  0  0
    7.2077   -5.2792  -30.1393 H   0  0  0  0  0
    8.7181   -4.3416  -29.9615 H   0  0  0  0  0
   11.1706   -3.0462  -29.4407 H   0  0  0  0  0
   10.6264   -4.9693  -27.6244 H   0  0  0  0  0
    9.4733   -6.3635  -28.9190 H   0  0  0  0  0
   10.5922   -6.1781  -30.2919 H   0  0  0  0  0
   11.1410   -6.9758  -28.7974 H   0  0  0  0  0
   12.7021   -4.4045  -29.8590 H   0  0  0  0  0
   12.8223   -3.8463  -28.1723 H   0  0  0  0  0
   12.9903   -5.5781  -28.5511 H   0  0  0  0  0
   10.9758   -2.8415  -26.3564 H   0  0  0  0  0
   11.1661   -3.9254  -24.5105 H   0  0  0  0  0
   10.3108   -5.7198  -23.0442 H   0  0  0  0  0
    7.4927   -4.1224  -26.7890 H   0  0  0  0  0
    6.6477   -5.9638  -25.3112 H   0  0  0  0  0
   11.2846   -0.7233  -25.3353 H   0  0  0  0  0
   11.0960   -0.3540  -27.0671 H   0  0  0  0  0
   10.2335    0.6188  -25.8502 H   0  0  0  0  0
   10.5192   -1.2402  -23.7560 H   0  0  0  0  0
    9.5117   -1.2421  -21.5017 H   0  0  0  0  0
    6.5948   -1.4338  -25.5531 H   0  0  0  0  0
    5.6089   -1.4433  -23.2827 H   0  0  0  0  0
  1  2  2  0  0  0
  2  3  1  0  0  0
  2 13  1  0  0  0
  3  4  1  0  0  0
  3 12  1  0  0  0
  4  5  1  0  0  0
  4 10  1  0  0  0
  5  6  2  0  0  0
  5  7  1  0  0  0
  7  8  1  0  0  0
  7  9  1  0  0  0
 10 11  1  0  0  0
 11 12  1  0  0  0
 13 14  1  0  0  0
 13 27  1  0  0  0
 14 15  1  0  0  0
 14 18  1  0  0  0
 15 16  1  0  0  0
 15 17  1  0  0  0
 18 19  1  0  0  0
 18 28  1  0  0  0
 19 20  1  0  0  0
 19 30  1  0  0  0
 20 21  4  0  0  0
 20 23  4  0  0  0
 21 22  4  0  0  0
 22 25  4  0  0  0
 23 24  4  0  0  0
 24 25  4  0  0  0
 25 26  1  0  0  0
 27 28  1  0  0  0
 28 29  2  0  0  0
 29 30  1  0  0  0
 30 31  1  0  0  0
 30 32  1  0  0  0
 32 33  4  0  0  0
 32 35  4  0  0  0
 33 34  4  0  0  0
 34 37  4  0  0  0
 35 36  4  0  0  0
 36 37  4  0  0  0
 37 38  1  0  0  0
  4 39  1  0  0  0
  8 40  1  0  0  0
  8 41  1  0  0  0
  8 42  1  0  0  0
  9 43  1  0  0  0
  9 44  1  0  0  0
  9 45  1  0  0  0
 10 46  1  0  0  0
 10 47  1  0  0  0
 11 48  1  0  0  0
 11 49  1  0  0  0
 12 50  1  0  0  0
 12 51  1  0  0  0
 13 52  1  0  0  0
 14 53  1  0  0  0
 15 54  1  0  0  0
 16 55  1  0  0  0
 16 56  1  0  0  0
 16 57  1  0  0  0
 17 58  1  0  0  0
 17 59  1  0  0  0
 17 60  1  0  0  0
 19 61  1  0  0  0
 21 62  1  0  0  0
 22 63  1  0  0  0
 23 64  1  0  0  0
 24 65  1  0  0  0
 31 66  1  0  0  0
 31 67  1  0  0  0
 31 68  1  0  0  0
 33 69  1  0  0  0
 34 70  1  0  0  0
 35 71  1  0  0  0
 36 72  1  0  0  0
M  END
$$$$
