6e3s_ligand
  -I-interpret- 

 38 40  0  0  0  0  0  0  0  0999 V2000
  173.3600 -123.1960  170.3640 N   0  0  0  0  0
  174.0230 -122.5570  169.6970 C   0  0  0  0  0
  174.8970 -121.7910  168.7400 C   0  0  0  0  0
  175.3640 -122.6070  167.5780 C   0  0  0  0  0
  176.2220 -121.9950  166.5410 C   0  0  0  0  0
  176.6560 -120.5590  166.6510 C   0  0  0  0  0
  176.1830 -119.7170  167.8240 C   0  0  0  0  0
  176.5750 -118.4270  167.9320 F   0  0  0  0  0
  175.2910 -120.3270  168.8890 C   0  0  0  0  0
  176.6420 -122.8760  165.5630 O   0  0  0  0  0
  175.9560 -122.7360  164.3980 C   0  0  0  0  0
  176.5530 -123.4670  163.2080 C   0  0  0  0  0
  177.7340 -124.3230  163.0980 C   0  0  0  0  0
  177.9050 -124.4130  161.5860 C   0  0  0  0  0
  178.7450 -123.4220  161.3280 F   0  0  0  0  0
  178.1530 -125.6780  161.2480 F   0  0  0  0  0
  175.8410 -123.3490  161.9310 C   0  0  0  0  0
  176.5600 -124.1330  160.9350 C   0  0  0  0  0
  175.9790 -125.3840  160.8060 O   0  0  0  0  0
  174.5750 -122.4970  161.8730 C   0  0  0  0  0
  173.7420 -122.3070  160.3610 S   0  0  0  0  0
  174.7710 -121.6090  159.1210 C   0  0  0  0  0
  173.2020 -123.5840  160.0070 O   0  0  0  0  0
  172.6920 -121.3600  160.5840 O   0  0  0  0  0
  173.9870 -121.7740  163.0650 C   0  0  0  0  0
  174.7050 -121.8880  164.3920 C   0  0  0  0  0
  175.0719 -123.6538  167.4951 H   0  0  0  0  0
  177.3070 -120.1243  165.8925 H   0  0  0  0  0
  174.9425 -119.7354  169.7355 H   0  0  0  0  0
  177.6166 -125.2925  163.5821 H   0  0  0  0  0
  178.6092 -123.9270  163.6131 H   0  0  0  0  0
  176.5864 -123.6158  159.9759 H   0  0  0  0  0
  175.1149 -125.2937  160.3977 H   0  0  0  0  0
  175.6114 -122.2763  158.9300 H   0  0  0  0  0
  174.1952 -121.4765  158.2050 H   0  0  0  0  0
  175.1429 -120.6424  159.4609 H   0  0  0  0  0
  173.0728 -121.1881  162.9705 H   0  0  0  0  0
  174.3417 -121.3884  165.2900 H   0  0  0  0  0
  1  2  3  0  0  0
  2  3  1  0  0  0
  3  4  4  0  0  0
  3  9  4  0  0  0
  4  5  4  0  0  0
  5  6  4  0  0  0
  5 10  1  0  0  0
  6  7  4  0  0  0
  7  8  1  0  0  0
  7  9  4  0  0  0
 10 11  1  0  0  0
 11 12  4  0  0  0
 11 26  4  0  0  0
 12 13  1  0  0  0
 12 17  4  0  0  0
 13 14  1  0  0  0
 14 15  1  0  0  0
 14 16  1  0  0  0
 14 18  1  0  0  0
 17 18  1  0  0  0
 17 20  4  0  0  0
 18 19  1  0  0  0
 20 21  1  0  0  0
 20 25  4  0  0  0
 21 22  1  0  0  0
 21 23  2  0  0  0
 21 24  2  0  0  0
 25 26  4  0  0  0
  4 27  1  0  0  0
  6 28  1  0  0  0
  9 29  1  0  0  0
 13 30  1  0  0  0
 13 31  1  0  0  0
 18 32  1  0  0  0
 19 33  1  0  0  0
 22 34  1  0  0  0
 22 35  1  0  0  0
 22 36  1  0  0  0
 25 37  1  0  0  0
 26 38  1  0  0  0
M  END
$$$$
