6oir_ligand
  -I-interpret- 

 41 43  0  0  0  0  0  0  0  0999 V2000
    8.3150   14.3220   15.3710 C   0  0  0  0  0
    8.7450   15.2090   14.3470 C   0  0  0  0  0
    8.6270   16.5960   14.5470 C   0  0  0  0  0
    8.0960   17.1300   15.7530 C   0  0  0  0  0
    7.7550   16.2210   16.7730 C   0  0  0  0  0
    7.8290   14.7710   16.6140 C   0  0  0  0  0
    7.3630   13.9110   17.6720 C   0  0  0  0  0
    6.5320   12.8150   17.3520 C   0  0  0  0  0
    7.6540   14.1860   19.0470 C   0  0  0  0  0
    7.1300   13.3380   20.0640 C   0  0  0  0  0
    6.3180   12.2570   19.6850 C   0  0  0  0  0
    5.7820   11.4190   20.6340 F   0  0  0  0  0
    6.0200   11.9590   18.3250 C   0  0  0  0  0
    5.1880   10.8410   17.9750 C   0  0  0  0  0
    5.4930   10.1000   17.0200 O   0  0  0  0  0
    4.0340   10.6460   18.7260 N   0  0  0  0  0
    3.1630    9.6980   18.3370 N   0  0  0  0  0
    3.3150    8.2070   19.3260 S   0  0  0  0  0
    4.7470    7.8360   19.6790 O   0  0  0  0  0
    2.6550    7.0550   18.6840 O   0  0  0  0  0
    2.6050    8.5190   20.9780 C   0  0  0  0  0
    3.2370    9.4760   21.7630 C   0  0  0  0  0
    2.6990    9.6700   23.0440 C   0  0  0  0  0
    1.5690    8.9490   23.4870 C   0  0  0  0  0
    0.9630    7.9700   22.6700 C   0  0  0  0  0
    1.5150    7.7810   21.3960 C   0  0  0  0  0
    8.3635   13.2489   15.1863 H   0  0  0  0  0
    9.1611   14.8190   13.4181 H   0  0  0  0  0
    8.9499   17.2771   13.7596 H   0  0  0  0  0
    7.9580   18.2034   15.8832 H   0  0  0  0  0
    7.4187   16.6199   17.7300 H   0  0  0  0  0
    6.2822   12.6322   16.3069 H   0  0  0  0  0
    8.2744   15.0414   19.3142 H   0  0  0  0  0
    7.3545   13.5241   21.1143 H   0  0  0  0  0
    3.8517   11.2108   19.5555 H   0  0  0  0  0
    2.4969    9.8121   17.5730 H   0  0  0  0  0
    4.0977   10.0411   21.4054 H   0  0  0  0  0
    3.1642   10.3942   23.7127 H   0  0  0  0  0
    1.1577    9.1515   24.4759 H   0  0  0  0  0
    0.1070    7.3892   23.0137 H   0  0  0  0  0
    1.0780    7.0411   20.7254 H   0  0  0  0  0
  1  2  4  0  0  0
  1  6  4  0  0  0
  2  3  4  0  0  0
  3  4  4  0  0  0
  4  5  4  0  0  0
  5  6  4  0  0  0
  6  7  1  0  0  0
  7  8  4  0  0  0
  7  9  4  0  0  0
  8 13  4  0  0  0
  9 10  4  0  0  0
 10 11  4  0  0  0
 11 12  1  0  0  0
 11 13  4  0  0  0
 13 14  1  0  0  0
 14 15  2  0  0  0
 14 16  1  0  0  0
 16 17  1  0  0  0
 17 18  1  0  0  0
 18 19  2  0  0  0
 18 20  2  0  0  0
 18 21  1  0  0  0
 21 22  4  0  0  0
 21 26  4  0  0  0
 22 23  4  0  0  0
 23 24  4  0  0  0
 24 25  4  0  0  0
 25 26  4  0  0  0
  1 27  1  0  0  0
  2 28  1  0  0  0
  3 29  1  0  0  0
  4 30  1  0  0  0
  5 31  1  0  0  0
  8 32  1  0  0  0
  9 33  1  0  0  0
 10 34  1  0  0  0
 16 35  1  0  0  0
 17 36  1  0  0  0
 22 37  1  0  0  0
 23 38  1  0  0  0
 24 39  1  0  0  0
 25 40  1  0  0  0
 26 41  1  0  0  0
M  END
$$$$
