4nh9_ligand
  -I-interpret- 

 55 58  0  0  0  0  0  0  0  0999 V2000
  -18.4650  -37.8630   -9.5180 C   0  0  0  0  0
  -18.7250  -36.6660   -8.6360 C   0  0  0  0  0
  -18.4300  -35.3890   -8.9660 C   0  0  0  0  0
  -18.7690  -34.5440   -7.9370 N   0  0  0  0  0
  -19.3250  -35.2580   -6.9310 C   0  0  0  0  0
  -19.3080  -36.6120   -7.2890 C   0  0  0  0  0
  -19.8560  -37.6540   -6.3750 C   0  0  0  0  0
  -19.9310  -38.8170   -6.7030 O   0  0  0  0  0
  -20.3570  -37.2340   -4.9770 C   0  0  0  0  0
  -20.7850  -35.7490   -4.8480 C   0  0  0  0  0
  -22.2200  -35.5170   -5.3230 C   0  0  0  0  0
  -20.7220  -35.3160   -3.3860 C   0  0  0  0  0
  -19.8670  -34.7760   -5.5870 C   0  0  0  0  0
  -18.6650  -33.1380   -7.9460 C   0  0  0  0  0
  -19.3240  -32.3980   -8.9460 C   0  0  0  0  0
  -19.2980  -30.9850   -8.9530 C   0  0  0  0  0
  -19.9150  -30.2070   -9.9520 N   0  0  0  0  0
  -20.6580  -30.6730  -11.1310 C   0  0  0  0  0
  -22.1800  -30.6200  -10.8580 C   0  0  0  0  0
  -22.7090  -30.3750  -12.2920 C   0  0  0  0  0
  -21.7830  -29.3970  -12.8200 O   0  0  0  0  0
  -20.4680  -29.6920  -12.3030 C   0  0  0  0  0
  -18.6010  -30.3220   -7.8890 C   0  0  0  0  0
  -18.5470  -28.8480   -7.7840 C   0  0  0  0  0
  -17.4350  -28.1910   -7.3900 N   0  0  0  0  0
  -19.5520  -28.2200   -8.0320 O   0  0  0  0  0
  -17.9840  -31.0860   -6.8690 C   0  0  0  0  0
  -17.3310  -30.4810   -5.8620 F   0  0  0  0  0
  -17.9940  -32.4620   -6.9110 C   0  0  0  0  0
  -19.0124  -37.7490  -10.4537 H   0  0  0  0  0
  -17.3975  -37.9341   -9.7264 H   0  0  0  0  0
  -18.7981  -38.7673   -9.0086 H   0  0  0  0  0
  -17.9874  -35.0750   -9.9113 H   0  0  0  0  0
  -19.5245  -37.3808   -4.2889 H   0  0  0  0  0
  -21.2425  -37.8343   -4.7684 H   0  0  0  0  0
  -22.3054  -35.8044   -6.3709 H   0  0  0  0  0
  -22.9019  -36.1195   -4.7229 H   0  0  0  0  0
  -22.4719  -34.4623   -5.2125 H   0  0  0  0  0
  -21.3947  -35.9375   -2.7950 H   0  0  0  0  0
  -19.7023  -35.4304   -3.0181 H   0  0  0  0  0
  -21.0241  -34.2719   -3.3043 H   0  0  0  0  0
  -20.4658  -33.8900   -5.7981 H   0  0  0  0  0
  -19.0002  -34.6240   -4.9438 H   0  0  0  0  0
  -19.8655  -32.9258   -9.7311 H   0  0  0  0  0
  -19.8364  -29.1958   -9.8437 H   0  0  0  0  0
  -20.2975  -31.6775  -11.3524 H   0  0  0  0  0
  -22.4792  -29.8616  -10.1345 H   0  0  0  0  0
  -22.5806  -31.5136  -10.3794 H   0  0  0  0  0
  -23.7423  -30.0283  -12.3067 H   0  0  0  0  0
  -22.7459  -31.2861  -12.8892 H   0  0  0  0  0
  -19.8378  -30.1309  -13.0765 H   0  0  0  0  0
  -19.9707  -28.7815  -11.9685 H   0  0  0  0  0
  -17.4467  -27.1747   -7.3036 H   0  0  0  0  0
  -16.5833  -28.7110   -7.1788 H   0  0  0  0  0
  -17.4787  -33.0312   -6.1373 H   0  0  0  0  0
  1  2  1  0  0  0
  2  3  4  0  0  0
  2  6  4  0  0  0
  3  4  4  0  0  0
  4  5  4  0  0  0
  4 14  1  0  0  0
  5  6  4  0  0  0
  5 13  1  0  0  0
  6  7  1  0  0  0
  7  8  2  0  0  0
  7  9  1  0  0  0
  9 10  1  0  0  0
 10 11  1  0  0  0
 10 12  1  0  0  0
 10 13  1  0  0  0
 14 15  4  0  0  0
 14 29  4  0  0  0
 15 16  4  0  0  0
 16 17  1  0  0  0
 16 23  4  0  0  0
 17 18  1  0  0  0
 18 19  1  0  0  0
 18 22  1  0  0  0
 19 20  1  0  0  0
 20 21  1  0  0  0
 21 22  1  0  0  0
 23 24  1  0  0  0
 23 27  4  0  0  0
 24 25  1  0  0  0
 24 26  2  0  0  0
 27 28  1  0  0  0
 27 29  4  0  0  0
  1 30  1  0  0  0
  1 31  1  0  0  0
  1 32  1  0  0  0
  3 33  1  0  0  0
  9 34  1  0  0  0
  9 35  1  0  0  0
 11 36  1  0  0  0
 11 37  1  0  0  0
 11 38  1  0  0  0
 12 39  1  0  0  0
 12 40  1  0  0  0
 12 41  1  0  0  0
 13 42  1  0  0  0
 13 43  1  0  0  0
 15 44  1  0  0  0
 17 45  1  0  0  0
 18 46  1  0  0  0
 19 47  1  0  0  0
 19 48  1  0  0  0
 20 49  1  0  0  0
 20 50  1  0  0  0
 22 51  1  0  0  0
 22 52  1  0  0  0
 25 53  1  0  0  0
 25 54  1  0  0  0
 29 55  1  0  0  0
M  END
$$$$
