1g6r_ligand
  -I-interpret- 

146148  0  0  0  0  0  0  0  0999 V2000
   98.7140   21.4660   23.7430 N   0  3  0  0  0
   97.6360   22.5110   23.8420 C   0  0  0  0  0
   98.2340   23.8800   23.6410 C   0  0  0  0  0
   99.3160   24.1630   24.1360 O   0  0  0  0  0
   96.9610   22.4650   25.2090 C   0  0  0  0  0
   96.2290   21.2670   25.3700 O   0  0  0  0  0
   97.5300   24.7240   22.9110 N   0  0  0  0  0
   98.0050   26.0610   22.6270 C   0  0  0  0  0
   97.4550   26.9420   23.7190 C   0  0  0  0  0
   96.6390   26.4700   24.4850 O   0  0  0  0  0
   97.5280   26.5120   21.2220 C   0  0  0  0  0
   97.7040   28.0200   21.0310 C   0  0  0  0  0
   96.0810   26.1140   21.0080 C   0  0  0  0  0
   97.3150   28.4680   19.6220 C   0  0  0  0  0
   97.9150   28.1870   23.8220 N   0  0  0  0  0
   97.4580   29.1270   24.8520 C   0  0  0  0  0
   95.9600   29.4110   24.7020 C   0  0  0  0  0
   95.2540   28.6090   24.1100 O   0  0  0  0  0
   98.2670   30.4180   24.6940 C   0  0  0  0  0
   97.9960   31.5370   25.6900 C   0  0  0  0  0
   98.0050   31.3060   27.0750 C   0  0  0  0  0
   97.8780   32.8610   25.2540 C   0  0  0  0  0
   97.9220   32.3690   27.9930 C   0  0  0  0  0
   97.8000   33.9310   26.1720 C   0  0  0  0  0
   97.8310   33.6730   27.5270 C   0  0  0  0  0
   97.8520   34.7140   28.4190 O   0  0  0  0  0
   95.4710   30.5280   25.2530 N   0  0  0  0  0
   94.0770   30.9070   25.0720 C   0  0  0  0  0
   93.9500   32.4200   24.9960 C   0  0  0  0  0
   93.2350   33.0370   25.7470 O   0  0  0  0  0
   93.1830   30.3730   26.1800 C   0  0  0  0  0
   91.7290   30.7460   25.9230 C   0  0  0  0  0
   90.8030   30.2390   26.9890 C   0  0  0  0  0
   91.0270   30.8940   28.2750 N   0  0  0  0  0
   90.6030   30.4070   29.4420 C   0  0  0  0  0
   89.9350   29.2570   29.5100 N   0  0  0  0  0
   90.8230   31.0820   30.5570 N   0  0  0  0  0
   94.6390   32.9990   24.0370 N   0  0  0  0  0
   94.6950   34.4310   23.7890 C   0  0  0  0  0
   93.5870   35.3220   24.3370 C   0  0  0  0  0
   92.4410   34.9110   24.4910 O   0  0  0  0  0
   94.8690   34.6310   22.2870 C   0  0  0  0  0
   95.9010   33.6660   21.7030 C   0  0  0  0  0
   95.6200   32.3010   21.5940 C   0  0  0  0  0
   97.1640   34.1150   21.3110 C   0  0  0  0  0
   96.5610   31.4100   21.1110 C   0  0  0  0  0
   98.1150   33.2410   20.8280 C   0  0  0  0  0
   97.8120   31.8810   20.7230 C   0  0  0  0  0
   98.7520   31.0120   20.1900 O   0  0  0  0  0
   93.9650   36.5580   24.6410 N   0  0  0  0  0
   93.0750   37.5750   25.1870 C   0  0  0  0  0
   93.0700   38.7040   24.1800 C   0  0  0  0  0
   94.0790   38.9300   23.5250 O   0  0  0  0  0
   93.6220   38.0520   26.5460 C   0  0  0  0  0
   92.9540   39.2880   27.1420 C   0  0  0  0  0
   91.6090   39.2620   27.5390 C   0  0  0  0  0
   93.6580   40.4930   27.2730 C   0  0  0  0  0
   90.9800   40.3970   28.0330 C   0  0  0  0  0
   93.0370   41.6350   27.7720 C   0  0  0  0  0
   91.6930   41.5750   28.1440 C   0  0  0  0  0
   91.0430   42.6880   28.6110 O   0  0  0  0  0
   91.9490   39.4040   24.0690 N   0  0  0  0  0
   91.8040   40.4990   23.1190 C   0  0  0  0  0
   92.8710   41.5790   22.9890 C   0  0  0  0  0
   93.6780   41.8100   23.8910 O   0  0  0  0  0
   92.8690   42.2490   21.8410 N   0  0  0  0  0
   93.8150   43.3290   21.5650 C   0  0  0  0  0
   93.3120   44.6280   22.1740 C   0  0  0  0  0
   94.1300   45.2490   22.8760 O   0  0  0  0  0
   94.0160   43.5070   20.0420 C   0  0  0  0  0
   94.7430   42.4000   19.2650 C   0  0  0  0  0
   94.4440   42.5050   17.7860 C   0  0  0  0  0
   96.2400   42.5070   19.4930 C   0  0  0  0  0
   92.1270   44.9960   21.9500 O   0  0  0  0  0
   99.1504   21.5155   22.8224 H   0  0  0  0  0
   99.4165   21.6346   24.4631 H   0  0  0  0  0
   98.3034   20.5419   23.8767 H   0  0  0  0  0
   96.8936   22.3078   23.0703 H   0  0  0  0  0
   96.2752   23.3083   25.2898 H   0  0  0  0  0
   97.7291   22.5129   25.9809 H   0  0  0  0  0
   95.8141   21.2607   26.2357 H   0  0  0  0  0
   96.6286   24.4266   22.5376 H   0  0  0  0  0
   99.0936   26.1138   22.6108 H   0  0  0  0  0
   98.1463   26.0097   20.4781 H   0  0  0  0  0
   98.7549   28.2631   21.1880 H   0  0  0  0  0
   97.0558   28.5316   21.7425 H   0  0  0  0  0
   95.9880   25.0308   21.0865 H   0  0  0  0  0
   95.4588   26.5892   21.7664 H   0  0  0  0  0
   95.7594   26.4368   20.0178 H   0  0  0  0  0
   97.9433   27.9563   18.8930 H   0  0  0  0  0
   96.2692   28.2209   19.4393 H   0  0  0  0  0
   97.4561   29.5451   19.5327 H   0  0  0  0  0
   98.6181   28.5023   23.1536 H   0  0  0  0  0
   97.6098   28.7012   25.8438 H   0  0  0  0  0
   97.9952   30.8193   23.7177 H   0  0  0  0  0
   99.3086   30.1342   24.8447 H   0  0  0  0  0
   98.0777   30.2837   27.4460 H   0  0  0  0  0
   97.8456   33.0707   24.1849 H   0  0  0  0  0
   97.9291   32.1694   29.0645 H   0  0  0  0  0
   97.7157   34.9563   25.8118 H   0  0  0  0  0
   97.7807   35.5441   27.9421 H   0  0  0  0  0
   96.0848   31.1236   25.8088 H   0  0  0  0  0
   93.7435   30.4596   24.1357 H   0  0  0  0  0
   93.4971   30.8094   27.1281 H   0  0  0  0  0
   93.2687   29.2868   26.2101 H   0  0  0  0  0
   91.4299   30.2936   24.9775 H   0  0  0  0  0
   91.6602   31.8337   25.9101 H   0  0  0  0  0
   90.9859   29.1720   27.1165 H   0  0  0  0  0
   89.7801   30.4488   26.6762 H   0  0  0  0  0
   91.5382   31.7766   28.2810 H   0  0  0  0  0
   89.6035   28.9122   30.4109 H   0  0  0  0  0
   89.7548   28.7209   28.6612 H   0  0  0  0  0
   91.3165   31.9741   30.5242 H   0  0  0  0  0
   95.1779   32.3946   23.4167 H   0  0  0  0  0
   95.5418   34.7803   24.3798 H   0  0  0  0  0
   95.2157   35.6499   22.1144 H   0  0  0  0  0
   93.9108   34.4431   21.8026 H   0  0  0  0  0
   94.6399   31.9316   21.8956 H   0  0  0  0  0
   97.4024   35.1758   21.3883 H   0  0  0  0  0
   96.3251   30.3486   21.0349 H   0  0  0  0  0
   99.0969   33.6087   20.5300 H   0  0  0  0  0
   99.5521   31.4984   19.9784 H   0  0  0  0  0
   94.9401   36.8119   24.4824 H   0  0  0  0  0
   92.0654   37.1993   25.3529 H   0  0  0  0  0
   94.6652   38.3197   26.3782 H   0  0  0  0  0
   93.4429   37.2390   27.2496 H   0  0  0  0  0
   91.0462   38.3320   27.4581 H   0  0  0  0  0
   94.7070   40.5367   26.9799 H   0  0  0  0  0
   89.9322   40.3588   28.3308 H   0  0  0  0  0
   93.5947   42.5663   27.8711 H   0  0  0  0  0
   91.6546   43.4275   28.6358 H   0  0  0  0  0
   91.1599   39.1672   24.6704 H   0  0  0  0  0
   90.9259   41.0390   23.4732 H   0  0  0  0  0
   91.8103   40.0056   22.1471 H   0  0  0  0  0
   92.1835   42.0010   21.1276 H   0  0  0  0  0
   94.7741   43.0679   22.0123 H   0  0  0  0  0
   94.6475   44.3895   19.9390 H   0  0  0  0  0
   93.0101   43.5358   19.6231 H   0  0  0  0  0
   94.3896   41.4341   19.6258 H   0  0  0  0  0
   93.3706   42.4040   17.6256 H   0  0  0  0  0
   94.7781   43.4747   17.4170 H   0  0  0  0  0
   94.9685   41.7117   17.2534 H   0  0  0  0  0
   96.5903   43.4795   19.1472 H   0  0  0  0  0
   96.4528   42.3999   20.5566 H   0  0  0  0  0
   96.7480   41.7181   18.9383 H   0  0  0  0  0
   91.6954   44.3532   21.3825 H   0  0  0  0  0
  1  2  1  0  0  0
  2  3  1  0  0  0
  2  5  1  0  0  0
  3  4  2  0  0  0
  3  7  1  0  0  0
  5  6  1  0  0  0
  7  8  1  0  0  0
  8  9  1  0  0  0
  8 11  1  0  0  0
  9 10  2  0  0  0
  9 15  1  0  0  0
 11 12  1  0  0  0
 11 13  1  0  0  0
 12 14  1  0  0  0
 15 16  1  0  0  0
 16 17  1  0  0  0
 16 19  1  0  0  0
 17 18  2  0  0  0
 17 27  1  0  0  0
 19 20  1  0  0  0
 20 21  4  0  0  0
 20 22  4  0  0  0
 21 23  4  0  0  0
 22 24  4  0  0  0
 23 25  4  0  0  0
 24 25  4  0  0  0
 25 26  1  0  0  0
 27 28  1  0  0  0
 28 29  1  0  0  0
 28 31  1  0  0  0
 29 30  2  0  0  0
 29 38  1  0  0  0
 31 32  1  0  0  0
 32 33  1  0  0  0
 33 34  1  0  0  0
 34 35  1  0  0  0
 35 36  1  0  0  0
 35 37  2  0  0  0
 38 39  1  0  0  0
 39 40  1  0  0  0
 39 42  1  0  0  0
 40 41  2  0  0  0
 40 50  1  0  0  0
 42 43  1  0  0  0
 43 44  4  0  0  0
 43 45  4  0  0  0
 44 46  4  0  0  0
 45 47  4  0  0  0
 46 48  4  0  0  0
 47 48  4  0  0  0
 48 49  1  0  0  0
 50 51  1  0  0  0
 51 52  1  0  0  0
 51 54  1  0  0  0
 52 53  2  0  0  0
 52 62  1  0  0  0
 54 55  1  0  0  0
 55 56  4  0  0  0
 55 57  4  0  0  0
 56 58  4  0  0  0
 57 59  4  0  0  0
 58 60  4  0  0  0
 59 60  4  0  0  0
 60 61  1  0  0  0
 62 63  1  0  0  0
 63 64  1  0  0  0
 64 65  2  0  0  0
 64 66  1  0  0  0
 66 67  1  0  0  0
 67 68  1  0  0  0
 67 70  1  0  0  0
 68 69  2  0  0  0
 68 74  1  0  0  0
 70 71  1  0  0  0
 71 72  1  0  0  0
 71 73  1  0  0  0
  1 75  1  0  0  0
  1 76  1  0  0  0
  1 77  1  0  0  0
  2 78  1  0  0  0
  5 79  1  0  0  0
  5 80  1  0  0  0
  6 81  1  0  0  0
  7 82  1  0  0  0
  8 83  1  0  0  0
 11 84  1  0  0  0
 12 85  1  0  0  0
 12 86  1  0  0  0
 13 87  1  0  0  0
 13 88  1  0  0  0
 13 89  1  0  0  0
 14 90  1  0  0  0
 14 91  1  0  0  0
 14 92  1  0  0  0
 15 93  1  0  0  0
 16 94  1  0  0  0
 19 95  1  0  0  0
 19 96  1  0  0  0
 21 97  1  0  0  0
 22 98  1  0  0  0
 23 99  1  0  0  0
 24100  1  0  0  0
 26101  1  0  0  0
 27102  1  0  0  0
 28103  1  0  0  0
 31104  1  0  0  0
 31105  1  0  0  0
 32106  1  0  0  0
 32107  1  0  0  0
 33108  1  0  0  0
 33109  1  0  0  0
 34110  1  0  0  0
 36111  1  0  0  0
 36112  1  0  0  0
 37113  1  0  0  0
 38114  1  0  0  0
 39115  1  0  0  0
 42116  1  0  0  0
 42117  1  0  0  0
 44118  1  0  0  0
 45119  1  0  0  0
 46120  1  0  0  0
 47121  1  0  0  0
 49122  1  0  0  0
 50123  1  0  0  0
 51124  1  0  0  0
 54125  1  0  0  0
 54126  1  0  0  0
 56127  1  0  0  0
 57128  1  0  0  0
 58129  1  0  0  0
 59130  1  0  0  0
 61131  1  0  0  0
 62132  1  0  0  0
 63133  1  0  0  0
 63134  1  0  0  0
 66135  1  0  0  0
 67136  1  0  0  0
 70137  1  0  0  0
 70138  1  0  0  0
 71139  1  0  0  0
 72140  1  0  0  0
 72141  1  0  0  0
 72142  1  0  0  0
 73143  1  0  0  0
 73144  1  0  0  0
 73145  1  0  0  0
 74146  1  0  0  0
M  END
$$$$
