### 
### Created by X-TOOL on Mon Sep 10 21:12:48 2018
### 

@<TRIPOS>MOLECULE
1g6r_ligand
  146   148     1     0     0
SMALL
GAST_HUCK


@<TRIPOS>ATOM
      1 N          98.7140   21.4660   23.7430 N.4       1 SER         0.2396
      2 CA         97.6360   22.5110   23.8420 C.3       1 SER         0.0885
      3 C          98.2340   23.8800   23.6410 C.2       1 SER         0.2290
      4 O          99.3160   24.1630   24.1360 O.2       1 SER        -0.3906
      5 CB         96.9610   22.4650   25.2090 C.3       1 SER         0.1041
      6 OG         96.2290   21.2670   25.3700 O.3       1 SER        -0.3870
      7 N          97.5300   24.7240   22.9110 N.am      1 ILE        -0.2607
      8 CA         98.0050   26.0610   22.6270 C.3       1 ILE         0.1336
      9 C          97.4550   26.9420   23.7190 C.2       1 ILE         0.2043
     10 O          96.6390   26.4700   24.4850 O.2       1 ILE        -0.3944
     11 CB         97.5280   26.5120   21.2220 C.3       1 ILE        -0.0037
     12 CG1        97.7040   28.0200   21.0310 C.3       1 ILE        -0.0491
     13 CG2        96.0810   26.1140   21.0080 C.3       1 ILE        -0.0582
     14 CD1        97.3150   28.4680   19.6220 C.3       1 ILE        -0.0648
     15 N          97.9150   28.1870   23.8220 N.am      1 TYR        -0.2621
     16 CA         97.4580   29.1270   24.8520 C.3       1 TYR         0.1390
     17 C          95.9600   29.4110   24.7020 C.2       1 TYR         0.2057
     18 O          95.2540   28.6090   24.1100 O.2       1 TYR        -0.3942
     19 CB         98.2670   30.4180   24.6940 C.3       1 TYR         0.0163
     20 CG         97.9960   31.5370   25.6900 C.ar      1 TYR        -0.0493
     21 CD1        98.0050   31.3060   27.0750 C.ar      1 TYR        -0.0685
     22 CD2        97.8780   32.8610   25.2540 C.ar      1 TYR        -0.0685
     23 CE1        97.9220   32.3690   27.9930 C.ar      1 TYR        -0.0398
     24 CE2        97.8000   33.9310   26.1720 C.ar      1 TYR        -0.0398
     25 CZ         97.8310   33.6730   27.5270 C.ar      1 TYR         0.0805
     26 OH         97.8520   34.7140   28.4190 O.3       1 TYR        -0.3376
     27 N          95.4710   30.5280   25.2530 N.am      1 ARG        -0.2636
     28 CA         94.0770   30.9070   25.0720 C.3       1 ARG         0.1311
     29 C          93.9500   32.4200   24.9960 C.2       1 ARG         0.2040
     30 O          93.2350   33.0370   25.7470 O.2       1 ARG        -0.3944
     31 CB         93.1830   30.3730   26.1800 C.3       1 ARG        -0.0092
     32 CG         91.7290   30.7460   25.9230 C.3       1 ARG        -0.0156
     33 CD         90.8030   30.2390   26.9890 C.3       1 ARG         0.0627
     34 NE         91.0270   30.8940   28.2750 N.pl3     1 ARG        -0.2723
     35 CZ         90.6030   30.4070   29.4420 C.cat     1 ARG         0.2882
     36 NH1        89.9350   29.2570   29.5100 N.pl3     1 ARG        -0.2849
     37 NH2        90.8230   31.0820   30.5570 N.pl3     1 ARG        -0.2849
     38 N          94.6390   32.9990   24.0370 N.am      1 TYR        -0.2621
     39 CA         94.6950   34.4310   23.7890 C.3       1 TYR         0.1390
     40 C          93.5870   35.3220   24.3370 C.2       1 TYR         0.2058
     41 O          92.4410   34.9110   24.4910 O.2       1 TYR        -0.3942
     42 CB         94.8690   34.6310   22.2870 C.3       1 TYR         0.0163
     43 CG         95.9010   33.6660   21.7030 C.ar      1 TYR        -0.0493
     44 CD1        95.6200   32.3010   21.5940 C.ar      1 TYR        -0.0685
     45 CD2        97.1640   34.1150   21.3110 C.ar      1 TYR        -0.0685
     46 CE1        96.5610   31.4100   21.1110 C.ar      1 TYR        -0.0398
     47 CE2        98.1150   33.2410   20.8280 C.ar      1 TYR        -0.0398
     48 CZ         97.8120   31.8810   20.7230 C.ar      1 TYR         0.0805
     49 OH         98.7520   31.0120   20.1900 O.3       1 TYR        -0.3376
     50 N          93.9650   36.5580   24.6410 N.am      1 TYR        -0.2620
     51 CA         93.0750   37.5750   25.1870 C.3       1 TYR         0.1390
     52 C          93.0700   38.7040   24.1800 C.2       1 TYR         0.2055
     53 O          94.0790   38.9300   23.5250 O.2       1 TYR        -0.3942
     54 CB         93.6220   38.0520   26.5460 C.3       1 TYR         0.0163
     55 CG         92.9540   39.2880   27.1420 C.ar      1 TYR        -0.0493
     56 CD1        91.6090   39.2620   27.5390 C.ar      1 TYR        -0.0685
     57 CD2        93.6580   40.4930   27.2730 C.ar      1 TYR        -0.0685
     58 CE1        90.9800   40.3970   28.0330 C.ar      1 TYR        -0.0398
     59 CE2        93.0370   41.6350   27.7720 C.ar      1 TYR        -0.0398
     60 CZ         91.6930   41.5750   28.1440 C.ar      1 TYR         0.0805
     61 OH         91.0430   42.6880   28.6110 O.3       1 TYR        -0.3376
     62 N          91.9490   39.4040   24.0690 N.am      1 GLY        -0.2663
     63 CA         91.8040   40.4990   23.1190 C.3       1 GLY         0.1201
     64 C          92.8710   41.5790   22.9890 C.2       1 GLY         0.2002
     65 O          93.6780   41.8100   23.8910 O.2       1 GLY        -0.3947
     66 N          92.8690   42.2490   21.8410 N.am      1 LEU        -0.2697
     67 CA         93.8150   43.3290   21.5650 C.3       1 LEU         0.0946
     68 C          93.3120   44.6280   22.1740 C.2       1 LEU         0.0601
     69 O          94.1300   45.2490   22.8760 O.co2     1 LEU        -0.5666
     70 CB         94.0160   43.5070   20.0420 C.3       1 LEU        -0.0156
     71 CG         94.7430   42.4000   19.2650 C.3       1 LEU        -0.0431
     72 CD1        94.4440   42.5050   17.7860 C.3       1 LEU        -0.0625
     73 CD2        96.2400   42.5070   19.4930 C.3       1 LEU        -0.0625
     74 OXT        92.1270   44.9960   21.9500 O.co2     1 LEU        -0.5666
     75 H1         98.3098   20.5525   23.8780 H         1 SER         0.2016
     76 H2         99.4104   21.6334   24.4523 H         1 SER         0.2016
     77 H3         99.1439   21.5119   22.8325 H         1 SER         0.2016
     78 H4         96.8837   22.3236   23.0617 H         1 SER         0.1122
     79 H5         96.2760   23.3207   25.3014 H         1 SER         0.0640
     80 H6         97.7304   22.5249   25.9928 H         1 SER         0.0640
     81 H7         95.5608   21.2126   24.6969 H         1 SER         0.2099
     82 H8         96.6463   24.4325   22.5449 H         1 ILE         0.1885
     83 H9         99.1045   26.0830   22.6528 H         1 ILE         0.0803
     84 H10        98.1434   25.9978   20.4691 H         1 ILE         0.0345
     85 H11        98.7581   28.2798   21.2079 H         1 ILE         0.0267
     86 H12        97.0694   28.5467   21.7589 H         1 ILE         0.0267
     87 H13        95.9746   25.0283   21.1493 H         1 ILE         0.0235
     88 H14        95.7741   26.3825   19.9864 H         1 ILE         0.0235
     89 H15        95.4443   26.6422   21.7330 H         1 ILE         0.0235
     90 H16        97.4570   29.5550   19.5306 H         1 ILE         0.0230
     91 H17        96.2597   28.2192   19.4363 H         1 ILE         0.0230
     92 H18        97.9484   27.9523   18.8853 H         1 ILE         0.0230
     93 H19        98.6043   28.4961   23.1668 H         1 TYR         0.1885
     94 H20        97.6415   28.6976   25.8479 H         1 TYR         0.0821
     95 H21        98.0640   30.8144   23.6882 H         1 TYR         0.0453
     96 H22        99.3315   30.1532   24.7759 H         1 TYR         0.0453
     97 H23        98.0773   30.2893   27.4440 H         1 TYR         0.0530
     98 H24        97.8458   33.0695   24.1907 H         1 TYR         0.0530
     99 H25        97.9291   32.1705   29.0586 H         1 TYR         0.0525
    100 H26        97.7161   34.9506   25.8137 H         1 TYR         0.0525
    101 H27        98.6250   35.2448   28.2664 H         1 TYR         0.2458
    102 H28        96.0728   31.1119   25.7979 H         1 ARG         0.1883
    103 H29        93.7307   30.4798   24.1193 H         1 ARG         0.0800
    104 H30        93.5020   30.8033   27.1408 H         1 ARG         0.0313
    105 H31        93.2732   29.2775   26.2208 H         1 ARG         0.0313
    106 H32        91.4215   30.3181   24.9574 H         1 ARG         0.0301
    107 H33        91.6494   31.8423   25.8803 H         1 ARG         0.0301
    108 H34        90.9619   29.1574   27.1105 H         1 ARG         0.0689
    109 H35        89.7655   30.4241   26.6737 H         1 ARG         0.0689
    110 H36        91.5433   31.7853   28.2811 H         1 ARG         0.2642
    111 H37        89.6168   28.8994   30.4220 H         1 ARG         0.2615
    112 H38        89.7365   28.7251   28.6506 H         1 ARG         0.2615
    113 H39        91.3377   31.9737   30.5262 H         1 ARG         0.2615
    114 H40        90.4798   30.7163   31.4566 H         1 ARG         0.2615
    115 H41        95.1673   32.4065   23.4289 H         1 TYR         0.1885
    116 H42        95.6154   34.7840   24.2771 H         1 TYR         0.0821
    117 H43        95.2010   35.6631   22.1010 H         1 TYR         0.0453
    118 H44        93.9021   34.4618   21.7906 H         1 TYR         0.0453
    119 H45        94.6453   31.9336   21.8940 H         1 TYR         0.0530
    120 H46        97.4011   35.1700   21.3878 H         1 TYR         0.0530
    121 H47        96.3264   30.3544   21.0353 H         1 TYR         0.0525
    122 H48        99.0915   33.6067   20.5316 H         1 TYR         0.0525
    123 H49        99.5405   31.0368   20.7193 H         1 TYR         0.2458
    124 H50        94.9210   36.8069   24.4855 H         1 TYR         0.1885
    125 H51        92.0591   37.1736   25.3168 H         1 TYR         0.0821
    126 H52        94.6912   38.2767   26.4179 H         1 TYR         0.0453
    127 H53        93.5041   37.2271   27.2641 H         1 TYR         0.0453
    128 H54        91.0493   38.3372   27.4585 H         1 TYR         0.0530
    129 H55        94.7012   40.5365   26.9816 H         1 TYR         0.0530
    130 H56        89.9379   40.3590   28.3292 H         1 TYR         0.0525
    131 H57        93.5916   42.5611   27.8706 H         1 TYR         0.0525
    132 H58        91.0602   43.3659   27.9457 H         1 TYR         0.2458
    133 H59        91.1754   39.1718   24.6586 H         1 GLY         0.1881
    134 H60        90.8682   41.0153   23.3791 H         1 GLY         0.0763
    135 H61        91.7045   40.0382   22.1252 H         1 GLY         0.0763
    136 H62        92.1969   42.0058   21.1416 H         1 LEU         0.1875
    137 H63        94.7831   43.0741   22.0208 H         1 LEU         0.0726
    138 H64        94.5878   44.4353   19.8961 H         1 LEU         0.0308
    139 H65        93.0177   43.6168   19.5933 H         1 LEU         0.0308
    140 H66        94.3943   41.4226   19.6298 H         1 LEU         0.0297
    141 H67        94.9728   41.7049   17.2473 H         1 LEU         0.0232
    142 H68        94.7808   43.4832   17.4123 H         1 LEU         0.0232
    143 H69        93.3610   42.4031   17.6227 H         1 LEU         0.0232
    144 H70        96.4533   42.4302   20.5694 H         1 LEU         0.0232
    145 H71        96.6000   43.4757   19.1161 H         1 LEU         0.0232
    146 H72        96.7514   41.6927   18.9589 H         1 LEU         0.0232
@<TRIPOS>BOND
     1    1    2 1  
     2    2    3 1  
     3    2    5 1  
     4    3    4 2  
     5    3    7 am 
     6    5    6 1  
     7    7    8 1  
     8    8    9 1  
     9    8   11 1  
    10    9   10 2  
    11    9   15 am 
    12   11   12 1  
    13   11   13 1  
    14   12   14 1  
    15   15   16 1  
    16   16   17 1  
    17   16   19 1  
    18   17   18 2  
    19   17   27 am 
    20   19   20 1  
    21   20   21 ar 
    22   20   22 ar 
    23   21   23 ar 
    24   22   24 ar 
    25   23   25 ar 
    26   24   25 ar 
    27   25   26 1  
    28   27   28 1  
    29   28   29 1  
    30   28   31 1  
    31   29   30 2  
    32   29   38 am 
    33   31   32 1  
    34   32   33 1  
    35   33   34 1  
    36   34   35 ar 
    37   35   36 ar 
    38   35   37 ar 
    39   38   39 1  
    40   39   40 1  
    41   39   42 1  
    42   40   41 2  
    43   40   50 am 
    44   42   43 1  
    45   43   44 ar 
    46   43   45 ar 
    47   44   46 ar 
    48   45   47 ar 
    49   46   48 ar 
    50   47   48 ar 
    51   48   49 1  
    52   50   51 1  
    53   51   52 1  
    54   51   54 1  
    55   52   53 2  
    56   52   62 am 
    57   54   55 1  
    58   55   56 ar 
    59   55   57 ar 
    60   56   58 ar 
    61   57   59 ar 
    62   58   60 ar 
    63   59   60 ar 
    64   60   61 1  
    65   62   63 1  
    66   63   64 1  
    67   64   65 2  
    68   64   66 am 
    69   66   67 1  
    70   67   68 1  
    71   67   70 1  
    72   68   69 ar 
    73   68   74 ar 
    74   70   71 1  
    75   71   72 1  
    76   71   73 1  
    77    1   75 1  
    78    1   76 1  
    79    1   77 1  
    80    2   78 1  
    81    5   79 1  
    82    5   80 1  
    83    6   81 1  
    84    7   82 1  
    85    8   83 1  
    86   11   84 1  
    87   12   85 1  
    88   12   86 1  
    89   13   87 1  
    90   13   88 1  
    91   13   89 1  
    92   14   90 1  
    93   14   91 1  
    94   14   92 1  
    95   15   93 1  
    96   16   94 1  
    97   19   95 1  
    98   19   96 1  
    99   21   97 1  
   100   22   98 1  
   101   23   99 1  
   102   24  100 1  
   103   26  101 1  
   104   27  102 1  
   105   28  103 1  
   106   31  104 1  
   107   31  105 1  
   108   32  106 1  
   109   32  107 1  
   110   33  108 1  
   111   33  109 1  
   112   34  110 1  
   113   36  111 1  
   114   36  112 1  
   115   37  113 1  
   116   37  114 1  
   117   38  115 1  
   118   39  116 1  
   119   42  117 1  
   120   42  118 1  
   121   44  119 1  
   122   45  120 1  
   123   46  121 1  
   124   47  122 1  
   125   49  123 1  
   126   50  124 1  
   127   51  125 1  
   128   54  126 1  
   129   54  127 1  
   130   56  128 1  
   131   57  129 1  
   132   58  130 1  
   133   59  131 1  
   134   61  132 1  
   135   62  133 1  
   136   63  134 1  
   137   63  135 1  
   138   66  136 1  
   139   67  137 1  
   140   70  138 1  
   141   70  139 1  
   142   71  140 1  
   143   72  141 1  
   144   72  142 1  
   145   72  143 1  
   146   73  144 1  
   147   73  145 1  
   148   73  146 1  
@<TRIPOS>SUBSTRUCTURE
     1 SER         1

