6d56_ligand
  -I-interpret- 

 62 67  0  0  0  0  0  0  0  0999 V2000
   36.4360   29.4800   23.6450 N   0  0  0  0  0
   39.2540   31.5840   26.0950 N   0  0  0  0  0
   33.0230   28.9860   22.1860 C   0  0  0  0  0
   35.6350   29.0700   22.6350 C   0  0  0  0  0
   35.5560   29.8490   24.6770 C   0  0  0  0  0
   35.8590   30.3650   25.9340 C   0  0  0  0  0
   34.8170   30.6170   26.8110 C   0  0  0  0  0
   33.1410   29.8920   25.1490 C   0  0  0  0  0
   38.1290   30.0140   27.1210 C   0  0  0  0  0
   37.9660   31.6780   25.5790 C   0  0  0  0  0
   35.5060   27.3200   20.7510 C   0  0  0  0  0
   37.4090   25.6530   19.8840 C   0  0  0  0  0
   37.4600   27.9370   21.3450 C   0  0  0  0  0
   33.5070   31.3900   21.5810 C   0  0  0  0  0
   34.0390   33.7950   21.0480 C   0  0  0  0  0
   34.2430   29.1720   22.9800 N   0  0  0  0  0
   30.8010   31.1760   18.2840 C   0  0  0  0  0
   31.7680   31.2110   19.3990 C   0  0  0  0  0
   34.2110   29.6430   24.2950 C   0  0  0  0  0
   37.2260   30.6680   26.2230 C   0  0  0  0  0
   37.8480   28.8800   28.0310 C   0  0  0  0  0
   37.5530   32.6890   24.5660 C   0  0  0  0  0
   36.9090   27.0810   20.1870 C   0  0  0  0  0
   37.2440   27.4880   18.7380 C   0  0  0  0  0
   31.9620   30.1020   20.2080 C   0  0  0  0  0
   33.3330   32.5100   20.7700 C   0  0  0  0  0
   32.4720   32.4000   19.6860 C   0  0  0  0  0
   32.8310   30.1920   21.3030 C   0  0  0  0  0
   33.5020   30.3530   26.3890 C   0  0  0  0  0
   32.3200   33.4350   18.8920 F   0  0  0  0  0
   39.3680   30.5890   27.0280 N   0  0  0  0  0
   36.0870   28.5890   21.3660 N   0  0  0  0  0
   37.7510   26.0900   18.4730 N   0  3  0  0  0
   32.2390   30.5300   27.5540 Cl  0  0  0  0  0
   32.1647   28.8721   22.8481 H   0  0  0  0  0
   33.1140   28.0895   21.5728 H   0  0  0  0  0
   35.0124   31.0119   27.8080 H   0  0  0  0  0
   32.1029   29.7339   24.8568 H   0  0  0  0  0
   34.9804   26.5718   21.3443 H   0  0  0  0  0
   34.6175   27.3314   20.1197 H   0  0  0  0  0
   36.7591   24.7943   20.0526 H   0  0  0  0  0
   38.1663   25.1888   20.5158 H   0  0  0  0  0
   38.3809   28.5139   21.2599 H   0  0  0  0  0
   37.9132   27.4977   22.2337 H   0  0  0  0  0
   34.1753   31.4451   22.4404 H   0  0  0  0  0
   33.7549   34.1578   22.0358 H   0  0  0  0  0
   35.1161   33.6307   21.0158 H   0  0  0  0  0
   33.7599   34.5318   20.2948 H   0  0  0  0  0
   31.0874   30.3940   17.5808 H   0  0  0  0  0
   29.8050   30.9679   18.6749 H   0  0  0  0  0
   30.7991   32.1404   17.7760 H   0  0  0  0  0
   37.0661   29.1656   28.7347 H   0  0  0  0  0
   37.5172   28.0209   27.4474 H   0  0  0  0  0
   38.7546   28.6218   28.5783 H   0  0  0  0  0
   37.7095   33.6898   24.9686 H   0  0  0  0  0
   38.1502   32.5617   23.6631 H   0  0  0  0  0
   36.4981   32.5527   24.3277 H   0  0  0  0  0
   37.8832   28.3493   18.5440 H   0  0  0  0  0
   36.4757   27.9232   18.0989 H   0  0  0  0  0
   31.4427   29.1679   19.9938 H   0  0  0  0  0
   37.3702   25.5654   17.6854 H   0  0  0  0  0
   38.7042   25.9645   18.1324 H   0  0  0  0  0
  4  1  4  0  0  0
  5  1  4  0  0  0
 10  2  4  0  0  0
  2 31  4  0  0  0
  3 16  1  0  0  0
 28  3  1  0  0  0
 16  4  4  0  0  0
  4 32  1  0  0  0
  5  6  4  0  0  0
 19  5  4  0  0  0
  6  7  4  0  0  0
  6 20  1  0  0  0
 29  7  4  0  0  0
 19  8  4  0  0  0
  8 29  4  0  0  0
 20  9  4  0  0  0
  9 21  1  0  0  0
  9 31  4  0  0  0
 20 10  4  0  0  0
 10 22  1  0  0  0
 11 23  1  0  0  0
 32 11  1  0  0  0
 23 12  1  0  0  0
 12 33  1  0  0  0
 13 23  1  0  0  0
 32 13  1  0  0  0
 14 26  4  0  0  0
 28 14  4  0  0  0
 26 15  1  0  0  0
 16 19  4  0  0  0
 18 17  1  0  0  0
 25 18  4  0  0  0
 18 27  4  0  0  0
 23 24  1  0  0  0
 24 33  1  0  0  0
 25 28  4  0  0  0
 26 27  4  0  0  0
 27 30  1  0  0  0
 29 34  1  0  0  0
  3 35  1  0  0  0
  3 36  1  0  0  0
  7 37  1  0  0  0
  8 38  1  0  0  0
 11 39  1  0  0  0
 11 40  1  0  0  0
 12 41  1  0  0  0
 12 42  1  0  0  0
 13 43  1  0  0  0
 13 44  1  0  0  0
 14 45  1  0  0  0
 15 46  1  0  0  0
 15 47  1  0  0  0
 15 48  1  0  0  0
 17 49  1  0  0  0
 17 50  1  0  0  0
 17 51  1  0  0  0
 21 52  1  0  0  0
 21 53  1  0  0  0
 21 54  1  0  0  0
 22 55  1  0  0  0
 22 56  1  0  0  0
 22 57  1  0  0  0
 24 58  1  0  0  0
 24 59  1  0  0  0
 25 60  1  0  0  0
 33 61  1  0  0  0
 33 62  1  0  0  0
M  END
$$$$
