3uz5_ligand
  -I-interpret- 

 13 14  0  0  0  0  0  0  0  0999 V2000
   21.1480    0.2970    7.1730 C   0  0  0  0  0
   20.2750   -0.6720    6.8550 N   0  0  0  0  0
   19.8650   -0.4370    5.6970 N   0  0  0  0  0
   20.3720    0.6020    5.1920 N   0  0  0  0  0
   21.2000    1.1480    6.0710 C   0  0  0  0  0
   21.9950    2.2760    6.0660 C   0  0  0  0  0
   22.7460    2.5020    7.2050 C   0  0  0  0  0
   23.7340    3.8940    7.2520 Cl  0  0  0  0  0
   22.7260    1.6610    8.3150 C   0  0  0  0  0
   21.8920    0.5550    8.3170 C   0  0  0  0  0
   21.8180   -0.5640    9.6560 Cl  0  0  0  0  0
   22.0291    2.9516    5.2113 H   0  0  0  0  0
   23.3615    1.8714    9.1752 H   0  0  0  0  0
  1  2  4  0  0  0
  1  5  4  0  0  0
  1 10  4  0  0  0
  2  3  4  0  0  0
  3  4  4  0  0  0
  4  5  4  0  0  0
  5  6  4  0  0  0
  6  7  4  0  0  0
  7  8  1  0  0  0
  7  9  4  0  0  0
  9 10  4  0  0  0
 10 11  1  0  0  0
  6 12  1  0  0  0
  9 13  1  0  0  0
M  END
$$$$
