5ivn_ligand
  -I-interpret- 

201204  0  0  0  0  0  0  0  0999 V2000
  -14.1140   10.1400   11.4050 C   0  0  0  0  0
  -13.7910   11.0640   12.2080 O   0  0  0  0  0
  -13.2080    9.7540   10.2500 C   0  0  0  0  0
  -12.3440   10.8560    9.8470 N   0  0  0  0  0
  -12.7250   11.8050    9.0440 C   0  0  0  0  0
  -13.8600   11.7420    8.6050 O   0  0  0  0  0
  -11.7790   12.9000    8.6920 C   0  0  0  0  0
  -10.9940   10.6950   10.3900 C   0  0  0  0  0
  -11.1150    9.3990   11.2100 C   0  0  0  0  0
  -12.2710    8.6610   10.6660 C   0  0  0  0  0
  -15.2040    9.4450   11.5850 N   0  0  0  0  0
  -15.9850    9.4820   12.7990 C   0  0  0  0  0
  -15.3140    8.5570   13.7930 C   0  0  0  0  0
  -15.3220    7.3040   13.6130 O   0  0  0  0  0
  -17.4290    9.0740   12.5270 C   0  0  0  0  0
  -18.3590    9.2550   13.7520 C   0  0  0  0  0
  -17.9450    9.9470   14.7130 O   0  0  0  0  0
  -19.4910    8.7670   13.6940 O   0  0  0  0  0
  -14.6940    9.0930   14.8220 N   0  0  0  0  0
  -13.9550    8.2710   15.7800 C   0  0  0  0  0
  -14.9270    7.9330   16.9450 C   0  0  0  0  0
  -15.2360    8.7880   17.7880 O   0  0  0  0  0
  -12.7100    9.0520   16.3040 C   0  0  0  0  0
  -11.8040    9.5300   15.2070 C   0  0  0  0  0
  -10.4970   10.0650   15.7430 C   0  0  0  0  0
   -9.7580   10.8590   14.7440 N   0  0  0  0  0
   -8.9540   10.3470   13.8260 C   0  0  0  0  0
   -8.6890    9.0630   13.8410 N   0  0  0  0  0
   -8.3510   11.1530   12.9350 N   0  0  0  0  0
  -15.4150    6.7080   16.9360 N   0  0  0  0  0
  -16.5800    6.2850   17.6810 C   0  0  0  0  0
  -16.3980    4.9140   18.2640 C   0  0  0  0  0
  -15.8840    4.0150   17.6030 O   0  0  0  0  0
  -17.8200    6.2550   16.7880 C   0  0  0  0  0
  -19.0500    6.1190   17.5400 C   0  0  0  0  0
  -20.2230    6.2510   16.6600 C   0  0  0  0  0
  -21.5100    5.9760   17.4250 C   0  0  0  0  0
  -22.1170    7.1960   17.8810 N   0  3  0  0  0
  -16.8990    4.7100   19.5020 N   0  0  0  0  0
  -16.9150    3.3740   20.0980 C   0  0  0  0  0
  -17.9330    2.4630   19.4820 C   0  0  0  0  0
  -18.9710    2.8940   19.0000 O   0  0  0  0  0
  -17.1810    3.4930   21.6000 C   0  0  0  0  0
  -17.6680    1.1640   19.5830 N   0  0  0  0  0
  -18.6830    0.1420   19.2920 C   0  0  0  0  0
  -18.4020   -1.0690   20.1870 C   0  0  0  0  0
  -17.2570   -1.2850   20.6000 O   0  0  0  0  0
  -18.6400   -0.2800   17.8430 C   0  0  0  0  0
  -19.4600   -1.7960   20.5000 N   0  0  0  0  0
  -19.3070   -3.0250   21.2710 C   0  0  0  0  0
  -19.0650   -4.2000   20.3320 C   0  0  0  0  0
  -19.7230   -4.3290   19.3180 O   0  0  0  0  0
  -20.5240   -3.2670   22.1880 C   0  0  0  0  0
  -21.8420   -3.4490   21.4440 C   0  0  0  0  0
  -20.2690   -4.4690   23.1040 C   0  0  0  0  0
  -18.0800   -5.0300   20.6850 N   0  0  0  0  0
  -17.8210   -6.2780   19.9360 C   0  0  0  0  0
  -17.8520   -7.4700   20.8430 C   0  0  0  0  0
  -16.9670   -7.6440   21.7230 O   0  0  0  0  0
  -16.4730   -6.1620   19.2150 C   0  0  0  0  0
  -15.4480   -5.7960   20.1220 O   0  0  0  0  0
  -18.9150   -8.2430   20.6980 N   0  0  0  0  0
  -19.1000   -9.5170   21.4180 C   0  0  0  0  0
  -19.0990  -10.6820   20.4460 C   0  0  0  0  0
  -19.5400  -11.7690   20.7510 O   0  0  0  0  0
  -20.3610   -9.4640   22.2590 C   0  0  0  0  0
  -20.2600   -8.5030   23.3860 C   0  0  0  0  0
  -21.3560   -7.9460   23.9490 N   0  0  0  0  0
  -19.2070   -8.0450   24.0930 C   0  0  0  0  0
  -21.0230   -7.1440   24.9320 C   0  0  0  0  0
  -19.7180   -7.2060   25.0730 N   0  0  0  0  0
  -18.3840  -10.5220   19.3460 N   0  0  0  0  0
  -18.2720  -11.5520   18.3410 C   0  0  0  0  0
  -17.3520  -12.6680   18.7790 C   0  0  0  0  0
  -16.4630  -12.4780   19.6150 O   0  0  0  0  0
  -17.8750  -10.9080   16.9980 C   0  0  0  0  0
  -16.6780   -9.9470   17.0370 C   0  0  0  0  0
  -15.5290  -10.0990   17.7620 C   0  0  0  0  0
  -16.5200   -8.7720   16.2770 C   0  0  0  0  0
  -14.6960   -9.0710   17.5150 N   0  0  0  0  0
  -15.2750   -8.2440   16.5910 C   0  0  0  0  0
  -17.3160   -8.1120   15.3370 C   0  0  0  0  0
  -14.8190   -7.0510   16.0610 C   0  0  0  0  0
  -16.8630   -6.9430   14.7890 C   0  0  0  0  0
  -15.6320   -6.4040   15.1750 C   0  0  0  0  0
  -17.6350  -13.8830   18.2530 N   0  0  0  0  0
  -16.9180  -15.0880   18.6220 C   0  0  0  0  0
  -16.5880  -15.8750   17.3720 C   0  0  0  0  0
  -17.3330  -15.8400   16.4080 O   0  0  0  0  0
  -17.7910  -15.9400   19.5520 C   0  0  0  0  0
  -18.3220  -15.2120   20.7920 C   0  0  0  0  0
  -17.7330  -15.7460   22.0530 C   0  0  0  0  0
  -18.4410  -16.3260   22.8930 O   0  0  0  0  0
  -16.4340  -15.5360   22.2280 N   0  0  0  0  0
  -10.5490  -17.5840   17.3310 N   0  0  0  0  0
  -11.4330  -17.7580   16.3180 C   0  0  0  0  0
  -11.1220  -18.4090   15.3170 O   0  0  0  0  0
  -12.7570  -17.1040   16.4230 C   0  0  0  0  0
  -13.8150  -18.1190   16.5060 C   0  0  0  0  0
  -15.1540  -17.5150   16.3310 C   0  0  0  0  0
  -15.4840  -16.6480   17.4260 N   0  0  0  0  0
  -16.1540  -18.6590   16.2880 C   0  0  0  0  0
  -16.7390  -19.0370   17.4280 N   0  0  0  0  0
  -16.5010  -19.2190   15.2020 O   0  0  0  0  0
  -13.8703    9.4543    9.4378 H   0  0  0  0  0
  -11.6137   12.9033    7.6146 H   0  0  0  0  0
  -12.2020   13.8565    8.9989 H   0  0  0  0  0
  -10.8313   12.7388    9.2058 H   0  0  0  0  0
  -10.6698   11.5480   10.9862 H   0  0  0  0  0
  -10.2273   10.6404    9.6171 H   0  0  0  0  0
  -11.2575    9.6200   12.2678 H   0  0  0  0  0
  -10.2042    8.8050   11.1351 H   0  0  0  0  0
  -11.9997    8.0023    9.8410 H   0  0  0  0  0
  -12.7148    7.9795   11.3917 H   0  0  0  0  0
  -15.5218    8.8423   10.8260 H   0  0  0  0  0
  -16.0264   10.4928   13.2047 H   0  0  0  0  0
  -17.4285    8.0153   12.2678 H   0  0  0  0  0
  -17.8070    9.7137   11.7295 H   0  0  0  0  0
  -17.0401   10.2191   14.5435 H   0  0  0  0  0
  -14.7294   10.1037   14.9547 H   0  0  0  0  0
  -13.5942    7.3544   15.3132 H   0  0  0  0  0
  -12.1354    8.3721   16.9330 H   0  0  0  0  0
  -13.0728    9.9304   16.8377 H   0  0  0  0  0
  -12.3093   10.3364   14.6755 H   0  0  0  0  0
  -11.5838    8.6847   14.5550 H   0  0  0  0  0
   -9.8753    9.2144   16.0224 H   0  0  0  0  0
  -10.7218   10.7148   16.5888 H   0  0  0  0  0
   -9.8745   11.8722   14.7618 H   0  0  0  0  0
   -9.1017    8.4654   14.5572 H   0  0  0  0  0
   -7.6842   10.7663   12.2670 H   0  0  0  0  0
   -8.5602   12.1513   12.9270 H   0  0  0  0  0
  -14.9380    6.0109   16.3643 H   0  0  0  0  0
  -16.7107    7.0093   18.4850 H   0  0  0  0  0
  -17.7352    5.3918   16.1279 H   0  0  0  0  0
  -17.8633    7.1992   16.2452 H   0  0  0  0  0
  -19.0879    6.9052   18.2940 H   0  0  0  0  0
  -19.0695    5.1327   18.0035 H   0  0  0  0  0
  -20.1359    5.5278   15.8492 H   0  0  0  0  0
  -20.2569    7.2689   16.2716 H   0  0  0  0  0
  -21.2731    5.3607   18.2930 H   0  0  0  0  0
  -22.2081    5.4689   16.7589 H   0  0  0  0  0
  -22.9747    6.9786   18.3884 H   0  0  0  0  0
  -21.4700    7.6861   18.4987 H   0  0  0  0  0
  -22.3357    7.7863   17.0784 H   0  0  0  0  0
  -17.2718    5.4996   20.0292 H   0  0  0  0  0
  -15.9379    2.9296   19.9086 H   0  0  0  0  0
  -16.3936    4.0893   22.0610 H   0  0  0  0  0
  -18.1450    3.9759   21.7598 H   0  0  0  0  0
  -17.1932    2.4983   22.0455 H   0  0  0  0  0
  -16.7349    0.8689   19.8703 H   0  0  0  0  0
  -19.6736    0.5531   19.4867 H   0  0  0  0  0
  -18.8280    0.5858   17.2080 H   0  0  0  0  0
  -17.6573   -0.6928   17.6151 H   0  0  0  0  0
  -19.4038   -1.0366   17.6634 H   0  0  0  0  0
  -20.3881   -1.4965   20.2011 H   0  0  0  0  0
  -18.4384   -2.9237   21.9217 H   0  0  0  0  0
  -20.6343   -2.3574   22.7784 H   0  0  0  0  0
  -22.0545   -2.5537   20.8597 H   0  0  0  0  0
  -21.7665   -4.3091   20.7788 H   0  0  0  0  0
  -22.6441   -3.6138   22.1634 H   0  0  0  0  0
  -20.0983   -5.3576   22.4962 H   0  0  0  0  0
  -19.3913   -4.2747   23.7204 H   0  0  0  0  0
  -21.1367   -4.6266   23.7446 H   0  0  0  0  0
  -17.4947   -4.7982   21.4875 H   0  0  0  0  0
  -18.6087   -6.4211   19.1963 H   0  0  0  0  0
  -16.5511   -5.3951   18.4444 H   0  0  0  0  0
  -16.2251   -7.1280   18.7752 H   0  0  0  0  0
  -14.6142   -5.7291   19.6509 H   0  0  0  0  0
  -19.6463   -7.9421   20.0537 H   0  0  0  0  0
  -18.2633   -9.6722   22.0992 H   0  0  0  0  0
  -20.5240  -10.4563   22.6797 H   0  0  0  0  0
  -21.1785   -9.1392   21.6153 H   0  0  0  0  0
  -18.1573   -8.2871   23.9268 H   0  0  0  0  0
  -21.7058   -6.5356   25.5251 H   0  0  0  0  0
  -17.8938   -9.6391   19.2021 H   0  0  0  0  0
  -19.2395  -12.0339   18.2002 H   0  0  0  0  0
  -18.7321  -10.3150   16.6788 H   0  0  0  0  0
  -17.5869  -11.7277   16.3399 H   0  0  0  0  0
  -15.3191  -10.9278   18.4382 H   0  0  0  0  0
  -18.2827   -8.5221   15.0449 H   0  0  0  0  0
  -13.8476   -6.6426   16.3398 H   0  0  0  0  0
  -17.4681   -6.4266   14.0438 H   0  0  0  0  0
  -15.3147   -5.4473   14.7600 H   0  0  0  0  0
  -18.3861  -13.9538   17.5665 H   0  0  0  0  0
  -15.9961  -14.8216   19.1389 H   0  0  0  0  0
  -17.1637  -16.7558   19.9114 H   0  0  0  0  0
  -18.6610  -16.2473   18.9717 H   0  0  0  0  0
  -19.4016  -15.3563   20.8339 H   0  0  0  0  0
  -18.0507  -14.1595   20.7098 H   0  0  0  0  0
  -15.9761  -15.8560   23.0814 H   0  0  0  0  0
  -15.8938  -15.0546   21.5091 H   0  0  0  0  0
   -9.6166  -17.9930   17.2701 H   0  0  0  0  0
  -10.8163  -17.0440   18.1540 H   0  0  0  0  0
  -12.9221  -16.4860   15.5404 H   0  0  0  0  0
  -12.7814  -16.4871   17.3213 H   0  0  0  0  0
  -13.7710  -18.5865   17.4897 H   0  0  0  0  0
  -13.6577  -18.8500   15.7129 H   0  0  0  0  0
  -15.1726  -16.9193   15.4184 H   0  0  0  0  0
  -14.8813  -16.6162   18.2483 H   0  0  0  0  0
  -17.4530  -19.7654   17.4178 H   0  0  0  0  0
  -16.4717  -18.5972   18.3086 H   0  0  0  0  0
  1  2  2  0  0  0
  1  3  1  0  0  0
 11  1  1  0  0  0
  3  4  1  0  0  0
  3 10  1  0  0  0
  4  5  1  0  0  0
  4  8  1  0  0  0
  5  6  2  0  0  0
  5  7  1  0  0  0
  9  8  1  0  0  0
 10  9  1  0  0  0
 12 11  1  0  0  0
 13 12  1  0  0  0
 12 15  1  0  0  0
 13 14  2  0  0  0
 19 13  1  0  0  0
 15 16  1  0  0  0
 16 17  1  0  0  0
 16 18  2  0  0  0
 20 19  1  0  0  0
 21 20  1  0  0  0
 20 23  1  0  0  0
 21 22  2  0  0  0
 30 21  1  0  0  0
 23 24  1  0  0  0
 24 25  1  0  0  0
 25 26  1  0  0  0
 26 27  1  0  0  0
 27 28  2  0  0  0
 27 29  1  0  0  0
 31 30  1  0  0  0
 32 31  1  0  0  0
 31 34  1  0  0  0
 32 33  2  0  0  0
 39 32  1  0  0  0
 34 35  1  0  0  0
 35 36  1  0  0  0
 36 37  1  0  0  0
 37 38  1  0  0  0
 40 39  1  0  0  0
 41 40  1  0  0  0
 40 43  1  0  0  0
 41 42  2  0  0  0
 44 41  1  0  0  0
 45 44  1  0  0  0
 46 45  1  0  0  0
 45 48  1  0  0  0
 46 47  2  0  0  0
 49 46  1  0  0  0
 50 49  1  0  0  0
 51 50  1  0  0  0
 50 53  1  0  0  0
 51 52  2  0  0  0
 56 51  1  0  0  0
 53 54  1  0  0  0
 53 55  1  0  0  0
 57 56  1  0  0  0
 58 57  1  0  0  0
 57 60  1  0  0  0
 58 59  2  0  0  0
 62 58  1  0  0  0
 60 61  1  0  0  0
 63 62  1  0  0  0
 64 63  1  0  0  0
 63 66  1  0  0  0
 64 65  2  0  0  0
 72 64  1  0  0  0
 66 67  1  0  0  0
 67 68  4  0  0  0
 67 69  4  0  0  0
 68 70  4  0  0  0
 69 71  4  0  0  0
 71 70  4  0  0  0
 73 72  1  0  0  0
 74 73  1  0  0  0
 73 76  1  0  0  0
 74 75  2  0  0  0
 86 74  1  0  0  0
 76 77  1  0  0  0
 77 78  4  0  0  0
 77 79  4  0  0  0
 78 80  4  0  0  0
 79 81  4  0  0  0
 79 82  4  0  0  0
 81 80  4  0  0  0
 81 83  4  0  0  0
 82 84  4  0  0  0
 83 85  4  0  0  0
 84 85  4  0  0  0
 87 86  1  0  0  0
 88 87  1  0  0  0
 87 90  1  0  0  0
 88 89  2  0  0  0
101 88  1  0  0  0
 90 91  1  0  0  0
 91 92  1  0  0  0
 92 93  2  0  0  0
 92 94  1  0  0  0
 96 95  1  0  0  0
 96 97  2  0  0  0
 98 96  1  0  0  0
 99 98  1  0  0  0
100 99  1  0  0  0
100101  1  0  0  0
100102  1  0  0  0
102103  1  0  0  0
102104  2  0  0  0
  3105  1  0  0  0
  7106  1  0  0  0
  7107  1  0  0  0
  7108  1  0  0  0
  8109  1  0  0  0
  8110  1  0  0  0
  9111  1  0  0  0
  9112  1  0  0  0
 10113  1  0  0  0
 10114  1  0  0  0
 11115  1  0  0  0
 12116  1  0  0  0
 15117  1  0  0  0
 15118  1  0  0  0
 17119  1  0  0  0
 19120  1  0  0  0
 20121  1  0  0  0
 23122  1  0  0  0
 23123  1  0  0  0
 24124  1  0  0  0
 24125  1  0  0  0
 25126  1  0  0  0
 25127  1  0  0  0
 26128  1  0  0  0
 28129  1  0  0  0
 29130  1  0  0  0
 29131  1  0  0  0
 30132  1  0  0  0
 31133  1  0  0  0
 34134  1  0  0  0
 34135  1  0  0  0
 35136  1  0  0  0
 35137  1  0  0  0
 36138  1  0  0  0
 36139  1  0  0  0
 37140  1  0  0  0
 37141  1  0  0  0
 38142  1  0  0  0
 38143  1  0  0  0
 38144  1  0  0  0
 39145  1  0  0  0
 40146  1  0  0  0
 43147  1  0  0  0
 43148  1  0  0  0
 43149  1  0  0  0
 44150  1  0  0  0
 45151  1  0  0  0
 48152  1  0  0  0
 48153  1  0  0  0
 48154  1  0  0  0
 49155  1  0  0  0
 50156  1  0  0  0
 53157  1  0  0  0
 54158  1  0  0  0
 54159  1  0  0  0
 54160  1  0  0  0
 55161  1  0  0  0
 55162  1  0  0  0
 55163  1  0  0  0
 56164  1  0  0  0
 57165  1  0  0  0
 60166  1  0  0  0
 60167  1  0  0  0
 61168  1  0  0  0
 62169  1  0  0  0
 63170  1  0  0  0
 66171  1  0  0  0
 66172  1  0  0  0
 69173  1  0  0  0
 70174  1  0  0  0
 72175  1  0  0  0
 73176  1  0  0  0
 76177  1  0  0  0
 76178  1  0  0  0
 78179  1  0  0  0
 82180  1  0  0  0
 83181  1  0  0  0
 84182  1  0  0  0
 85183  1  0  0  0
 86184  1  0  0  0
 87185  1  0  0  0
 90186  1  0  0  0
 90187  1  0  0  0
 91188  1  0  0  0
 91189  1  0  0  0
 94190  1  0  0  0
 94191  1  0  0  0
 95192  1  0  0  0
 95193  1  0  0  0
 98194  1  0  0  0
 98195  1  0  0  0
 99196  1  0  0  0
 99197  1  0  0  0
100198  1  0  0  0
101199  1  0  0  0
103200  1  0  0  0
103201  1  0  0  0
M  END
$$$$
