### 
### Created by X-TOOL on Mon Sep 10 21:13:25 2018
### 

@<TRIPOS>MOLECULE
5ivn_ligand
  203   206     1     0     0
SMALL
GAST_HUCK


@<TRIPOS>ATOM
      1 C         -14.1140   10.1400   11.4050 C.2       1 N7P         0.2042
      2 O         -13.7910   11.0640   12.2080 O.2       1 N7P        -0.3944
      3 CA        -13.2080    9.7540   10.2500 C.3       1 N7P         0.1337
      4 N         -12.3440   10.8560    9.8470 N.am      1 N7P        -0.2520
      5 C1        -12.7250   11.8050    9.0440 C.2       1 N7P         0.1776
      6 O1        -13.8600   11.7420    8.6050 O.2       1 N7P        -0.3970
      7 C2        -11.7790   12.9000    8.6920 C.3       1 N7P         0.0260
      8 CD        -10.9940   10.6950   10.3900 C.3       1 N7P         0.0369
      9 CG        -11.1150    9.3990   11.2100 C.3       1 N7P        -0.0281
     10 CB        -12.2710    8.6610   10.6660 C.3       1 N7P        -0.0104
     11 N         -15.2040    9.4450   11.5850 N.am      1 ASP        -0.2622
     12 CA        -15.9850    9.4820   12.7990 C.3       1 ASP         0.1423
     13 C         -15.3140    8.5570   13.7930 C.2       1 ASP         0.2056
     14 O         -15.3220    7.3040   13.6130 O.2       1 ASP        -0.3943
     15 CB        -17.4290    9.0740   12.5270 C.3       1 ASP         0.0406
     16 CG        -18.3590    9.2550   13.7520 C.2       1 ASP         0.0393
     17 OD1       -17.9450    9.9470   14.7130 O.co2     1 ASP        -0.5688
     18 OD2       -19.4910    8.7670   13.6940 O.co2     1 ASP        -0.5688
     19 N         -14.6940    9.0930   14.8220 N.am      1 ARG        -0.2636
     20 CA        -13.9550    8.2710   15.7800 C.3       1 ARG         0.1311
     21 C         -14.9270    7.9330   16.9450 C.2       1 ARG         0.2039
     22 O         -15.2360    8.7880   17.7880 O.2       1 ARG        -0.3944
     23 CB        -12.7100    9.0520   16.3040 C.3       1 ARG        -0.0092
     24 CG        -11.8040    9.5300   15.2070 C.3       1 ARG        -0.0156
     25 CD        -10.4970   10.0650   15.7430 C.3       1 ARG         0.0627
     26 NE         -9.7580   10.8590   14.7440 N.pl3     1 ARG        -0.2723
     27 CZ         -8.9540   10.3470   13.8260 C.cat     1 ARG         0.2882
     28 NH1        -8.6890    9.0630   13.8410 N.pl3     1 ARG        -0.2849
     29 NH2        -8.3510   11.1530   12.9350 N.pl3     1 ARG        -0.2849
     30 N         -15.4150    6.7080   16.9360 N.am      1 LYS        -0.2637
     31 CA        -16.5800    6.2850   17.6810 C.3       1 LYS         0.1310
     32 C         -16.3980    4.9140   18.2640 C.2       1 LYS         0.2039
     33 O         -15.8840    4.0150   17.6030 O.2       1 LYS        -0.3944
     34 CB        -17.8200    6.2550   16.7880 C.3       1 LYS        -0.0122
     35 CG        -19.0500    6.1190   17.5400 C.3       1 LYS        -0.0440
     36 CD        -20.2230    6.2510   16.6600 C.3       1 LYS        -0.0124
     37 CE        -21.5100    5.9760   17.4250 C.3       1 LYS        -0.0354
     38 NZ        -22.1170    7.1960   17.8810 N.4       1 LYS         0.2185
     39 N         -16.8990    4.7100   19.5020 N.am      1 ALA        -0.2640
     40 CA        -16.9150    3.3740   20.0980 C.3       1 ALA         0.1282
     41 C         -17.9330    2.4630   19.4820 C.2       1 ALA         0.2036
     42 O         -18.9710    2.8940   19.0000 O.2       1 ALA        -0.3944
     43 CB        -17.1810    3.4930   21.6000 C.3       1 ALA        -0.0244
     44 N         -17.6680    1.1640   19.5830 N.am      1 ALA        -0.2640
     45 CA        -18.6830    0.1420   19.2920 C.3       1 ALA         0.1282
     46 C         -18.4020   -1.0690   20.1870 C.2       1 ALA         0.2036
     47 O         -17.2570   -1.2850   20.6000 O.2       1 ALA        -0.3944
     48 CB        -18.6400   -0.2800   17.8430 C.3       1 ALA        -0.0244
     49 N         -19.4600   -1.7960   20.5000 N.am      1 VAL        -0.2635
     50 CA        -19.3070   -3.0250   21.2710 C.3       1 VAL         0.1333
     51 C         -19.0650   -4.2000   20.3320 C.2       1 VAL         0.2042
     52 O         -19.7230   -4.3290   19.3180 O.2       1 VAL        -0.3944
     53 CB        -20.5240   -3.2670   22.1880 C.3       1 VAL        -0.0063
     54 CG1       -21.8420   -3.4490   21.4440 C.3       1 VAL        -0.0584
     55 CG2       -20.2690   -4.4690   23.1040 C.3       1 VAL        -0.0584
     56 N         -18.0800   -5.0300   20.6850 N.am      1 SER        -0.2616
     57 CA        -17.8210   -6.2780   19.9360 C.3       1 SER         0.1539
     58 C         -17.8520   -7.4700   20.8430 C.2       1 SER         0.2063
     59 O         -16.9670   -7.6440   21.7230 O.2       1 SER        -0.3943
     60 CB        -16.4730   -6.1620   19.2150 C.3       1 SER         0.0843
     61 OG        -15.4480   -5.7960   20.1220 O.3       1 SER        -0.3903
     62 N         -18.9150   -8.2430   20.6980 N.am      1 HIS        -0.2624
     63 CA        -19.1000   -9.5170   21.4180 C.3       1 HIS         0.1369
     64 C         -19.0990  -10.6820   20.4460 C.2       1 HIS         0.2054
     65 O         -19.5400  -11.7690   20.7510 O.2       1 HIS        -0.3942
     66 CB        -20.3610   -9.4640   22.2590 C.3       1 HIS         0.0145
     67 CG        -20.2600   -8.5030   23.3860 C.2       1 HIS        -0.0027
     68 ND1       -21.3560   -7.9460   23.9490 N.2       1 HIS        -0.3252
     69 CD2       -19.2070   -8.0450   24.0930 C.2       1 HIS         0.0291
     70 CE1       -21.0230   -7.1440   24.9320 C.2       1 HIS         0.0907
     71 NE2       -19.7180   -7.2060   25.0730 N.pl3     1 HIS        -0.2752
     72 N         -18.3840  -10.5220   19.3460 N.am      1 TRP        -0.2625
     73 CA        -18.2720  -11.5520   18.3410 C.3       1 TRP         0.1352
     74 C         -17.3520  -12.6680   18.7790 C.2       1 TRP         0.2052
     75 O         -16.4630  -12.4780   19.6150 O.2       1 TRP        -0.3942
     76 CB        -17.8750  -10.9080   16.9980 C.3       1 TRP         0.0042
     77 CG        -16.6780   -9.9470   17.0370 C.2       1 TRP        -0.0418
     78 CD1       -15.5290  -10.0990   17.7620 C.2       1 TRP         0.0167
     79 CD2       -16.5200   -8.7720   16.2770 C.ar      1 TRP        -0.0214
     80 NE1       -14.6960   -9.0710   17.5150 N.pl3     1 TRP        -0.2890
     81 CE2       -15.2750   -8.2440   16.5910 C.ar      1 TRP         0.0603
     82 CE3       -17.3160   -8.1120   15.3370 C.ar      1 TRP        -0.0747
     83 CZ2       -14.8190   -7.0510   16.0610 C.ar      1 TRP        -0.0443
     84 CZ3       -16.8630   -6.9430   14.7890 C.ar      1 TRP        -0.0792
     85 CH2       -15.6320   -6.4040   15.1750 C.ar      1 TRP        -0.0768
     86 N         -17.6350  -13.8830   18.2530 N.am      1 GLN        -0.2635
     87 CA        -16.9180  -15.0880   18.6220 C.3       1 GLN         0.1330
     88 C         -16.5880  -15.8750   17.3720 C.2       1 GLN         0.2040
     89 O         -17.3330  -15.8400   16.4080 O.2       1 GLN        -0.3944
     90 CB        -17.7910  -15.9400   19.5520 C.3       1 GLN         0.0045
     91 CG        -18.3220  -15.2120   20.7920 C.3       1 GLN         0.0412
     92 CD        -17.7330  -15.7460   22.0530 C.2       1 GLN         0.1737
     93 OE1       -18.4410  -16.3260   22.8930 O.2       1 GLN        -0.3973
     94 NE2       -16.4340  -15.5360   22.2280 N.am      1 GLN        -0.3009
     95 N01       -10.5490  -17.5840   17.3310 N.am      1 6E4        -0.3009
     96 C02       -11.4330  -17.7580   16.3180 C.2       1 6E4         0.1737
     97 O03       -11.1220  -18.4090   15.3170 O.2       1 6E4        -0.3973
     98 C04       -12.7570  -17.1040   16.4230 C.3       1 6E4         0.0412
     99 C05       -13.8150  -18.1190   16.5060 C.3       1 6E4         0.0045
    100 C06       -15.1540  -17.5150   16.3310 C.3       1 6E4         0.1327
    101 N07       -15.4840  -16.6480   17.4260 N.am      1 6E4        -0.2636
    102 C08       -16.1540  -18.6590   16.2880 C.2       1 6E4         0.1993
    103 N09       -16.7390  -19.0370   17.4280 N.am      1 6E4        -0.2990
    104 O10       -16.5010  -19.2190   15.2020 O.2       1 6E4        -0.3947
    105 H1        -13.8267    9.4276    9.4011 H         1 N7P         0.0802
    106 H2        -12.2730   13.6054    8.0077 H         1 N7P         0.0467
    107 H3        -10.8913   12.4741    8.2015 H         1 N7P         0.0467
    108 H4        -11.4740   13.4293    9.6068 H         1 N7P         0.0467
    109 H5        -10.7194   11.5460   11.0306 H         1 N7P         0.0524
    110 H6        -10.2522   10.5877    9.5849 H         1 N7P         0.0524
    111 H7        -11.2814    9.6357   12.2712 H         1 N7P         0.0287
    112 H8        -10.1992    8.7983   11.1075 H         1 N7P         0.0287
    113 H9        -11.9757    8.0448    9.8040 H         1 N7P         0.0313
    114 H10       -12.7279    8.0208   11.4350 H         1 N7P         0.0313
    115 H11       -15.5156    8.8541   10.8409 H         1 ASP         0.1884
    116 H12       -15.9834   10.5056   13.2019 H         1 ASP         0.0819
    117 H13       -17.4426    8.0143   12.2322 H         1 ASP         0.0478
    118 H14       -17.8159    9.6893   11.7013 H         1 ASP         0.0478
    119 H15       -14.7287   10.0839   14.9521 H         1 ARG         0.1883
    120 H16       -13.6203    7.3420   15.2953 H         1 ARG         0.0800
    121 H17       -12.1354    8.3886   16.9671 H         1 ARG         0.0313
    122 H18       -13.0601    9.9258   16.8732 H         1 ARG         0.0313
    123 H19       -12.3131   10.3302   14.6498 H         1 ARG         0.0301
    124 H20       -11.5922    8.6892   14.5301 H         1 ARG         0.0301
    125 H21        -9.8694    9.2165   16.0531 H         1 ARG         0.0689
    126 H22       -10.7079   10.7027   16.6141 H         1 ARG         0.0689
    127 H23        -9.8756   11.8821   14.7619 H         1 ARG         0.2642
    128 H24        -8.0641    8.6578   13.1295 H         1 ARG         0.2615
    129 H25        -9.1057    8.4595   14.5642 H         1 ARG         0.2615
    130 H26        -8.5623   12.1611   12.9269 H         1 ARG         0.2615
    131 H27        -7.6777   10.7625   12.2604 H         1 ARG         0.2615
    132 H28       -14.9473    6.0246   16.3755 H         1 LYS         0.1883
    133 H29       -16.7448    7.0011   18.4996 H         1 LYS         0.0800
    134 H30       -17.7348    5.4036   16.0968 H         1 LYS         0.0312
    135 H31       -17.8616    7.1917   16.2127 H         1 LYS         0.0312
    136 H32       -19.0888    6.9024   18.3112 H         1 LYS         0.0269
    137 H33       -19.0704    5.1298   18.0208 H         1 LYS         0.0269
    138 H34       -20.1352    5.5315   15.8326 H         1 LYS         0.0317
    139 H35       -20.2562    7.2732   16.2551 H         1 LYS         0.0317
    140 H36       -21.2815    5.3426   18.2948 H         1 LYS         0.0813
    141 H37       -22.2147    5.4506   16.7637 H         1 LYS         0.0813
    142 H38       -22.9648    6.9824   18.3827 H         1 LYS         0.1994
    143 H39       -22.3336    7.7802   17.0886 H         1 LYS         0.1994
    144 H40       -21.4785    7.6812   18.4917 H         1 LYS         0.1994
    145 H41       -17.2645    5.4841   20.0189 H         1 ALA         0.1883
    146 H42       -15.9225    2.9237   19.9492 H         1 ALA         0.0797
    147 H43       -17.1936    2.4897   22.0507 H         1 ALA         0.0277
    148 H44       -18.1537    3.9802   21.7627 H         1 ALA         0.0277
    149 H45       -16.3870    4.0946   22.0665 H         1 ALA         0.0277
    150 H46       -16.7531    0.8746   19.8646 H         1 ALA         0.1883
    151 H47       -19.6810    0.5459   19.5176 H         1 ALA         0.0797
    152 H48       -19.4105   -1.0436   17.6605 H         1 ALA         0.0277
    153 H49       -17.6487   -0.6969   17.6117 H         1 ALA         0.0277
    154 H50       -18.8296    0.5929   17.2011 H         1 ALA         0.0277
    155 H51       -20.3699   -1.5024   20.2070 H         1 VAL         0.1883
    156 H52       -18.4209   -2.9162   21.9136 H         1 VAL         0.0802
    157 H53       -20.6315   -2.3753   22.8230 H         1 VAL         0.0343
    158 H54       -22.6523   -3.6154   22.1690 H         1 VAL         0.0234
    159 H55       -21.7671   -4.3168   20.7723 H         1 VAL         0.0234
    160 H56       -22.0577   -2.5461   20.8539 H         1 VAL         0.0234
    161 H57       -19.3166   -4.3288   23.6362 H         1 VAL         0.0234
    162 H58       -20.2196   -5.3867   22.4996 H         1 VAL         0.0234
    163 H59       -21.0877   -4.5542   23.8337 H         1 VAL         0.0234
    164 H60       -17.5061   -4.8027   21.4718 H         1 SER         0.1884
    165 H61       -18.6110   -6.4026   19.1808 H         1 SER         0.0823
    166 H62       -16.5491   -5.3966   18.4287 H         1 SER         0.0606
    167 H63       -16.2226   -7.1316   18.7599 H         1 SER         0.0606
    168 H64       -15.6591   -4.9573   20.5151 H         1 SER         0.2097
    169 H65       -19.6319   -7.9480   20.0663 H         1 HIS         0.1885
    170 H66       -18.2478   -9.6511   22.1005 H         1 HIS         0.0817
    171 H67       -20.5531  -10.4668   22.6682 H         1 HIS         0.0420
    172 H68       -21.2007   -9.1637   21.6151 H         1 HIS         0.0420
    173 H69       -18.1583   -8.2868   23.9269 H         1 HIS         0.0729
    174 H70       -21.7052   -6.5362   25.5246 H         1 HIS         0.1199
    175 H71       -19.1667   -6.7142   25.7907 H         1 HIS         0.2361
    176 H72       -17.9035   -9.6564   19.2049 H         1 TRP         0.1884
    177 H73       -19.2689  -11.9974   18.2072 H         1 TRP         0.0815
    178 H74       -18.7443  -10.3469   16.6244 H         1 TRP         0.0397
    179 H75       -17.6322  -11.7187   16.2953 H         1 TRP         0.0397
    180 H76       -15.3193  -10.9270   18.4375 H         1 TRP         0.0795
    181 H77       -13.7733   -8.9298   17.9504 H         1 TRP         0.2216
    182 H78       -18.2774   -8.5198   15.0465 H         1 TRP         0.0540
    183 H79       -13.8530   -6.6449   16.3383 H         1 TRP         0.0541
    184 H80       -17.4647   -6.4294   14.0479 H         1 TRP         0.0510
    185 H81       -15.3164   -5.4526   14.7623 H         1 TRP         0.0530
    186 H82       -18.3714  -13.9524   17.5800 H         1 GLN         0.1883
    187 H83       -15.9870  -14.8168   19.1412 H         1 GLN         0.0801
    188 H84       -17.1917  -16.7978   19.8910 H         1 GLN         0.0337
    189 H85       -18.6539  -16.3013   18.9733 H         1 GLN         0.0337
    190 H86       -19.4147  -15.3321   20.8327 H         1 GLN         0.0504
    191 H87       -18.0733  -14.1437   20.7094 H         1 GLN         0.0504
    192 H88       -15.9804  -15.8701   23.0542 H         1 GLN         0.1814
    193 H89       -15.9091  -15.0437   21.5336 H         1 GLN         0.1814
    194 H90       -10.8111  -17.0546   18.1379 H         1 6E4         0.1814
    195 H91        -9.6349  -17.9850   17.2713 H         1 6E4         0.1814
    196 H92       -12.9241  -16.4758   15.5356 H         1 6E4         0.0504
    197 H93       -12.7826  -16.4769   17.3263 H         1 6E4         0.0504
    198 H94       -13.7677  -18.6063   17.4910 H         1 6E4         0.0337
    199 H95       -13.6545  -18.8692   15.7177 H         1 6E4         0.0337
    200 H96       -15.1858  -16.9449   15.3908 H         1 6E4         0.0801
    201 H97       -14.8931  -16.6169   18.2322 H         1 6E4         0.1883
    202 H98       -17.4004  -19.7870   17.4258 H         1 6E4         0.1815
    203 H99       -16.5155  -18.5699   18.2835 H         1 6E4         0.1815
@<TRIPOS>BOND
     1    1    2 2  
     2    1    3 1  
     3   11    1 am 
     4    3    4 1  
     5    3   10 1  
     6    4    5 am 
     7    4    8 1  
     8    5    6 2  
     9    5    7 1  
    10    9    8 1  
    11   10    9 1  
    12   12   11 1  
    13   13   12 1  
    14   12   15 1  
    15   13   14 2  
    16   19   13 am 
    17   15   16 1  
    18   16   17 ar 
    19   16   18 ar 
    20   20   19 1  
    21   21   20 1  
    22   20   23 1  
    23   21   22 2  
    24   30   21 am 
    25   23   24 1  
    26   24   25 1  
    27   25   26 1  
    28   26   27 ar 
    29   27   28 ar 
    30   27   29 ar 
    31   31   30 1  
    32   32   31 1  
    33   31   34 1  
    34   32   33 2  
    35   39   32 am 
    36   34   35 1  
    37   35   36 1  
    38   36   37 1  
    39   37   38 1  
    40   40   39 1  
    41   41   40 1  
    42   40   43 1  
    43   41   42 2  
    44   44   41 am 
    45   45   44 1  
    46   46   45 1  
    47   45   48 1  
    48   46   47 2  
    49   49   46 am 
    50   50   49 1  
    51   51   50 1  
    52   50   53 1  
    53   51   52 2  
    54   56   51 am 
    55   53   54 1  
    56   53   55 1  
    57   57   56 1  
    58   58   57 1  
    59   57   60 1  
    60   58   59 2  
    61   62   58 am 
    62   60   61 1  
    63   63   62 1  
    64   64   63 1  
    65   63   66 1  
    66   64   65 2  
    67   72   64 am 
    68   66   67 1  
    69   67   68 1  
    70   67   69 2  
    71   68   70 2  
    72   69   71 1  
    73   71   70 1  
    74   73   72 1  
    75   74   73 1  
    76   73   76 1  
    77   74   75 2  
    78   86   74 am 
    79   76   77 1  
    80   77   78 2  
    81   77   79 1  
    82   78   80 1  
    83   79   81 ar 
    84   79   82 ar 
    85   81   80 1  
    86   81   83 ar 
    87   82   84 ar 
    88   83   85 ar 
    89   84   85 ar 
    90   87   86 1  
    91   88   87 1  
    92   87   90 1  
    93   88   89 2  
    94  101   88 am 
    95   90   91 1  
    96   91   92 1  
    97   92   93 2  
    98   92   94 am 
    99   96   95 am 
   100   96   97 2  
   101   98   96 1  
   102   99   98 1  
   103  100   99 1  
   104  100  101 1  
   105  100  102 1  
   106  102  103 am 
   107  102  104 2  
   108    3  105 1  
   109    7  106 1  
   110    7  107 1  
   111    7  108 1  
   112    8  109 1  
   113    8  110 1  
   114    9  111 1  
   115    9  112 1  
   116   10  113 1  
   117   10  114 1  
   118   11  115 1  
   119   12  116 1  
   120   15  117 1  
   121   15  118 1  
   122   19  119 1  
   123   20  120 1  
   124   23  121 1  
   125   23  122 1  
   126   24  123 1  
   127   24  124 1  
   128   25  125 1  
   129   25  126 1  
   130   26  127 1  
   131   28  128 1  
   132   28  129 1  
   133   29  130 1  
   134   29  131 1  
   135   30  132 1  
   136   31  133 1  
   137   34  134 1  
   138   34  135 1  
   139   35  136 1  
   140   35  137 1  
   141   36  138 1  
   142   36  139 1  
   143   37  140 1  
   144   37  141 1  
   145   38  142 1  
   146   38  143 1  
   147   38  144 1  
   148   39  145 1  
   149   40  146 1  
   150   43  147 1  
   151   43  148 1  
   152   43  149 1  
   153   44  150 1  
   154   45  151 1  
   155   48  152 1  
   156   48  153 1  
   157   48  154 1  
   158   49  155 1  
   159   50  156 1  
   160   53  157 1  
   161   54  158 1  
   162   54  159 1  
   163   54  160 1  
   164   55  161 1  
   165   55  162 1  
   166   55  163 1  
   167   56  164 1  
   168   57  165 1  
   169   60  166 1  
   170   60  167 1  
   171   61  168 1  
   172   62  169 1  
   173   63  170 1  
   174   66  171 1  
   175   66  172 1  
   176   69  173 1  
   177   70  174 1  
   178   71  175 1  
   179   72  176 1  
   180   73  177 1  
   181   76  178 1  
   182   76  179 1  
   183   78  180 1  
   184   80  181 1  
   185   82  182 1  
   186   83  183 1  
   187   84  184 1  
   188   85  185 1  
   189   86  186 1  
   190   87  187 1  
   191   90  188 1  
   192   90  189 1  
   193   91  190 1  
   194   91  191 1  
   195   94  192 1  
   196   94  193 1  
   197   95  194 1  
   198   95  195 1  
   199   98  196 1  
   200   98  197 1  
   201   99  198 1  
   202   99  199 1  
   203  100  200 1  
   204  101  201 1  
   205  103  202 1  
   206  103  203 1  
@<TRIPOS>SUBSTRUCTURE
     1 N7P         1

