3plu_ligand
  -I-interpret- 

277277  0  0  0  0  0  0  0  0999 V2000
   11.2690   -8.9950    1.1150 N   0  3  0  0  0
   10.8180  -10.4010    0.9500 C   0  0  0  0  0
   11.1800  -10.8810   -0.4430 C   0  0  0  0  0
   11.0060  -10.1510   -1.4140 O   0  0  0  0  0
    9.3060  -10.4930    1.1660 C   0  0  0  0  0
    8.7040  -11.9000    1.1920 C   0  0  0  0  0
    9.1650  -12.6560    2.4200 C   0  0  0  0  0
    7.1930  -11.8640    1.1300 C   0  0  0  0  0
   11.6800  -12.1090   -0.5440 N   0  0  0  0  0
   12.0630  -12.6680   -1.8450 C   0  0  0  0  0
   10.8890  -12.6930   -2.8210 C   0  0  0  0  0
    9.7250  -12.7350   -2.4080 O   0  0  0  0  0
   12.6190  -14.0870   -1.6910 C   0  0  0  0  0
   11.6050  -14.9880   -1.2840 O   0  0  0  0  0
   11.2040  -12.6800   -4.1170 N   0  0  0  0  0
   10.1820  -12.8250   -5.1500 C   0  0  0  0  0
    9.4210  -14.1440   -4.9570 C   0  0  0  0  0
    8.1990  -14.1870   -5.0820 O   0  0  0  0  0
   10.7800  -12.7660   -6.5890 C   0  0  0  0  0
   11.6520  -11.5190   -6.7720 C   0  0  0  0  0
    9.6650  -12.8100   -7.6430 C   0  0  0  0  0
   12.3720  -11.4440   -8.1210 C   0  0  0  0  0
   10.1500  -15.2110   -4.6330 N   0  0  0  0  0
    9.5330  -16.5270   -4.4220 C   0  0  0  0  0
    8.5360  -16.5760   -3.2590 C   0  0  0  0  0
    7.4300  -17.1020   -3.4160 O   0  0  0  0  0
   10.5770  -17.6540   -4.3090 C   0  0  0  0  0
   11.9720  -17.2310   -3.8690 C   0  0  0  0  0
   12.7830  -16.6120   -4.9950 C   0  0  0  0  0
   13.3260  -15.5080   -4.7910 O   0  0  0  0  0
   12.8690  -17.2190   -6.0870 O   0  0  0  0  0
    8.9050  -16.0180   -2.1060 N   0  0  0  0  0
    7.9800  -16.0000   -0.9750 C   0  0  0  0  0
    6.8060  -15.0510   -1.2260 C   0  0  0  0  0
    5.6900  -15.3180   -0.7800 O   0  0  0  0  0
    8.6930  -15.6800    0.3420 C   0  0  0  0  0
    7.8780  -16.0350    1.6010 C   0  0  0  0  0
    7.6580  -17.5350    1.7910 C   0  0  0  0  0
    8.5270  -18.3330    1.3830 O   0  0  0  0  0
    6.6160  -17.9050    2.3690 O   0  0  0  0  0
    7.0620  -13.9550   -1.9480 N   0  0  0  0  0
    5.9950  -13.0500   -2.3800 C   0  0  0  0  0
    5.0040  -13.7960   -3.2700 C   0  0  0  0  0
    3.7890  -13.6930   -3.0810 O   0  0  0  0  0
    6.5460  -11.8030   -3.1260 C   0  0  0  0  0
    7.4450  -11.0860   -2.2720 O   0  0  0  0  0
    5.4150  -10.8630   -3.5460 C   0  0  0  0  0
    5.5300  -14.5610   -4.2250 N   0  0  0  0  0
    4.6850  -15.3530   -5.1150 C   0  0  0  0  0
    3.9140  -16.4610   -4.3900 C   0  0  0  0  0
    2.8140  -16.8110   -4.8080 O   0  0  0  0  0
    5.4870  -15.9010   -6.3010 C   0  0  0  0  0
    5.5630  -14.9150   -7.4630 C   0  0  0  0  0
    4.6870  -14.0600   -7.6310 O   0  0  0  0  0
    6.6060  -15.0380   -8.2770 N   0  0  0  0  0
    4.4760  -16.9840   -3.2980 N   0  0  0  0  0
    3.7650  -17.9470   -2.4460 C   0  0  0  0  0
    2.5350  -17.3010   -1.8130 C   0  0  0  0  0
    1.4540  -17.8910   -1.7840 O   0  0  0  0  0
    4.6820  -18.5090   -1.3530 C   0  0  0  0  0
    5.6020  -19.6340   -1.8050 C   0  0  0  0  0
    4.9280  -21.0030   -1.7570 C   0  0  0  0  0
    5.2350  -21.7850   -0.8290 O   0  0  0  0  0
    4.0900  -21.2980   -2.6360 O   0  0  0  0  0
    2.7170  -16.0790   -1.3160 N   0  0  0  0  0
    1.6280  -15.2920   -0.7450 C   0  0  0  0  0
    0.5810  -14.9520   -1.8120 C   0  0  0  0  0
   -0.6190  -15.1020   -1.5740 O   0  0  0  0  0
    2.1640  -14.0080   -0.0420 C   0  0  0  0  0
    2.9320  -14.3860    1.2310 C   0  0  0  0  0
    1.0280  -13.0320    0.2780 C   0  0  0  0  0
    3.7980  -13.2700    1.8030 C   0  0  0  0  0
    1.0410  -14.5160   -2.9860 N   0  0  0  0  0
    0.1480  -14.1920   -4.1070 C   0  0  0  0  0
   -0.7020  -15.3870   -4.5450 C   0  0  0  0  0
   -1.9090  -15.2470   -4.7520 O   0  0  0  0  0
    0.9390  -13.6420   -5.3000 C   0  0  0  0  0
    1.4950  -12.2320   -5.0910 C   0  0  0  0  0
    2.2910  -11.7500   -6.3020 C   0  0  0  0  0
    1.4340  -11.3960   -7.4360 N   0  0  0  0  0
    0.9650  -10.1750   -7.6890 C   0  0  0  0  0
    0.1890   -9.9670   -8.7430 N   0  0  0  0  0
    1.2600   -9.1540   -6.8900 N   0  0  0  0  0
   -0.0670  -16.5510   -4.6730 N   0  0  0  0  0
   -0.7540  -17.7750   -5.0940 C   0  0  0  0  0
   -1.8640  -18.1660   -4.1180 C   0  0  0  0  0
   -2.9670  -18.5220   -4.5370 O   0  0  0  0  0
    0.2460  -18.9220   -5.2670 C   0  0  0  0  0
   -1.5680  -18.0730   -2.8220 N   0  0  0  0  0
   -2.5270  -18.3940   -1.7600 C   0  0  0  0  0
   -3.7240  -17.4410   -1.7280 C   0  0  0  0  0
   -4.8180  -17.8240   -1.3060 O   0  0  0  0  0
   -1.8300  -18.4010   -0.3980 C   0  0  0  0  0
   -3.5050  -16.2040   -2.1730 N   0  0  0  0  0
   -4.5590  -15.1900   -2.2330 C   0  0  0  0  0
   -5.3800  -15.2860   -3.5200 C   0  0  0  0  0
   -6.3590  -14.5540   -3.6990 O   0  0  0  0  0
   -3.9630  -13.7870   -2.0880 C   0  0  0  0  0
   -3.4010  -13.3900   -0.7200 C   0  0  0  0  0
   -2.5000  -12.1690   -0.8610 C   0  0  0  0  0
   -4.5080  -13.1330    0.3030 C   0  0  0  0  0
   -4.9770  -16.1950   -4.4060 N   0  0  0  0  0
   -5.6620  -16.4090   -5.6790 C   0  0  0  0  0
   -5.2690  -15.3930   -6.7310 C   0  0  0  0  0
   -6.0190  -15.1430   -7.6760 O   0  0  0  0  0
   -4.0850  -14.8060   -6.5640 N   0  0  0  0  0
   -3.5850  -13.7840   -7.4740 C   0  0  0  0  0
   -2.6540  -14.3770   -8.5250 C   0  0  0  0  0
   -2.0870  -15.4560   -8.3310 O   0  0  0  0  0
   -2.8370  -12.6960   -6.6930 C   0  0  0  0  0
   -3.7040  -11.8730   -5.7500 C   0  0  0  0  0
   -2.7530  -10.6780   -4.7820 S   0  0  0  0  0
   -2.1560   -9.5730   -6.0600 C   0  0  0  0  0
   -2.5020  -13.6560   -9.6340 N   0  0  0  0  0
   -1.5280  -13.9990  -10.6660 C   0  0  0  0  0
   -0.1110  -13.8460  -10.1100 C   0  0  0  0  0
    0.1310  -12.9740   -9.2690 O   0  0  0  0  0
   -1.7150  -13.1010  -11.8900 C   0  0  0  0  0
    0.8280  -14.7000  -10.5600 N   0  0  0  0  0
    2.2070  -14.5820  -10.0890 C   0  0  0  0  0
    2.9400  -13.3970  -10.7160 C   0  0  0  0  0
    2.5270  -12.8940  -11.7650 O   0  0  0  0  0
    2.8430  -15.8990  -10.5440 C   0  0  0  0  0
    2.0730  -16.2880  -11.7490 C   0  0  0  0  0
    0.6640  -15.8160  -11.5130 C   0  0  0  0  0
    4.0110  -12.9550  -10.0630 N   0  0  0  0  0
    4.9030  -11.9520  -10.6320 C   0  0  0  0  0
    5.8630  -12.6330  -11.6080 C   0  0  0  0  0
    6.5780  -13.5690  -11.2430 O   0  0  0  0  0
    5.7040  -11.2070   -9.5410 C   0  0  0  0  0
    4.7710  -10.3620   -8.6670 C   0  0  0  0  0
    6.7750  -10.3340  -10.1770 C   0  0  0  0  0
    5.3870   -9.9260   -7.3440 C   0  0  0  0  0
    5.9430  -12.2650  -12.7810 O   0  0  0  0  0
   12.2772   -8.9433    0.9694 H   0  0  0  0  0
   10.7948   -8.4047    0.4316 H   0  0  0  0  0
   11.0435   -8.6752    2.0569 H   0  0  0  0  0
   11.3124  -11.0326    1.6881 H   0  0  0  0  0
    8.8485   -9.9847    0.3173 H   0  0  0  0  0
    9.1152  -10.0649    2.1501 H   0  0  0  0  0
    9.0590  -12.4231    0.3040 H   0  0  0  0  0
    8.7845  -12.1614    3.3137 H   0  0  0  0  0
    8.7867  -13.6774    2.3795 H   0  0  0  0  0
   10.2545  -12.6715    2.4478 H   0  0  0  0  0
    6.8081  -12.8828    1.0852 H   0  0  0  0  0
    6.8059  -11.3668    2.0194 H   0  0  0  0  0
    6.8801  -11.3166    0.2409 H   0  0  0  0  0
   11.7993  -12.6722    0.2980 H   0  0  0  0  0
   12.8373  -12.0160   -2.2493 H   0  0  0  0  0
   13.4017  -14.0755   -0.9324 H   0  0  0  0  0
   13.0124  -14.4148   -2.6532 H   0  0  0  0  0
   11.9776  -15.8682   -1.1947 H   0  0  0  0  0
   12.1795  -12.5664   -4.3924 H   0  0  0  0  0
    9.4973  -11.9834   -5.0455 H   0  0  0  0  0
   11.4141  -13.6419   -6.7258 H   0  0  0  0  0
   12.4209  -11.5500   -6.0000 H   0  0  0  0  0
   10.9906  -10.6545   -6.7136 H   0  0  0  0  0
    9.0998  -13.7356   -7.5337 H   0  0  0  0  0
    9.0000  -11.9579   -7.5023 H   0  0  0  0  0
   10.1062  -12.7676   -8.6388 H   0  0  0  0  0
   13.0258  -12.3092   -8.2311 H   0  0  0  0  0
   11.6356  -11.4389   -8.9246 H   0  0  0  0  0
   12.9654  -10.5307   -8.1644 H   0  0  0  0  0
   11.1598  -15.1117   -4.5291 H   0  0  0  0  0
    8.9467  -16.7006   -5.3244 H   0  0  0  0  0
   10.6856  -18.0718   -5.3099 H   0  0  0  0  0
   10.2086  -18.3365   -3.5431 H   0  0  0  0  0
   12.4992  -18.1225   -3.5293 H   0  0  0  0  0
   11.8616  -16.4808   -3.0860 H   0  0  0  0  0
   12.3817  -18.0443   -6.0323 H   0  0  0  0  0
    9.8325  -15.6038   -2.0133 H   0  0  0  0  0
    7.5717  -17.0061   -0.8789 H   0  0  0  0  0
    8.8655  -14.6039    0.3622 H   0  0  0  0  0
    9.6044  -16.2772    0.3687 H   0  0  0  0  0
    6.8963  -15.5737    1.4933 H   0  0  0  0  0
    8.4402  -15.6773    2.4636 H   0  0  0  0  0
    9.2419  -17.8426    0.9706 H   0  0  0  0  0
    8.0263  -13.7437   -2.2047 H   0  0  0  0  0
    5.4879  -12.6946   -1.4830 H   0  0  0  0  0
    7.0654  -12.1513   -4.0187 H   0  0  0  0  0
    7.7822  -10.3171   -2.7376 H   0  0  0  0  0
    4.7323  -11.3923   -4.2107 H   0  0  0  0  0
    4.8750  -10.5279   -2.6604 H   0  0  0  0  0
    5.8344  -10.0012   -4.0651 H   0  0  0  0  0
    6.5433  -14.5944   -4.3371 H   0  0  0  0  0
    3.9284  -14.6724   -5.5055 H   0  0  0  0  0
    4.9866  -16.8015   -6.6571 H   0  0  0  0  0
    6.5034  -16.0945   -5.9581 H   0  0  0  0  0
    6.7055  -14.4125   -9.0766 H   0  0  0  0  0
    7.3072  -15.7579   -8.1023 H   0  0  0  0  0
    5.4254  -16.7074   -3.0481 H   0  0  0  0  0
    3.4446  -18.7729   -3.0811 H   0  0  0  0  0
    4.0347  -18.9221   -0.5794 H   0  0  0  0  0
    5.3222  -17.6897   -1.0260 H   0  0  0  0  0
    6.4570  -19.6585   -1.1294 H   0  0  0  0  0
    5.8871  -19.4378   -2.8386 H   0  0  0  0  0
    5.8918  -21.3692   -0.2657 H   0  0  0  0  0
    3.6543  -15.6770   -1.3350 H   0  0  0  0  0
    1.1403  -15.8991    0.0177 H   0  0  0  0  0
    2.8456  -13.5037   -0.7270 H   0  0  0  0  0
    3.6010  -15.2053    0.9680 H   0  0  0  0  0
    2.1893  -14.6334    1.9895 H   0  0  0  0  0
    0.5308  -12.7393   -0.6468 H   0  0  0  0  0
    0.3104  -13.5163    0.9403 H   0  0  0  0  0
    1.4371  -12.1482    0.7675 H   0  0  0  0  0
    4.5396  -12.9713    1.0621 H   0  0  0  0  0
    3.1689  -12.4160    2.0540 H   0  0  0  0  0
    4.3027  -13.6273    2.7006 H   0  0  0  0  0
    2.0472  -14.4037   -3.1096 H   0  0  0  0  0
   -0.5332  -13.4215   -3.7458 H   0  0  0  0  0
    0.2524  -13.5939   -6.1452 H   0  0  0  0  0
    1.7918  -14.3037   -5.4517 H   0  0  0  0  0
    2.1616  -12.2512   -4.2288 H   0  0  0  0  0
    0.6564  -11.5523   -4.9400 H   0  0  0  0  0
    2.9457  -12.5623   -6.6175 H   0  0  0  0  0
    2.8421  -10.8571   -6.0069 H   0  0  0  0  0
    1.1764  -12.1422   -8.0820 H   0  0  0  0  0
   -0.0497  -10.7422   -9.3615 H   0  0  0  0  0
    0.8902   -8.2251   -7.0918 H   0  0  0  0  0
    1.8561   -9.2997   -6.0752 H   0  0  0  0  0
    0.9320  -16.5917   -4.4710 H   0  0  0  0  0
   -1.2231  -17.5742   -6.0572 H   0  0  0  0  0
    0.9810  -18.6504   -6.0247 H   0  0  0  0  0
    0.7511  -19.1080   -4.3192 H   0  0  0  0  0
   -0.2849  -19.8211   -5.5798 H   0  0  0  0  0
   -0.6325  -17.7648   -2.5568 H   0  0  0  0  0
   -2.9157  -19.3879   -1.9819 H   0  0  0  0  0
   -1.0378  -19.1496   -0.4006 H   0  0  0  0  0
   -1.4016  -17.4174   -0.2055 H   0  0  0  0  0
   -2.5559  -18.6409    0.3789 H   0  0  0  0  0
   -2.5662  -15.9541   -2.4839 H   0  0  0  0  0
   -5.2352  -15.3799   -1.3995 H   0  0  0  0  0
   -4.7876  -13.0991   -2.2753 H   0  0  0  0  0
   -3.1142  -13.7587   -2.7713 H   0  0  0  0  0
   -2.8116  -14.2273   -0.3463 H   0  0  0  0  0
   -1.6752  -12.4035   -1.5339 H   0  0  0  0  0
   -3.0770  -11.3382   -1.2671 H   0  0  0  0  0
   -2.1057  -11.8951    0.1176 H   0  0  0  0  0
   -5.1469  -12.3237   -0.0505 H   0  0  0  0  0
   -5.1021  -14.0382    0.4287 H   0  0  0  0  0
   -4.0614  -12.8546    1.2575 H   0  0  0  0  0
   -4.1588  -16.7636   -4.1877 H   0  0  0  0  0
   -6.7334  -16.3121   -5.5034 H   0  0  0  0  0
   -5.3844  -17.3968   -6.0469 H   0  0  0  0  0
   -3.5073  -15.0821   -5.7700 H   0  0  0  0  0
   -4.4465  -13.3490   -7.9807 H   0  0  0  0  0
   -2.4271  -12.0045   -7.4291 H   0  0  0  0  0
   -2.0947  -13.2036   -6.0770 H   0  0  0  0  0
   -4.1827  -12.5605   -5.0527 H   0  0  0  0  0
   -4.4193  -11.3167   -6.3558 H   0  0  0  0  0
   -1.5477  -10.1346   -6.7690 H   0  0  0  0  0
   -3.0047   -9.1284   -6.5797 H   0  0  0  0  0
   -1.5536   -8.7862   -5.6059 H   0  0  0  0  0
   -3.0886  -12.8323   -9.7677 H   0  0  0  0  0
   -1.6817  -15.0346  -10.9694 H   0  0  0  0  0
   -2.7203  -13.2370  -12.2887 H   0  0  0  0  0
   -1.5757  -12.0596  -11.5997 H   0  0  0  0  0
   -0.9818  -13.3686  -12.6508 H   0  0  0  0  0
    2.2574  -14.4097   -9.0139 H   0  0  0  0  0
    2.7991  -16.6628   -9.7677 H   0  0  0  0  0
    3.9059  -15.7863  -10.7579 H   0  0  0  0  0
    2.1064  -17.3660  -11.9071 H   0  0  0  0  0
    2.4941  -15.8381  -12.6481 H   0  0  0  0  0
    0.1670  -15.5092  -12.4333 H   0  0  0  0  0
    0.0192  -16.6046  -11.1252 H   0  0  0  0  0
    4.2144  -13.3290   -9.1361 H   0  0  0  0  0
    4.2955  -11.2118  -11.1528 H   0  0  0  0  0
    6.4160  -13.7507  -10.3144 H   0  0  0  0  0
    6.1903  -11.9461   -8.9044 H   0  0  0  0  0
    3.9028  -10.9777   -8.4319 H   0  0  0  0  0
    4.5348   -9.4573   -9.2272 H   0  0  0  0  0
    7.4556  -10.9592  -10.7549 H   0  0  0  0  0
    6.3034   -9.6037  -10.8346 H   0  0  0  0  0
    7.3307   -9.8157   -9.3956 H   0  0  0  0  0
    5.6610  -10.8074   -6.7643 H   0  0  0  0  0
    6.2764   -9.3268   -7.5388 H   0  0  0  0  0
    4.6629   -9.3329   -6.7855 H   0  0  0  0  0
  1  2  1  0  0  0
  2  3  1  0  0  0
  2  5  1  0  0  0
  3  4  2  0  0  0
  3  9  1  0  0  0
  5  6  1  0  0  0
  6  7  1  0  0  0
  6  8  1  0  0  0
  9 10  1  0  0  0
 10 11  1  0  0  0
 10 13  1  0  0  0
 11 12  2  0  0  0
 11 15  1  0  0  0
 13 14  1  0  0  0
 15 16  1  0  0  0
 16 17  1  0  0  0
 16 19  1  0  0  0
 17 18  2  0  0  0
 17 23  1  0  0  0
 19 20  1  0  0  0
 19 21  1  0  0  0
 20 22  1  0  0  0
 23 24  1  0  0  0
 24 25  1  0  0  0
 24 27  1  0  0  0
 25 26  2  0  0  0
 25 32  1  0  0  0
 27 28  1  0  0  0
 28 29  1  0  0  0
 29 30  2  0  0  0
 29 31  1  0  0  0
 32 33  1  0  0  0
 33 34  1  0  0  0
 33 36  1  0  0  0
 34 35  2  0  0  0
 34 41  1  0  0  0
 36 37  1  0  0  0
 37 38  1  0  0  0
 38 39  1  0  0  0
 38 40  2  0  0  0
 41 42  1  0  0  0
 42 43  1  0  0  0
 42 45  1  0  0  0
 43 44  2  0  0  0
 43 48  1  0  0  0
 45 46  1  0  0  0
 45 47  1  0  0  0
 48 49  1  0  0  0
 49 50  1  0  0  0
 49 52  1  0  0  0
 50 51  2  0  0  0
 50 56  1  0  0  0
 52 53  1  0  0  0
 53 54  2  0  0  0
 53 55  1  0  0  0
 56 57  1  0  0  0
 57 58  1  0  0  0
 57 60  1  0  0  0
 58 59  2  0  0  0
 58 65  1  0  0  0
 60 61  1  0  0  0
 61 62  1  0  0  0
 62 63  1  0  0  0
 62 64  2  0  0  0
 65 66  1  0  0  0
 66 67  1  0  0  0
 66 69  1  0  0  0
 67 68  2  0  0  0
 67 73  1  0  0  0
 69 70  1  0  0  0
 69 71  1  0  0  0
 70 72  1  0  0  0
 73 74  1  0  0  0
 74 75  1  0  0  0
 74 77  1  0  0  0
 75 76  2  0  0  0
 75 84  1  0  0  0
 77 78  1  0  0  0
 78 79  1  0  0  0
 79 80  1  0  0  0
 80 81  1  0  0  0
 81 82  2  0  0  0
 81 83  1  0  0  0
 84 85  1  0  0  0
 85 86  1  0  0  0
 85 88  1  0  0  0
 86 87  2  0  0  0
 86 89  1  0  0  0
 89 90  1  0  0  0
 90 91  1  0  0  0
 90 93  1  0  0  0
 91 92  2  0  0  0
 91 94  1  0  0  0
 94 95  1  0  0  0
 95 96  1  0  0  0
 95 98  1  0  0  0
 96 97  2  0  0  0
 96102  1  0  0  0
 98 99  1  0  0  0
 99100  1  0  0  0
 99101  1  0  0  0
102103  1  0  0  0
103104  1  0  0  0
104105  2  0  0  0
104106  1  0  0  0
106107  1  0  0  0
107108  1  0  0  0
107110  1  0  0  0
108109  2  0  0  0
108114  1  0  0  0
110111  1  0  0  0
111112  1  0  0  0
112113  1  0  0  0
114115  1  0  0  0
115116  1  0  0  0
115118  1  0  0  0
116117  2  0  0  0
116119  1  0  0  0
119120  1  0  0  0
119125  1  0  0  0
120121  1  0  0  0
120123  1  0  0  0
121122  2  0  0  0
121126  1  0  0  0
123124  1  0  0  0
124125  1  0  0  0
126127  1  0  0  0
127128  1  0  0  0
127130  1  0  0  0
128129  1  0  0  0
128134  2  0  0  0
130131  1  0  0  0
130132  1  0  0  0
131133  1  0  0  0
  1135  1  0  0  0
  1136  1  0  0  0
  1137  1  0  0  0
  2138  1  0  0  0
  5139  1  0  0  0
  5140  1  0  0  0
  6141  1  0  0  0
  7142  1  0  0  0
  7143  1  0  0  0
  7144  1  0  0  0
  8145  1  0  0  0
  8146  1  0  0  0
  8147  1  0  0  0
  9148  1  0  0  0
 10149  1  0  0  0
 13150  1  0  0  0
 13151  1  0  0  0
 14152  1  0  0  0
 15153  1  0  0  0
 16154  1  0  0  0
 19155  1  0  0  0
 20156  1  0  0  0
 20157  1  0  0  0
 21158  1  0  0  0
 21159  1  0  0  0
 21160  1  0  0  0
 22161  1  0  0  0
 22162  1  0  0  0
 22163  1  0  0  0
 23164  1  0  0  0
 24165  1  0  0  0
 27166  1  0  0  0
 27167  1  0  0  0
 28168  1  0  0  0
 28169  1  0  0  0
 31170  1  0  0  0
 32171  1  0  0  0
 33172  1  0  0  0
 36173  1  0  0  0
 36174  1  0  0  0
 37175  1  0  0  0
 37176  1  0  0  0
 39177  1  0  0  0
 41178  1  0  0  0
 42179  1  0  0  0
 45180  1  0  0  0
 46181  1  0  0  0
 47182  1  0  0  0
 47183  1  0  0  0
 47184  1  0  0  0
 48185  1  0  0  0
 49186  1  0  0  0
 52187  1  0  0  0
 52188  1  0  0  0
 55189  1  0  0  0
 55190  1  0  0  0
 56191  1  0  0  0
 57192  1  0  0  0
 60193  1  0  0  0
 60194  1  0  0  0
 61195  1  0  0  0
 61196  1  0  0  0
 63197  1  0  0  0
 65198  1  0  0  0
 66199  1  0  0  0
 69200  1  0  0  0
 70201  1  0  0  0
 70202  1  0  0  0
 71203  1  0  0  0
 71204  1  0  0  0
 71205  1  0  0  0
 72206  1  0  0  0
 72207  1  0  0  0
 72208  1  0  0  0
 73209  1  0  0  0
 74210  1  0  0  0
 77211  1  0  0  0
 77212  1  0  0  0
 78213  1  0  0  0
 78214  1  0  0  0
 79215  1  0  0  0
 79216  1  0  0  0
 80217  1  0  0  0
 82218  1  0  0  0
 83219  1  0  0  0
 83220  1  0  0  0
 84221  1  0  0  0
 85222  1  0  0  0
 88223  1  0  0  0
 88224  1  0  0  0
 88225  1  0  0  0
 89226  1  0  0  0
 90227  1  0  0  0
 93228  1  0  0  0
 93229  1  0  0  0
 93230  1  0  0  0
 94231  1  0  0  0
 95232  1  0  0  0
 98233  1  0  0  0
 98234  1  0  0  0
 99235  1  0  0  0
100236  1  0  0  0
100237  1  0  0  0
100238  1  0  0  0
101239  1  0  0  0
101240  1  0  0  0
101241  1  0  0  0
102242  1  0  0  0
103243  1  0  0  0
103244  1  0  0  0
106245  1  0  0  0
107246  1  0  0  0
110247  1  0  0  0
110248  1  0  0  0
111249  1  0  0  0
111250  1  0  0  0
113251  1  0  0  0
113252  1  0  0  0
113253  1  0  0  0
114254  1  0  0  0
115255  1  0  0  0
118256  1  0  0  0
118257  1  0  0  0
118258  1  0  0  0
120259  1  0  0  0
123260  1  0  0  0
123261  1  0  0  0
124262  1  0  0  0
124263  1  0  0  0
125264  1  0  0  0
125265  1  0  0  0
126266  1  0  0  0
127267  1  0  0  0
129268  1  0  0  0
130269  1  0  0  0
131270  1  0  0  0
131271  1  0  0  0
132272  1  0  0  0
132273  1  0  0  0
132274  1  0  0  0
133275  1  0  0  0
133276  1  0  0  0
133277  1  0  0  0
M  END
$$$$
