### 
### Created by X-TOOL on Mon Sep 10 21:13:06 2018
### 

@<TRIPOS>MOLECULE
3plu_ligand
  274   274     1     0     0
SMALL
GAST_HUCK


@<TRIPOS>ATOM
      1 N          11.2690   -8.9950    1.1150 N.4       1 LEU         0.2379
      2 CA         10.8180  -10.4010    0.9500 C.3       1 LEU         0.0652
      3 C          11.1800  -10.8810   -0.4430 C.2       1 LEU         0.2268
      4 O          11.0060  -10.1510   -1.4140 O.2       1 LEU        -0.3907
      5 CB          9.3060  -10.4930    1.1660 C.3       1 LEU         0.0102
      6 CG          8.7040  -11.9000    1.1920 C.3       1 LEU        -0.0394
      7 CD1         9.1650  -12.6560    2.4200 C.3       1 LEU        -0.0623
      8 CD2         7.1930  -11.8640    1.1300 C.3       1 LEU        -0.0623
      9 N          11.6800  -12.1090   -0.5440 N.am      1 SER        -0.2589
     10 CA         12.0630  -12.6680   -1.8450 C.3       1 SER         0.1540
     11 C          10.8890  -12.6930   -2.8210 C.2       1 SER         0.2062
     12 O           9.7250  -12.7350   -2.4080 O.2       1 SER        -0.3943
     13 CB         12.6190  -14.0870   -1.6910 C.3       1 SER         0.0843
     14 OG         11.6050  -14.9880   -1.2840 O.3       1 SER        -0.3903
     15 N          11.2040  -12.6800   -4.1170 N.am      1 ILE        -0.2634
     16 CA         10.1820  -12.8250   -5.1500 C.3       1 ILE         0.1335
     17 C           9.4210  -14.1440   -4.9570 C.2       1 ILE         0.2042
     18 O           8.1990  -14.1870   -5.0820 O.2       1 ILE        -0.3944
     19 CB         10.7800  -12.7660   -6.5890 C.3       1 ILE        -0.0037
     20 CG1        11.6520  -11.5190   -6.7720 C.3       1 ILE        -0.0491
     21 CG2         9.6650  -12.8100   -7.6430 C.3       1 ILE        -0.0582
     22 CD1        12.3720  -11.4440   -8.1210 C.3       1 ILE        -0.0648
     23 N          10.1500  -15.2110   -4.6330 N.am      1 GLU        -0.2636
     24 CA          9.5330  -16.5270   -4.4220 C.3       1 GLU         0.1325
     25 C           8.5360  -16.5760   -3.2590 C.2       1 GLU         0.2040
     26 O           7.4300  -17.1020   -3.4160 O.2       1 GLU        -0.3944
     27 CB         10.5770  -17.6540   -4.3090 C.3       1 GLU        -0.0008
     28 CG         11.9720  -17.2310   -3.8690 C.3       1 GLU         0.0044
     29 CD         12.7830  -16.6120   -4.9950 C.2       1 GLU         0.0350
     30 OE1        13.3260  -15.5080   -4.7910 O.co2     1 GLU        -0.5690
     31 OE2        12.8690  -17.2190   -6.0870 O.co2     1 GLU        -0.5690
     32 N           8.9050  -16.0180   -2.1060 N.am      1 GLU        -0.2636
     33 CA          7.9800  -16.0000   -0.9750 C.3       1 GLU         0.1325
     34 C           6.8060  -15.0510   -1.2260 C.2       1 GLU         0.2041
     35 O           5.6900  -15.3180   -0.7800 O.2       1 GLU        -0.3944
     36 CB          8.6930  -15.6800    0.3420 C.3       1 GLU        -0.0008
     37 CG          7.8780  -16.0350    1.6010 C.3       1 GLU         0.0044
     38 CD          7.6580  -17.5350    1.7910 C.2       1 GLU         0.0350
     39 OE1         8.5270  -18.3330    1.3830 O.co2     1 GLU        -0.5690
     40 OE2         6.6160  -17.9050    2.3690 O.co2     1 GLU        -0.5690
     41 N           7.0620  -13.9550   -1.9480 N.am      1 THR        -0.2613
     42 CA          5.9950  -13.0500   -2.3800 C.3       1 THR         0.1565
     43 C           5.0040  -13.7960   -3.2700 C.2       1 THR         0.2066
     44 O           3.7890  -13.6930   -3.0810 O.2       1 THR        -0.3943
     45 CB          6.5460  -11.8030   -3.1260 C.3       1 THR         0.0924
     46 OG1         7.4450  -11.0860   -2.2720 O.3       1 THR        -0.3874
     47 CG2         5.4150  -10.8630   -3.5460 C.3       1 THR        -0.0346
     48 N           5.5300  -14.5610   -4.2250 N.am      1 ASN        -0.2615
     49 CA          4.6850  -15.3530   -5.1150 C.3       1 ASN         0.1476
     50 C           3.9140  -16.4610   -4.3900 C.2       1 ASN         0.2063
     51 O           2.8140  -16.8110   -4.8080 O.2       1 ASN        -0.3942
     52 CB          5.4870  -15.9010   -6.3010 C.3       1 ASN         0.0773
     53 CG          5.5630  -14.9150   -7.4630 C.2       1 ASN         0.1780
     54 OD1         4.6870  -14.0600   -7.6310 O.2       1 ASN        -0.3970
     55 ND2         6.6060  -15.0380   -8.2770 N.am      1 ASN        -0.3007
     56 N           4.4760  -16.9840   -3.2980 N.am      1 GLU        -0.2635
     57 CA          3.7650  -17.9470   -2.4460 C.3       1 GLU         0.1325
     58 C           2.5350  -17.3010   -1.8130 C.2       1 GLU         0.2040
     59 O           1.4540  -17.8910   -1.7840 O.2       1 GLU        -0.3944
     60 CB          4.6820  -18.5090   -1.3530 C.3       1 GLU        -0.0008
     61 CG          5.6020  -19.6340   -1.8050 C.3       1 GLU         0.0044
     62 CD          4.9280  -21.0030   -1.7570 C.2       1 GLU         0.0350
     63 OE1         5.2350  -21.7850   -0.8290 O.co2     1 GLU        -0.5690
     64 OE2         4.0900  -21.2980   -2.6360 O.co2     1 GLU        -0.5690
     65 N           2.7170  -16.0790   -1.3160 N.am      1 ILE        -0.2635
     66 CA          1.6280  -15.2920   -0.7450 C.3       1 ILE         0.1335
     67 C           0.5810  -14.9520   -1.8120 C.2       1 ILE         0.2042
     68 O          -0.6190  -15.1020   -1.5740 O.2       1 ILE        -0.3944
     69 CB          2.1640  -14.0080   -0.0420 C.3       1 ILE        -0.0037
     70 CG1         2.9320  -14.3860    1.2310 C.3       1 ILE        -0.0491
     71 CG2         1.0280  -13.0320    0.2780 C.3       1 ILE        -0.0582
     72 CD1         3.7980  -13.2700    1.8030 C.3       1 ILE        -0.0648
     73 N           1.0410  -14.5160   -2.9860 N.am      1 ARG        -0.2637
     74 CA          0.1480  -14.1920   -4.1070 C.3       1 ARG         0.1311
     75 C          -0.7020  -15.3870   -4.5450 C.2       1 ARG         0.2039
     76 O          -1.9090  -15.2470   -4.7520 O.2       1 ARG        -0.3944
     77 CB          0.9390  -13.6420   -5.3000 C.3       1 ARG        -0.0092
     78 CG          1.4950  -12.2320   -5.0910 C.3       1 ARG        -0.0156
     79 CD          2.2910  -11.7500   -6.3020 C.3       1 ARG         0.0627
     80 NE          1.4340  -11.3960   -7.4360 N.pl3     1 ARG        -0.2723
     81 CZ          0.9650  -10.1750   -7.6890 C.cat     1 ARG         0.2882
     82 NH1         0.1890   -9.9670   -8.7430 N.pl3     1 ARG        -0.2849
     83 NH2         1.2600   -9.1540   -6.8900 N.pl3     1 ARG        -0.2849
     84 N          -0.0670  -16.5510   -4.6730 N.am      1 GLU        -0.2640
     85 CA         -0.7540  -17.7750   -5.0940 C.3       1 GLU         0.1282
     86 C          -1.8640  -18.1660   -4.1180 C.2       1 GLU         0.2036
     87 O          -2.9670  -18.5220   -4.5370 O.2       1 GLU        -0.3944
     88 CB          0.2460  -18.9220   -5.2670 C.3       1 GLU        -0.0244
     89 N          -1.5680  -18.0730   -2.8220 N.am      1 LYS        -0.2640
     90 CA         -2.5270  -18.3940   -1.7600 C.3       1 LYS         0.1282
     91 C          -3.7240  -17.4410   -1.7280 C.2       1 LYS         0.2036
     92 O          -4.8180  -17.8240   -1.3060 O.2       1 LYS        -0.3944
     93 CB         -1.8300  -18.4010   -0.3980 C.3       1 LYS        -0.0244
     94 N          -3.5050  -16.2040   -2.1730 N.am      1 LEU        -0.2637
     95 CA         -4.5590  -15.1900   -2.2330 C.3       1 LEU         0.1312
     96 C          -5.3800  -15.2860   -3.5200 C.2       1 LEU         0.2037
     97 O          -6.3590  -14.5540   -3.6990 O.2       1 LEU        -0.3944
     98 CB         -3.9630  -13.7870   -2.0880 C.3       1 LEU        -0.0101
     99 CG         -3.4010  -13.3900   -0.7200 C.3       1 LEU        -0.0425
    100 CD1        -2.5000  -12.1690   -0.8610 C.3       1 LEU        -0.0625
    101 CD2        -4.5080  -13.1330    0.3030 C.3       1 LEU        -0.0625
    102 N          -4.9770  -16.1950   -4.4060 N.am      1 GLY        -0.2664
    103 CA         -5.6620  -16.4090   -5.6790 C.3       1 GLY         0.1201
    104 C          -5.2690  -15.3930   -6.7310 C.2       1 GLY         0.2007
    105 O          -6.0190  -15.1430   -7.6760 O.2       1 GLY        -0.3947
    106 N          -4.0850  -14.8060   -6.5640 N.am      1 MET        -0.2639
    107 CA         -3.5850  -13.7840   -7.4740 C.3       1 MET         0.1317
    108 C          -2.6540  -14.3770   -8.5250 C.2       1 MET         0.2039
    109 O          -2.0870  -15.4560   -8.3310 O.2       1 MET        -0.3944
    110 CB         -2.8370  -12.6960   -6.6930 C.3       1 MET        -0.0034
    111 CG         -3.7040  -11.8730   -5.7500 C.3       1 MET        -0.0024
    112 SD         -2.7530  -10.6780   -4.7820 S.3       1 MET        -0.1639
    113 CE         -2.1560   -9.5730   -6.0600 C.3       1 MET        -0.0181
    114 N          -2.5020  -13.6560   -9.6340 N.am      1 LYS        -0.2640
    115 CA         -1.5280  -13.9990  -10.6660 C.3       1 LYS         0.1284
    116 C          -0.1110  -13.8460  -10.1100 C.2       1 LYS         0.2061
    117 O           0.1310  -12.9740   -9.2690 O.2       1 LYS        -0.3942
    118 CB         -1.7150  -13.1010  -11.8900 C.3       1 LYS        -0.0244
    119 N           0.8280  -14.7000  -10.5600 N.am      1 PRO        -0.2498
    120 CA          2.2070  -14.5820  -10.0890 C.3       1 PRO         0.1337
    121 C           2.9400  -13.3970  -10.7160 C.2       1 PRO         0.2036
    122 O           2.5270  -12.8940  -11.7650 O.2       1 PRO        -0.3944
    123 CB          2.8430  -15.8990  -10.5440 C.3       1 PRO        -0.0104
    124 CG          2.0730  -16.2880  -11.7490 C.3       1 PRO        -0.0281
    125 CD          0.6640  -15.8160  -11.5130 C.3       1 PRO         0.0369
    126 N           4.0110  -12.9550  -10.0630 N.am      1 ILE        -0.2692
    127 CA          4.9030  -11.9520  -10.6320 C.3       1 ILE         0.0969
    128 C           5.8630  -12.6330  -11.6080 C.2       1 ILE         0.0604
    129 O           6.5780  -13.5690  -11.2430 O.co2     1 ILE        -0.5666
    130 CB          5.7040  -11.2070   -9.5410 C.3       1 ILE        -0.0092
    131 CG1         4.7710  -10.3620   -8.6670 C.3       1 ILE        -0.0497
    132 CG2         6.7750  -10.3340  -10.1770 C.3       1 ILE        -0.0588
    133 CD1         5.3870   -9.9260   -7.3440 C.3       1 ILE        -0.0649
    134 OXT         5.9430  -12.2650  -12.7810 O.co2     1 ILE        -0.5666
    135 H          12.2772   -8.9433    0.9694 H         1 LEU         0.2015
    136 H          10.7948   -8.4047    0.4316 H         1 LEU         0.2015
    137 H          11.0435   -8.6752    2.0569 H         1 LEU         0.2015
    138 H          11.3124  -11.0326    1.6881 H         1 LEU         0.1098
    139 H           8.8485   -9.9847    0.3173 H         1 LEU         0.0348
    140 H           9.1152  -10.0649    2.1501 H         1 LEU         0.0348
    141 H           9.0590  -12.4231    0.3040 H         1 LEU         0.0299
    142 H           8.7845  -12.1614    3.3137 H         1 LEU         0.0232
    143 H           8.7867  -13.6774    2.3795 H         1 LEU         0.0232
    144 H          10.2545  -12.6715    2.4478 H         1 LEU         0.0232
    145 H           6.8081  -12.8828    1.0852 H         1 LEU         0.0232
    146 H           6.8059  -11.3668    2.0194 H         1 LEU         0.0232
    147 H           6.8801  -11.3166    0.2409 H         1 LEU         0.0232
    148 H          11.7993  -12.6722    0.2980 H         1 SER         0.1885
    149 H          12.8373  -12.0160   -2.2493 H         1 SER         0.0823
    150 H          13.4017  -14.0755   -0.9324 H         1 SER         0.0606
    151 H          13.0124  -14.4148   -2.6532 H         1 SER         0.0606
    152 H          10.9063  -15.0003   -1.9422 H         1 SER         0.2097
    153 H          12.1795  -12.5664   -4.3924 H         1 ILE         0.1883
    154 H           9.4973  -11.9834   -5.0455 H         1 ILE         0.0803
    155 H          11.4141  -13.6419   -6.7258 H         1 ILE         0.0345
    156 H          12.4209  -11.5500   -6.0000 H         1 ILE         0.0267
    157 H          10.9906  -10.6545   -6.7136 H         1 ILE         0.0267
    158 H           9.0998  -13.7356   -7.5337 H         1 ILE         0.0235
    159 H           9.0000  -11.9579   -7.5023 H         1 ILE         0.0235
    160 H          10.1062  -12.7676   -8.6388 H         1 ILE         0.0235
    161 H          13.0258  -12.3092   -8.2311 H         1 ILE         0.0230
    162 H          11.6356  -11.4389   -8.9246 H         1 ILE         0.0230
    163 H          12.9654  -10.5307   -8.1644 H         1 ILE         0.0230
    164 H          11.1598  -15.1117   -4.5291 H         1 GLU         0.1883
    165 H           8.9467  -16.7006   -5.3244 H         1 GLU         0.0801
    166 H          10.6856  -18.0718   -5.3099 H         1 GLU         0.0330
    167 H          10.2086  -18.3365   -3.5431 H         1 GLU         0.0330
    168 H          12.4992  -18.1225   -3.5293 H         1 GLU         0.0433
    169 H          11.8616  -16.4808   -3.0860 H         1 GLU         0.0433
    170 H           9.8325  -15.6038   -2.0133 H         1 GLU         0.1883
    171 H           7.5717  -17.0061   -0.8789 H         1 GLU         0.0801
    172 H           8.8655  -14.6039    0.3622 H         1 GLU         0.0330
    173 H           9.6044  -16.2772    0.3687 H         1 GLU         0.0330
    174 H           6.8963  -15.5737    1.4933 H         1 GLU         0.0433
    175 H           8.4402  -15.6773    2.4636 H         1 GLU         0.0433
    176 H           8.0263  -13.7437   -2.2047 H         1 THR         0.1884
    177 H           5.4879  -12.6946   -1.4830 H         1 THR         0.0826
    178 H           7.0654  -12.1513   -4.0187 H         1 THR         0.0639
    179 H           8.1755  -11.6582   -2.0257 H         1 THR         0.2101
    180 H           4.7323  -11.3923   -4.2107 H         1 THR         0.0257
    181 H           4.8750  -10.5279   -2.6604 H         1 THR         0.0257
    182 H           5.8344  -10.0012   -4.0651 H         1 THR         0.0257
    183 H           6.5433  -14.5944   -4.3371 H         1 ASN         0.1885
    184 H           3.9284  -14.6724   -5.5055 H         1 ASN         0.0826
    185 H           4.9866  -16.8015   -6.6571 H         1 ASN         0.0551
    186 H           6.5034  -16.0945   -5.9581 H         1 ASN         0.0551
    187 H           6.7055  -14.4125   -9.0766 H         1 ASN         0.1814
    188 H           7.3072  -15.7579   -8.1023 H         1 ASN         0.1814
    189 H           5.4254  -16.7074   -3.0481 H         1 GLU         0.1883
    190 H           3.4446  -18.7729   -3.0811 H         1 GLU         0.0801
    191 H           4.0347  -18.9221   -0.5794 H         1 GLU         0.0330
    192 H           5.3222  -17.6897   -1.0260 H         1 GLU         0.0330
    193 H           6.4570  -19.6585   -1.1294 H         1 GLU         0.0433
    194 H           5.8871  -19.4378   -2.8386 H         1 GLU         0.0433
    195 H           3.6543  -15.6770   -1.3350 H         1 ILE         0.1883
    196 H           1.1403  -15.8991    0.0177 H         1 ILE         0.0803
    197 H           2.8456  -13.5037   -0.7270 H         1 ILE         0.0345
    198 H           3.6010  -15.2053    0.9680 H         1 ILE         0.0267
    199 H           2.1893  -14.6334    1.9895 H         1 ILE         0.0267
    200 H           0.5308  -12.7393   -0.6468 H         1 ILE         0.0235
    201 H           0.3104  -13.5163    0.9403 H         1 ILE         0.0235
    202 H           1.4371  -12.1482    0.7675 H         1 ILE         0.0235
    203 H           4.5396  -12.9713    1.0621 H         1 ILE         0.0230
    204 H           3.1689  -12.4160    2.0540 H         1 ILE         0.0230
    205 H           4.3027  -13.6273    2.7006 H         1 ILE         0.0230
    206 H           2.0472  -14.4037   -3.1096 H         1 ARG         0.1883
    207 H          -0.5332  -13.4215   -3.7458 H         1 ARG         0.0800
    208 H           0.2524  -13.5939   -6.1452 H         1 ARG         0.0313
    209 H           1.7918  -14.3037   -5.4517 H         1 ARG         0.0313
    210 H           2.1616  -12.2512   -4.2288 H         1 ARG         0.0301
    211 H           0.6564  -11.5523   -4.9400 H         1 ARG         0.0301
    212 H           2.9457  -12.5623   -6.6175 H         1 ARG         0.0689
    213 H           2.8421  -10.8571   -6.0069 H         1 ARG         0.0689
    214 H           1.1764  -12.1422   -8.0820 H         1 ARG         0.2642
    215 H          -0.0497  -10.7422   -9.3615 H         1 ARG         0.2615
    216 H          -0.1695   -9.0317   -8.9357 H         1 ARG         0.2615
    217 H           1.8518   -9.3008   -6.0723 H         1 ARG         0.2615
    218 H           0.8946   -8.2240   -7.0948 H         1 ARG         0.2615
    219 H           0.9320  -16.5917   -4.4710 H         1 GLU         0.1883
    220 H          -1.2231  -17.5742   -6.0572 H         1 GLU         0.0797
    221 H           0.9810  -18.6504   -6.0247 H         1 GLU         0.0277
    222 H           0.7511  -19.1080   -4.3192 H         1 GLU         0.0277
    223 H          -0.2849  -19.8211   -5.5798 H         1 GLU         0.0277
    224 H          -0.6325  -17.7648   -2.5568 H         1 LYS         0.1883
    225 H          -2.9157  -19.3879   -1.9819 H         1 LYS         0.0797
    226 H          -1.0378  -19.1496   -0.4006 H         1 LYS         0.0277
    227 H          -1.4016  -17.4174   -0.2055 H         1 LYS         0.0277
    228 H          -2.5559  -18.6409    0.3789 H         1 LYS         0.0277
    229 H          -2.5662  -15.9541   -2.4839 H         1 LEU         0.1883
    230 H          -5.2352  -15.3799   -1.3995 H         1 LEU         0.0800
    231 H          -4.7876  -13.0991   -2.2753 H         1 LEU         0.0315
    232 H          -3.1142  -13.7587   -2.7713 H         1 LEU         0.0315
    233 H          -2.8116  -14.2273   -0.3463 H         1 LEU         0.0298
    234 H          -1.6752  -12.4035   -1.5339 H         1 LEU         0.0232
    235 H          -3.0770  -11.3382   -1.2671 H         1 LEU         0.0232
    236 H          -2.1057  -11.8951    0.1176 H         1 LEU         0.0232
    237 H          -5.1469  -12.3237   -0.0505 H         1 LEU         0.0232
    238 H          -5.1021  -14.0382    0.4287 H         1 LEU         0.0232
    239 H          -4.0614  -12.8546    1.2575 H         1 LEU         0.0232
    240 H          -4.1588  -16.7636   -4.1877 H         1 GLY         0.1881
    241 H          -6.7334  -16.3121   -5.5034 H         1 GLY         0.0763
    242 H          -5.3844  -17.3968   -6.0469 H         1 GLY         0.0763
    243 H          -3.5073  -15.0821   -5.7700 H         1 MET         0.1883
    244 H          -4.4465  -13.3490   -7.9807 H         1 MET         0.0800
    245 H          -2.4271  -12.0045   -7.4291 H         1 MET         0.0320
    246 H          -2.0947  -13.2036   -6.0770 H         1 MET         0.0320
    247 H          -4.1827  -12.5605   -5.0527 H         1 MET         0.0378
    248 H          -4.4193  -11.3167   -6.3558 H         1 MET         0.0378
    249 H          -1.5477  -10.1346   -6.7690 H         1 MET         0.0340
    250 H          -3.0047   -9.1284   -6.5797 H         1 MET         0.0340
    251 H          -1.5536   -8.7862   -5.6059 H         1 MET         0.0340
    252 H          -3.0886  -12.8323   -9.7677 H         1 LYS         0.1883
    253 H          -1.6817  -15.0346  -10.9694 H         1 LYS         0.0797
    254 H          -2.7203  -13.2370  -12.2887 H         1 LYS         0.0277
    255 H          -1.5757  -12.0596  -11.5997 H         1 LYS         0.0277
    256 H          -0.9818  -13.3686  -12.6508 H         1 LYS         0.0277
    257 H           2.2574  -14.4097   -9.0139 H         1 PRO         0.0802
    258 H           2.7991  -16.6628   -9.7677 H         1 PRO         0.0313
    259 H           3.9059  -15.7863  -10.7579 H         1 PRO         0.0313
    260 H           2.1064  -17.3660  -11.9071 H         1 PRO         0.0287
    261 H           2.4941  -15.8381  -12.6481 H         1 PRO         0.0287
    262 H           0.1670  -15.5092  -12.4333 H         1 PRO         0.0524
    263 H           0.0192  -16.6046  -11.1252 H         1 PRO         0.0524
    264 H           4.2144  -13.3290   -9.1361 H         1 ILE         0.1875
    265 H           4.2955  -11.2118  -11.1528 H         1 ILE         0.0729
    266 H           6.1903  -11.9461   -8.9044 H         1 ILE         0.0338
    267 H           3.9028  -10.9777   -8.4319 H         1 ILE         0.0267
    268 H           4.5348   -9.4573   -9.2272 H         1 ILE         0.0267
    269 H           7.4556  -10.9592  -10.7549 H         1 ILE         0.0234
    270 H           6.3034   -9.6037  -10.8346 H         1 ILE         0.0234
    271 H           7.3307   -9.8157   -9.3956 H         1 ILE         0.0234
    272 H           5.6610  -10.8074   -6.7643 H         1 ILE         0.0230
    273 H           6.2764   -9.3268   -7.5388 H         1 ILE         0.0230
    274 H           4.6629   -9.3329   -6.7855 H         1 ILE         0.0230
@<TRIPOS>BOND
     1    1    2 1  
     2    2    3 1  
     3    2    5 1  
     4    3    4 2  
     5    3    9 am 
     6    5    6 1  
     7    6    7 1  
     8    6    8 1  
     9    9   10 1  
    10   10   11 1  
    11   10   13 1  
    12   11   12 2  
    13   11   15 am 
    14   13   14 1  
    15   15   16 1  
    16   16   17 1  
    17   16   19 1  
    18   17   18 2  
    19   17   23 am 
    20   19   20 1  
    21   19   21 1  
    22   20   22 1  
    23   23   24 1  
    24   24   25 1  
    25   24   27 1  
    26   25   26 2  
    27   25   32 am 
    28   27   28 1  
    29   28   29 1  
    30   29   30 ar 
    31   29   31 ar 
    32   32   33 1  
    33   33   34 1  
    34   33   36 1  
    35   34   35 2  
    36   34   41 am 
    37   36   37 1  
    38   37   38 1  
    39   38   39 ar 
    40   38   40 ar 
    41   41   42 1  
    42   42   43 1  
    43   42   45 1  
    44   43   44 2  
    45   43   48 am 
    46   45   46 1  
    47   45   47 1  
    48   48   49 1  
    49   49   50 1  
    50   49   52 1  
    51   50   51 2  
    52   50   56 am 
    53   52   53 1  
    54   53   54 2  
    55   53   55 am 
    56   56   57 1  
    57   57   58 1  
    58   57   60 1  
    59   58   59 2  
    60   58   65 am 
    61   60   61 1  
    62   61   62 1  
    63   62   63 ar 
    64   62   64 ar 
    65   65   66 1  
    66   66   67 1  
    67   66   69 1  
    68   67   68 2  
    69   67   73 am 
    70   69   70 1  
    71   69   71 1  
    72   70   72 1  
    73   73   74 1  
    74   74   75 1  
    75   74   77 1  
    76   75   76 2  
    77   75   84 am 
    78   77   78 1  
    79   78   79 1  
    80   79   80 1  
    81   80   81 ar 
    82   81   82 ar 
    83   81   83 ar 
    84   84   85 1  
    85   85   86 1  
    86   85   88 1  
    87   86   87 2  
    88   86   89 am 
    89   89   90 1  
    90   90   91 1  
    91   90   93 1  
    92   91   92 2  
    93   91   94 am 
    94   94   95 1  
    95   95   96 1  
    96   95   98 1  
    97   96   97 2  
    98   96  102 am 
    99   98   99 1  
   100   99  100 1  
   101   99  101 1  
   102  102  103 1  
   103  103  104 1  
   104  104  105 2  
   105  104  106 am 
   106  106  107 1  
   107  107  108 1  
   108  107  110 1  
   109  108  109 2  
   110  108  114 am 
   111  110  111 1  
   112  111  112 1  
   113  112  113 1  
   114  114  115 1  
   115  115  116 1  
   116  115  118 1  
   117  116  117 2  
   118  116  119 am 
   119  119  120 1  
   120  119  125 1  
   121  120  121 1  
   122  120  123 1  
   123  121  122 2  
   124  121  126 am 
   125  123  124 1  
   126  124  125 1  
   127  126  127 1  
   128  127  128 1  
   129  127  130 1  
   130  128  129 ar 
   131  128  134 ar 
   132  130  131 1  
   133  130  132 1  
   134  131  133 1  
   135    1  135 1  
   136    1  136 1  
   137    1  137 1  
   138    2  138 1  
   139    5  139 1  
   140    5  140 1  
   141    6  141 1  
   142    7  142 1  
   143    7  143 1  
   144    7  144 1  
   145    8  145 1  
   146    8  146 1  
   147    8  147 1  
   148    9  148 1  
   149   10  149 1  
   150   13  150 1  
   151   13  151 1  
   152   14  152 1  
   153   15  153 1  
   154   16  154 1  
   155   19  155 1  
   156   20  156 1  
   157   20  157 1  
   158   21  158 1  
   159   21  159 1  
   160   21  160 1  
   161   22  161 1  
   162   22  162 1  
   163   22  163 1  
   164   23  164 1  
   165   24  165 1  
   166   27  166 1  
   167   27  167 1  
   168   28  168 1  
   169   28  169 1  
   170   32  170 1  
   171   33  171 1  
   172   36  172 1  
   173   36  173 1  
   174   37  174 1  
   175   37  175 1  
   176   41  176 1  
   177   42  177 1  
   178   45  178 1  
   179   46  179 1  
   180   47  180 1  
   181   47  181 1  
   182   47  182 1  
   183   48  183 1  
   184   49  184 1  
   185   52  185 1  
   186   52  186 1  
   187   55  187 1  
   188   55  188 1  
   189   56  189 1  
   190   57  190 1  
   191   60  191 1  
   192   60  192 1  
   193   61  193 1  
   194   61  194 1  
   195   65  195 1  
   196   66  196 1  
   197   69  197 1  
   198   70  198 1  
   199   70  199 1  
   200   71  200 1  
   201   71  201 1  
   202   71  202 1  
   203   72  203 1  
   204   72  204 1  
   205   72  205 1  
   206   73  206 1  
   207   74  207 1  
   208   77  208 1  
   209   77  209 1  
   210   78  210 1  
   211   78  211 1  
   212   79  212 1  
   213   79  213 1  
   214   80  214 1  
   215   82  215 1  
   216   82  216 1  
   217   83  217 1  
   218   83  218 1  
   219   84  219 1  
   220   85  220 1  
   221   88  221 1  
   222   88  222 1  
   223   88  223 1  
   224   89  224 1  
   225   90  225 1  
   226   93  226 1  
   227   93  227 1  
   228   93  228 1  
   229   94  229 1  
   230   95  230 1  
   231   98  231 1  
   232   98  232 1  
   233   99  233 1  
   234  100  234 1  
   235  100  235 1  
   236  100  236 1  
   237  101  237 1  
   238  101  238 1  
   239  101  239 1  
   240  102  240 1  
   241  103  241 1  
   242  103  242 1  
   243  106  243 1  
   244  107  244 1  
   245  110  245 1  
   246  110  246 1  
   247  111  247 1  
   248  111  248 1  
   249  113  249 1  
   250  113  250 1  
   251  113  251 1  
   252  114  252 1  
   253  115  253 1  
   254  118  254 1  
   255  118  255 1  
   256  118  256 1  
   257  120  257 1  
   258  123  258 1  
   259  123  259 1  
   260  124  260 1  
   261  124  261 1  
   262  125  262 1  
   263  125  263 1  
   264  126  264 1  
   265  127  265 1  
   266  130  266 1  
   267  131  267 1  
   268  131  268 1  
   269  132  269 1  
   270  132  270 1  
   271  132  271 1  
   272  133  272 1  
   273  133  273 1  
   274  133  274 1  
@<TRIPOS>SUBSTRUCTURE
     1 LEU         1

