4dho_ligand
  -I-interpret- 

 39 40  0  0  0  0  0  0  0  0999 V2000
   20.8070   14.5630   -9.7600 O   0  0  0  0  0
   21.8060   13.5030  -10.3990 P   0  0  0  0  0
   21.4690   13.0470  -11.8480 O   0  0  0  0  0
   21.7510   12.2890   -9.5150 O   0  0  0  0  0
   23.4580   14.3100  -10.4160 C   0  0  0  0  0
   23.6070   15.6630  -10.1620 C   0  0  0  0  0
   24.8950   16.2360  -10.1710 C   0  0  0  0  0
   26.0180   15.4520  -10.4450 C   0  0  0  0  0
   25.8660   14.0840  -10.7060 C   0  0  0  0  0
   24.5770   13.5310  -10.6880 C   0  0  0  0  0
   24.3110   12.2140  -10.9430 O   0  0  0  0  0
   25.3420   11.1950  -10.8930 C   0  0  0  0  0
   24.6400    9.8510  -10.5580 C   0  0  0  0  0
   25.2610    8.7850  -10.5590 O   0  0  0  0  0
   23.3280    9.9700  -10.2860 N   0  0  0  0  0
   22.5900    8.9120   -9.9300 C   0  0  0  0  0
   22.2620    8.7980   -8.5830 C   0  0  0  0  0
   22.1180    7.9650  -10.8420 C   0  0  0  0  0
   21.3300    6.8990  -10.3780 C   0  0  0  0  0
   21.0170    6.7880   -9.0220 C   0  0  0  0  0
   21.4790    7.7450   -8.1130 C   0  0  0  0  0
   21.1810    7.6630   -6.7720 O   0  0  0  0  0
   21.1880    8.9400   -6.0720 C   0  0  0  0  0
   20.8065   15.3619  -10.2923 H   0  0  0  0  0
   21.4971   13.8056  -12.4357 H   0  0  0  0  0
   22.7334   16.2815   -9.9563 H   0  0  0  0  0
   25.0154   17.2991   -9.9625 H   0  0  0  0  0
   27.0101   15.9034  -10.4557 H   0  0  0  0  0
   26.7341   13.4603  -10.9193 H   0  0  0  0  0
   26.0874   11.4388  -10.1360 H   0  0  0  0  0
   25.8641   11.1288  -11.8475 H   0  0  0  0  0
   22.8860   10.8868  -10.3526 H   0  0  0  0  0
   22.6250    9.5480   -7.8802 H   0  0  0  0  0
   22.3585    8.0524  -11.9015 H   0  0  0  0  0
   20.9602    6.1531  -11.0816 H   0  0  0  0  0
   20.4108    5.9530   -8.6708 H   0  0  0  0  0
   22.1775    9.3904   -6.1503 H   0  0  0  0  0
   20.4489    9.6033   -6.5214 H   0  0  0  0  0
   20.9428    8.7788   -5.0222 H   0  0  0  0  0
  1  2  1  0  0  0
  2  3  1  0  0  0
  2  4  2  0  0  0
  2  5  1  0  0  0
  5  6  4  0  0  0
  5 10  4  0  0  0
  6  7  4  0  0  0
  7  8  4  0  0  0
  8  9  4  0  0  0
  9 10  4  0  0  0
 10 11  1  0  0  0
 11 12  1  0  0  0
 12 13  1  0  0  0
 13 14  2  0  0  0
 13 15  1  0  0  0
 15 16  1  0  0  0
 16 17  4  0  0  0
 16 18  4  0  0  0
 17 21  4  0  0  0
 18 19  4  0  0  0
 19 20  4  0  0  0
 20 21  4  0  0  0
 21 22  1  0  0  0
 22 23  1  0  0  0
  1 24  1  0  0  0
  3 25  1  0  0  0
  6 26  1  0  0  0
  7 27  1  0  0  0
  8 28  1  0  0  0
  9 29  1  0  0  0
 12 30  1  0  0  0
 12 31  1  0  0  0
 15 32  1  0  0  0
 17 33  1  0  0  0
 18 34  1  0  0  0
 19 35  1  0  0  0
 20 36  1  0  0  0
 23 37  1  0  0  0
 23 38  1  0  0  0
 23 39  1  0  0  0
M  END
$$$$
