### 
### Created by X-TOOL on Mon Sep 10 21:13:12 2018
### 

@<TRIPOS>MOLECULE
4dho_ligand
   37    38     1     0     0
SMALL
GAST_HUCK


@<TRIPOS>ATOM
      1 OAS        20.8070   14.5630   -9.7600 O.co2     1 Y09        -0.5643
      2 PAR        21.8060   13.5030  -10.3990 P.3       1 Y09         0.0783
      3 OAU        21.4690   13.0470  -11.8480 O.co2     1 Y09        -0.5643
      4 OAT        21.7510   12.2890   -9.5150 O.co2     1 Y09        -0.5643
      5 CAM        23.4580   14.3100  -10.4160 C.ar      1 Y09         0.0641
      6 CAN        23.6070   15.6630  -10.1620 C.ar      1 Y09        -0.0499
      7 CAO        24.8950   16.2360  -10.1710 C.ar      1 Y09        -0.0681
      8 CAP        26.0180   15.4520  -10.4450 C.ar      1 Y09        -0.0672
      9 CAQ        25.8660   14.0840  -10.7060 C.ar      1 Y09        -0.0277
     10 CAL        24.5770   13.5310  -10.6880 C.ar      1 Y09         0.1159
     11 OAK        24.3110   12.2140  -10.9430 O.3       1 Y09        -0.2925
     12 CAA        25.3420   11.1950  -10.8930 C.3       1 Y09         0.1661
     13 CAB        24.6400    9.8510  -10.5580 C.2       1 Y09         0.2345
     14 OAD        25.2610    8.7850  -10.5590 O.2       1 Y09        -0.3819
     15 NAC        23.3280    9.9700  -10.2860 N.am      1 Y09        -0.2341
     16 CAE        22.5900    8.9120   -9.9300 C.ar      1 Y09         0.0572
     17 CAF        22.2620    8.7980   -8.5830 C.ar      1 Y09        -0.0141
     18 CAJ        22.1180    7.9650  -10.8420 C.ar      1 Y09        -0.0523
     19 CAI        21.3300    6.8990  -10.3780 C.ar      1 Y09        -0.0837
     20 CAH        21.0170    6.7880   -9.0220 C.ar      1 Y09        -0.0484
     21 CAG        21.4790    7.7450   -8.1130 C.ar      1 Y09         0.0772
     22 OAV        21.1810    7.6630   -6.7720 O.3       1 Y09        -0.3252
     23 CAW        21.1880    8.9400   -6.0720 C.3       1 Y09         0.0590
     24 H1         22.7382   16.2781   -9.9574 H         1 Y09         0.0634
     25 H2         25.0148   17.2932   -9.9637 H         1 Y09         0.0533
     26 H3         27.0046   15.9009  -10.4557 H         1 Y09         0.0616
     27 H4         26.7293   13.4637  -10.9181 H         1 Y09         0.0552
     28 H5         26.0779   11.4408  -10.1133 H         1 Y09         0.0867
     29 H6         25.8492   11.1233  -11.8665 H         1 Y09         0.0867
     30 H7         22.8946   10.8689  -10.3513 H         1 Y09         0.2255
     31 H8         22.6230    9.5438   -7.8841 H         1 Y09         0.0419
     32 H9         22.3572    8.0519  -11.8957 H         1 Y09         0.0414
     33 H10        20.9623    6.1572  -11.0777 H         1 Y09         0.0551
     34 H11        20.4141    5.9576   -8.6727 H         1 Y09         0.0418
     35 H12        20.9406    8.7786   -5.0124 H         1 Y09         0.0577
     36 H13        20.4425    9.6103   -6.5246 H         1 Y09         0.0577
     37 H14        22.1862    9.3956   -6.1502 H         1 Y09         0.0577
@<TRIPOS>BOND
     1    1    2 ar 
     2    2    3 ar 
     3    2    4 ar 
     4    2    5 1  
     5    5    6 ar 
     6    5   10 ar 
     7    6    7 ar 
     8    7    8 ar 
     9    8    9 ar 
    10    9   10 ar 
    11   10   11 1  
    12   11   12 1  
    13   12   13 1  
    14   13   14 2  
    15   13   15 am 
    16   15   16 1  
    17   16   17 ar 
    18   16   18 ar 
    19   17   21 ar 
    20   18   19 ar 
    21   19   20 ar 
    22   20   21 ar 
    23   21   22 1  
    24   22   23 1  
    25    6   24 1  
    26    7   25 1  
    27    8   26 1  
    28    9   27 1  
    29   12   28 1  
    30   12   29 1  
    31   15   30 1  
    32   17   31 1  
    33   18   32 1  
    34   19   33 1  
    35   20   34 1  
    36   23   35 1  
    37   23   36 1  
    38   23   37 1  
@<TRIPOS>SUBSTRUCTURE
     1 Y09         1

