5a82_ligand
  -I-interpret- 

 58 61  0  0  0  0  0  0  0  0999 V2000
  -24.3110   42.6350   12.1170 O   0  0  0  0  0
  -25.1030   43.4970   11.7470 C   0  0  0  0  0
  -24.8340   44.4940   10.7330 C   0  0  0  0  0
  -23.4900   44.5010   10.0570 C   0  0  0  0  0
  -26.3430   43.5730   12.2770 N   0  0  0  0  0
  -27.3270   44.4870   11.9440 C   0  0  0  0  0
  -27.0180   45.4480   10.9700 C   0  0  0  0  0
  -25.7210   45.4340   10.3440 C   0  0  0  0  0
  -28.5960   44.3970   12.5570 C   0  0  0  0  0
  -29.5290   45.3130   12.2190 N   0  0  0  0  0
  -29.2410   46.2530   11.3020 C   0  0  0  0  0
  -28.0270   46.3630   10.6490 C   0  0  0  0  0
  -28.9570   43.4300   13.4180 N   0  0  0  0  0
  -30.2540   43.2440   14.0330 C   0  0  0  0  0
  -30.9430   42.1840   13.1870 C   0  0  0  0  0
  -32.3260   41.8310   13.8040 C   0  0  0  0  0
  -32.2040   41.3500   15.1780 N   0  3  0  0  0
  -31.4130   42.2230   16.0560 C   0  0  0  0  0
  -30.1230   42.7590   15.4730 C   0  0  0  0  0
  -31.1380   42.7320   11.8770 O   0  0  0  0  0
  -31.3210   41.7600   10.8430 C   0  0  0  0  0
  -31.2230   42.5050    9.5350 C   0  0  0  0  0
  -31.5550   41.5690    8.3790 C   0  0  0  0  0
  -31.5400   42.2780    7.0220 C   0  0  0  0  0
  -29.9100   42.8510    6.6670 S   0  0  0  0  0
  -29.9390   43.6640    5.4820 O   0  0  0  0  0
  -28.9990   41.7390    6.7080 O   0  0  0  0  0
  -29.6280   43.8820    8.0710 C   0  0  0  0  0
  -29.8230   43.0700    9.3330 C   0  0  0  0  0
  -23.6230   44.3533    8.9853 H   0  0  0  0  0
  -23.0001   45.4583   10.2351 H   0  0  0  0  0
  -22.8765   43.6965   10.4626 H   0  0  0  0  0
  -26.5777   42.8876   12.9950 H   0  0  0  0  0
  -25.4625   46.1633    9.5763 H   0  0  0  0  0
  -30.0172   46.9778   11.0565 H   0  0  0  0  0
  -27.8605   47.1414    9.9044 H   0  0  0  0  0
  -28.2366   42.7516   13.6656 H   0  0  0  0  0
  -30.8123   44.1794   14.0719 H   0  0  0  0  0
  -30.3356   41.2799   13.1457 H   0  0  0  0  0
  -32.7755   41.0398   13.2040 H   0  0  0  0  0
  -32.9369   42.7337   13.8113 H   0  0  0  0  0
  -31.7256   40.4499   15.1396 H   0  0  0  0  0
  -33.1463   41.3081   15.5662 H   0  0  0  0  0
  -31.1308   41.6164   16.9165 H   0  0  0  0  0
  -32.0373   43.0913   16.2667 H   0  0  0  0  0
  -29.8231   43.6144   16.0784 H   0  0  0  0  0
  -29.4004   41.9430   15.4770 H   0  0  0  0  0
  -32.2870   41.2643   10.9391 H   0  0  0  0  0
  -30.5652   40.9770   10.9044 H   0  0  0  0  0
  -31.9351   43.3298    9.5619 H   0  0  0  0  0
  -32.5598   41.1791    8.5419 H   0  0  0  0  0
  -30.7984   40.7847    8.3553 H   0  0  0  0  0
  -32.2227   43.1272    7.0510 H   0  0  0  0  0
  -31.8539   41.5794    6.2464 H   0  0  0  0  0
  -30.3311   44.7148    8.0600 H   0  0  0  0  0
  -28.6102   44.2709    8.0403 H   0  0  0  0  0
  -29.1496   42.2159    9.2613 H   0  0  0  0  0
  -29.6350   43.7435   10.1692 H   0  0  0  0  0
  1  2  2  0  0  0
  2  3  1  0  0  0
  2  5  1  0  0  0
  3  4  1  0  0  0
  3  8  2  0  0  0
  5  6  1  0  0  0
  6  7  4  0  0  0
  6  9  4  0  0  0
  7  8  1  0  0  0
  7 12  4  0  0  0
  9 10  4  0  0  0
  9 13  1  0  0  0
 10 11  4  0  0  0
 11 12  4  0  0  0
 13 14  1  0  0  0
 14 15  1  0  0  0
 14 19  1  0  0  0
 15 16  1  0  0  0
 15 20  1  0  0  0
 16 17  1  0  0  0
 17 18  1  0  0  0
 18 19  1  0  0  0
 20 21  1  0  0  0
 21 22  1  0  0  0
 22 23  1  0  0  0
 22 29  1  0  0  0
 23 24  1  0  0  0
 24 25  1  0  0  0
 25 26  2  0  0  0
 25 27  2  0  0  0
 25 28  1  0  0  0
 28 29  1  0  0  0
  4 30  1  0  0  0
  4 31  1  0  0  0
  4 32  1  0  0  0
  5 33  1  0  0  0
  8 34  1  0  0  0
 11 35  1  0  0  0
 12 36  1  0  0  0
 13 37  1  0  0  0
 14 38  1  0  0  0
 15 39  1  0  0  0
 16 40  1  0  0  0
 16 41  1  0  0  0
 17 42  1  0  0  0
 17 43  1  0  0  0
 18 44  1  0  0  0
 18 45  1  0  0  0
 19 46  1  0  0  0
 19 47  1  0  0  0
 21 48  1  0  0  0
 21 49  1  0  0  0
 22 50  1  0  0  0
 23 51  1  0  0  0
 23 52  1  0  0  0
 24 53  1  0  0  0
 24 54  1  0  0  0
 28 55  1  0  0  0
 28 56  1  0  0  0
 29 57  1  0  0  0
 29 58  1  0  0  0
M  END
$$$$
