6gcl_ligand
  -I-interpret- 

 22 23  0  0  0  0  0  0  0  0999 V2000
    4.1760  -16.0050   16.2710 C   0  0  0  0  0
    4.9960  -15.7060   14.7370 S   0  0  0  0  0
    5.8780  -16.9170   14.4130 O   0  0  0  0  0
    4.0140  -15.5650   13.5530 O   0  0  0  0  0
    6.0580  -14.3550   14.8020 C   0  0  0  0  0
    7.3810  -14.4760   14.3230 C   0  0  0  0  0
    8.2270  -13.4170   14.4140 C   0  0  0  0  0
    9.8930  -13.2560   13.9300 S   0  0  0  0  0
    9.9780  -11.6070   14.4880 C   0  0  0  0  0
   11.0650  -10.8160   14.4240 N   0  0  0  0  0
    8.7820  -11.2540   14.9910 N   0  0  0  0  0
    7.8270  -12.2210   14.9580 C   0  0  0  0  0
    6.5600  -12.1060   15.4010 C   0  0  0  0  0
    5.6230  -13.1460   15.3490 C   0  0  0  0  0
    3.5615  -16.9011   16.1844 H   0  0  0  0  0
    4.9181  -16.1464   17.0567 H   0  0  0  0  0
    3.5437  -15.1516   16.5159 H   0  0  0  0  0
    7.7213  -15.4134   13.8830 H   0  0  0  0  0
   11.9323  -11.1725   14.0226 H   0  0  0  0  0
   11.0215   -9.8600   14.7769 H   0  0  0  0  0
    6.2467  -11.1512   15.8231 H   0  0  0  0  0
    4.6051  -13.0179   15.7172 H   0  0  0  0  0
  1  2  1  0  0  0
  2  3  2  0  0  0
  2  4  2  0  0  0
  2  5  1  0  0  0
  5  6  4  0  0  0
  5 14  4  0  0  0
  6  7  4  0  0  0
  7  8  4  0  0  0
  7 12  4  0  0  0
  8  9  4  0  0  0
  9 10  1  0  0  0
  9 11  4  0  0  0
 11 12  4  0  0  0
 12 13  4  0  0  0
 13 14  4  0  0  0
  1 15  1  0  0  0
  1 16  1  0  0  0
  1 17  1  0  0  0
  6 18  1  0  0  0
 10 19  1  0  0  0
 10 20  1  0  0  0
 13 21  1  0  0  0
 14 22  1  0  0  0
M  END
$$$$
