3dej_ligand
  -I-interpret- 

 41 43  0  0  0  0  0  0  0  0999 V2000
  -50.9490   13.0910  -19.2630 O   0  0  0  0  0
  -49.7540   13.4250  -19.5780 C   0  0  0  0  0
  -48.6980   13.2930  -18.7070 N   0  0  0  0  0
  -47.4140   13.6310  -19.0110 C   0  0  0  0  0
  -46.4800   13.4980  -18.1760 O   0  0  0  0  0
  -49.5140   13.9360  -20.8490 C   0  0  0  0  0
  -48.1810   14.2910  -21.1750 C   0  0  0  0  0
  -47.1130   14.1430  -20.2670 C   0  0  0  0  0
  -45.8950   14.4680  -20.5530 O   0  0  0  0  0
  -50.5960   14.0840  -21.7600 C   0  0  0  0  0
  -50.2960   14.6060  -23.0230 C   0  0  0  0  0
  -48.9590   14.9740  -23.3370 C   0  0  0  0  0
  -47.8990   14.8160  -22.4190 C   0  0  0  0  0
  -46.5770   15.1350  -22.6490 N   0  0  0  0  0
  -46.0880   15.5820  -23.8120 C   0  0  0  0  0
  -46.7480   15.7330  -24.8520 O   0  0  0  0  0
  -44.5990   15.7600  -23.9040 C   0  0  0  0  0
  -44.2910   16.9300  -24.6890 O   0  0  0  0  0
  -44.2170   16.5800  -26.1040 C   0  0  0  0  0
  -44.2740   17.5180  -26.9100 O   0  0  0  0  0
  -44.0810   15.1180  -26.5070 C   0  0  0  0  0
  -43.8330   15.8400  -22.6260 C   0  0  0  0  0
  -43.7960   17.0170  -21.8740 C   0  0  0  0  0
  -43.0000   17.0270  -20.7100 C   0  0  0  0  0
  -42.2450   15.9020  -20.3180 C   0  0  0  0  0
  -42.2740   14.7480  -21.0920 C   0  0  0  0  0
  -41.3220   13.2660  -20.6360 Cl  0  0  0  0  0
  -43.0630   14.7280  -22.2430 C   0  0  0  0  0
  -48.8878   12.9194  -17.7771 H   0  0  0  0  0
  -51.6132   13.8034  -21.4866 H   0  0  0  0  0
  -51.0853   14.7302  -23.7644 H   0  0  0  0  0
  -48.7455   15.3925  -24.3205 H   0  0  0  0  0
  -45.9228   15.0218  -21.8746 H   0  0  0  0  0
  -44.2701   14.8306  -24.3690 H   0  0  0  0  0
  -44.9330   14.8316  -27.1235 H   0  0  0  0  0
  -43.1594   14.9827  -27.0731 H   0  0  0  0  0
  -44.0535   14.4967  -25.6118 H   0  0  0  0  0
  -44.3630   17.8973  -22.1767 H   0  0  0  0  0
  -42.9673   17.9278  -20.0971 H   0  0  0  0  0
  -41.6410   15.9375  -19.4114 H   0  0  0  0  0
  -43.0826   13.8292  -22.8593 H   0  0  0  0  0
  1  2  2  0  0  0
  2  3  1  0  0  0
  2  6  1  0  0  0
  3  4  1  0  0  0
  4  5  2  0  0  0
  4  8  1  0  0  0
  6  7  4  0  0  0
  6 10  4  0  0  0
  7  8  1  0  0  0
  7 13  4  0  0  0
  8  9  2  0  0  0
 10 11  4  0  0  0
 11 12  4  0  0  0
 12 13  4  0  0  0
 13 14  1  0  0  0
 14 15  1  0  0  0
 15 16  2  0  0  0
 15 17  1  0  0  0
 17 18  1  0  0  0
 17 22  1  0  0  0
 18 19  1  0  0  0
 19 20  2  0  0  0
 19 21  1  0  0  0
 22 23  4  0  0  0
 22 28  4  0  0  0
 23 24  4  0  0  0
 24 25  4  0  0  0
 25 26  4  0  0  0
 26 27  1  0  0  0
 26 28  4  0  0  0
  3 29  1  0  0  0
 10 30  1  0  0  0
 11 31  1  0  0  0
 12 32  1  0  0  0
 14 33  1  0  0  0
 17 34  1  0  0  0
 21 35  1  0  0  0
 21 36  1  0  0  0
 21 37  1  0  0  0
 23 38  1  0  0  0
 24 39  1  0  0  0
 25 40  1  0  0  0
 28 41  1  0  0  0
M  END
$$$$
