### 
### Created by X-TOOL on Mon Sep 10 21:13:04 2018
### 

@<TRIPOS>MOLECULE
3mj5_ligand
   59    63     1     0     0
SMALL
GAST_HUCK


@<TRIPOS>ATOM
      1 C1        -18.6210   46.2440  -39.0660 C.3       1 GRM        -0.0640
      2 C2        -19.6270   46.3800  -37.8630 C.3       1 GRM        -0.0704
      3 C3        -18.7120   44.8990  -39.9200 C.ar      1 GRM        -0.0498
      4 N4        -17.1030   46.6510  -38.7930 N.4       1 GRM         0.4105
      5 C5        -16.0200   45.7380  -39.3450 C.3       1 GRM        -0.1073
      6 C6        -14.5370   46.0460  -38.9090 C.3       1 GRM        -0.0516
      7 C7        -14.3630   47.5270  -38.5190 C.3       1 GRM         0.0451
      8 C8        -15.3610   47.9260  -37.3880 C.3       1 GRM        -0.0516
      9 C9        -16.7080   47.1220  -37.3970 C.3       1 GRM        -0.1073
     10 C10       -12.9130   47.7370  -38.0830 C.2       1 GRM         0.1805
     11 O11       -12.6270   47.7180  -36.8950 O.2       1 GRM        -0.3966
     12 N12       -11.9620   47.9310  -39.0380 N.am      1 GRM        -0.2772
     13 C13       -10.5530   48.1280  -38.6590 C.3       1 GRM         0.0572
     14 C14        -9.6790   48.2140  -39.9130 C.ar      1 GRM        -0.0407
     15 C15        -9.8320   47.2170  -40.9310 C.ar      1 GRM        -0.0378
     16 C16        -9.0180   47.3230  -42.0720 C.ar      1 GRM         0.1170
     17 C17        -8.0800   48.3570  -42.2330 C.ar      1 GRM         0.1160
     18 C18        -7.9000   49.3780  -41.2350 C.ar      1 GRM        -0.0477
     19 C19        -8.7280   49.2830  -40.0640 C.ar      1 GRM        -0.0782
     20 O20        -9.0430   46.4560  -43.1300 O.3       1 GRM        -0.2927
     21 C21        -8.2290   47.2260  -44.0850 C.3       1 GRM         0.1854
     22 O22        -7.3980   48.2470  -43.4430 O.3       1 GRM        -0.2956
     23 C23       -18.6430   44.8190  -41.3750 C.ar      1 GRM        -0.0139
     24 C24       -18.7370   43.5070  -42.0220 C.ar      1 GRM        -0.0244
     25 C25       -18.8860   42.3430  -41.2370 C.ar      1 GRM        -0.0631
     26 C26       -18.9390   42.4160  -39.8220 C.ar      1 GRM        -0.0708
     27 C27       -18.8600   43.6620  -39.1730 C.ar      1 GRM        -0.0625
     28 C28       -18.5040   45.9530  -42.2370 C.ar      1 GRM        -0.0549
     29 C29       -18.4640   45.8050  -43.6490 C.ar      1 GRM        -0.0625
     30 C30       -18.5500   44.5130  -44.2410 C.ar      1 GRM        -0.0629
     31 C31       -18.6920   43.3640  -43.4320 C.ar      1 GRM        -0.0569
     32 H         -19.0243   47.0353  -39.6978 H         1 GRM         0.0228
     33 H         -19.2967   45.7446  -37.0412 H         1 GRM         0.0236
     34 H         -19.6572   47.4180  -37.5319 H         1 GRM         0.0236
     35 H         -20.6213   46.0712  -38.1858 H         1 GRM         0.0236
     36 H         -16.0454   45.8653  -40.4272 H         1 GRM         0.0022
     37 H         -16.2437   44.7431  -38.9601 H         1 GRM         0.0022
     38 H         -13.8766   45.8287  -39.7485 H         1 GRM         0.0273
     39 H         -14.2948   45.4289  -38.0437 H         1 GRM         0.0273
     40 H         -14.5841   48.1674  -39.3729 H         1 GRM         0.0537
     41 H         -15.6142   48.9751  -37.5410 H         1 GRM         0.0273
     42 H         -14.8691   47.7143  -36.4386 H         1 GRM         0.0273
     43 H         -16.5753   46.2395  -36.7711 H         1 GRM         0.0022
     44 H         -17.4944   47.7824  -37.0316 H         1 GRM         0.0022
     45 H         -12.2276   47.9399  -40.0228 H         1 GRM         0.1875
     46 H         -10.2246   47.2852  -38.0508 H         1 GRM         0.0661
     47 H         -10.4605   49.0554  -38.0938 H         1 GRM         0.0661
     48 H         -10.5529   46.4065  -40.8244 H         1 GRM         0.0451
     49 H          -7.1739   50.1812  -41.3605 H         1 GRM         0.0493
     50 H          -8.6340   50.0325  -39.2782 H         1 GRM         0.0437
     51 H          -8.9116   47.7354  -44.7652 H         1 GRM         0.0970
     52 H          -7.5622   46.5268  -44.5896 H         1 GRM         0.0970
     53 H         -18.9615   41.3722  -41.7268 H         1 GRM         0.0542
     54 H         -19.0413   41.5035  -39.2347 H         1 GRM         0.0595
     55 H         -18.9110   43.6999  -38.0849 H         1 GRM         0.0529
     56 H         -18.4274   46.9493  -41.8015 H         1 GRM         0.0628
     57 H         -18.3669   46.6860  -44.2834 H         1 GRM         0.0601
     58 H         -18.5060   44.4100  -45.3252 H         1 GRM         0.0616
     59 H         -18.7663   42.3765  -43.8873 H         1 GRM         0.0609
@<TRIPOS>BOND
     1    1    2 1  
     2    1    3 1  
     3    1    4 1  
     4    3   23 ar 
     5    3   27 ar 
     6    4    5 1  
     7    4    9 1  
     8    5    6 1  
     9    6    7 1  
    10    7    8 1  
    11    7   10 1  
    12    8    9 1  
    13   10   11 2  
    14   10   12 am 
    15   12   13 1  
    16   13   14 1  
    17   14   15 ar 
    18   14   19 ar 
    19   15   16 ar 
    20   16   17 ar 
    21   16   20 1  
    22   17   18 ar 
    23   17   22 1  
    24   18   19 ar 
    25   20   21 1  
    26   21   22 1  
    27   23   24 ar 
    28   23   28 ar 
    29   24   25 ar 
    30   24   31 ar 
    31   25   26 ar 
    32   26   27 ar 
    33   28   29 ar 
    34   29   30 ar 
    35   30   31 ar 
    36    1   32 1  
    37    2   33 1  
    38    2   34 1  
    39    2   35 1  
    40    5   36 1  
    41    5   37 1  
    42    6   38 1  
    43    6   39 1  
    44    7   40 1  
    45    8   41 1  
    46    8   42 1  
    47    9   43 1  
    48    9   44 1  
    49   12   45 1  
    50   13   46 1  
    51   13   47 1  
    52   15   48 1  
    53   18   49 1  
    54   19   50 1  
    55   21   51 1  
    56   21   52 1  
    57   25   53 1  
    58   26   54 1  
    59   27   55 1  
    60   28   56 1  
    61   29   57 1  
    62   30   58 1  
    63   31   59 1  
@<TRIPOS>SUBSTRUCTURE
     1 GRM         1

