3mj5_ligand
  -I-interpret- 

 60 64  0  0  0  0  0  0  0  0999 V2000
  -18.6210   46.2440  -39.0660 C   0  0  0  0  0
  -19.6270   46.3800  -37.8630 C   0  0  0  0  0
  -18.7120   44.8990  -39.9200 C   0  0  0  0  0
  -17.1030   46.6510  -38.7930 N   0  3  0  0  0
  -16.0200   45.7380  -39.3450 C   0  0  0  0  0
  -14.5370   46.0460  -38.9090 C   0  0  0  0  0
  -14.3630   47.5270  -38.5190 C   0  0  0  0  0
  -15.3610   47.9260  -37.3880 C   0  0  0  0  0
  -16.7080   47.1220  -37.3970 C   0  0  0  0  0
  -12.9130   47.7370  -38.0830 C   0  0  0  0  0
  -12.6270   47.7180  -36.8950 O   0  0  0  0  0
  -11.9620   47.9310  -39.0380 N   0  0  0  0  0
  -10.5530   48.1280  -38.6590 C   0  0  0  0  0
   -9.6790   48.2140  -39.9130 C   0  0  0  0  0
   -9.8320   47.2170  -40.9310 C   0  0  0  0  0
   -9.0180   47.3230  -42.0720 C   0  0  0  0  0
   -8.0800   48.3570  -42.2330 C   0  0  0  0  0
   -7.9000   49.3780  -41.2350 C   0  0  0  0  0
   -8.7280   49.2830  -40.0640 C   0  0  0  0  0
   -9.0430   46.4560  -43.1300 O   0  0  0  0  0
   -8.2290   47.2260  -44.0850 C   0  0  0  0  0
   -7.3980   48.2470  -43.4430 O   0  0  0  0  0
  -18.6430   44.8190  -41.3750 C   0  0  0  0  0
  -18.7370   43.5070  -42.0220 C   0  0  0  0  0
  -18.8860   42.3430  -41.2370 C   0  0  0  0  0
  -18.9390   42.4160  -39.8220 C   0  0  0  0  0
  -18.8600   43.6620  -39.1730 C   0  0  0  0  0
  -18.5040   45.9530  -42.2370 C   0  0  0  0  0
  -18.4640   45.8050  -43.6490 C   0  0  0  0  0
  -18.5500   44.5130  -44.2410 C   0  0  0  0  0
  -18.6920   43.3640  -43.4320 C   0  0  0  0  0
  -19.0243   47.0353  -39.6978 H   0  0  0  0  0
  -19.2967   45.7446  -37.0412 H   0  0  0  0  0
  -19.6572   47.4180  -37.5319 H   0  0  0  0  0
  -20.6213   46.0712  -38.1858 H   0  0  0  0  0
  -17.1331   47.4876  -39.3757 H   0  0  0  0  0
  -16.0454   45.8653  -40.4272 H   0  0  0  0  0
  -16.2437   44.7431  -38.9601 H   0  0  0  0  0
  -13.8766   45.8287  -39.7485 H   0  0  0  0  0
  -14.2948   45.4289  -38.0437 H   0  0  0  0  0
  -14.5841   48.1674  -39.3729 H   0  0  0  0  0
  -15.6142   48.9751  -37.5410 H   0  0  0  0  0
  -14.8691   47.7143  -36.4386 H   0  0  0  0  0
  -16.5753   46.2395  -36.7711 H   0  0  0  0  0
  -17.4944   47.7824  -37.0316 H   0  0  0  0  0
  -12.2276   47.9399  -40.0228 H   0  0  0  0  0
  -10.2246   47.2852  -38.0508 H   0  0  0  0  0
  -10.4605   49.0554  -38.0938 H   0  0  0  0  0
  -10.5529   46.4065  -40.8244 H   0  0  0  0  0
   -7.1739   50.1812  -41.3605 H   0  0  0  0  0
   -8.6340   50.0325  -39.2782 H   0  0  0  0  0
   -8.9116   47.7354  -44.7652 H   0  0  0  0  0
   -7.5622   46.5268  -44.5896 H   0  0  0  0  0
  -18.9615   41.3722  -41.7268 H   0  0  0  0  0
  -19.0413   41.5035  -39.2347 H   0  0  0  0  0
  -18.9110   43.6999  -38.0849 H   0  0  0  0  0
  -18.4274   46.9493  -41.8015 H   0  0  0  0  0
  -18.3669   46.6860  -44.2834 H   0  0  0  0  0
  -18.5060   44.4100  -45.3252 H   0  0  0  0  0
  -18.7663   42.3765  -43.8873 H   0  0  0  0  0
  1  2  1  0  0  0
  1  3  1  0  0  0
  1  4  1  0  0  0
  3 23  4  0  0  0
  3 27  4  0  0  0
  4  5  1  0  0  0
  4  9  1  0  0  0
  5  6  1  0  0  0
  6  7  1  0  0  0
  7  8  1  0  0  0
  7 10  1  0  0  0
  8  9  1  0  0  0
 10 11  2  0  0  0
 10 12  1  0  0  0
 12 13  1  0  0  0
 13 14  1  0  0  0
 14 15  4  0  0  0
 14 19  4  0  0  0
 15 16  4  0  0  0
 16 17  4  0  0  0
 16 20  1  0  0  0
 17 18  4  0  0  0
 17 22  1  0  0  0
 18 19  4  0  0  0
 20 21  1  0  0  0
 21 22  1  0  0  0
 23 24  4  0  0  0
 23 28  4  0  0  0
 24 25  4  0  0  0
 24 31  4  0  0  0
 25 26  4  0  0  0
 26 27  4  0  0  0
 28 29  4  0  0  0
 29 30  4  0  0  0
 30 31  4  0  0  0
  1 32  1  0  0  0
  2 33  1  0  0  0
  2 34  1  0  0  0
  2 35  1  0  0  0
  4 36  1  0  0  0
  5 37  1  0  0  0
  5 38  1  0  0  0
  6 39  1  0  0  0
  6 40  1  0  0  0
  7 41  1  0  0  0
  8 42  1  0  0  0
  8 43  1  0  0  0
  9 44  1  0  0  0
  9 45  1  0  0  0
 12 46  1  0  0  0
 13 47  1  0  0  0
 13 48  1  0  0  0
 15 49  1  0  0  0
 18 50  1  0  0  0
 19 51  1  0  0  0
 21 52  1  0  0  0
 21 53  1  0  0  0
 25 54  1  0  0  0
 26 55  1  0  0  0
 27 56  1  0  0  0
 28 57  1  0  0  0
 29 58  1  0  0  0
 30 59  1  0  0  0
 31 60  1  0  0  0
M  END
$$$$
