6i9a_ligand
  -I-interpret- 

 91 93  0  0  0  0  0  0  0  0999 V2000
    8.1530   -7.3620    9.1830 C   0  0  0  0  0
    9.4990   -6.9650    9.3260 C   0  0  0  0  0
   10.3110   -7.5850   10.2770 C   0  0  0  0  0
    9.8140   -8.5830   11.1100 C   0  0  0  0  0
    8.4820   -8.9380   10.9580 C   0  0  0  0  0
    7.6480   -8.3880    9.9950 C   0  0  0  0  0
    6.2970   -8.7920    9.9590 C   0  0  0  0  0
    6.0730   -9.9850    9.1250 N   0  0  0  0  0
    5.1100  -10.9080    9.4000 C   0  0  0  0  0
    4.4400  -10.8540   10.4390 O   0  0  0  0  0
    4.9210  -12.0090    8.3610 C   0  0  0  0  0
    5.9180  -12.1540    7.5880 O   0  0  0  0  0
    4.3610  -13.3180    9.0010 C   0  0  0  0  0
    4.6110  -14.5640    8.1430 C   0  0  0  0  0
    4.1680  -15.8590    8.8290 C   0  0  0  0  0
    4.1570  -17.0940    7.9220 C   0  0  0  0  0
    5.5620  -17.5770    7.5870 C   0  0  0  0  0
    5.4680  -18.7990    6.7330 N   0  3  0  0  0
    2.9370  -13.2290    9.3480 N   0  0  0  0  0
    2.4120  -13.3690   10.5650 C   0  0  0  0  0
    3.0420  -13.5440   11.6000 O   0  0  0  0  0
    0.9140  -13.0960   10.5960 C   0  0  0  0  0
    0.2540  -13.7290   11.7340 N   0  0  0  0  0
    0.1250  -15.0750   11.8450 C   0  0  0  0  0
    0.6890  -15.8140   11.0250 O   0  0  0  0  0
   -0.5850  -15.4800   12.8290 O   0  0  0  0  0
   -0.7030  -16.9280   13.0810 C   0  0  0  0  0
   -1.3370  -17.1880   14.3730 C   0  0  0  0  0
   -2.6930  -17.5000   14.4820 C   0  0  0  0  0
   -3.3290  -17.7780   15.7300 C   0  0  0  0  0
   -2.5190  -17.6450   16.8710 C   0  0  0  0  0
   -1.1890  -17.2680   16.7630 C   0  0  0  0  0
   -0.5840  -17.0410   15.5390 C   0  0  0  0  0
    0.6730  -11.5790   10.6620 C   0  0  0  0  0
    1.3040  -10.9120   11.9130 C   0  0  0  0  0
    1.3730   -9.4220   11.7550 C   0  0  0  0  0
    0.3930   -8.7190   12.0060 O   0  0  0  0  0
    2.5750   -8.9280   11.4430 N   0  0  0  0  0
    2.8560   -7.5500   11.6340 N   0  0  0  0  0
    3.3060   -7.2310   13.0160 C   0  0  0  0  0
    3.4120   -6.8790   10.5130 C   0  0  0  0  0
    4.2230   -5.7360   10.6820 C   0  0  0  0  0
    4.7340   -5.0750    9.5640 C   0  0  0  0  0
    4.5060   -5.6040    8.2920 C   0  0  0  0  0
    3.7380   -6.7650    8.1270 C   0  0  0  0  0
    3.1760   -7.4060    9.2310 C   0  0  0  0  0
    7.5113   -6.8759    8.4482 H   0  0  0  0  0
    9.9046   -6.1747    8.6943 H   0  0  0  0  0
   11.3539   -7.2819   10.3690 H   0  0  0  0  0
   10.4474   -9.0671   11.8534 H   0  0  0  0  0
    8.0682   -9.6891   11.6309 H   0  0  0  0  0
    5.7180   -7.9743    9.5298 H   0  0  0  0  0
    5.9978   -9.0390   10.9776 H   0  0  0  0  0
    6.6646  -10.1261    8.3061 H   0  0  0  0  0
    4.1394  -11.6808    7.6759 H   0  0  0  0  0
    5.7360  -12.8582    6.9615 H   0  0  0  0  0
    4.9264  -13.4273    9.9264 H   0  0  0  0  0
    5.6836  -14.6335    7.9618 H   0  0  0  0  0
    4.0315  -14.4582    7.2259 H   0  0  0  0  0
    3.1431  -15.7044    9.1662 H   0  0  0  0  0
    4.8854  -16.0571    9.6254 H   0  0  0  0  0
    3.6605  -16.8247    6.9897 H   0  0  0  0  0
    3.6401  -17.8961    8.4488 H   0  0  0  0  0
    6.0978  -17.8126    8.5065 H   0  0  0  0  0
    6.1004  -16.7954    7.0509 H   0  0  0  0  0
    6.4069  -19.1266    6.5058 H   0  0  0  0  0
    4.9654  -19.5282    7.2391 H   0  0  0  0  0
    4.9678  -18.5737    5.8731 H   0  0  0  0  0
    2.2872  -13.0421    8.5843 H   0  0  0  0  0
    0.4889  -13.5200    9.6863 H   0  0  0  0  0
   -0.1244  -13.1370   12.4735 H   0  0  0  0  0
    0.2964  -17.3630   13.0892 H   0  0  0  0  0
   -1.3171  -17.3696   12.2961 H   0  0  0  0  0
   -3.2939  -17.5330   13.5732 H   0  0  0  0  0
   -4.3760  -18.0745   15.7937 H   0  0  0  0  0
   -2.9429  -17.8412   17.8558 H   0  0  0  0  0
   -0.6004  -17.1464   17.6723 H   0  0  0  0  0
    0.4656  -16.7516   15.4864 H   0  0  0  0  0
   -0.4040  -11.4180   10.7104 H   0  0  0  0  0
    1.1359  -11.1330    9.7817 H   0  0  0  0  0
    2.3162  -11.2962   12.0394 H   0  0  0  0  0
    0.6849  -11.1421   12.7801 H   0  0  0  0  0
    3.2944   -9.5447   11.0655 H   0  0  0  0  0
    2.5260   -7.5104   13.7243 H   0  0  0  0  0
    4.2165   -7.7877   13.2379 H   0  0  0  0  0
    3.5040   -6.1620   13.0946 H   0  0  0  0  0
    4.4497   -5.3704   11.6835 H   0  0  0  0  0
    5.3056   -4.1545    9.6827 H   0  0  0  0  0
    4.9297   -5.1090    7.4182 H   0  0  0  0  0
    3.5787   -7.1702    7.1277 H   0  0  0  0  0
    2.5649   -8.2993    9.1022 H   0  0  0  0  0
  1  2  4  0  0  0
  1  6  4  0  0  0
  2  3  4  0  0  0
  3  4  4  0  0  0
  4  5  4  0  0  0
  5  6  4  0  0  0
  6  7  1  0  0  0
  7  8  1  0  0  0
  8  9  1  0  0  0
  9 10  2  0  0  0
  9 11  1  0  0  0
 11 12  1  0  0  0
 11 13  1  0  0  0
 13 14  1  0  0  0
 13 19  1  0  0  0
 14 15  1  0  0  0
 15 16  1  0  0  0
 16 17  1  0  0  0
 17 18  1  0  0  0
 19 20  1  0  0  0
 20 21  2  0  0  0
 20 22  1  0  0  0
 22 23  1  0  0  0
 22 34  1  0  0  0
 23 24  1  0  0  0
 24 25  2  0  0  0
 24 26  1  0  0  0
 26 27  1  0  0  0
 27 28  1  0  0  0
 28 29  4  0  0  0
 28 33  4  0  0  0
 29 30  4  0  0  0
 30 31  4  0  0  0
 31 32  4  0  0  0
 32 33  4  0  0  0
 34 35  1  0  0  0
 35 36  1  0  0  0
 36 37  2  0  0  0
 36 38  1  0  0  0
 38 39  1  0  0  0
 39 40  1  0  0  0
 39 41  1  0  0  0
 41 42  4  0  0  0
 41 46  4  0  0  0
 42 43  4  0  0  0
 43 44  4  0  0  0
 44 45  4  0  0  0
 45 46  4  0  0  0
  1 47  1  0  0  0
  2 48  1  0  0  0
  3 49  1  0  0  0
  4 50  1  0  0  0
  5 51  1  0  0  0
  7 52  1  0  0  0
  7 53  1  0  0  0
  8 54  1  0  0  0
 11 55  1  0  0  0
 12 56  1  0  0  0
 13 57  1  0  0  0
 14 58  1  0  0  0
 14 59  1  0  0  0
 15 60  1  0  0  0
 15 61  1  0  0  0
 16 62  1  0  0  0
 16 63  1  0  0  0
 17 64  1  0  0  0
 17 65  1  0  0  0
 18 66  1  0  0  0
 18 67  1  0  0  0
 18 68  1  0  0  0
 19 69  1  0  0  0
 22 70  1  0  0  0
 23 71  1  0  0  0
 27 72  1  0  0  0
 27 73  1  0  0  0
 29 74  1  0  0  0
 30 75  1  0  0  0
 31 76  1  0  0  0
 32 77  1  0  0  0
 33 78  1  0  0  0
 34 79  1  0  0  0
 34 80  1  0  0  0
 35 81  1  0  0  0
 35 82  1  0  0  0
 38 83  1  0  0  0
 40 84  1  0  0  0
 40 85  1  0  0  0
 40 86  1  0  0  0
 42 87  1  0  0  0
 43 88  1  0  0  0
 44 89  1  0  0  0
 45 90  1  0  0  0
 46 91  1  0  0  0
M  END
$$$$
