4k67_ligand
  -I-interpret- 

 61 62  0  0  0  0  0  0  0  0999 V2000
   18.0110  -21.8510   34.6000 C   0  0  0  0  0
   17.4760  -21.9840   35.9750 C   0  0  0  0  0
   18.8830  -21.9740   36.6230 C   0  0  0  0  0
   19.6360  -20.6700   36.7300 C   0  0  0  0  0
   18.8840  -19.5620   37.2150 C   0  0  0  0  0
   17.5790  -19.5700   36.4760 C   0  0  0  0  0
   16.6770  -18.5810   36.9660 C   0  0  0  0  0
   15.3170  -18.8850   36.3430 C   0  0  0  0  0
   14.2800  -17.8360   36.6170 C   0  0  0  0  0
   19.4700  -17.1420   37.9150 C   0  0  0  0  0
   20.1550  -15.8650   37.6090 C   0  0  0  0  0
   19.5580  -18.2700   36.9420 N   0  0  0  0  0
   17.4540  -21.0680   33.8170 O   0  0  0  0  0
   19.0220  -22.5850   34.2180 O   0  0  0  0  0
   20.8080  -20.8430   37.5590 O   0  0  0  0  0
   16.9720  -20.9160   36.6920 O   0  0  0  0  0
   16.5420  -18.7010   38.3300 O   0  0  0  0  0
   15.4280  -18.9330   34.9700 O   0  0  0  0  0
   13.9710  -17.0930   35.5290 O   0  0  0  0  0
   18.8430  -17.2640   38.9550 O   0  0  0  0  0
   13.9090  -26.1490   37.6270 C   0  0  0  0  0
   13.0670  -26.4600   36.3850 C   0  0  0  0  0
   14.0210  -26.7770   35.2310 C   0  0  0  0  0
   14.9070  -25.5570   35.0030 C   0  0  0  0  0
   15.5710  -25.0440   36.2800 C   0  0  0  0  0
   15.9460  -23.6000   36.0320 C   0  0  0  0  0
   13.0850  -25.8940   38.7500 O   0  0  0  0  0
   12.1370  -27.5060   36.6200 O   0  0  0  0  0
   13.3180  -27.0670   34.0330 O   0  0  0  0  0
   14.0980  -24.5300   34.4740 O   0  0  0  0  0
   14.6880  -24.9910   37.3860 O   0  0  0  0  0
   17.2430  -23.2990   36.4760 O   0  0  0  0  0
   19.4950  -22.5967   35.9705 H   0  0  0  0  0
   18.7173  -22.2858   37.6542 H   0  0  0  0  0
   19.8996  -20.4195   35.7024 H   0  0  0  0  0
   18.7647  -19.6555   38.2944 H   0  0  0  0  0
   17.7607  -19.3524   35.4235 H   0  0  0  0  0
   17.0399  -17.5825   36.7221 H   0  0  0  0  0
   15.0097  -19.8317   36.7874 H   0  0  0  0  0
   14.6841  -17.1622   37.3725 H   0  0  0  0  0
   13.3714  -18.3461   36.9369 H   0  0  0  0  0
   19.4207  -15.0603   37.5708 H   0  0  0  0  0
   20.8888  -15.6524   38.3865 H   0  0  0  0  0
   20.6578  -15.9457   36.6453 H   0  0  0  0  0
   20.0882  -18.1507   36.0788 H   0  0  0  0  0
   19.3202  -23.1248   34.9537 H   0  0  0  0  0
   21.3192  -21.5889   37.2368 H   0  0  0  0  0
   17.3843  -18.5150   38.7514 H   0  0  0  0  0
   14.5687  -19.1245   34.5871 H   0  0  0  0  0
   13.3058  -16.4425   35.7655 H   0  0  0  0  0
   14.5412  -27.0132   37.8310 H   0  0  0  0  0
   12.4610  -25.5921   36.1250 H   0  0  0  0  0
   14.6098  -27.6559   35.4935 H   0  0  0  0  0
   15.7079  -25.8505   34.3244 H   0  0  0  0  0
   16.3998  -25.7156   36.5038 H   0  0  0  0  0
   15.2469  -22.9710   36.5831 H   0  0  0  0  0
   15.9081  -23.4220   34.9573 H   0  0  0  0  0
   13.6357  -25.7025   39.5127 H   0  0  0  0  0
   11.6316  -27.6690   35.8203 H   0  0  0  0  0
   13.9463  -27.2603   33.3334 H   0  0  0  0  0
   14.6342  -23.7485   34.3211 H   0  0  0  0  0
  2  1  1  0  0  0
  1 13  2  0  0  0
  1 14  1  0  0  0
  2  3  1  0  0  0
  2 16  1  0  0  0
 32  2  1  0  0  0
  3  4  1  0  0  0
  4  5  1  0  0  0
  4 15  1  0  0  0
  6  5  1  0  0  0
  5 12  1  0  0  0
  6  7  1  0  0  0
 16  6  1  0  0  0
  7  8  1  0  0  0
  7 17  1  0  0  0
  8  9  1  0  0  0
  8 18  1  0  0  0
  9 19  1  0  0  0
 10 11  1  0  0  0
 12 10  1  0  0  0
 10 20  2  0  0  0
 21 22  1  0  0  0
 21 27  1  0  0  0
 31 21  1  0  0  0
 23 22  1  0  0  0
 22 28  1  0  0  0
 24 23  1  0  0  0
 23 29  1  0  0  0
 25 24  1  0  0  0
 24 30  1  0  0  0
 26 25  1  0  0  0
 25 31  1  0  0  0
 26 32  1  0  0  0
  3 33  1  0  0  0
  3 34  1  0  0  0
  4 35  1  0  0  0
  5 36  1  0  0  0
  6 37  1  0  0  0
  7 38  1  0  0  0
  8 39  1  0  0  0
  9 40  1  0  0  0
  9 41  1  0  0  0
 11 42  1  0  0  0
 11 43  1  0  0  0
 11 44  1  0  0  0
 12 45  1  0  0  0
 14 46  1  0  0  0
 15 47  1  0  0  0
 17 48  1  0  0  0
 18 49  1  0  0  0
 19 50  1  0  0  0
 21 51  1  0  0  0
 22 52  1  0  0  0
 23 53  1  0  0  0
 24 54  1  0  0  0
 25 55  1  0  0  0
 26 56  1  0  0  0
 26 57  1  0  0  0
 27 58  1  0  0  0
 28 59  1  0  0  0
 29 60  1  0  0  0
 30 61  1  0  0  0
M  END
$$$$
