5ant_ligand
  -I-interpret- 

 43 45  0  0  0  0  0  0  0  0999 V2000
   -8.4230    9.8500  -14.4500 C   0  0  0  0  0
   -7.7040   10.7840  -15.3090 N   0  0  0  0  0
   -7.8070   10.7810  -16.6920 C   0  0  0  0  0
   -8.5390    9.8720  -17.3180 N   0  0  0  0  0
   -8.6600    9.8530  -18.6430 C   0  0  0  0  0
   -9.4520    8.8640  -19.1650 O   0  0  0  0  0
   -9.5250    8.9230  -20.5900 C   0  0  0  0  0
  -10.9970    9.1550  -20.9500 C   0  0  0  0  0
  -11.1730   10.4950  -21.3940 O   0  0  0  0  0
  -11.1760   10.7400  -22.8130 C   0  0  0  0  0
   -8.0320   10.7420  -19.4010 N   0  0  0  0  0
   -7.2810   11.6940  -18.8500 C   0  0  0  0  0
   -6.5100   12.7180  -19.3480 N   0  0  0  0  0
   -6.2100   13.0040  -20.7590 C   0  0  0  0  0
   -7.2320   13.6630  -21.6310 C   0  0  0  0  0
   -8.5270   13.1770  -21.7320 C   0  0  0  0  0
   -9.4290   13.8060  -22.5810 C   0  0  0  0  0
   -9.0280   14.9020  -23.3230 C   0  0  0  0  0
   -7.7340   15.3680  -23.2260 C   0  0  0  0  0
   -6.8270   14.7470  -22.3840 C   0  0  0  0  0
   -5.9310   13.3590  -18.3230 C   0  0  0  0  0
   -5.1600   14.3070  -18.4310 O   0  0  0  0  0
   -6.3230   12.8110  -17.1590 N   0  0  0  0  0
   -7.1650   11.7470  -17.4590 C   0  0  0  0  0
   -9.4956    9.9708  -14.6017 H   0  0  0  0  0
   -8.1319    8.8299  -14.7008 H   0  0  0  0  0
   -8.1769   10.0536  -13.4079 H   0  0  0  0  0
   -7.0946   11.4743  -14.8704 H   0  0  0  0  0
   -9.1588    7.9978  -21.0350 H   0  0  0  0  0
   -8.9003    9.7282  -20.9766 H   0  0  0  0  0
  -11.6173    8.9798  -20.0710 H   0  0  0  0  0
  -11.2885    8.4684  -21.7448 H   0  0  0  0  0
  -10.2236   10.4222  -23.2373 H   0  0  0  0  0
  -11.9871   10.1778  -23.2758 H   0  0  0  0  0
  -11.3196   11.8049  -22.9963 H   0  0  0  0  0
   -6.0655   12.0215  -21.2083 H   0  0  0  0  0
   -5.3877   13.7184  -20.7203 H   0  0  0  0  0
   -8.8347   12.3084  -21.1498 H   0  0  0  0  0
  -10.4512   13.4363  -22.6622 H   0  0  0  0  0
   -9.7365   15.3985  -23.9860 H   0  0  0  0  0
   -7.4231   16.2304  -23.8157 H   0  0  0  0  0
   -5.8018   15.1109  -22.3162 H   0  0  0  0  0
   -6.0516   13.1202  -16.2257 H   0  0  0  0  0
  1  2  1  0  0  0
  2  3  1  0  0  0
  3  4  4  0  0  0
  3 24  4  0  0  0
  4  5  4  0  0  0
  5  6  1  0  0  0
  5 11  4  0  0  0
  6  7  1  0  0  0
  7  8  1  0  0  0
  8  9  1  0  0  0
  9 10  1  0  0  0
 11 12  4  0  0  0
 12 13  1  0  0  0
 12 24  4  0  0  0
 13 14  1  0  0  0
 13 21  1  0  0  0
 14 15  1  0  0  0
 15 16  4  0  0  0
 15 20  4  0  0  0
 16 17  4  0  0  0
 17 18  4  0  0  0
 18 19  4  0  0  0
 19 20  4  0  0  0
 21 22  2  0  0  0
 21 23  1  0  0  0
 23 24  1  0  0  0
  1 25  1  0  0  0
  1 26  1  0  0  0
  1 27  1  0  0  0
  2 28  1  0  0  0
  7 29  1  0  0  0
  7 30  1  0  0  0
  8 31  1  0  0  0
  8 32  1  0  0  0
 10 33  1  0  0  0
 10 34  1  0  0  0
 10 35  1  0  0  0
 14 36  1  0  0  0
 14 37  1  0  0  0
 16 38  1  0  0  0
 17 39  1  0  0  0
 18 40  1  0  0  0
 19 41  1  0  0  0
 20 42  1  0  0  0
 23 43  1  0  0  0
M  END
$$$$
