3iw8_ligand
  -I-interpret- 

 47 49  0  0  0  0  0  0  0  0999 V2000
   22.0300   -0.7590   16.8520 N   0  3  0  0  0
   17.9090    4.5110   18.2350 O   0  0  0  0  0
   13.8760    9.0330   17.0480 F   0  0  0  0  0
   14.4380    7.9180   19.6240 Cl  0  0  0  0  0
   24.3520    5.0380   20.9760 C   0  0  0  0  0
   23.2420    4.4810   20.3390 C   0  0  0  0  0
   25.3390    4.2150   21.5340 C   0  0  0  0  0
   23.1410    3.0930   20.2750 C   0  0  0  0  0
   25.2350    2.8270   21.4690 C   0  0  0  0  0
   15.8710    8.2480   15.9420 C   0  0  0  0  0
   17.0830    7.5540   15.9980 C   0  0  0  0  0
   20.1770    0.8540   18.8770 C   0  0  0  0  0
   16.6940    7.0580   18.3210 C   0  0  0  0  0
   24.0120    0.8870   20.7560 C   0  0  0  0  0
   22.8620   -0.5140   19.1600 C   0  0  0  0  0
   21.2720    2.4400   17.6000 N   0  0  0  0  0
   18.6810    6.2850   17.1230 N   0  0  0  0  0
   20.0070    4.4360   17.4830 N   0  0  0  0  0
   22.7520    0.2640   20.4010 O   0  0  0  0  0
   19.1580    2.2100   18.9000 S   0  0  0  0  0
   18.8250    5.0530   17.6250 C   0  0  0  0  0
   24.1270    2.2690   20.8320 C   0  0  0  0  0
   15.0620    8.3580   17.0730 C   0  0  0  0  0
   17.5160    6.9620   17.1870 C   0  0  0  0  0
   15.4800    7.7590   18.2550 C   0  0  0  0  0
   21.2540    1.1910   18.1260 C   0  0  0  0  0
   20.2130    3.1870   17.9380 C   0  0  0  0  0
   22.4240    0.2180   17.8700 C   0  0  0  0  0
   21.7427   -0.2686   16.0050 H   0  0  0  0  0
   22.8213   -1.3675   16.6422 H   0  0  0  0  0
   21.2527   -1.3187   17.2025 H   0  0  0  0  0
   24.4517    6.1216   21.0398 H   0  0  0  0  0
   22.4723    5.1170   19.9019 H   0  0  0  0  0
   26.2004    4.6668   22.0259 H   0  0  0  0  0
   22.2799    2.6406   19.7830 H   0  0  0  0  0
   26.0038    2.1905   21.9070 H   0  0  0  0  0
   15.5550    8.7077   15.0055 H   0  0  0  0  0
   17.6985    7.4736   15.1020 H   0  0  0  0  0
   20.0002   -0.1019   19.3700 H   0  0  0  0  0
   16.9995    6.5868   19.2552 H   0  0  0  0  0
   24.6837    0.6090   19.9438 H   0  0  0  0  0
   24.1974    0.5488   21.7755 H   0  0  0  0  0
   22.1957   -1.3694   19.2714 H   0  0  0  0  0
   23.9186   -0.7518   19.0369 H   0  0  0  0  0
   19.4826    6.7290   16.6750 H   0  0  0  0  0
   20.7704    4.9269   17.0175 H   0  0  0  0  0
   23.2758    0.8016   17.5207 H   0  0  0  0  0
 28  1  1  0  0  0
 21  2  2  0  0  0
 23  3  1  0  0  0
 25  4  1  0  0  0
  6  5  4  0  0  0
  7  5  4  0  0  0
  8  6  4  0  0  0
  9  7  4  0  0  0
 22  8  4  0  0  0
 22  9  4  0  0  0
 11 10  4  0  0  0
 10 23  4  0  0  0
 24 11  4  0  0  0
 12 20  4  0  0  0
 26 12  4  0  0  0
 24 13  4  0  0  0
 13 25  4  0  0  0
 19 14  1  0  0  0
 14 22  1  0  0  0
 15 19  1  0  0  0
 28 15  1  0  0  0
 26 16  4  0  0  0
 16 27  4  0  0  0
 21 17  1  0  0  0
 17 24  1  0  0  0
 18 21  1  0  0  0
 27 18  1  0  0  0
 27 20  4  0  0  0
 25 23  4  0  0  0
 26 28  1  0  0  0
  1 29  1  0  0  0
  1 30  1  0  0  0
  1 31  1  0  0  0
  5 32  1  0  0  0
  6 33  1  0  0  0
  7 34  1  0  0  0
  8 35  1  0  0  0
  9 36  1  0  0  0
 10 37  1  0  0  0
 11 38  1  0  0  0
 12 39  1  0  0  0
 13 40  1  0  0  0
 14 41  1  0  0  0
 14 42  1  0  0  0
 15 43  1  0  0  0
 15 44  1  0  0  0
 17 45  1  0  0  0
 18 46  1  0  0  0
 28 47  1  0  0  0
M  END
$$$$
