6eee_ligand
  -I-interpret- 

 58 62  0  0  0  0  0  0  0  0999 V2000
  181.0640   16.0570   84.5290 C   0  0  0  0  0
  180.1250   17.0380   85.1980 C   0  0  0  0  0
  180.9900   18.0860   85.9790 C   0  0  0  0  0
  181.9480   18.7980   84.9860 C   0  0  0  0  0
  181.0710   19.5320   83.9410 C   0  0  0  0  0
  182.8100   17.7310   84.2850 C   0  0  0  0  0
  181.7510   17.0050   83.7320 C   0  0  0  0  0
  181.1340   17.4280   82.5000 C   0  0  0  0  0
  180.1960   18.4840   83.1390 C   0  0  0  0  0
  179.2950   17.7710   84.1030 C   0  0  0  0  0
  178.3290   16.8070   83.3410 C   0  0  0  0  0
  178.1710   16.8310   82.1150 O   0  0  0  0  0
  177.5650   16.0600   84.1370 N   0  0  0  0  0
  176.5470   15.1480   83.5990 C   0  0  0  0  0
  176.5200   13.9890   84.5790 C   0  0  0  0  0
  176.6440   14.1930   85.7860 O   0  0  0  0  0
  176.4960   12.7860   83.9970 N   0  0  0  0  0
  176.5460   11.6010   84.8160 O   0  0  0  0  0
  175.3180   15.8180   83.4780 C   0  0  0  0  0
  174.2350   15.1840   82.8830 C   0  0  0  0  0
  173.0120   15.8360   82.7590 C   0  0  0  0  0
  175.1640   17.1350   83.9390 C   0  0  0  0  0
  173.9470   17.7970   83.8190 C   0  0  0  0  0
  172.8620   17.1400   83.2210 C   0  0  0  0  0
  171.6280   17.7790   83.0850 C   0  0  0  0  0
  171.2730   18.7950   83.9600 C   0  0  0  0  0
  170.0340   19.4230   83.8130 C   0  0  0  0  0
  169.6210   20.4660   84.6540 F   0  0  0  0  0
  169.1590   19.0340   82.8140 C   0  0  0  0  0
  167.9640   19.6780   82.7260 F   0  0  0  0  0
  169.5000   18.0110   81.9420 C   0  0  0  0  0
  168.5970   17.6290   80.9380 F   0  0  0  0  0
  170.7350   17.3840   82.0840 C   0  0  0  0  0
  180.5963   15.2286   83.9969 H   0  0  0  0  0
  181.6791   15.4494   85.1928 H   0  0  0  0  0
  179.4509   16.5199   85.8801 H   0  0  0  0  0
  181.5716   17.5793   86.7491 H   0  0  0  0  0
  180.3374   18.8216   86.4491 H   0  0  0  0  0
  182.5996   19.5059   85.4982 H   0  0  0  0  0
  181.7153   20.0693   83.2451 H   0  0  0  0  0
  180.4119   20.2326   84.4537 H   0  0  0  0  0
  183.4969   17.1725   84.9209 H   0  0  0  0  0
  183.5587   18.1005   83.5843 H   0  0  0  0  0
  182.4709   16.3414   83.2530 H   0  0  0  0  0
  180.6570   16.6511   81.9025 H   0  0  0  0  0
  181.8039   17.7823   81.7165 H   0  0  0  0  0
  179.6167   18.9986   82.3723 H   0  0  0  0  0
  178.6754   18.5064   84.6162 H   0  0  0  0  0
  177.6905   16.1232   85.1473 H   0  0  0  0  0
  176.7635   14.7852   82.5942 H   0  0  0  0  0
  176.4427   12.7072   82.9814 H   0  0  0  0  0
  176.5206   10.8234   84.2536 H   0  0  0  0  0
  174.3441   14.1658   82.5095 H   0  0  0  0  0
  172.1679   15.3231   82.2980 H   0  0  0  0  0
  176.0105   17.6460   84.3976 H   0  0  0  0  0
  173.8374   18.8173   84.1864 H   0  0  0  0  0
  171.9541   19.1003   84.7544 H   0  0  0  0  0
  171.0092   16.5753   81.4066 H   0  0  0  0  0
  1  2  1  0  0  0
  1  7  1  0  0  0
  2  3  1  0  0  0
  2 10  1  0  0  0
  3  4  1  0  0  0
  4  5  1  0  0  0
  4  6  1  0  0  0
  5  9  1  0  0  0
  6  7  1  0  0  0
  7  8  1  0  0  0
  8  9  1  0  0  0
  9 10  1  0  0  0
 10 11  1  0  0  0
 11 12  2  0  0  0
 11 13  1  0  0  0
 13 14  1  0  0  0
 14 15  1  0  0  0
 14 19  1  0  0  0
 15 16  2  0  0  0
 15 17  1  0  0  0
 17 18  1  0  0  0
 19 20  4  0  0  0
 19 22  4  0  0  0
 20 21  4  0  0  0
 21 24  4  0  0  0
 22 23  4  0  0  0
 23 24  4  0  0  0
 24 25  1  0  0  0
 25 26  4  0  0  0
 25 33  4  0  0  0
 26 27  4  0  0  0
 27 28  1  0  0  0
 27 29  4  0  0  0
 29 30  1  0  0  0
 29 31  4  0  0  0
 31 32  1  0  0  0
 31 33  4  0  0  0
  1 34  1  0  0  0
  1 35  1  0  0  0
  2 36  1  0  0  0
  3 37  1  0  0  0
  3 38  1  0  0  0
  4 39  1  0  0  0
  5 40  1  0  0  0
  5 41  1  0  0  0
  6 42  1  0  0  0
  6 43  1  0  0  0
  7 44  1  0  0  0
  8 45  1  0  0  0
  8 46  1  0  0  0
  9 47  1  0  0  0
 10 48  1  0  0  0
 13 49  1  0  0  0
 14 50  1  0  0  0
 17 51  1  0  0  0
 18 52  1  0  0  0
 20 53  1  0  0  0
 21 54  1  0  0  0
 22 55  1  0  0  0
 23 56  1  0  0  0
 26 57  1  0  0  0
 33 58  1  0  0  0
M  END
$$$$
