6mzw_ligand
  -I-interpret- 

 53 56  0  0  0  0  0  0  0  0999 V2000
  -11.7010   12.9120    6.8790 C   0  0  0  0  0
  -12.7520   12.9290    7.8480 O   0  0  0  0  0
  -12.7380   11.8930    8.7690 C   0  0  0  0  0
  -13.8940   11.8400    9.4980 C   0  0  0  0  0
  -11.7010   10.9850    8.9910 C   0  0  0  0  0
  -11.8970   10.0200    9.9810 C   0  0  0  0  0
  -10.9870    9.0790   10.3000 O   0  0  0  0  0
   -9.6220    9.1430    9.8900 C   0  0  0  0  0
  -13.0790    9.9380   10.7240 C   0  0  0  0  0
  -14.0780   10.8830   10.4790 C   0  0  0  0  0
  -15.2980   10.8240   11.1710 C   0  0  0  0  0
  -16.2760   10.8730   11.7060 C   0  0  0  0  0
  -17.4610   10.8820   12.3540 C   0  0  0  0  0
  -18.4320    9.9480   12.2190 N   0  0  0  0  0
  -17.8190   11.9050   13.2610 C   0  0  0  0  0
  -17.3190   13.1040   13.8420 C   0  0  0  0  0
  -16.1270   13.5830   13.5320 N   0  0  0  0  0
  -18.0650   13.7970   14.7110 N   0  0  0  0  0
  -19.2810   13.2890   15.0130 C   0  0  0  0  0
  -19.8850   12.1920   14.5800 N   0  0  0  0  0
  -19.1020   11.5420   13.6950 C   0  0  0  0  0
  -19.4510   10.3790   13.0510 N   0  0  0  0  0
  -20.7310    9.6590   13.2520 C   0  0  0  0  0
  -20.4890    8.2050   13.2720 C   0  0  0  0  0
  -21.7760    9.8880   12.1720 C   0  0  0  0  0
  -21.4810    8.9130   11.0860 C   0  0  0  0  0
  -20.7560    7.8420   11.8540 N   0  0  0  0  0
  -20.4070    6.6410   11.3070 C   0  0  0  0  0
  -20.6780    6.4020   10.1100 O   0  0  0  0  0
  -19.6780    5.6300   12.1280 C   0  0  0  0  0
  -19.3250    4.4500   11.6250 C   0  0  0  0  0
  -10.7386   12.9678    7.3877 H   0  0  0  0  0
  -11.7554   11.9889    6.3020 H   0  0  0  0  0
  -11.8105   13.7664    6.2111 H   0  0  0  0  0
  -14.6841   12.5649    9.3022 H   0  0  0  0  0
  -10.7765   11.0276    8.4152 H   0  0  0  0  0
   -9.5712    9.1558    8.8013 H   0  0  0  0  0
   -9.1669   10.0504   10.2869 H   0  0  0  0  0
   -9.0887    8.2715   10.2697 H   0  0  0  0  0
  -13.2168    9.1585   11.4733 H   0  0  0  0  0
  -15.5386   13.0907   12.8598 H   0  0  0  0  0
  -15.7954   14.4450   13.9649 H   0  0  0  0  0
  -19.8573   13.8765   15.7278 H   0  0  0  0  0
  -21.1153   10.0543   14.1923 H   0  0  0  0  0
  -21.1137    7.6678   13.9856 H   0  0  0  0  0
  -19.4897    7.9330   13.6120 H   0  0  0  0  0
  -21.7350   10.9116   11.7996 H   0  0  0  0  0
  -22.7822    9.7423   12.5650 H   0  0  0  0  0
  -20.9049    9.3317   10.2608 H   0  0  0  0  0
  -22.3665    8.5566   10.5597 H   0  0  0  0  0
  -19.4292    5.8637   13.1632 H   0  0  0  0  0
  -19.5677    4.2036   10.5913 H   0  0  0  0  0
  -18.7931    3.7297   12.2466 H   0  0  0  0  0
  1  2  1  0  0  0
  2  3  1  0  0  0
  3  4  4  0  0  0
  3  5  4  0  0  0
  4 10  4  0  0  0
  5  6  4  0  0  0
  6  7  1  0  0  0
  6  9  4  0  0  0
  7  8  1  0  0  0
  9 10  4  0  0  0
 10 11  1  0  0  0
 11 12  3  0  0  0
 12 13  1  0  0  0
 13 14  4  0  0  0
 13 15  4  0  0  0
 14 22  4  0  0  0
 15 16  4  0  0  0
 15 21  4  0  0  0
 16 17  1  0  0  0
 16 18  4  0  0  0
 18 19  4  0  0  0
 19 20  4  0  0  0
 20 21  4  0  0  0
 21 22  4  0  0  0
 22 23  1  0  0  0
 23 24  1  0  0  0
 23 25  1  0  0  0
 24 27  1  0  0  0
 25 26  1  0  0  0
 26 27  1  0  0  0
 27 28  1  0  0  0
 28 29  2  0  0  0
 28 30  1  0  0  0
 30 31  2  0  0  0
  1 32  1  0  0  0
  1 33  1  0  0  0
  1 34  1  0  0  0
  4 35  1  0  0  0
  5 36  1  0  0  0
  8 37  1  0  0  0
  8 38  1  0  0  0
  8 39  1  0  0  0
  9 40  1  0  0  0
 17 41  1  0  0  0
 17 42  1  0  0  0
 19 43  1  0  0  0
 23 44  1  0  0  0
 24 45  1  0  0  0
 24 46  1  0  0  0
 25 47  1  0  0  0
 25 48  1  0  0  0
 26 49  1  0  0  0
 26 50  1  0  0  0
 30 51  1  0  0  0
 31 52  1  0  0  0
 31 53  1  0  0  0
M  END
$$$$
