3kjf_ligand
  -I-interpret- 

 78 81  0  0  0  0  0  0  0  0999 V2000
   16.3620   -2.2790   13.8230 C   0  0  0  0  0
   16.7590   -1.1030   12.9950 C   0  0  0  0  0
   16.1610   -0.0430   13.1380 O   0  0  0  0  0
   17.8880   -1.2770   12.0160 C   0  0  0  0  0
   17.5010   -0.5610   10.7350 C   0  0  0  0  0
   18.7050   -0.1190    9.9500 C   0  0  0  0  0
   18.7170    0.1340    8.7520 O   0  0  0  0  0
   19.8100    0.0230   10.7200 O   0  0  0  0  0
   18.0240   -2.7010   11.7840 N   0  0  0  0  0
   19.1030   -3.4090   12.2490 C   0  0  0  0  0
   19.9330   -2.8350   12.9420 O   0  0  0  0  0
   19.1830   -4.8870   11.8260 C   0  0  0  0  0
   18.6450   -5.7200   12.9280 C   0  0  0  0  0
   19.3910   -6.2080   13.9250 C   0  0  0  0  0
   18.8070   -7.0660   14.9980 C   0  0  0  0  0
   19.3220   -6.6300   16.3600 C   0  0  0  0  0
   20.8220   -6.3920   16.3680 C   0  0  0  0  0
   21.1810   -5.3010   15.3730 C   0  0  0  0  0
   20.8570   -5.9440   14.0480 C   0  0  0  0  0
   21.4000   -5.3880   12.8290 N   0  0  0  0  0
   20.6200   -5.0000   11.7650 N   0  0  0  0  0
   21.4240   -4.6010   10.7360 C   0  0  0  0  0
   21.0550   -4.1660    9.6580 O   0  0  0  0  0
   22.7080   -4.8060   11.1980 N   0  0  0  0  0
   23.9070   -4.5290   10.4410 C   0  0  0  0  0
   24.6330   -5.8140   10.0780 C   0  0  0  0  0
   25.7930   -5.5130    9.1430 C   0  0  0  0  0
   26.8320   -6.6180    9.1690 C   0  0  0  0  0
   27.5120   -6.7480    7.8340 C   0  0  0  0  0
   27.3430   -6.0480    6.8470 O   0  0  0  0  0
   28.3790   -7.7910    7.8360 O   0  0  0  0  0
   23.6940   -6.7530    9.4930 N   0  0  0  0  0
   23.3290   -7.9120   10.1440 C   0  0  0  0  0
   23.4890   -8.1170   11.3400 O   0  0  0  0  0
   22.6820   -8.9560    9.2730 C   0  0  0  0  0
   22.9760   -8.7860    7.8220 C   0  0  0  0  0
   22.0360   -8.2080    7.0020 C   0  0  0  0  0
   22.3050   -8.0360    5.6610 C   0  0  0  0  0
   23.5090   -8.4460    5.1360 C   0  0  0  0  0
   24.4510   -9.0350    5.9540 C   0  0  0  0  0
   24.1800   -9.2010    7.2960 C   0  0  0  0  0
   22.7190   -5.3070   12.4810 C   0  0  0  0  0
   23.6870   -5.6030   13.1710 O   0  0  0  0  0
   16.4853   -2.0368   14.8786 H   0  0  0  0  0
   15.3189   -2.5257   13.6249 H   0  0  0  0  0
   16.9928   -3.1307   13.5683 H   0  0  0  0  0
   18.8302   -0.8685   12.3813 H   0  0  0  0  0
   16.9239    0.3246   11.0009 H   0  0  0  0  0
   16.9274   -1.2528   10.1181 H   0  0  0  0  0
   19.6021   -0.2225   11.6245 H   0  0  0  0  0
   17.2977   -3.1901   11.2608 H   0  0  0  0  0
   18.6462   -5.1825   10.9246 H   0  0  0  0  0
   17.5791   -5.9481   12.9255 H   0  0  0  0  0
   19.0968   -8.1020   14.8227 H   0  0  0  0  0
   17.7215   -6.9691   14.9801 H   0  0  0  0  0
   19.1048   -7.4266   17.0716 H   0  0  0  0  0
   18.8320   -5.6916   16.6194 H   0  0  0  0  0
   21.3326   -7.3137   16.0890 H   0  0  0  0  0
   21.1304   -6.0821   17.3665 H   0  0  0  0  0
   22.2202   -4.9810   15.4483 H   0  0  0  0  0
   20.6335   -4.3737   15.5417 H   0  0  0  0  0
   21.4271   -6.8705   14.1164 H   0  0  0  0  0
   24.5697   -3.9136   11.0495 H   0  0  0  0  0
   23.6283   -4.0139    9.5217 H   0  0  0  0  0
   25.0495   -6.2706   10.9758 H   0  0  0  0  0
   26.2667   -4.5870    9.4688 H   0  0  0  0  0
   25.4046   -5.4292    8.1280 H   0  0  0  0  0
   26.3357   -7.5600    9.4024 H   0  0  0  0  0
   27.5820   -6.3758    9.9219 H   0  0  0  0  0
   28.3686   -8.2127    8.6984 H   0  0  0  0  0
   23.2939   -6.5503    8.5769 H   0  0  0  0  0
   21.6033   -8.8665    9.4011 H   0  0  0  0  0
   23.0773   -9.9256    9.5757 H   0  0  0  0  0
   21.0787   -7.8860    7.4119 H   0  0  0  0  0
   21.5604   -7.5730    5.0134 H   0  0  0  0  0
   23.7182   -8.3057    4.0755 H   0  0  0  0  0
   25.4039   -9.3672    5.5420 H   0  0  0  0  0
   24.9234   -9.6637    7.9451 H   0  0  0  0  0
  1  2  1  0  0  0
  2  3  2  0  0  0
  2  4  1  0  0  0
  4  5  1  0  0  0
  4  9  1  0  0  0
  5  6  1  0  0  0
  6  7  2  0  0  0
  6  8  1  0  0  0
  9 10  1  0  0  0
 10 11  2  0  0  0
 10 12  1  0  0  0
 12 13  1  0  0  0
 12 21  1  0  0  0
 13 14  2  0  0  0
 14 15  1  0  0  0
 14 19  1  0  0  0
 15 16  1  0  0  0
 16 17  1  0  0  0
 17 18  1  0  0  0
 18 19  1  0  0  0
 19 20  1  0  0  0
 20 21  1  0  0  0
 20 42  1  0  0  0
 21 22  1  0  0  0
 22 23  2  0  0  0
 22 24  1  0  0  0
 24 25  1  0  0  0
 24 42  1  0  0  0
 25 26  1  0  0  0
 26 27  1  0  0  0
 26 32  1  0  0  0
 27 28  1  0  0  0
 28 29  1  0  0  0
 29 30  2  0  0  0
 29 31  1  0  0  0
 32 33  1  0  0  0
 33 34  2  0  0  0
 33 35  1  0  0  0
 35 36  1  0  0  0
 36 37  4  0  0  0
 36 41  4  0  0  0
 37 38  4  0  0  0
 38 39  4  0  0  0
 39 40  4  0  0  0
 40 41  4  0  0  0
 42 43  2  0  0  0
  1 44  1  0  0  0
  1 45  1  0  0  0
  1 46  1  0  0  0
  4 47  1  0  0  0
  5 48  1  0  0  0
  5 49  1  0  0  0
  8 50  1  0  0  0
  9 51  1  0  0  0
 12 52  1  0  0  0
 13 53  1  0  0  0
 15 54  1  0  0  0
 15 55  1  0  0  0
 16 56  1  0  0  0
 16 57  1  0  0  0
 17 58  1  0  0  0
 17 59  1  0  0  0
 18 60  1  0  0  0
 18 61  1  0  0  0
 19 62  1  0  0  0
 25 63  1  0  0  0
 25 64  1  0  0  0
 26 65  1  0  0  0
 27 66  1  0  0  0
 27 67  1  0  0  0
 28 68  1  0  0  0
 28 69  1  0  0  0
 31 70  1  0  0  0
 32 71  1  0  0  0
 35 72  1  0  0  0
 35 73  1  0  0  0
 37 74  1  0  0  0
 38 75  1  0  0  0
 39 76  1  0  0  0
 40 77  1  0  0  0
 41 78  1  0  0  0
M  END
$$$$
