6oxw_ligand
  -I-interpret- 

 98101  0  0  0  0  0  0  0  0999 V2000
   73.4460   53.9410   13.0870 C   0  0  0  0  0
   70.1120   57.1200   14.0460 C   0  0  0  0  0
   72.7090   59.0330   17.5990 C   0  0  0  0  0
   75.8840   60.4670   18.8400 C   0  0  0  0  0
   74.0310   60.6630   20.1750 C   0  0  0  0  0
   72.7010   60.8850   20.2010 C   0  0  0  0  0
   66.4800   52.2320   12.9740 C   0  0  0  0  0
   67.5290   51.6150   13.9200 C   0  0  0  0  0
   68.3860   52.5340   14.8000 C   0  0  0  0  0
   68.1800   54.0430   14.7290 C   0  0  0  0  0
   67.1290   54.6730   13.7650 C   0  0  0  0  0
   66.2840   53.7650   12.8990 C   0  0  0  0  0
   71.1550   54.8100   13.8590 C   0  0  0  0  0
   72.7190   54.9320   14.0440 C   0  0  0  0  0
   73.1090   54.6590   15.5550 C   0  0  0  0  0
   71.0240   58.1910   14.6290 C   0  0  0  0  0
   70.6620   58.4720   16.0850 C   0  0  0  0  0
   74.4670   59.8890   19.1700 C   0  0  0  0  0
   74.6690   62.0660   19.9000 C   0  0  0  0  0
   72.4310   62.1480   19.3210 C   0  0  0  0  0
   69.3050   59.1600   16.2080 C   0  0  0  0  0
   69.0910   59.5860   17.7260 C   0  0  0  0  0
   69.1660   61.0650   18.1300 C   0  0  0  0  0
   68.9560   61.4730   19.6050 C   0  0  0  0  0
   68.6700   60.3990   20.6650 C   0  0  0  0  0
   68.5940   58.9190   20.2590 C   0  0  0  0  0
   68.8040   58.5120   18.7870 C   0  0  0  0  0
   64.1340   51.6670   12.3560 C   0  0  0  0  0
   74.6530   54.9030   15.7440 C   0  0  0  0  0
   73.1650   52.4770   13.4650 C   0  0  0  0  0
   65.6230   51.3380   12.0930 C   0  0  0  0  0
   70.4480   55.8080   14.6870 N   0  0  0  0  0
   71.6690   59.4240   16.6020 N   0  0  0  0  0
   69.8600   54.4100   16.9210 O   0  0  0  0  0
   68.4590   56.2150   16.4480 O   0  0  0  0  0
   70.9050   59.3850   13.8780 O   0  0  0  0  0
   72.7300   57.9480   18.1050 O   0  0  0  0  0
   73.6580   60.0310   17.9150 O   0  0  0  0  0
   75.6900   61.8300   18.8290 O   0  0  0  0  0
   73.5550   62.9480   19.4350 O   0  0  0  0  0
   65.9440   51.5970   10.7770 O   0  0  0  0  0
   69.2410   55.1590   15.7880 S   0  0  0  0  0
   74.5193   54.1155   13.1622 H   0  0  0  0  0
   73.0806   54.1107   12.0742 H   0  0  0  0  0
   70.2570   57.0549   12.9676 H   0  0  0  0  0
   69.0698   57.3729   14.2407 H   0  0  0  0  0
   76.2722   60.0960   17.8915 H   0  0  0  0  0
   76.6359   60.1613   19.5675 H   0  0  0  0  0
   74.2924   60.1644   21.1084 H   0  0  0  0  0
   72.3569   61.0462   21.2226 H   0  0  0  0  0
   72.1585   60.0224   19.8141 H   0  0  0  0  0
   67.0966   52.0933   13.8621 H   0  0  0  0  0
   68.2416   51.1218   13.2589 H   0  0  0  0  0
   66.9493   51.0189   14.6248 H   0  0  0  0  0
   69.4074   52.3767   14.4534 H   0  0  0  0  0
   68.1208   52.2655   15.8226 H   0  0  0  0  0
   67.1814   53.6434   14.9057 H   0  0  0  0  0
   67.7149   55.2640   13.0611 H   0  0  0  0  0
   66.4171   55.1767   14.4189 H   0  0  0  0  0
   65.2631   53.9285   13.2441 H   0  0  0  0  0
   66.5580   54.0272   11.8771 H   0  0  0  0  0
   70.8418   53.8127   14.1678 H   0  0  0  0  0
   70.9107   54.9866   12.8115 H   0  0  0  0  0
   73.0356   55.9436   13.7901 H   0  0  0  0  0
   72.8673   53.6283   15.8145 H   0  0  0  0  0
   72.5502   55.3330   16.2043 H   0  0  0  0  0
   72.0512   57.8291   14.5838 H   0  0  0  0  0
   70.6319   57.5276   16.6284 H   0  0  0  0  0
   74.4261   58.8419   19.4700 H   0  0  0  0  0
   75.1460   62.5353   20.7604 H   0  0  0  0  0
   71.5382   62.6759   19.6561 H   0  0  0  0  0
   72.2505   61.8710   18.2824 H   0  0  0  0  0
   68.5128   58.4787   15.8974 H   0  0  0  0  0
   69.2747   60.0407   15.5665 H   0  0  0  0  0
   69.8910   60.3188   17.8308 H   0  0  0  0  0
   68.3405   61.5359   17.5963 H   0  0  0  0  0
   70.1930   61.3564   17.9097 H   0  0  0  0  0
   68.0572   62.0896   19.5921 H   0  0  0  0  0
   69.9096   61.9065   19.9064 H   0  0  0  0  0
   67.6691   60.6337   21.0273 H   0  0  0  0  0
   69.5218   60.4520   21.3430 H   0  0  0  0  0
   67.5665   58.6286   20.4782 H   0  0  0  0  0
   69.4191   58.4472   20.7926 H   0  0  0  0  0
   69.7027   57.8953   18.8004 H   0  0  0  0  0
   67.8502   58.0791   18.4853 H   0  0  0  0  0
   63.9534   52.7211   12.1454 H   0  0  0  0  0
   63.5078   51.0533   11.7084 H   0  0  0  0  0
   63.8956   51.4575   13.3988 H   0  0  0  0  0
   75.2086   54.2267   15.0944 H   0  0  0  0  0
   74.8909   55.9347   15.4850 H   0  0  0  0  0
   74.9246   54.7159   16.7829 H   0  0  0  0  0
   73.5135   52.2921   14.4811 H   0  0  0  0  0
   72.0932   52.2874   13.4070 H   0  0  0  0  0
   73.6898   51.8175   12.7739 H   0  0  0  0  0
   65.7994   50.2847   12.3110 H   0  0  0  0  0
   71.6522   60.3861   16.2638 H   0  0  0  0  0
   71.1324   59.2096   12.9620 H   0  0  0  0  0
   65.4118   51.0406   10.2035 H   0  0  0  0  0
 14  1  1  0  0  0
  1 30  1  0  0  0
  2 16  1  0  0  0
 32  2  1  0  0  0
 33  3  1  0  0  0
  3 37  2  0  0  0
  3 38  1  0  0  0
 18  4  1  0  0  0
  4 39  1  0  0  0
  5  6  1  0  0  0
 18  5  1  0  0  0
  5 19  1  0  0  0
  6 20  1  0  0  0
  8  7  1  0  0  0
 12  7  1  0  0  0
  7 31  1  0  0  0
  9  8  1  0  0  0
 10  9  1  0  0  0
 10 11  1  0  0  0
 42 10  1  0  0  0
 11 12  1  0  0  0
 13 14  1  0  0  0
 32 13  1  0  0  0
 14 15  1  0  0  0
 15 29  1  0  0  0
 16 17  1  0  0  0
 16 36  1  0  0  0
 17 21  1  0  0  0
 17 33  1  0  0  0
 38 18  1  0  0  0
 19 39  1  0  0  0
 19 40  1  0  0  0
 40 20  1  0  0  0
 21 22  1  0  0  0
 22 23  1  0  0  0
 22 27  1  0  0  0
 23 24  1  0  0  0
 24 25  1  0  0  0
 26 25  1  0  0  0
 27 26  1  0  0  0
 31 28  1  0  0  0
 31 41  1  0  0  0
 32 42  1  0  0  0
 42 34  2  0  0  0
 42 35  2  0  0  0
  1 43  1  0  0  0
  1 44  1  0  0  0
  2 45  1  0  0  0
  2 46  1  0  0  0
  4 47  1  0  0  0
  4 48  1  0  0  0
  5 49  1  0  0  0
  6 50  1  0  0  0
  6 51  1  0  0  0
  7 52  1  0  0  0
  8 53  1  0  0  0
  8 54  1  0  0  0
  9 55  1  0  0  0
  9 56  1  0  0  0
 10 57  1  0  0  0
 11 58  1  0  0  0
 11 59  1  0  0  0
 12 60  1  0  0  0
 12 61  1  0  0  0
 13 62  1  0  0  0
 13 63  1  0  0  0
 14 64  1  0  0  0
 15 65  1  0  0  0
 15 66  1  0  0  0
 16 67  1  0  0  0
 17 68  1  0  0  0
 18 69  1  0  0  0
 19 70  1  0  0  0
 20 71  1  0  0  0
 20 72  1  0  0  0
 21 73  1  0  0  0
 21 74  1  0  0  0
 22 75  1  0  0  0
 23 76  1  0  0  0
 23 77  1  0  0  0
 24 78  1  0  0  0
 24 79  1  0  0  0
 25 80  1  0  0  0
 25 81  1  0  0  0
 26 82  1  0  0  0
 26 83  1  0  0  0
 27 84  1  0  0  0
 27 85  1  0  0  0
 28 86  1  0  0  0
 28 87  1  0  0  0
 28 88  1  0  0  0
 29 89  1  0  0  0
 29 90  1  0  0  0
 29 91  1  0  0  0
 30 92  1  0  0  0
 30 93  1  0  0  0
 30 94  1  0  0  0
 31 95  1  0  0  0
 33 96  1  0  0  0
 36 97  1  0  0  0
 41 98  1  0  0  0
M  END
$$$$
