5t1m_ligand
  -I-interpret- 

206207  0  0  0  0  0  0  0  0999 V2000
   15.1040  -32.3350  -27.4700 N   0  3  0  0  0
   16.5020  -32.6100  -27.8080 C   0  0  0  0  0
   16.9370  -34.0230  -27.4220 C   0  0  0  0  0
   16.3490  -34.6580  -26.5370 O   0  0  0  0  0
   17.4450  -31.6000  -27.1390 C   0  0  0  0  0
   17.3400  -29.8910  -27.7330 S   0  0  0  0  0
   17.9640  -34.5110  -28.1070 N   0  0  0  0  0
   18.6670  -35.7250  -27.7020 C   0  0  0  0  0
   20.0780  -35.7540  -28.2930 C   0  0  0  0  0
   20.3400  -35.1530  -29.3410 O   0  0  0  0  0
   17.8800  -36.9830  -28.0790 C   0  0  0  0  0
   17.5960  -37.1460  -29.5510 C   0  0  0  0  0
   16.7520  -38.3830  -29.8370 C   0  0  0  0  0
   16.9540  -39.0650  -30.8460 O   0  0  0  0  0
   15.7970  -38.6770  -28.9470 N   0  0  0  0  0
   20.9890  -36.4350  -27.6080 N   0  0  0  0  0
   22.3660  -36.5390  -28.0690 C   0  0  0  0  0
   22.4390  -37.3150  -29.3760 C   0  0  0  0  0
   21.8000  -38.3570  -29.5270 O   0  0  0  0  0
   23.2140  -37.2260  -27.0110 C   0  0  0  0  0
   24.7040  -37.1510  -27.2400 C   0  0  0  0  0
   25.4060  -35.9580  -27.0510 C   0  0  0  0  0
   25.4240  -38.2870  -27.5960 C   0  0  0  0  0
   26.7900  -35.9040  -27.2480 C   0  0  0  0  0
   26.8000  -38.2400  -27.7920 C   0  0  0  0  0
   27.4710  -37.0540  -27.6190 C   0  0  0  0  0
   28.8230  -37.0310  -27.8160 O   0  0  0  0  0
   23.2250  -36.7960  -30.3160 N   0  0  0  0  0
   23.3960  -37.4160  -31.6140 C   0  0  0  0  0
   24.7900  -38.0380  -31.6610 C   0  0  0  0  0
   25.7900  -37.3470  -31.4840 O   0  0  0  0  0
   23.2320  -36.3480  -32.6970 C   0  0  0  0  0
   23.1400  -36.9230  -34.0890 C   0  0  0  0  0
   24.1710  -37.4090  -34.5880 O   0  0  0  0  0
   22.0450  -36.8630  -34.6920 O   0  0  0  0  0
   24.8600  -39.3440  -31.8810 N   0  0  0  0  0
   26.1430  -40.0380  -31.9130 C   0  0  0  0  0
   27.0150  -39.7340  -33.1370 C   0  0  0  0  0
   28.1920  -40.0640  -33.1350 O   0  0  0  0  0
   25.9420  -41.5450  -31.8040 C   0  0  0  0  0
   25.2410  -42.0550  -30.5500 C   0  0  0  0  0
   25.1080  -43.5680  -30.6280 C   0  0  0  0  0
   26.0070  -41.6340  -29.3050 C   0  0  0  0  0
   26.4480  -39.1190  -34.1740 N   0  0  0  0  0
   27.2180  -38.7710  -35.3750 C   0  0  0  0  0
   27.7920  -37.3730  -35.2730 C   0  0  0  0  0
   28.9270  -37.1290  -35.6710 O   0  0  0  0  0
   26.3610  -38.8510  -36.6410 C   0  0  0  0  0
   26.0920  -40.1920  -37.0000 O   0  0  0  0  0
   26.9940  -36.4510  -34.7510 N   0  0  0  0  0
   27.4180  -35.0670  -34.6090 C   0  0  0  0  0
   28.1360  -34.8650  -33.2930 C   0  0  0  0  0
   28.8800  -33.9010  -33.1470 O   0  0  0  0  0
   26.2210  -34.0870  -34.6340 C   0  0  0  0  0
   25.4320  -34.2710  -33.4510 O   0  0  0  0  0
   25.3590  -34.2920  -35.8800 C   0  0  0  0  0
   27.8960  -35.7690  -32.3400 N   0  0  0  0  0
   28.4510  -35.6620  -30.9820 C   0  0  0  0  0
   28.0750  -34.3580  -30.2770 C   0  0  0  0  0
   28.9200  -33.6880  -29.6790 O   0  0  0  0  0
   29.9640  -35.8220  -31.0060 C   0  0  0  0  0
   30.4180  -37.1040  -31.6600 C   0  0  0  0  0
   30.1350  -38.3000  -30.7890 C   0  0  0  0  0
   30.8220  -39.4810  -31.3030 N   0  0  0  0  0
   32.0650  -39.8320  -30.9770 C   0  0  0  0  0
   32.7650  -39.0980  -30.1150 N   0  0  0  0  0
   32.6040  -40.9250  -31.5090 N   0  0  0  0  0
   26.8020  -34.0040  -30.3810 N   0  0  0  0  0
   26.2280  -32.8270  -29.7570 C   0  0  0  0  0
   24.7580  -33.1520  -29.5970 C   0  0  0  0  0
   24.2540  -34.1060  -30.2140 O   0  0  0  0  0
   26.3360  -31.6050  -30.6710 C   0  0  0  0  0
   27.6310  -30.8350  -30.5890 C   0  0  0  0  0
   27.8690  -30.1730  -29.2320 C   0  0  0  0  0
   26.9270  -29.0990  -28.9120 N   0  0  0  0  0
   26.9570  -27.8680  -29.4250 C   0  0  0  0  0
   27.8730  -27.5260  -30.3270 N   0  0  0  0  0
   26.0570  -26.9740  -29.0370 N   0  0  0  0  0
   24.0620  -32.3740  -28.7790 N   0  0  0  0  0
   22.6110  -32.4510  -28.7830 C   0  0  0  0  0
   22.1080  -32.0550  -30.1750 C   0  0  0  0  0
   22.7280  -31.2500  -30.8770 O   0  0  0  0  0
   22.0090  -31.5430  -27.7120 C   0  0  0  0  0
   22.1760  -32.0000  -26.2640 C   0  0  0  0  0
   21.7510  -30.8950  -25.3170 C   0  0  0  0  0
   21.3970  -33.2880  -25.9820 C   0  0  0  0  0
   21.0120  -32.6630  -30.5940 N   0  0  0  0  0
   20.3500  -32.2540  -31.8140 C   0  0  0  0  0
   18.9210  -31.8850  -31.4400 C   0  0  0  0  0
   18.2390  -32.6510  -30.7650 O   0  0  0  0  0
   20.3710  -33.3780  -32.8460 C   0  0  0  0  0
   19.5940  -33.0700  -34.1330 C   0  0  0  0  0
   19.5870  -34.2830  -35.0590 C   0  0  0  0  0
   18.4780  -34.2010  -36.1100 C   0  0  0  0  0
   18.1140  -35.5550  -36.6470 N   0  3  0  0  0
   18.4840  -30.7020  -31.8540 N   0  0  0  0  0
   17.1510  -30.2230  -31.4970 C   0  0  0  0  0
   16.2110  -30.1520  -32.7000 C   0  0  0  0  0
   16.6010  -29.6930  -33.7740 O   0  0  0  0  0
   17.2480  -28.8670  -30.7970 C   0  0  0  0  0
   18.2370  -28.9280  -29.2780 S   0  0  0  0  0
   15.0470  -30.5630  -32.6220 O   0  0  0  0  0
   14.5035  -33.0207  -27.9279 H   0  0  0  0  0
   14.9816  -32.3954  -26.4592 H   0  0  0  0  0
   14.8565  -31.3981  -27.7883 H   0  0  0  0  0
   16.5678  -32.5168  -28.8920 H   0  0  0  0  0
   18.4578  -31.9370  -27.3598 H   0  0  0  0  0
   17.1649  -31.5737  -26.0859 H   0  0  0  0  0
   18.2731  -34.0204  -28.9462 H   0  0  0  0  0
   18.7545  -35.7140  -26.6156 H   0  0  0  0  0
   16.9136  -36.9086  -27.5803 H   0  0  0  0  0
   18.4914  -37.8352  -27.7821 H   0  0  0  0  0
   18.5475  -37.2551  -30.0714 H   0  0  0  0  0
   17.0426  -36.2703  -29.8901 H   0  0  0  0  0
   15.2012  -39.4926  -29.0890 H   0  0  0  0  0
   15.6649  -38.0855  -28.1266 H   0  0  0  0  0
   20.7180  -36.8957  -26.7392 H   0  0  0  0  0
   22.7498  -35.5337  -28.2427 H   0  0  0  0  0
   22.9456  -38.2823  -27.0297 H   0  0  0  0  0
   23.0145  -36.7165  -26.0683 H   0  0  0  0  0
   24.8694  -35.0593  -26.7467 H   0  0  0  0  0
   24.8987  -39.2335  -27.7239 H   0  0  0  0  0
   27.3285  -34.9663  -27.1111 H   0  0  0  0  0
   27.3432  -39.1396  -28.0814 H   0  0  0  0  0
   29.1238  -37.9077  -28.0661 H   0  0  0  0  0
   23.7253  -35.9301  -30.1153 H   0  0  0  0  0
   22.6518  -38.1940  -31.7843 H   0  0  0  0  0
   24.1112  -35.7047  -32.6626 H   0  0  0  0  0
   22.3024  -35.8150  -32.4975 H   0  0  0  0  0
   21.3897  -36.4527  -34.1230 H   0  0  0  0  0
   24.0009  -39.8731  -32.0306 H   0  0  0  0  0
   26.6851  -39.6524  -31.0495 H   0  0  0  0  0
   26.9413  -41.9801  -31.7866 H   0  0  0  0  0
   25.3002  -41.8229  -32.6401 H   0  0  0  0  0
   24.2442  -41.6185  -30.4869 H   0  0  0  0  0
   24.5228  -43.8351  -31.5079 H   0  0  0  0  0
   26.0994  -44.0154  -30.6999 H   0  0  0  0  0
   24.6069  -43.9341  -29.7319 H   0  0  0  0  0
   27.0145  -42.0484  -29.3423 H   0  0  0  0  0
   26.0615  -40.5461  -29.2640 H   0  0  0  0  0
   25.4920  -42.0068  -28.4197 H   0  0  0  0  0
   25.4562  -38.8845  -34.1327 H   0  0  0  0  0
   28.0272  -39.4982  -35.4418 H   0  0  0  0  0
   26.9059  -38.3773  -37.4576 H   0  0  0  0  0
   25.4133  -38.3479  -36.4491 H   0  0  0  0  0
   25.5544  -40.2075  -37.7952 H   0  0  0  0  0
   26.0598  -36.7192  -34.4415 H   0  0  0  0  0
   28.0768  -34.8610  -35.4526 H   0  0  0  0  0
   26.6081  -33.0685  -34.6639 H   0  0  0  0  0
   24.6890  -33.6633  -33.4656 H   0  0  0  0  0
   25.9641  -34.1230  -36.7707 H   0  0  0  0  0
   24.9729  -35.3113  -35.8895 H   0  0  0  0  0
   24.5276  -33.5873  -35.8650 H   0  0  0  0  0
   27.3024  -36.5679  -32.5633 H   0  0  0  0  0
   28.0047  -36.4735  -30.4072 H   0  0  0  0  0
   30.3101  -35.8387  -29.9725 H   0  0  0  0  0
   30.3738  -34.9939  -31.5843 H   0  0  0  0  0
   31.4938  -37.0446  -31.8252 H   0  0  0  0  0
   29.8749  -37.2239  -32.5974 H   0  0  0  0  0
   29.0615  -38.4887  -30.7846 H   0  0  0  0  0
   30.4908  -38.0948  -29.7793 H   0  0  0  0  0
   30.3156  -40.0784  -31.9565 H   0  0  0  0  0
   33.7140  -39.3741  -29.8630 H   0  0  0  0  0
   32.3524  -38.2594  -29.7064 H   0  0  0  0  0
   32.0659  -41.4917  -32.1645 H   0  0  0  0  0
   26.1858  -34.5979  -30.9360 H   0  0  0  0  0
   26.7395  -32.5966  -28.8225 H   0  0  0  0  0
   25.5493  -30.9177  -30.3598 H   0  0  0  0  0
   26.2641  -31.9779  -31.6927 H   0  0  0  0  0
   27.5855  -30.0413  -31.3347 H   0  0  0  0  0
   28.4423  -31.5445  -30.7517 H   0  0  0  0  0
   28.8638  -29.7286  -29.2621 H   0  0  0  0  0
   27.7452  -30.9450  -28.4725 H   0  0  0  0  0
   26.1872  -29.3092  -28.2420 H   0  0  0  0  0
   27.8796  -26.5826  -30.7147 H   0  0  0  0  0
   28.5687  -28.2072  -30.6309 H   0  0  0  0  0
   25.3475  -27.2296  -28.3502 H   0  0  0  0  0
   24.5411  -31.7272  -28.1525 H   0  0  0  0  0
   22.3002  -33.4701  -28.5527 H   0  0  0  0  0
   20.9358  -31.5212  -27.9012 H   0  0  0  0  0
   22.5335  -30.5909  -27.7919 H   0  0  0  0  0
   23.2311  -32.2196  -26.1006 H   0  0  0  0  0
   22.3691  -30.0137  -25.4883 H   0  0  0  0  0
   20.7048  -30.6470  -25.4962 H   0  0  0  0  0
   21.8746  -31.2326  -24.2880 H   0  0  0  0  0
   20.3366  -33.1179  -26.1682 H   0  0  0  0  0
   21.7594  -34.0809  -26.6362 H   0  0  0  0  0
   21.5425  -33.5787  -24.9416 H   0  0  0  0  0
   20.6262  -33.4335  -30.0483 H   0  0  0  0  0
   20.8614  -31.4039  -32.2654 H   0  0  0  0  0
   19.8969  -34.2447  -32.3853 H   0  0  0  0  0
   21.4120  -33.5329  -33.1297 H   0  0  0  0  0
   20.0752  -32.2370  -34.6455 H   0  0  0  0  0
   18.5659  -32.8178  -33.8732 H   0  0  0  0  0
   19.4144  -35.1720  -34.4523 H   0  0  0  0  0
   20.5446  -34.3188  -35.5784 H   0  0  0  0  0
   18.8368  -33.5901  -36.9383 H   0  0  0  0  0
   17.5935  -33.7705  -35.6405 H   0  0  0  0  0
   17.3741  -35.4561  -37.3421 H   0  0  0  0  0
   18.9342  -35.9795  -37.0799 H   0  0  0  0  0
   17.7873  -36.1460  -35.8826 H   0  0  0  0  0
   19.0890  -30.1177  -32.4310 H   0  0  0  0  0
   16.7181  -30.9490  -30.8089 H   0  0  0  0  0
   16.2383  -28.5590  -30.5254 H   0  0  0  0  0
   17.7324  -28.1717  -31.4826 H   0  0  0  0  0
   14.8830  -30.8897  -31.7343 H   0  0  0  0  0
  1  2  1  0  0  0
  2  3  1  0  0  0
  2  5  1  0  0  0
  3  4  2  0  0  0
  3  7  1  0  0  0
  5  6  1  0  0  0
  6101  1  0  0  0
  7  8  1  0  0  0
  8  9  1  0  0  0
  8 11  1  0  0  0
  9 10  2  0  0  0
  9 16  1  0  0  0
 11 12  1  0  0  0
 12 13  1  0  0  0
 13 14  2  0  0  0
 13 15  1  0  0  0
 16 17  1  0  0  0
 17 18  1  0  0  0
 17 20  1  0  0  0
 18 19  2  0  0  0
 18 28  1  0  0  0
 20 21  1  0  0  0
 21 22  4  0  0  0
 21 23  4  0  0  0
 22 24  4  0  0  0
 23 25  4  0  0  0
 24 26  4  0  0  0
 25 26  4  0  0  0
 26 27  1  0  0  0
 28 29  1  0  0  0
 29 30  1  0  0  0
 29 32  1  0  0  0
 30 31  2  0  0  0
 30 36  1  0  0  0
 32 33  1  0  0  0
 33 34  2  0  0  0
 33 35  1  0  0  0
 36 37  1  0  0  0
 37 38  1  0  0  0
 37 40  1  0  0  0
 38 39  2  0  0  0
 38 44  1  0  0  0
 40 41  1  0  0  0
 41 42  1  0  0  0
 41 43  1  0  0  0
 44 45  1  0  0  0
 45 46  1  0  0  0
 45 48  1  0  0  0
 46 47  2  0  0  0
 46 50  1  0  0  0
 48 49  1  0  0  0
 50 51  1  0  0  0
 51 52  1  0  0  0
 51 54  1  0  0  0
 52 53  2  0  0  0
 52 57  1  0  0  0
 54 55  1  0  0  0
 54 56  1  0  0  0
 57 58  1  0  0  0
 58 59  1  0  0  0
 58 61  1  0  0  0
 59 60  2  0  0  0
 59 68  1  0  0  0
 61 62  1  0  0  0
 62 63  1  0  0  0
 63 64  1  0  0  0
 64 65  1  0  0  0
 65 66  1  0  0  0
 65 67  2  0  0  0
 68 69  1  0  0  0
 69 70  1  0  0  0
 69 72  1  0  0  0
 70 71  2  0  0  0
 70 79  1  0  0  0
 72 73  1  0  0  0
 73 74  1  0  0  0
 74 75  1  0  0  0
 75 76  1  0  0  0
 76 77  1  0  0  0
 76 78  2  0  0  0
 79 80  1  0  0  0
 80 81  1  0  0  0
 80 83  1  0  0  0
 81 82  2  0  0  0
 81 87  1  0  0  0
 83 84  1  0  0  0
 84 85  1  0  0  0
 84 86  1  0  0  0
 87 88  1  0  0  0
 88 89  1  0  0  0
 88 91  1  0  0  0
 89 90  2  0  0  0
 89 96  1  0  0  0
 91 92  1  0  0  0
 92 93  1  0  0  0
 93 94  1  0  0  0
 94 95  1  0  0  0
 96 97  1  0  0  0
 97 98  1  0  0  0
 97100  1  0  0  0
 98 99  2  0  0  0
 98102  1  0  0  0
100101  1  0  0  0
  1103  1  0  0  0
  1104  1  0  0  0
  1105  1  0  0  0
  2106  1  0  0  0
  5107  1  0  0  0
  5108  1  0  0  0
  7109  1  0  0  0
  8110  1  0  0  0
 11111  1  0  0  0
 11112  1  0  0  0
 12113  1  0  0  0
 12114  1  0  0  0
 15115  1  0  0  0
 15116  1  0  0  0
 16117  1  0  0  0
 17118  1  0  0  0
 20119  1  0  0  0
 20120  1  0  0  0
 22121  1  0  0  0
 23122  1  0  0  0
 24123  1  0  0  0
 25124  1  0  0  0
 27125  1  0  0  0
 28126  1  0  0  0
 29127  1  0  0  0
 32128  1  0  0  0
 32129  1  0  0  0
 35130  1  0  0  0
 36131  1  0  0  0
 37132  1  0  0  0
 40133  1  0  0  0
 40134  1  0  0  0
 41135  1  0  0  0
 42136  1  0  0  0
 42137  1  0  0  0
 42138  1  0  0  0
 43139  1  0  0  0
 43140  1  0  0  0
 43141  1  0  0  0
 44142  1  0  0  0
 45143  1  0  0  0
 48144  1  0  0  0
 48145  1  0  0  0
 49146  1  0  0  0
 50147  1  0  0  0
 51148  1  0  0  0
 54149  1  0  0  0
 55150  1  0  0  0
 56151  1  0  0  0
 56152  1  0  0  0
 56153  1  0  0  0
 57154  1  0  0  0
 58155  1  0  0  0
 61156  1  0  0  0
 61157  1  0  0  0
 62158  1  0  0  0
 62159  1  0  0  0
 63160  1  0  0  0
 63161  1  0  0  0
 64162  1  0  0  0
 66163  1  0  0  0
 66164  1  0  0  0
 67165  1  0  0  0
 68166  1  0  0  0
 69167  1  0  0  0
 72168  1  0  0  0
 72169  1  0  0  0
 73170  1  0  0  0
 73171  1  0  0  0
 74172  1  0  0  0
 74173  1  0  0  0
 75174  1  0  0  0
 77175  1  0  0  0
 77176  1  0  0  0
 78177  1  0  0  0
 79178  1  0  0  0
 80179  1  0  0  0
 83180  1  0  0  0
 83181  1  0  0  0
 84182  1  0  0  0
 85183  1  0  0  0
 85184  1  0  0  0
 85185  1  0  0  0
 86186  1  0  0  0
 86187  1  0  0  0
 86188  1  0  0  0
 87189  1  0  0  0
 88190  1  0  0  0
 91191  1  0  0  0
 91192  1  0  0  0
 92193  1  0  0  0
 92194  1  0  0  0
 93195  1  0  0  0
 93196  1  0  0  0
 94197  1  0  0  0
 94198  1  0  0  0
 95199  1  0  0  0
 95200  1  0  0  0
 95201  1  0  0  0
 96202  1  0  0  0
 97203  1  0  0  0
100204  1  0  0  0
100205  1  0  0  0
102206  1  0  0  0
M  END
$$$$
