### 
### Created by X-TOOL on Mon Sep 10 21:13:26 2018
### 

@<TRIPOS>MOLECULE
5t1m_ligand
  206   207     1     0     0
SMALL
GAST_HUCK


@<TRIPOS>ATOM
      1 N          15.1040  -32.3350  -27.4700 N.4       1 CYS         0.2385
      2 CA         16.5020  -32.6100  -27.8080 C.3       1 CYS         0.0749
      3 C          16.9370  -34.0230  -27.4220 C.2       1 CYS         0.2275
      4 O          16.3490  -34.6580  -26.5370 O.2       1 CYS        -0.3907
      5 CB         17.4450  -31.6000  -27.1390 C.3       1 CYS         0.0643
      6 SG         17.3400  -29.8910  -27.7330 S.3       1 CYS        -0.0848
      7 N          17.9640  -34.5110  -28.1070 N.am      1 GLN        -0.2608
      8 CA         18.6670  -35.7250  -27.7020 C.3       1 GLN         0.1331
      9 C          20.0780  -35.7540  -28.2930 C.2       1 GLN         0.2042
     10 O          20.3400  -35.1530  -29.3410 O.2       1 GLN        -0.3944
     11 CB         17.8800  -36.9830  -28.0790 C.3       1 GLN         0.0045
     12 CG         17.5960  -37.1460  -29.5510 C.3       1 GLN         0.0412
     13 CD         16.7520  -38.3830  -29.8370 C.2       1 GLN         0.1737
     14 OE1        16.9540  -39.0650  -30.8460 O.2       1 GLN        -0.3973
     15 NE2        15.7970  -38.6770  -28.9470 N.am      1 GLN        -0.3009
     16 N          20.9890  -36.4350  -27.6080 N.am      1 TYR        -0.2621
     17 CA         22.3660  -36.5390  -28.0690 C.3       1 TYR         0.1390
     18 C          22.4390  -37.3150  -29.3760 C.2       1 TYR         0.2058
     19 O          21.8000  -38.3570  -29.5270 O.2       1 TYR        -0.3942
     20 CB         23.2140  -37.2260  -27.0110 C.3       1 TYR         0.0163
     21 CG         24.7040  -37.1510  -27.2400 C.ar      1 TYR        -0.0493
     22 CD1        25.4060  -35.9580  -27.0510 C.ar      1 TYR        -0.0685
     23 CD2        25.4240  -38.2870  -27.5960 C.ar      1 TYR        -0.0685
     24 CE1        26.7900  -35.9040  -27.2480 C.ar      1 TYR        -0.0398
     25 CE2        26.8000  -38.2400  -27.7920 C.ar      1 TYR        -0.0398
     26 CZ         27.4710  -37.0540  -27.6190 C.ar      1 TYR         0.0805
     27 OH         28.8230  -37.0310  -27.8160 O.3       1 TYR        -0.3376
     28 N          23.2250  -36.7960  -30.3160 N.am      1 ASP        -0.2620
     29 CA         23.3960  -37.4160  -31.6140 C.3       1 ASP         0.1423
     30 C          24.7900  -38.0380  -31.6610 C.2       1 ASP         0.2056
     31 O          25.7900  -37.3470  -31.4840 O.2       1 ASP        -0.3943
     32 CB         23.2320  -36.3480  -32.6970 C.3       1 ASP         0.0406
     33 CG         23.1400  -36.9230  -34.0890 C.2       1 ASP         0.0393
     34 OD1        24.1710  -37.4090  -34.5880 O.co2     1 ASP        -0.5688
     35 OD2        22.0450  -36.8630  -34.6920 O.co2     1 ASP        -0.5688
     36 N          24.8600  -39.3440  -31.8810 N.am      1 LEU        -0.2636
     37 CA         26.1430  -40.0380  -31.9130 C.3       1 LEU         0.1312
     38 C          27.0150  -39.7340  -33.1370 C.2       1 LEU         0.2040
     39 O          28.1920  -40.0640  -33.1350 O.2       1 LEU        -0.3944
     40 CB         25.9420  -41.5450  -31.8040 C.3       1 LEU        -0.0101
     41 CG         25.2410  -42.0550  -30.5500 C.3       1 LEU        -0.0425
     42 CD1        25.1080  -43.5680  -30.6280 C.3       1 LEU        -0.0625
     43 CD2        26.0070  -41.6340  -29.3050 C.3       1 LEU        -0.0625
     44 N          26.4480  -39.1190  -34.1740 N.am      1 SER        -0.2616
     45 CA         27.2180  -38.7710  -35.3750 C.3       1 SER         0.1539
     46 C          27.7920  -37.3730  -35.2730 C.2       1 SER         0.2063
     47 O          28.9270  -37.1290  -35.6710 O.2       1 SER        -0.3943
     48 CB         26.3610  -38.8510  -36.6410 C.3       1 SER         0.0843
     49 OG         26.0920  -40.1920  -37.0000 O.3       1 SER        -0.3903
     50 N          26.9940  -36.4510  -34.7510 N.am      1 THR        -0.2613
     51 CA         27.4180  -35.0670  -34.6090 C.3       1 THR         0.1565
     52 C          28.1360  -34.8650  -33.2930 C.2       1 THR         0.2065
     53 O          28.8800  -33.9010  -33.1470 O.2       1 THR        -0.3943
     54 CB         26.2210  -34.0870  -34.6340 C.3       1 THR         0.0924
     55 OG1        25.4320  -34.2710  -33.4510 O.3       1 THR        -0.3874
     56 CG2        25.3590  -34.2920  -35.8800 C.3       1 THR        -0.0346
     57 N          27.8960  -35.7690  -32.3400 N.am      1 ARG        -0.2636
     58 CA         28.4510  -35.6620  -30.9820 C.3       1 ARG         0.1311
     59 C          28.0750  -34.3580  -30.2770 C.2       1 ARG         0.2039
     60 O          28.9200  -33.6880  -29.6790 O.2       1 ARG        -0.3944
     61 CB         29.9640  -35.8220  -31.0060 C.3       1 ARG        -0.0092
     62 CG         30.4180  -37.1040  -31.6600 C.3       1 ARG        -0.0156
     63 CD         30.1350  -38.3000  -30.7890 C.3       1 ARG         0.0627
     64 NE         30.8220  -39.4810  -31.3030 N.pl3     1 ARG        -0.2723
     65 CZ         32.0650  -39.8320  -30.9770 C.cat     1 ARG         0.2882
     66 NH1        32.7650  -39.0980  -30.1150 N.pl3     1 ARG        -0.2849
     67 NH2        32.6040  -40.9250  -31.5090 N.pl3     1 ARG        -0.2849
     68 N          26.8020  -34.0040  -30.3810 N.am      1 ARG        -0.2637
     69 CA         26.2280  -32.8270  -29.7570 C.3       1 ARG         0.1311
     70 C          24.7580  -33.1520  -29.5970 C.2       1 ARG         0.2039
     71 O          24.2540  -34.1060  -30.2140 O.2       1 ARG        -0.3944
     72 CB         26.3360  -31.6050  -30.6710 C.3       1 ARG        -0.0092
     73 CG         27.6310  -30.8350  -30.5890 C.3       1 ARG        -0.0156
     74 CD         27.8690  -30.1730  -29.2320 C.3       1 ARG         0.0627
     75 NE         26.9270  -29.0990  -28.9120 N.pl3     1 ARG        -0.2723
     76 CZ         26.9570  -27.8680  -29.4250 C.cat     1 ARG         0.2882
     77 NH1        27.8730  -27.5260  -30.3270 N.pl3     1 ARG        -0.2849
     78 NH2        26.0570  -26.9740  -29.0370 N.pl3     1 ARG        -0.2849
     79 N          24.0620  -32.3740  -28.7790 N.am      1 LEU        -0.2637
     80 CA         22.6110  -32.4510  -28.7830 C.3       1 LEU         0.1312
     81 C          22.1080  -32.0550  -30.1750 C.2       1 LEU         0.2039
     82 O          22.7280  -31.2500  -30.8770 O.2       1 LEU        -0.3944
     83 CB         22.0090  -31.5430  -27.7120 C.3       1 LEU        -0.0101
     84 CG         22.1760  -32.0000  -26.2640 C.3       1 LEU        -0.0425
     85 CD1        21.7510  -30.8950  -25.3170 C.3       1 LEU        -0.0625
     86 CD2        21.3970  -33.2880  -25.9820 C.3       1 LEU        -0.0625
     87 N          21.0120  -32.6630  -30.5940 N.am      1 LYS        -0.2637
     88 CA         20.3500  -32.2540  -31.8140 C.3       1 LYS         0.1309
     89 C          18.9210  -31.8850  -31.4400 C.2       1 LYS         0.2034
     90 O          18.2390  -32.6510  -30.7650 O.2       1 LYS        -0.3944
     91 CB         20.3710  -33.3780  -32.8460 C.3       1 LYS        -0.0122
     92 CG         19.5940  -33.0700  -34.1330 C.3       1 LYS        -0.0440
     93 CD         19.5870  -34.2830  -35.0590 C.3       1 LYS        -0.0124
     94 CE         18.4780  -34.2010  -36.1100 C.3       1 LYS        -0.0354
     95 NZ         18.1140  -35.5550  -36.6470 N.4       1 LYS         0.2185
     96 N          18.4840  -30.7020  -31.8540 N.am      1 CYS        -0.2687
     97 CA         17.1510  -30.2230  -31.4970 C.3       1 CYS         0.1041
     98 C          16.2110  -30.1520  -32.7000 C.2       1 CYS         0.0609
     99 O          16.6010  -29.6930  -33.7740 O.co2     1 CYS        -0.5666
    100 CB         17.2480  -28.8670  -30.7970 C.3       1 CYS         0.0388
    101 SG         18.2370  -28.9280  -29.2780 S.3       1 CYS        -0.0887
    102 OXT        15.0470  -30.5630  -32.6220 O.co2     1 CYS        -0.5666
    103 H1         14.8708  -31.3937  -27.7449 H         1 CYS         0.2015
    104 H2         14.9723  -32.4370  -26.4759 H         1 CYS         0.2015
    105 H3         14.5066  -32.9849  -27.9566 H         1 CYS         0.2015
    106 H4         16.6052  -32.5088  -28.8985 H         1 CYS         0.1107
    107 H5         18.4764  -31.9476  -27.2981 H         1 CYS         0.0466
    108 H6         17.2218  -31.5950  -26.0619 H         1 CYS         0.0466
    109 H7         18.2670  -34.0301  -28.9297 H         1 GLN         0.1885
    110 H8         18.7618  -35.7077  -26.6062 H         1 GLN         0.0801
    111 H9         16.9171  -36.9539  -27.5480 H         1 GLN         0.0337
    112 H10        18.4567  -37.8580  -27.7449 H         1 GLN         0.0337
    113 H11        18.5512  -37.2359  -30.0890 H         1 GLN         0.0504
    114 H12        17.0557  -36.2572  -29.9089 H         1 GLN         0.0504
    115 H13        15.2140  -39.4776  -29.0853 H         1 GLN         0.1814
    116 H14        15.6664  -38.0961  -28.1435 H         1 GLN         0.1814
    117 H15        20.7233  -36.8866  -26.7563 H         1 TYR         0.1885
    118 H16        22.7594  -35.5257  -28.2378 H         1 TYR         0.0821
    119 H17        22.9267  -38.2873  -26.9796 H         1 TYR         0.0453
    120 H18        22.9940  -36.7577  -26.0403 H         1 TYR         0.0453
    121 H19        24.8724  -35.0643  -26.7484 H         1 TYR         0.0530
    122 H20        24.9016  -39.2283  -27.7232 H         1 TYR         0.0530
    123 H21        27.3256  -34.9714  -27.1119 H         1 TYR         0.0525
    124 H22        27.3402  -39.1347  -28.0798 H         1 TYR         0.0525
    125 H23        29.1494  -36.1521  -27.6622 H         1 TYR         0.2458
    126 H24        23.7155  -35.9471  -30.1192 H         1 ASP         0.1884
    127 H25        22.6386  -38.2006  -31.7583 H         1 ASP         0.0819
    128 H26        24.0981  -35.6712  -32.6548 H         1 ASP         0.0478
    129 H27        22.3126  -35.7801  -32.4918 H         1 ASP         0.0478
    130 H28        24.0177  -39.8627  -32.0277 H         1 LEU         0.1883
    131 H29        26.7046  -39.7068  -31.0271 H         1 LEU         0.0800
    132 H30        26.9346  -42.0172  -31.8459 H         1 LEU         0.0315
    133 H31        25.3466  -41.8652  -32.6718 H         1 LEU         0.0315
    134 H32        24.2337  -41.6154  -30.5035 H         1 LEU         0.0298
    135 H33        24.6024  -43.9387  -29.7241 H         1 LEU         0.0232
    136 H34        26.1079  -44.0207  -30.7005 H         1 LEU         0.0232
    137 H35        24.5175  -43.8389  -31.5156 H         1 LEU         0.0232
    138 H36        26.0865  -40.5372  -29.2768 H         1 LEU         0.0232
    139 H37        27.0148  -42.0742  -29.3282 H         1 LEU         0.0232
    140 H38        25.4736  -41.9860  -28.4097 H         1 LEU         0.0232
    141 H39        25.4756  -38.8891  -34.1335 H         1 SER         0.1884
    142 H40        28.0478  -39.4872  -35.4672 H         1 SER         0.0823
    143 H41        26.8966  -38.3603  -37.4670 H         1 SER         0.0606
    144 H42        25.4085  -38.3310  -36.4615 H         1 SER         0.0606
    145 H43        26.9109  -40.6459  -37.1611 H         1 SER         0.2097
    146 H44        26.0782  -36.7140  -34.4476 H         1 THR         0.1884
    147 H45        28.0990  -34.8245  -35.4381 H         1 THR         0.0826
    148 H46        26.6099  -33.0581  -34.6454 H         1 THR         0.0639
    149 H47        24.6967  -33.6696  -33.4654 H         1 THR         0.2101
    150 H48        24.5195  -33.5813  -35.8660 H         1 THR         0.0257
    151 H49        24.9687  -35.3203  -35.8907 H         1 THR         0.0257
    152 H50        25.9686  -34.1217  -36.7797 H         1 THR         0.0257
    153 H51        27.3141  -36.5522  -32.5589 H         1 ARG         0.1883
    154 H52        28.0317  -36.4894  -30.3908 H         1 ARG         0.0800
    155 H53        30.3330  -35.8089  -29.9699 H         1 ARG         0.0313
    156 H54        30.3960  -34.9755  -31.5599 H         1 ARG         0.0313
    157 H55        31.5005  -37.0461  -31.8463 H         1 ARG         0.0301
    158 H56        29.8873  -37.2248  -32.6159 H         1 ARG         0.0301
    159 H57        29.0515  -38.4892  -30.7747 H         1 ARG         0.0689
    160 H58        30.4848  -38.0941  -29.7666 H         1 ARG         0.0689
    161 H59        30.3106  -40.0842  -31.9629 H         1 ARG         0.2642
    162 H60        33.7258  -39.3731  -29.8657 H         1 ARG         0.2615
    163 H61        32.3459  -38.2550  -29.6972 H         1 ARG         0.2615
    164 H62        32.0631  -41.4936  -32.1761 H         1 ARG         0.2615
    165 H63        33.5624  -41.2030  -31.2540 H         1 ARG         0.2615
    166 H64        26.1979  -34.5862  -30.9251 H         1 ARG         0.1883
    167 H65        26.7068  -32.6233  -28.7879 H         1 ARG         0.0800
    168 H66        25.5176  -30.9170  -30.4125 H         1 ARG         0.0313
    169 H67        26.2127  -31.9480  -31.7088 H         1 ARG         0.0313
    170 H68        27.6178  -30.0507  -31.3601 H         1 ARG         0.0301
    171 H69        28.4608  -31.5295  -30.7865 H         1 ARG         0.0301
    172 H70        28.8854  -29.7524  -29.2274 H         1 ARG         0.0689
    173 H71        27.7883  -30.9454  -28.4530 H         1 ARG         0.0689
    174 H72        26.1800  -29.3112  -28.2354 H         1 ARG         0.2642
    175 H73        27.8834  -26.5715  -30.7140 H         1 ARG         0.2615
    176 H74        28.5718  -28.2157  -30.6384 H         1 ARG         0.2615
    177 H75        25.3442  -27.2303  -28.3391 H         1 ARG         0.2615
    178 H76        26.0710  -26.0235  -29.4337 H         1 ARG         0.2615
    179 H77        24.5317  -31.7399  -28.1648 H         1 LEU         0.1883
    180 H78        22.3075  -33.4873  -28.5732 H         1 LEU         0.0800
    181 H79        20.9311  -31.4562  -27.9136 H         1 LEU         0.0315
    182 H80        22.4807  -30.5539  -27.8076 H         1 LEU         0.0315
    183 H81        23.2428  -32.2069  -26.0936 H         1 LEU         0.0298
    184 H82        21.8752  -31.2345  -24.2781 H         1 LEU         0.0232
    185 H83        20.6953  -30.6438  -25.4968 H         1 LEU         0.0232
    186 H84        22.3741  -30.0050  -25.4888 H         1 LEU         0.0232
    187 H85        21.7221  -34.0734  -26.6802 H         1 LEU         0.0232
    188 H86        20.3209  -33.1022  -26.1145 H         1 LEU         0.0232
    189 H87        21.5885  -33.6136  -24.9489 H         1 LEU         0.0232
    190 H88        20.6338  -33.4184  -30.0590 H         1 LYS         0.1883
    191 H89        20.8604  -31.3753  -32.2352 H         1 LYS         0.0800
    192 H90        19.9329  -34.2760  -32.3860 H         1 LYS         0.0312
    193 H91        21.4184  -33.5781  -33.1158 H         1 LYS         0.0312
    194 H92        20.0706  -32.2237  -34.6494 H         1 LYS         0.0269
    195 H93        18.5577  -32.8059  -33.8753 H         1 LYS         0.0269
    196 H94        19.4358  -35.1894  -34.4544 H         1 LYS         0.0317
    197 H95        20.5580  -34.3424  -35.5725 H         1 LYS         0.0317
    198 H96        18.8226  -33.5694  -36.9421 H         1 LYS         0.0813
    199 H97        17.5862  -33.7489  -35.6514 H         1 LYS         0.0813
    200 H98        17.3828  -35.4585  -37.3341 H         1 LYS         0.1994
    201 H99        17.7909  -36.1400  -35.8924 H         1 LYS         0.1994
    202 H100       18.9239  -35.9755  -37.0751 H         1 LYS         0.1994
    203 H101       19.0772  -30.1292  -32.4197 H         1 CYS         0.1876
    204 H102       16.7198  -30.9412  -30.7841 H         1 CYS         0.0734
    205 H103       16.2325  -28.5301  -30.5416 H         1 CYS         0.0425
    206 H104       17.7102  -28.1470  -31.4884 H         1 CYS         0.0425
@<TRIPOS>BOND
     1    1    2 1  
     2    2    3 1  
     3    2    5 1  
     4    3    4 2  
     5    3    7 am 
     6    5    6 1  
     7    6  101 1  
     8    7    8 1  
     9    8    9 1  
    10    8   11 1  
    11    9   10 2  
    12    9   16 am 
    13   11   12 1  
    14   12   13 1  
    15   13   14 2  
    16   13   15 am 
    17   16   17 1  
    18   17   18 1  
    19   17   20 1  
    20   18   19 2  
    21   18   28 am 
    22   20   21 1  
    23   21   22 ar 
    24   21   23 ar 
    25   22   24 ar 
    26   23   25 ar 
    27   24   26 ar 
    28   25   26 ar 
    29   26   27 1  
    30   28   29 1  
    31   29   30 1  
    32   29   32 1  
    33   30   31 2  
    34   30   36 am 
    35   32   33 1  
    36   33   34 ar 
    37   33   35 ar 
    38   36   37 1  
    39   37   38 1  
    40   37   40 1  
    41   38   39 2  
    42   38   44 am 
    43   40   41 1  
    44   41   42 1  
    45   41   43 1  
    46   44   45 1  
    47   45   46 1  
    48   45   48 1  
    49   46   47 2  
    50   46   50 am 
    51   48   49 1  
    52   50   51 1  
    53   51   52 1  
    54   51   54 1  
    55   52   53 2  
    56   52   57 am 
    57   54   55 1  
    58   54   56 1  
    59   57   58 1  
    60   58   59 1  
    61   58   61 1  
    62   59   60 2  
    63   59   68 am 
    64   61   62 1  
    65   62   63 1  
    66   63   64 1  
    67   64   65 ar 
    68   65   66 ar 
    69   65   67 ar 
    70   68   69 1  
    71   69   70 1  
    72   69   72 1  
    73   70   71 2  
    74   70   79 am 
    75   72   73 1  
    76   73   74 1  
    77   74   75 1  
    78   75   76 ar 
    79   76   77 ar 
    80   76   78 ar 
    81   79   80 1  
    82   80   81 1  
    83   80   83 1  
    84   81   82 2  
    85   81   87 am 
    86   83   84 1  
    87   84   85 1  
    88   84   86 1  
    89   87   88 1  
    90   88   89 1  
    91   88   91 1  
    92   89   90 2  
    93   89   96 am 
    94   91   92 1  
    95   92   93 1  
    96   93   94 1  
    97   94   95 1  
    98   96   97 1  
    99   97   98 1  
   100   97  100 1  
   101   98   99 ar 
   102   98  102 ar 
   103  100  101 1  
   104    1  103 1  
   105    1  104 1  
   106    1  105 1  
   107    2  106 1  
   108    5  107 1  
   109    5  108 1  
   110    7  109 1  
   111    8  110 1  
   112   11  111 1  
   113   11  112 1  
   114   12  113 1  
   115   12  114 1  
   116   15  115 1  
   117   15  116 1  
   118   16  117 1  
   119   17  118 1  
   120   20  119 1  
   121   20  120 1  
   122   22  121 1  
   123   23  122 1  
   124   24  123 1  
   125   25  124 1  
   126   27  125 1  
   127   28  126 1  
   128   29  127 1  
   129   32  128 1  
   130   32  129 1  
   131   36  130 1  
   132   37  131 1  
   133   40  132 1  
   134   40  133 1  
   135   41  134 1  
   136   42  135 1  
   137   42  136 1  
   138   42  137 1  
   139   43  138 1  
   140   43  139 1  
   141   43  140 1  
   142   44  141 1  
   143   45  142 1  
   144   48  143 1  
   145   48  144 1  
   146   49  145 1  
   147   50  146 1  
   148   51  147 1  
   149   54  148 1  
   150   55  149 1  
   151   56  150 1  
   152   56  151 1  
   153   56  152 1  
   154   57  153 1  
   155   58  154 1  
   156   61  155 1  
   157   61  156 1  
   158   62  157 1  
   159   62  158 1  
   160   63  159 1  
   161   63  160 1  
   162   64  161 1  
   163   66  162 1  
   164   66  163 1  
   165   67  164 1  
   166   67  165 1  
   167   68  166 1  
   168   69  167 1  
   169   72  168 1  
   170   72  169 1  
   171   73  170 1  
   172   73  171 1  
   173   74  172 1  
   174   74  173 1  
   175   75  174 1  
   176   77  175 1  
   177   77  176 1  
   178   78  177 1  
   179   78  178 1  
   180   79  179 1  
   181   80  180 1  
   182   83  181 1  
   183   83  182 1  
   184   84  183 1  
   185   85  184 1  
   186   85  185 1  
   187   85  186 1  
   188   86  187 1  
   189   86  188 1  
   190   86  189 1  
   191   87  190 1  
   192   88  191 1  
   193   91  192 1  
   194   91  193 1  
   195   92  194 1  
   196   92  195 1  
   197   93  196 1  
   198   93  197 1  
   199   94  198 1  
   200   94  199 1  
   201   95  200 1  
   202   95  201 1  
   203   95  202 1  
   204   96  203 1  
   205   97  204 1  
   206  100  205 1  
   207  100  206 1  
@<TRIPOS>SUBSTRUCTURE
     1 CYS         1

