6czi_ligand
  -I-interpret- 

 28 29  0  0  0  0  0  0  0  0999 V2000
   -6.9200   17.2630   -7.6690 F   0  0  0  0  0
   -6.4270   16.0830   -7.2710 C   0  0  0  0  0
   -5.1340   16.0430   -6.7980 C   0  0  0  0  0
   -4.3900   17.1690   -6.7420 O   0  0  0  0  0
   -7.1900   14.9320   -7.3350 C   0  0  0  0  0
   -6.6650   13.7180   -6.8800 C   0  0  0  0  0
   -5.3490   13.6800   -6.4260 C   0  0  0  0  0
   -4.6060   14.8390   -6.3810 C   0  0  0  0  0
   -3.3530   14.8270   -5.9200 F   0  0  0  0  0
   -7.3630   12.4510   -6.9410 C   0  0  0  0  0
   -8.5960   12.2330   -7.5190 C   0  0  0  0  0
   -9.1800   10.8780   -7.6090 C   0  0  0  0  0
   -8.6980    9.8400   -7.2040 O   0  0  0  0  0
  -10.3610   11.0390   -8.2200 N   0  0  0  0  0
  -11.3030    9.9690   -8.5200 C   0  0  0  0  0
  -10.5390   12.3710   -8.4840 C   0  0  0  0  0
   -9.5200   13.0870   -8.0880 N   0  0  0  0  0
  -11.7950   12.8740   -9.1520 C   0  0  0  0  0
   -3.5216   16.9602   -6.3901 H   0  0  0  0  0
   -8.2012   14.9705   -7.7402 H   0  0  0  0  0
   -4.9081   12.7356   -6.1071 H   0  0  0  0  0
   -6.8689   11.5910   -6.4889 H   0  0  0  0  0
  -10.8250    9.2381   -9.1722 H   0  0  0  0  0
  -11.6087    9.4851   -7.5924 H   0  0  0  0  0
  -12.1777   10.3860   -9.0191 H   0  0  0  0  0
  -12.2990   13.5792   -8.4911 H   0  0  0  0  0
  -11.5339   13.3721  -10.0857 H   0  0  0  0  0
  -12.4562   12.0328   -9.3600 H   0  0  0  0  0
  1  2  1  0  0  0
  2  3  4  0  0  0
  2  5  4  0  0  0
  3  4  1  0  0  0
  3  8  4  0  0  0
  5  6  4  0  0  0
  6  7  4  0  0  0
  6 10  1  0  0  0
  7  8  4  0  0  0
  8  9  1  0  0  0
 10 11  2  0  0  0
 11 12  1  0  0  0
 11 17  1  0  0  0
 12 13  2  0  0  0
 12 14  1  0  0  0
 14 15  1  0  0  0
 14 16  1  0  0  0
 16 17  2  0  0  0
 16 18  1  0  0  0
  4 19  1  0  0  0
  5 20  1  0  0  0
  7 21  1  0  0  0
 10 22  1  0  0  0
 15 23  1  0  0  0
 15 24  1  0  0  0
 15 25  1  0  0  0
 18 26  1  0  0  0
 18 27  1  0  0  0
 18 28  1  0  0  0
M  END
$$$$
