4m2v_ligand
  -I-interpret- 

 45 46  0  0  0  0  0  0  0  0999 V2000
    1.6400    8.3000   84.3460 C   0  0  0  0  0
   -0.2140    3.8410   85.0740 C   0  0  0  0  0
   -1.2870    4.5570   85.4550 C   0  0  0  0  0
    0.9490    4.0960   84.1630 C   0  0  0  0  0
    0.5350    5.3890   83.4140 C   0  0  0  0  0
   -1.9470    0.9640   87.5100 S   0  0  0  0  0
    0.7240    9.4680   84.4920 C   0  0  0  0  0
    2.3470    1.9880   81.3530 C   0  0  0  0  0
    2.1170    3.1300   82.2920 C   0  0  0  0  0
   -2.3230    3.7370   86.4750 S   0  0  0  0  0
   -1.3560   -0.3860   86.8720 N   0  0  0  0  0
   -1.4030    1.1870   88.8390 O   0  0  0  0  0
   -3.4040    1.0910   87.4970 O   0  0  0  0  0
   -1.4120    2.2920   86.5380 C   0  0  0  0  0
   -0.1670    2.4150   85.6700 C   0  0  0  0  0
   -1.5120    6.1680   84.9070 S   0  0  0  0  0
   -1.7720    7.0580   86.0420 O   0  0  0  0  0
   -2.5480    6.2810   83.8780 O   0  0  0  0  0
   -0.0200    6.4180   84.3100 N   0  0  0  0  0
    1.0170    3.0070   83.2040 N   0  3  0  0  0
    1.1610    6.9930   84.8810 C   0  0  0  0  0
    1.2680   10.7170   84.6820 O   0  0  0  0  0
    0.6640   11.8230   84.1200 C   0  0  0  0  0
    2.5323    8.5479   84.9209 H   0  0  0  0  0
    1.7673    8.1539   83.2734 H   0  0  0  0  0
    1.9063    4.1785   84.6777 H   0  0  0  0  0
   -0.2383    5.1230   82.6933 H   0  0  0  0  0
    1.4279    5.8024   82.9451 H   0  0  0  0  0
    0.1531    9.2676   85.3987 H   0  0  0  0  0
    0.1944    9.5322   83.5415 H   0  0  0  0  0
    2.5388    1.0809   81.9262 H   0  0  0  0  0
    1.4627    1.8465   80.7316 H   0  0  0  0  0
    3.2064    2.2076   80.7196 H   0  0  0  0  0
    1.8901    3.9919   81.6645 H   0  0  0  0  0
    3.0123    3.1935   82.9104 H   0  0  0  0  0
   -0.6914   -0.9514   87.4003 H   0  0  0  0  0
   -1.6452   -0.6781   85.9385 H   0  0  0  0  0
    0.5977    1.6563   85.5035 H   0  0  0  0  0
    0.1566    3.0215   82.6563 H   0  0  0  0  0
    1.1428    2.1403   83.7269 H   0  0  0  0  0
    0.9111    7.1845   85.9246 H   0  0  0  0  0
    1.9595    6.2838   84.6630 H   0  0  0  0  0
    0.6352   11.7083   83.0364 H   0  0  0  0  0
   -0.3519   11.9150   84.5041 H   0  0  0  0  0
    1.2333   12.7162   84.3771 H   0  0  0  0  0
  1  7  1  0  0  0
 21  1  1  0  0  0
  3  2  4  0  0  0
  4  2  1  0  0  0
  2 15  4  0  0  0
  3 10  4  0  0  0
 16  3  1  0  0  0
  5  4  1  0  0  0
  4 20  1  0  0  0
 19  5  1  0  0  0
  6 11  1  0  0  0
  6 12  2  0  0  0
  6 13  2  0  0  0
 14  6  1  0  0  0
  7 22  1  0  0  0
  9  8  1  0  0  0
 20  9  1  0  0  0
 10 14  4  0  0  0
 14 15  4  0  0  0
 16 17  2  0  0  0
 16 18  2  0  0  0
 19 16  1  0  0  0
 19 21  1  0  0  0
 22 23  1  0  0  0
  1 24  1  0  0  0
  1 25  1  0  0  0
  4 26  1  0  0  0
  5 27  1  0  0  0
  5 28  1  0  0  0
  7 29  1  0  0  0
  7 30  1  0  0  0
  8 31  1  0  0  0
  8 32  1  0  0  0
  8 33  1  0  0  0
  9 34  1  0  0  0
  9 35  1  0  0  0
 11 36  1  0  0  0
 11 37  1  0  0  0
 15 38  1  0  0  0
 20 39  1  0  0  0
 20 40  1  0  0  0
 21 41  1  0  0  0
 21 42  1  0  0  0
 23 43  1  0  0  0
 23 44  1  0  0  0
 23 45  1  0  0  0
M  END
$$$$
