1d09_ligand
  -I-interpret- 

 26 25  0  0  0  0  0  0  0  0999 V2000
   46.0070   29.5840   15.9460 P   0  0  0  0  0
   45.9660   30.5120   17.1780 O   0  0  0  0  0
   47.0690   28.5590   15.9510 O   0  0  0  0  0
   46.3960   30.6030   14.7470 O   0  0  0  0  0
   44.3640   29.0280   15.4540 C   0  0  0  0  0
   43.2480   29.9560   15.9130 C   0  0  0  0  0
   43.0070   31.0150   15.2890 O   0  0  0  0  0
   42.6070   29.5920   17.0360 N   0  0  0  0  0
   41.5030   30.3420   17.6060 C   0  0  0  0  0
   41.8220   31.6970   18.1950 C   0  0  0  0  0
   40.8690   32.4270   18.6500 O   0  0  0  0  0
   43.0400   31.9800   18.2310 O   0  0  0  0  0
   40.7170   29.4480   18.6010 C   0  0  0  0  0
   41.4990   29.1320   19.8640 C   0  0  0  0  0
   42.5700   29.7540   20.0760 O   0  0  0  0  0
   40.9980   28.2940   20.6580 O   0  0  0  0  0
   45.2459   31.1394   17.0808 H   0  0  0  0  0
   45.7365   31.2985   14.6931 H   0  0  0  0  0
   44.1940   28.0561   15.9172 H   0  0  0  0  0
   44.3398   28.9993   14.3646 H   0  0  0  0  0
   42.9123   28.7438   17.5132 H   0  0  0  0  0
   40.8800   30.6053   16.7512 H   0  0  0  0  0
   40.0298   31.9856   18.5001 H   0  0  0  0  0
   40.5021   28.5043   18.0997 H   0  0  0  0  0
   39.8184   29.9904   18.8949 H   0  0  0  0  0
   40.1828   27.9498   20.2857 H   0  0  0  0  0
  1  5  1  0  0  0
  1  4  1  0  0  0
  1  3  2  0  0  0
  1  2  1  0  0  0
  5  6  1  0  0  0
  6  8  1  0  0  0
  6  7  2  0  0  0
  8  9  1  0  0  0
  9 13  1  0  0  0
  9 10  1  0  0  0
 10 12  2  0  0  0
 10 11  1  0  0  0
 13 14  1  0  0  0
 14 16  1  0  0  0
 14 15  2  0  0  0
  2 17  1  0  0  0
  4 18  1  0  0  0
  5 19  1  0  0  0
  5 20  1  0  0  0
  8 21  1  0  0  0
  9 22  1  0  0  0
 11 23  1  0  0  0
 13 24  1  0  0  0
 13 25  1  0  0  0
 16 26  1  0  0  0
M  END
$$$$
