### 
### Created by X-TOOL on Mon Sep 10 21:13:19 2018
### 

@<TRIPOS>MOLECULE
4tsz_ligand
  101   102     1     0     0
SMALL
GAST_HUCK


@<TRIPOS>ATOM
      1 C         -47.5560   15.2480  -48.7300 C.2       1 ACE         0.1751
      2 O         -47.1150   16.3540  -48.3830 O.2       1 ACE        -0.3972
      3 CH3       -48.8490   15.1530  -49.5270 C.3       1 ACE         0.0258
      4 N         -46.9550   14.0840  -48.4670 N.am      1 GLN        -0.2657
      5 CA        -45.7180   13.9570  -47.6900 C.3       1 GLN         0.1329
      6 C         -44.5610   14.8080  -48.2070 C.2       1 GLN         0.2040
      7 O         -44.2150   14.7290  -49.3850 O.2       1 GLN        -0.3944
      8 CB        -45.2920   12.4740  -47.5530 C.3       1 GLN         0.0045
      9 CG        -44.0390   12.2430  -46.6680 C.3       1 GLN         0.0412
     10 CD        -44.1870   12.6830  -45.2160 C.2       1 GLN         0.1737
     11 OE1       -43.4070   13.4960  -44.6930 O.2       1 GLN        -0.3973
     12 NE2       -45.2020   12.1770  -44.5410 N.am      1 GLN        -0.3009
     13 N         -43.9640   15.6080  -47.3070 N.am      1 ALC        -0.2637
     14 CA        -42.8150   16.4670  -47.6070 C.3       1 ALC         0.1312
     15 C         -41.4830   15.7560  -47.3000 C.2       1 ALC         0.2040
     16 O         -41.4650   14.7930  -46.5310 O.2       1 ALC        -0.3944
     17 CB        -42.8350   17.8740  -46.9510 C.3       1 ALC        -0.0096
     18 CG        -44.0830   18.6910  -47.2870 C.3       1 ALC        -0.0368
     19 CD2       -44.2680   19.8550  -46.3180 C.3       1 ALC        -0.0500
     20 CE2       -45.4980   20.7040  -46.6390 C.3       1 ALC        -0.0528
     21 CZ        -45.4580   21.2220  -48.0720 C.3       1 ALC        -0.0530
     22 CE1       -45.2780   20.0780  -49.0640 C.3       1 ALC        -0.0528
     23 CD1       -44.0520   19.2290  -48.7200 C.3       1 ALC        -0.0500
     24 N         -40.3820   16.2150  -47.9130 N.am      1 ASP        -0.2622
     25 CA        -39.0560   15.6020  -47.7420 C.3       1 ASP         0.1423
     26 C         -38.1090   16.4060  -46.8740 C.2       1 ASP         0.2056
     27 O         -38.1490   17.6340  -46.8980 O.2       1 ASP        -0.3943
     28 CB        -38.4070   15.3370  -49.1100 C.3       1 ASP         0.0406
     29 CG        -39.2520   14.4460  -49.9990 C.2       1 ASP         0.0393
     30 OD1       -39.3170   13.2220  -49.7250 O.co2     1 ASP        -0.5688
     31 OD2       -39.8860   14.9760  -50.9390 O.co2     1 ASP        -0.5688
     32 N         -37.2300   15.7050  -46.1300 N.am      1 LEU        -0.2636
     33 CA        -36.2140   16.3060  -45.2590 C.3       1 LEU         0.1312
     34 C         -35.1240   16.9930  -46.0770 C.2       1 LEU         0.2035
     35 O         -34.7810   18.1310  -45.7790 O.2       1 LEU        -0.3944
     36 CB        -35.5790   15.2560  -44.3330 C.3       1 LEU        -0.0101
     37 CG        -36.3470   14.9120  -43.0680 C.3       1 LEU        -0.0425
     38 CD1       -35.8160   13.6360  -42.4450 C.3       1 LEU        -0.0625
     39 CD2       -36.2830   16.0390  -42.0620 C.3       1 LEU        -0.0625
     40 N         -34.7430   16.7390  -47.3500 N.am      1 ZCL        -0.2677
     41 O         -33.6290   18.5320  -50.2320 O.co2     1 ZCL        -0.5664
     42 CLZ       -30.5870   13.7980  -43.3050 Cl        1 ZCL        -0.0764
     43 CE2       -30.5550   15.5290  -45.3840 C.ar      1 ZCL        -0.0541
     44 CE1       -32.1550   13.7500  -45.5340 C.ar      1 ZCL         0.0477
     45 CLE1      -32.8230   12.2640  -44.9530 Cl        1 ZCL        -0.0718
     46 CD2       -31.0360   16.0460  -46.5770 C.ar      1 ZCL        -0.0594
     47 CD1       -32.6360   14.2720  -46.7200 C.ar      1 ZCL        -0.0457
     48 CB        -32.6660   16.0310  -48.5130 C.3       1 ZCL         0.0161
     49 C         -34.2860   17.5760  -49.6370 C.2       1 ZCL         0.0621
     50 CZ        -31.1270   14.3860  -44.8480 C.ar      1 ZCL         0.0469
     51 CG        -32.0890   15.4350  -47.2510 C.ar      1 ZCL        -0.0385
     52 CA        -33.7020   17.1560  -48.2880 C.3       1 ZCL         0.1040
     53 OXT       -35.3150   17.0240  -50.0870 O.co2     1 ZCL        -0.5664
     54 H         -49.0730   14.0969  -49.7378 H         1 ACE         0.0467
     55 H         -48.7367   15.7002  -50.4746 H         1 ACE         0.0467
     56 H         -49.6719   15.5931  -48.9447 H         1 ACE         0.0467
     57 H         -47.3744   13.2484  -48.8217 H         1 GLN         0.1883
     58 H         -45.9472   14.3228  -46.6782 H         1 GLN         0.0801
     59 H         -45.0786   12.0836  -48.5590 H         1 GLN         0.0337
     60 H         -46.1309   11.9149  -47.1131 H         1 GLN         0.0337
     61 H         -43.2009   12.8016  -47.1102 H         1 GLN         0.0504
     62 H         -43.8082   11.1675  -46.6770 H         1 GLN         0.0504
     63 H         -45.3440   12.4332  -43.5849 H         1 GLN         0.1814
     64 H         -45.8290   11.5374  -44.9857 H         1 GLN         0.1814
     65 H         -44.3262   15.6177  -46.3749 H         1 ALC         0.1883
     66 H         -42.8437   16.6374  -48.6933 H         1 ALC         0.0800
     67 H         -41.9518   18.4310  -47.2968 H         1 ALC         0.0315
     68 H         -42.7854   17.7489  -45.8593 H         1 ALC         0.0315
     69 H         -44.9526   18.0240  -47.1921 H         1 ALC         0.0303
     70 H         -43.3760   20.4969  -46.3655 H         1 ALC         0.0268
     71 H         -44.3756   19.4514  -45.3004 H         1 ALC         0.0268
     72 H         -45.5314   21.5606  -45.9497 H         1 ALC         0.0265
     73 H         -46.4011   20.0904  -46.5054 H         1 ALC         0.0265
     74 H         -44.6178   21.9241  -48.1770 H         1 ALC         0.0265
     75 H         -46.4012   21.7433  -48.2921 H         1 ALC         0.0265
     76 H         -45.1520   20.4961  -50.0736 H         1 ALC         0.0265
     77 H         -46.1735   19.4396  -49.0406 H         1 ALC         0.0265
     78 H         -44.0094   18.3767  -49.4141 H         1 ALC         0.0268
     79 H         -43.1509   19.8477  -48.8432 H         1 ALC         0.0268
     80 H         -40.4664   17.0101  -48.5136 H         1 ASP         0.1884
     81 H         -39.2095   14.6325  -47.2456 H         1 ASP         0.0819
     82 H         -37.4336   14.8507  -48.9488 H         1 ASP         0.0478
     83 H         -38.2559   16.3000  -49.6197 H         1 ASP         0.0478
     84 H         -37.2736   14.7070  -46.1750 H         1 LEU         0.1883
     85 H         -36.7078   17.0645  -44.6339 H         1 LEU         0.0800
     86 H         -34.5900   15.6313  -44.0314 H         1 LEU         0.0315
     87 H         -35.4583   14.3290  -44.9127 H         1 LEU         0.0315
     88 H         -37.4006   14.7525  -43.3409 H         1 LEU         0.0298
     89 H         -36.3867   13.4084  -41.5326 H         1 LEU         0.0232
     90 H         -34.7540   13.7668  -42.1900 H         1 LEU         0.0232
     91 H         -35.9221   12.8070  -43.1602 H         1 LEU         0.0232
     92 H         -36.6694   16.9615  -42.5198 H         1 LEU         0.0232
     93 H         -35.2394   16.1936  -41.7504 H         1 LEU         0.0232
     94 H         -36.8936   15.7818  -41.1839 H         1 LEU         0.0232
     95 H         -35.3526   16.0692  -47.7740 H         1 ZCL         0.1877
     96 H         -29.7338   16.0173  -44.8718 H         1 ZCL         0.0606
     97 H         -30.5847   16.9403  -46.9913 H         1 ZCL         0.0559
     98 H         -33.4450   13.7715  -47.2397 H         1 ZCL         0.0562
     99 H         -33.1552   15.2245  -49.0789 H         1 ZCL         0.0467
    100 H         -31.8366   16.4441  -49.1058 H         1 ZCL         0.0467
    101 H         -33.1835   18.0227  -47.8522 H         1 ZCL         0.0749
@<TRIPOS>BOND
     1    1    2 2  
     2    1    3 1  
     3    4    1 am 
     4    5    4 1  
     5    6    5 1  
     6    5    8 1  
     7    6    7 2  
     8   13    6 am 
     9    8    9 1  
    10    9   10 1  
    11   10   11 2  
    12   10   12 am 
    13   14   13 1  
    14   15   14 1  
    15   14   17 1  
    16   15   16 2  
    17   24   15 am 
    18   17   18 1  
    19   18   19 1  
    20   18   23 1  
    21   19   20 1  
    22   20   21 1  
    23   22   21 1  
    24   23   22 1  
    25   25   24 1  
    26   26   25 1  
    27   25   28 1  
    28   26   27 2  
    29   32   26 am 
    30   28   29 1  
    31   29   30 ar 
    32   29   31 ar 
    33   33   32 1  
    34   34   33 1  
    35   33   36 1  
    36   34   35 2  
    37   40   34 am 
    38   36   37 1  
    39   37   38 1  
    40   37   39 1  
    41   52   40 1  
    42   49   41 ar 
    43   50   42 1  
    44   46   43 ar 
    45   43   50 ar 
    46   44   45 1  
    47   47   44 ar 
    48   44   50 ar 
    49   51   46 ar 
    50   51   47 ar 
    51   48   51 1  
    52   52   48 1  
    53   49   52 1  
    54   49   53 ar 
    55    3   54 1  
    56    3   55 1  
    57    3   56 1  
    58    4   57 1  
    59    5   58 1  
    60    8   59 1  
    61    8   60 1  
    62    9   61 1  
    63    9   62 1  
    64   12   63 1  
    65   12   64 1  
    66   13   65 1  
    67   14   66 1  
    68   17   67 1  
    69   17   68 1  
    70   18   69 1  
    71   19   70 1  
    72   19   71 1  
    73   20   72 1  
    74   20   73 1  
    75   21   74 1  
    76   21   75 1  
    77   22   76 1  
    78   22   77 1  
    79   23   78 1  
    80   23   79 1  
    81   24   80 1  
    82   25   81 1  
    83   28   82 1  
    84   28   83 1  
    85   32   84 1  
    86   33   85 1  
    87   36   86 1  
    88   36   87 1  
    89   37   88 1  
    90   38   89 1  
    91   38   90 1  
    92   38   91 1  
    93   39   92 1  
    94   39   93 1  
    95   39   94 1  
    96   40   95 1  
    97   43   96 1  
    98   46   97 1  
    99   47   98 1  
   100   48   99 1  
   101   48  100 1  
   102   52  101 1  
@<TRIPOS>SUBSTRUCTURE
     1 ACE         1

