4tsz_ligand
  -I-interpret- 

103104  0  0  0  0  0  0  0  0999 V2000
  -47.5560   15.2480  -48.7300 C   0  0  0  0  0
  -47.1150   16.3540  -48.3830 O   0  0  0  0  0
  -48.8490   15.1530  -49.5270 C   0  0  0  0  0
  -46.9550   14.0840  -48.4670 N   0  0  0  0  0
  -45.7180   13.9570  -47.6900 C   0  0  0  0  0
  -44.5610   14.8080  -48.2070 C   0  0  0  0  0
  -44.2150   14.7290  -49.3850 O   0  0  0  0  0
  -45.2920   12.4740  -47.5530 C   0  0  0  0  0
  -44.0390   12.2430  -46.6680 C   0  0  0  0  0
  -44.1870   12.6830  -45.2160 C   0  0  0  0  0
  -43.4070   13.4960  -44.6930 O   0  0  0  0  0
  -45.2020   12.1770  -44.5410 N   0  0  0  0  0
  -43.9640   15.6080  -47.3070 N   0  0  0  0  0
  -42.8150   16.4670  -47.6070 C   0  0  0  0  0
  -41.4830   15.7560  -47.3000 C   0  0  0  0  0
  -41.4650   14.7930  -46.5310 O   0  0  0  0  0
  -42.8350   17.8740  -46.9510 C   0  0  0  0  0
  -44.0830   18.6910  -47.2870 C   0  0  0  0  0
  -44.2680   19.8550  -46.3180 C   0  0  0  0  0
  -45.4980   20.7040  -46.6390 C   0  0  0  0  0
  -45.4580   21.2220  -48.0720 C   0  0  0  0  0
  -45.2780   20.0780  -49.0640 C   0  0  0  0  0
  -44.0520   19.2290  -48.7200 C   0  0  0  0  0
  -40.3820   16.2150  -47.9130 N   0  0  0  0  0
  -39.0560   15.6020  -47.7420 C   0  0  0  0  0
  -38.1090   16.4060  -46.8740 C   0  0  0  0  0
  -38.1490   17.6340  -46.8980 O   0  0  0  0  0
  -38.4070   15.3370  -49.1100 C   0  0  0  0  0
  -39.2520   14.4460  -49.9990 C   0  0  0  0  0
  -39.3170   13.2220  -49.7250 O   0  0  0  0  0
  -39.8860   14.9760  -50.9390 O   0  0  0  0  0
  -37.2300   15.7050  -46.1300 N   0  0  0  0  0
  -36.2140   16.3060  -45.2590 C   0  0  0  0  0
  -35.1240   16.9930  -46.0770 C   0  0  0  0  0
  -34.7810   18.1310  -45.7790 O   0  0  0  0  0
  -35.5790   15.2560  -44.3330 C   0  0  0  0  0
  -36.3470   14.9120  -43.0680 C   0  0  0  0  0
  -35.8160   13.6360  -42.4450 C   0  0  0  0  0
  -36.2830   16.0390  -42.0620 C   0  0  0  0  0
  -34.7430   16.7390  -47.3500 N   0  0  0  0  0
  -33.6290   18.5320  -50.2320 O   0  0  0  0  0
  -30.5870   13.7980  -43.3050 Cl  0  0  0  0  0
  -30.5550   15.5290  -45.3840 C   0  0  0  0  0
  -32.1550   13.7500  -45.5340 C   0  0  0  0  0
  -32.8230   12.2640  -44.9530 Cl  0  0  0  0  0
  -31.0360   16.0460  -46.5770 C   0  0  0  0  0
  -32.6360   14.2720  -46.7200 C   0  0  0  0  0
  -32.6660   16.0310  -48.5130 C   0  0  0  0  0
  -34.2860   17.5760  -49.6370 C   0  0  0  0  0
  -31.1270   14.3860  -44.8480 C   0  0  0  0  0
  -32.0890   15.4350  -47.2510 C   0  0  0  0  0
  -33.7020   17.1560  -48.2880 C   0  0  0  0  0
  -35.3150   17.0240  -50.0870 O   0  0  0  0  0
  -49.6635   15.5894  -48.9489 H   0  0  0  0  0
  -48.7365   15.6956  -50.4656 H   0  0  0  0  0
  -49.0698   14.1061  -49.7353 H   0  0  0  0  0
  -47.3828   13.2317  -48.8288 H   0  0  0  0  0
  -45.9575   14.3532  -46.7032 H   0  0  0  0  0
  -45.0452   12.1195  -48.5538 H   0  0  0  0  0
  -46.1195   11.9473  -47.0777 H   0  0  0  0  0
  -43.2352   12.8406  -47.0979 H   0  0  0  0  0
  -43.8566   11.1685  -46.6545 H   0  0  0  0  0
  -45.3575   12.4523  -43.5712 H   0  0  0  0  0
  -45.8310   11.5107  -44.9891 H   0  0  0  0  0
  -44.3335   15.6179  -46.3563 H   0  0  0  0  0
  -42.9027   16.6501  -48.6779 H   0  0  0  0  0
  -41.9737   18.4232  -47.3313 H   0  0  0  0  0
  -42.8207   17.7302  -45.8706 H   0  0  0  0  0
  -44.9264   18.0071  -47.1913 H   0  0  0  0  0
  -43.3903   20.4966  -46.3958 H   0  0  0  0  0
  -44.4008   19.4396  -45.3191 H   0  0  0  0  0
  -45.5148   21.5585  -45.9625 H   0  0  0  0  0
  -46.3868   20.0845  -46.5197 H   0  0  0  0  0
  -44.6157   21.9065  -48.1722 H   0  0  0  0  0
  -46.4004   21.7256  -48.2874 H   0  0  0  0  0
  -45.1383   20.5010  -50.0588 H   0  0  0  0  0
  -46.1622   19.4419  -49.0233 H   0  0  0  0  0
  -44.0385   18.3743  -49.3963 H   0  0  0  0  0
  -43.1702   19.8621  -48.8189 H   0  0  0  0  0
  -40.4681   17.0260  -48.5256 H   0  0  0  0  0
  -39.2323   14.6632  -47.2169 H   0  0  0  0  0
  -37.4574   14.8308  -48.9363 H   0  0  0  0  0
  -38.2888   16.2959  -49.6145 H   0  0  0  0  0
  -38.7533   13.0336  -48.9711 H   0  0  0  0  0
  -37.2744   14.6870  -46.1759 H   0  0  0  0  0
  -36.7191   17.0526  -44.6462 H   0  0  0  0  0
  -34.6302   15.6794  -44.0035 H   0  0  0  0  0
  -35.5266   14.3349  -44.9134 H   0  0  0  0  0
  -37.3888   14.7611  -43.3507 H   0  0  0  0  0
  -35.9216   12.8154  -43.1546 H   0  0  0  0  0
  -34.7637   13.7669  -42.1929 H   0  0  0  0  0
  -36.3823   13.4115  -41.5411 H   0  0  0  0  0
  -35.2430   16.2283  -41.7961 H   0  0  0  0  0
  -36.7174   16.9386  -42.4980 H   0  0  0  0  0
  -36.8426   15.7597  -41.1693 H   0  0  0  0  0
  -35.3647   16.0558  -47.7825 H   0  0  0  0  0
  -32.8789   18.7884  -49.6905 H   0  0  0  0  0
  -29.7293   16.0200  -44.8690 H   0  0  0  0  0
  -30.5822   16.9452  -46.9936 H   0  0  0  0  0
  -33.4495   13.7687  -47.2425 H   0  0  0  0  0
  -33.1835   15.2255  -49.0340 H   0  0  0  0  0
  -31.8344   16.4734  -49.0615 H   0  0  0  0  0
  -33.2078   18.0168  -47.8375 H   0  0  0  0  0
  1  2  2  0  0  0
  1  3  1  0  0  0
  4  1  1  0  0  0
  5  4  1  0  0  0
  6  5  1  0  0  0
  5  8  1  0  0  0
  6  7  2  0  0  0
 13  6  1  0  0  0
  8  9  1  0  0  0
  9 10  1  0  0  0
 10 11  2  0  0  0
 10 12  1  0  0  0
 14 13  1  0  0  0
 15 14  1  0  0  0
 14 17  1  0  0  0
 15 16  2  0  0  0
 24 15  1  0  0  0
 17 18  1  0  0  0
 18 19  1  0  0  0
 18 23  1  0  0  0
 19 20  1  0  0  0
 20 21  1  0  0  0
 22 21  1  0  0  0
 23 22  1  0  0  0
 25 24  1  0  0  0
 26 25  1  0  0  0
 25 28  1  0  0  0
 26 27  2  0  0  0
 32 26  1  0  0  0
 28 29  1  0  0  0
 29 30  1  0  0  0
 29 31  2  0  0  0
 33 32  1  0  0  0
 34 33  1  0  0  0
 33 36  1  0  0  0
 34 35  2  0  0  0
 40 34  1  0  0  0
 36 37  1  0  0  0
 37 38  1  0  0  0
 37 39  1  0  0  0
 52 40  1  0  0  0
 49 41  1  0  0  0
 50 42  1  0  0  0
 46 43  4  0  0  0
 43 50  4  0  0  0
 44 45  1  0  0  0
 47 44  4  0  0  0
 44 50  4  0  0  0
 51 46  4  0  0  0
 51 47  4  0  0  0
 48 51  1  0  0  0
 52 48  1  0  0  0
 49 52  1  0  0  0
 49 53  2  0  0  0
  3 54  1  0  0  0
  3 55  1  0  0  0
  3 56  1  0  0  0
  4 57  1  0  0  0
  5 58  1  0  0  0
  8 59  1  0  0  0
  8 60  1  0  0  0
  9 61  1  0  0  0
  9 62  1  0  0  0
 12 63  1  0  0  0
 12 64  1  0  0  0
 13 65  1  0  0  0
 14 66  1  0  0  0
 17 67  1  0  0  0
 17 68  1  0  0  0
 18 69  1  0  0  0
 19 70  1  0  0  0
 19 71  1  0  0  0
 20 72  1  0  0  0
 20 73  1  0  0  0
 21 74  1  0  0  0
 21 75  1  0  0  0
 22 76  1  0  0  0
 22 77  1  0  0  0
 23 78  1  0  0  0
 23 79  1  0  0  0
 24 80  1  0  0  0
 25 81  1  0  0  0
 28 82  1  0  0  0
 28 83  1  0  0  0
 30 84  1  0  0  0
 32 85  1  0  0  0
 33 86  1  0  0  0
 36 87  1  0  0  0
 36 88  1  0  0  0
 37 89  1  0  0  0
 38 90  1  0  0  0
 38 91  1  0  0  0
 38 92  1  0  0  0
 39 93  1  0  0  0
 39 94  1  0  0  0
 39 95  1  0  0  0
 40 96  1  0  0  0
 41 97  1  0  0  0
 43 98  1  0  0  0
 46 99  1  0  0  0
 47100  1  0  0  0
 48101  1  0  0  0
 48102  1  0  0  0
 52103  1  0  0  0
M  END
$$$$
