1qy1_ligand
  -I-interpret- 

 26 26  0  0  0  0  0  0  0  0999 V2000
   50.2630   22.9610   42.7300 N   0  0  0  0  0
   50.2500   23.7750   41.6530 C   0  0  0  0  0
   51.2160   23.5720   40.6630 C   0  0  0  0  0
   52.1170   22.5790   40.8060 N   0  0  0  0  0
   52.1180   21.7900   41.8710 C   0  0  0  0  0
   51.1600   21.9900   42.8650 C   0  0  0  0  0
   49.1490   24.8530   41.5610 C   0  0  0  0  0
   48.2800   24.6440   40.3120 C   0  0  0  0  0
   47.2020   25.7290   40.2570 C   0  0  0  0  0
   47.6420   23.2490   40.3070 C   0  0  0  0  0
   51.2340   24.4430   39.6190 O   0  0  0  0  0
   52.4030   24.3330   38.8150 C   0  0  0  0  0
   52.8576   20.9954   41.9688 H   0  0  0  0  0
   51.1473   21.3523   43.7489 H   0  0  0  0  0
   49.6223   25.8329   41.4986 H   0  0  0  0  0
   48.5150   24.7827   42.4448 H   0  0  0  0  0
   48.9133   24.7175   39.4279 H   0  0  0  0  0
   46.5795   25.6664   41.1495 H   0  0  0  0  0
   47.6768   26.7091   40.2116 H   0  0  0  0  0
   46.5847   25.5815   39.3708 H   0  0  0  0  0
   48.4263   22.4921   40.3162 H   0  0  0  0  0
   47.0146   23.1347   41.1909 H   0  0  0  0  0
   47.0334   23.1324   39.4103 H   0  0  0  0  0
   53.2830   24.5335   39.4262 H   0  0  0  0  0
   52.4664   23.3254   38.4042 H   0  0  0  0  0
   52.3519   25.0561   38.0010 H   0  0  0  0  0
  1  2  4  0  0  0
  1  6  4  0  0  0
  2  3  4  0  0  0
  2  7  1  0  0  0
  3  4  4  0  0  0
  3 11  1  0  0  0
  4  5  4  0  0  0
  5  6  4  0  0  0
  7  8  1  0  0  0
  8  9  1  0  0  0
  8 10  1  0  0  0
 11 12  1  0  0  0
  5 13  1  0  0  0
  6 14  1  0  0  0
  7 15  1  0  0  0
  7 16  1  0  0  0
  8 17  1  0  0  0
  9 18  1  0  0  0
  9 19  1  0  0  0
  9 20  1  0  0  0
 10 21  1  0  0  0
 10 22  1  0  0  0
 10 23  1  0  0  0
 12 24  1  0  0  0
 12 25  1  0  0  0
 12 26  1  0  0  0
M  END
$$$$
