2yiv_ligand
  -I-interpret- 

 17 16  0  0  0  0  0  0  0  0999 V2000
   56.3270    5.3160   35.4000 C   0  0  0  0  0
   57.2480    6.2230   35.2670 N   0  0  0  0  0
   58.6160    6.6310   35.5190 C   0  0  0  0  0
   59.8390    6.0250   34.8440 C   0  0  0  0  0
   59.7980    5.6050   33.3820 C   0  0  0  0  0
   61.1440    5.0040   32.9980 C   0  0  0  0  0
   56.5508    4.3841   35.9192 H   0  0  0  0  0
   55.3307    5.4871   34.9923 H   0  0  0  0  0
   58.7578    6.3463   36.5616 H   0  0  0  0  0
   58.6273    7.6563   35.1491 H   0  0  0  0  0
   60.0039    5.0921   35.3830 H   0  0  0  0  0
   60.5789    6.8250   34.8690 H   0  0  0  0  0
   59.5926    6.4738   32.7566 H   0  0  0  0  0
   59.0109    4.8654   33.2349 H   0  0  0  0  0
   61.9275    5.7474   33.1447 H   0  0  0  0  0
   61.3443    4.1347   33.6244 H   0  0  0  0  0
   61.1199    4.7013   31.9511 H   0  0  0  0  0
  1  2  2  0  0  0
  2  3  1  0  0  0
  3  4  1  0  0  0
  4  5  1  0  0  0
  5  6  1  0  0  0
  1  7  1  0  0  0
  1  8  1  0  0  0
  3  9  1  0  0  0
  3 10  1  0  0  0
  4 11  1  0  0  0
  4 12  1  0  0  0
  5 13  1  0  0  0
  5 14  1  0  0  0
  6 15  1  0  0  0
  6 16  1  0  0  0
  6 17  1  0  0  0
M  END
$$$$
