5vd3_ligand
  -I-interpret- 

 72 77  0  0  0  0  0  0  0  0999 V2000
   -6.7590    6.9640    3.7240 C   0  0  0  0  0
   -7.5020    6.1430    2.7440 N   0  3  0  0  0
   -6.7440    4.8780    2.5490 C   0  0  0  0  0
   -7.5530    3.9360    1.6320 C   0  0  0  0  0
   -8.9070    3.6740    2.1780 N   0  3  0  0  0
   -9.5820    2.9290    1.1240 C   0  0  0  0  0
  -10.8670    2.2730    1.5910 C   0  0  0  0  0
  -11.8950    3.2480    1.5910 O   0  0  0  0  0
  -13.1380    2.7470    1.8620 C   0  0  0  0  0
  -14.1490    3.7000    1.9780 C   0  0  0  0  0
  -15.4580    3.3330    2.2480 C   0  0  0  0  0
  -16.4860    4.2230    2.3690 O   0  0  0  0  0
  -16.2560    5.5860    2.0130 C   0  0  0  0  0
  -16.2790    5.5790    0.4760 C   0  0  0  0  0
  -17.1630    6.6500   -0.1660 C   0  0  0  0  0
  -18.3700    6.8080    0.5750 O   0  0  0  0  0
  -18.1760    7.3090    1.8900 C   0  0  0  0  0
  -17.4250    6.2610    2.7300 C   0  0  0  0  0
  -15.7840    1.9650    2.4160 C   0  0  0  0  0
  -17.1160    1.4770    2.6940 C   0  0  0  0  0
  -18.2220    2.3310    2.8370 N   0  0  0  0  0
  -19.5440    1.8800    3.1410 C   0  0  0  0  0
  -19.8210    1.0460    4.2290 C   0  0  0  0  0
  -19.0050    0.4890    5.1950 O   0  0  0  0  0
  -19.7870   -0.3600    6.0460 C   0  0  0  0  0
  -21.1310   -0.1680    5.5880 O   0  0  0  0  0
  -21.1330    0.6320    4.4740 C   0  0  0  0  0
  -22.1720    1.0420    3.6560 C   0  0  0  0  0
  -21.9190    1.8700    2.5760 C   0  0  0  0  0
  -20.6180    2.2770    2.3280 C   0  0  0  0  0
  -20.3220    3.3170    0.9690 Cl  0  0  0  0  0
  -17.2840    0.1530    2.8260 N   0  0  0  0  0
  -16.2900   -0.6800    2.7060 C   0  0  0  0  0
  -15.0530   -0.2860    2.4490 N   0  0  0  0  0
  -14.7440    1.0010    2.2980 C   0  0  0  0  0
  -13.4360    1.3960    2.0210 C   0  0  0  0  0
   -9.6220    4.9660    2.3460 C   0  0  0  0  0
   -8.8540    5.8780    3.3150 C   0  0  0  0  0
   -7.2927    7.8996    3.8911 H   0  0  0  0  0
   -6.6759    6.4187    4.6641 H   0  0  0  0  0
   -5.7626    7.1768    3.3366 H   0  0  0  0  0
   -7.6060    6.6090    1.8427 H   0  0  0  0  0
   -6.5810    4.3975    3.5137 H   0  0  0  0  0
   -5.7804    5.0968    2.0890 H   0  0  0  0  0
   -7.0217    2.9871    1.5578 H   0  0  0  0  0
   -7.6605    4.4122    0.6574 H   0  0  0  0  0
   -8.8780    3.1853    3.0728 H   0  0  0  0  0
   -8.9080    2.1394    0.7919 H   0  0  0  0  0
   -9.8375    3.6326    0.3317 H   0  0  0  0  0
  -10.7357    1.8706    2.5955 H   0  0  0  0  0
  -11.1310    1.4538    0.9222 H   0  0  0  0  0
  -13.9050    4.7551    1.8538 H   0  0  0  0  0
  -15.3322    6.0944    2.2892 H   0  0  0  0  0
  -16.6857    4.6141    0.1731 H   0  0  0  0  0
  -15.2588    5.7759    0.1464 H   0  0  0  0  0
  -17.4084    6.3447   -1.1832 H   0  0  0  0  0
  -16.6242    7.5975   -0.1730 H   0  0  0  0  0
  -19.1435    7.5167    2.3470 H   0  0  0  0  0
  -17.5916    8.2281    1.8470 H   0  0  0  0  0
  -17.0095    6.7836    3.5916 H   0  0  0  0  0
  -18.1421    5.4774    2.9747 H   0  0  0  0  0
  -18.0729    3.3329    2.7167 H   0  0  0  0  0
  -19.6701   -0.1084    7.1001 H   0  0  0  0  0
  -19.4758   -1.4030    5.9871 H   0  0  0  0  0
  -23.1902    0.7125    3.8626 H   0  0  0  0  0
  -22.7327    2.1976    1.9290 H   0  0  0  0  0
  -16.4851   -1.7461    2.8221 H   0  0  0  0  0
  -12.6479    0.6486    1.9290 H   0  0  0  0  0
  -10.6155    4.7730    2.7507 H   0  0  0  0  0
   -9.6977    5.4595    1.3771 H   0  0  0  0  0
   -9.3921    6.8165    3.4483 H   0  0  0  0  0
   -8.7591    5.3929    4.2865 H   0  0  0  0  0
  1  2  1  0  0  0
  2  3  1  0  0  0
  2 38  1  0  0  0
  3  4  1  0  0  0
  4  5  1  0  0  0
  5  6  1  0  0  0
  5 37  1  0  0  0
  6  7  1  0  0  0
  7  8  1  0  0  0
  8  9  1  0  0  0
  9 10  4  0  0  0
  9 36  4  0  0  0
 10 11  4  0  0  0
 11 12  1  0  0  0
 11 19  4  0  0  0
 12 13  1  0  0  0
 13 14  1  0  0  0
 13 18  1  0  0  0
 14 15  1  0  0  0
 15 16  1  0  0  0
 16 17  1  0  0  0
 17 18  1  0  0  0
 19 20  4  0  0  0
 19 35  4  0  0  0
 20 21  1  0  0  0
 20 32  4  0  0  0
 21 22  1  0  0  0
 22 23  4  0  0  0
 22 30  4  0  0  0
 23 24  1  0  0  0
 23 27  4  0  0  0
 24 25  1  0  0  0
 25 26  1  0  0  0
 26 27  1  0  0  0
 27 28  4  0  0  0
 28 29  4  0  0  0
 29 30  4  0  0  0
 30 31  1  0  0  0
 32 33  4  0  0  0
 33 34  4  0  0  0
 34 35  4  0  0  0
 35 36  4  0  0  0
 37 38  1  0  0  0
  1 39  1  0  0  0
  1 40  1  0  0  0
  1 41  1  0  0  0
  2 42  1  0  0  0
  3 43  1  0  0  0
  3 44  1  0  0  0
  4 45  1  0  0  0
  4 46  1  0  0  0
  5 47  1  0  0  0
  6 48  1  0  0  0
  6 49  1  0  0  0
  7 50  1  0  0  0
  7 51  1  0  0  0
 10 52  1  0  0  0
 13 53  1  0  0  0
 14 54  1  0  0  0
 14 55  1  0  0  0
 15 56  1  0  0  0
 15 57  1  0  0  0
 17 58  1  0  0  0
 17 59  1  0  0  0
 18 60  1  0  0  0
 18 61  1  0  0  0
 21 62  1  0  0  0
 25 63  1  0  0  0
 25 64  1  0  0  0
 28 65  1  0  0  0
 29 66  1  0  0  0
 33 67  1  0  0  0
 36 68  1  0  0  0
 37 69  1  0  0  0
 37 70  1  0  0  0
 38 71  1  0  0  0
 38 72  1  0  0  0
M  END
$$$$
