2hd1_ligand
  -I-interpret- 

 29 30  0  0  0  0  0  0  0  0999 V2000
   75.2400   51.9130   40.7980 N   0  0  0  0  0
   74.3200   52.7130   41.4380 C   0  0  0  0  0
   74.5170   52.8150   42.7300 N   0  0  0  0  0
   75.6370   52.0260   42.9590 C   0  0  0  0  0
   76.0960   51.4650   41.7820 C   0  0  0  0  0
   77.1620   50.6430   41.6220 N   0  0  0  0  0
   77.8550   50.3790   42.7720 C   0  0  0  0  0
   77.4620   50.8930   44.0110 N   0  0  0  0  0
   76.3520   51.7100   44.1130 C   0  0  0  0  0
   75.9920   52.1470   45.2100 O   0  0  0  0  0
   78.8500   49.6620   42.7170 O   0  0  0  0  0
   78.2260   50.5590   45.2030 C   0  0  0  0  0
   77.5140   50.0460   40.3350 C   0  0  0  0  0
   78.5750   50.8980   39.6280 C   0  0  0  0  0
   78.4320   50.7430   38.1130 C   0  0  0  0  0
   79.9940   50.5280   40.0580 C   0  0  0  0  0
   73.5037   53.2149   40.9186 H   0  0  0  0  0
   78.2188   49.4785   45.3467 H   0  0  0  0  0
   79.2530   50.9041   45.0833 H   0  0  0  0  0
   77.7766   51.0450   46.0690 H   0  0  0  0  0
   76.6226   49.9953   39.7097 H   0  0  0  0  0
   77.9137   49.0460   40.5032 H   0  0  0  0  0
   78.4096   51.9366   39.9145 H   0  0  0  0  0
   78.5678   49.6961   37.8418 H   0  0  0  0  0
   77.4391   51.0730   37.8074 H   0  0  0  0  0
   79.1876   51.3498   37.6140 H   0  0  0  0  0
   80.0980   50.6800   41.1323 H   0  0  0  0  0
   80.1840   49.4819   39.8177 H   0  0  0  0  0
   80.7086   51.1591   39.5296 H   0  0  0  0  0
  1  5  4  0  0  0
  1  2  4  0  0  0
  2  3  4  0  0  0
  3  4  4  0  0  0
  4  9  1  0  0  0
  4  5  4  0  0  0
  5  6  1  0  0  0
  6 13  1  0  0  0
  6  7  1  0  0  0
  7 11  2  0  0  0
  7  8  1  0  0  0
  8 12  1  0  0  0
  8  9  1  0  0  0
  9 10  2  0  0  0
 13 14  1  0  0  0
 14 16  1  0  0  0
 14 15  1  0  0  0
  2 17  1  0  0  0
 12 18  1  0  0  0
 12 19  1  0  0  0
 12 20  1  0  0  0
 13 21  1  0  0  0
 13 22  1  0  0  0
 14 23  1  0  0  0
 15 24  1  0  0  0
 15 25  1  0  0  0
 15 26  1  0  0  0
 16 27  1  0  0  0
 16 28  1  0  0  0
 16 29  1  0  0  0
M  END
$$$$
