#	Name:			4wkv_ligand
#	Creating user name:	wangrx
#	Creation time:		Thu Aug  5 16:54:39 2021

#	Modifying user name:	wangrx
#	Modification time:	Thu Aug  5 16:54:49 2021

@<TRIPOS>MOLECULE
4wkv_ligand
   32    31     1     0     0
SMALL
GAST_HUCK


@<TRIPOS>ATOM
      1 C6         24.6820   32.9880    9.4130 C.3       1 3QK        -0.0653 
      2 C7         25.5990   31.8540    9.8620 C.3       1 3QK        -0.0559 
      3 C8         25.1810   30.4800    9.3610 C.3       1 3QK        -0.0533 
      4 C9         25.5320   30.2100    7.9150 C.3       1 3QK        -0.0531 
      5 C10        25.0160   28.8740    7.4090 C.3       1 3QK        -0.0554 
      6 C11        25.5360   28.5550    6.0230 C.3       1 3QK        -0.0803 
      7 C12        24.6580   27.6360    5.1940 C.3       1 3QK        -0.1827 
      8 C13        25.0100   27.6970    3.7130 C.3       1 3QK        -0.3457 
      9 B1         24.4150   26.3430    2.9470 B         1 3QK         3.0000 
     10 O2         22.7750   26.2450    3.0940 O.3       1 3QK        -0.4105 
     11 O3         24.7570   26.3000    1.3320 O.3       1 3QK        -0.4105 
     12 H1         25.0536   33.9415    9.8164 H         1 3QK         0.0230 
     13 H2         23.6631   32.8048    9.7849 H         1 3QK         0.0230 
     14 H3         24.6683   33.0353    8.3141 H         1 3QK         0.0230 
     15 H4         25.6081   31.8323   10.9617 H         1 3QK         0.0263 
     16 H5         26.6133   32.0628    9.4910 H         1 3QK         0.0263 
     17 H6         24.0905   30.3898    9.4731 H         1 3QK         0.0265 
     18 H7         25.6776   29.7209    9.9832 H         1 3QK         0.0265 
     19 H8         26.6273   30.2218    7.8138 H         1 3QK         0.0265 
     20 H9         25.0979   31.0087    7.2957 H         1 3QK         0.0265 
     21 H10        23.9169   28.9063    7.3775 H         1 3QK         0.0265 
     22 H11        25.3400   28.0827    8.1010 H         1 3QK         0.0265 
     23 H12        26.5205   28.0766    6.1317 H         1 3QK         0.0241 
     24 H13        25.6472   29.5027    5.4758 H         1 3QK         0.0241 
     25 H14        23.6077   27.9365    5.3224 H         1 3QK        -0.0084 
     26 H15        24.7899   26.6031    5.5485 H         1 3QK        -0.0084 
     27 H17        26.0734   27.9543    3.5992 H         1 3QK        -0.2101 
     28 H18        24.3927   28.4629    3.2207 H         1 3QK        -0.2101 
     29 H19        22.3735   26.9797    2.6453 H         1 3QK         0.2052 
     30 H20        22.3735   26.9798    2.6452 H         1 3QK         0.2052 
     31 H21        25.6971   26.3545    1.2070 H         1 3QK         0.2052 
     32 H22        25.6972   26.3545    1.2070 H         1 3QK         0.2052 
@<TRIPOS>BOND
     1    1    2 1    
     2    2    3 1    
     3    3    4 1    
     4    4    5 1    
     5    5    6 1    
     6    6    7 1    
     7    7    8 1    
     8    8    9 1    
     9    9   10 1    
    10    9   11 1    
    11    1   12 1    
    12    1   13 1    
    13    1   14 1    
    14    2   15 1    
    15    2   16 1    
    16    3   17 1    
    17    3   18 1    
    18    4   19 1    
    19    4   20 1    
    20    5   21 1    
    21    5   22 1    
    22    6   23 1    
    23    6   24 1    
    24    7   25 1    
    25    7   26 1    
    26    8   27 1    
    27    8   28 1    
    28   10   29 1    
    29   10   30 1    
    30   11   31 1    
    31   11   32 1    
@<TRIPOS>SUBSTRUCTURE
     1 3QK         1 PERM              0 ****  ****    0 ROOT 
