4wkv_ligand

Created by X-TOOL on Fri Nov 18 17:46:40 2016
 33 32  0  0  0  0  0  0  0  0999 V2000
   24.6820   32.9880    9.4130  C 0  0  0  4  0  4
   25.5990   31.8540    9.8620  C 0  0  0  3  0  4
   25.1810   30.4800    9.3610  C 0  0  0  3  0  4
   25.5320   30.2100    7.9150  C 0  0  0  3  0  4
   25.0160   28.8740    7.4090  C 0  0  0  3  0  4
   25.5360   28.5550    6.0230  C 0  0  0  3  0  4
   24.6580   27.6360    5.1940  C 0  0  0  3  0  4
   25.0100   27.6970    3.7130  C 0  0  0  4  0  5
   24.4150   26.3430    2.9470  B 0  0  0  1  0  3
   22.7750   26.2450    3.0940  O 0  0  0  3  0  3
   24.7570   26.3000    1.3320  O 0  0  0  3  0  3
   25.0536   33.9415    9.8164  H 0  0  0  1  0  1
   23.6631   32.8048    9.7849  H 0  0  0  1  0  1
   24.6683   33.0353    8.3141  H 0  0  0  1  0  1
   25.6081   31.8323   10.9617  H 0  0  0  1  0  1
   26.6133   32.0628    9.4910  H 0  0  0  1  0  1
   24.0905   30.3898    9.4731  H 0  0  0  1  0  1
   25.6776   29.7209    9.9832  H 0  0  0  1  0  1
   26.6273   30.2218    7.8138  H 0  0  0  1  0  1
   25.0979   31.0087    7.2957  H 0  0  0  1  0  1
   23.9169   28.9063    7.3775  H 0  0  0  1  0  1
   25.3400   28.0827    8.1010  H 0  0  0  1  0  1
   26.5205   28.0766    6.1317  H 0  0  0  1  0  1
   25.6472   29.5027    5.4758  H 0  0  0  1  0  1
   23.6077   27.9365    5.3224  H 0  0  0  1  0  1
   24.7899   26.6031    5.5485  H 0  0  0  1  0  1
   24.8180   26.7179    3.2499  H 0  0  0  1  0  1
   26.0734   27.9543    3.5992  H 0  0  0  1  0  1
   24.3927   28.4629    3.2207  H 0  0  0  1  0  1
   22.3735   26.9797    2.6453  H 0  0  0  1  0  1
   22.3735   26.9798    2.6452  H 0  0  0  1  0  1
   25.6971   26.3545    1.2070  H 0  0  0  1  0  1
   25.6972   26.3545    1.2070  H 0  0  0  1  0  1
  1  2  1  0  0  2
  2  3  1  0  0  2
  3  4  1  0  0  2
  4  5  1  0  0  2
  5  6  1  0  0  2
  6  7  1  0  0  2
  7  8  1  0  0  2
  8  9  1  0  0  2
  9 10  1  0  0  2
  9 11  1  0  0  2
  1 12  1  0  0  2
  1 13  1  0  0  2
  1 14  1  0  0  2
  2 15  1  0  0  2
  2 16  1  0  0  2
  3 17  1  0  0  2
  3 18  1  0  0  2
  4 19  1  0  0  2
  4 20  1  0  0  2
  5 21  1  0  0  2
  5 22  1  0  0  2
  6 23  1  0  0  2
  6 24  1  0  0  2
  7 25  1  0  0  2
  7 26  1  0  0  2
  8 27  1  0  0  2
  8 28  1  0  0  2
  8 29  1  0  0  2
 10 30  1  0  0  2
 10 31  1  0  0  2
 11 32  1  0  0  2
 11 33  1  0  0  2
M  END
> <MOLECULAR_FORMULA>
C8H22O2B

> <MOLECULAR_WEIGHT>
160.9

> <NUM_HB_ATOMS>
2  

> <NUM_ROTOR>
7  

> <XLOGP2>
3.16 

$$$$
