2x6f_ligand
  -I-interpret- 

 18 19  0  0  0  0  0  0  0  0999 V2000
   18.6280   36.5340    6.2340 N   0  0  0  0  0
   17.4110   36.9660    6.6110 C   0  0  0  0  0
   16.5410   37.8870    6.1510 N   0  0  0  0  0
   16.8800   38.6810    4.9480 C   0  0  0  0  0
   15.3610   38.0770    6.7930 C   0  0  0  0  0
   14.9670   37.4030    7.8980 N   0  0  0  0  0
   15.7560   36.4480    8.4510 C   0  0  0  0  0
   15.4060   35.7420    9.5530 N   0  0  0  0  0
   17.0550   36.1720    7.8110 C   0  0  0  0  0
   18.0750   35.3280    8.0640 N   0  0  0  0  0
   19.0160   35.5530    7.1070 C   0  0  0  0  0
   17.7938   39.2458    5.1327 H   0  0  0  0  0
   17.0306   38.0103    4.1021 H   0  0  0  0  0
   16.0643   39.3693    4.7268 H   0  0  0  0  0
   14.6810   38.8271    6.3892 H   0  0  0  0  0
   14.5104   35.9180   10.0083 H   0  0  0  0  0
   16.0381   35.0344    9.9274 H   0  0  0  0  0
   19.9632   35.0175    7.0432 H   0  0  0  0  0
  1  2  4  0  0  0
  1 11  4  0  0  0
  2  3  4  0  0  0
  2  9  4  0  0  0
  3  4  1  0  0  0
  3  5  4  0  0  0
  5  6  4  0  0  0
  6  7  4  0  0  0
  7  8  1  0  0  0
  7  9  4  0  0  0
  9 10  4  0  0  0
 10 11  4  0  0  0
  4 12  1  0  0  0
  4 13  1  0  0  0
  4 14  1  0  0  0
  5 15  1  0  0  0
  8 16  1  0  0  0
  8 17  1  0  0  0
 11 18  1  0  0  0
M  END
$$$$
