4tyb_ligand
  -I-interpret- 

 30 31  0  0  0  0  0  0  0  0999 V2000
   -3.9240  -25.4160   17.3890 C   0  0  0  0  0
   -4.3060  -24.7490   18.5450 C   0  0  0  0  0
   -3.5210  -20.2280   20.4200 N   0  0  0  0  0
   -3.4570  -24.6590   16.2950 C   0  0  0  0  0
   -6.6230  -23.5270   22.4140 C   0  0  0  0  0
   -4.2210  -23.3460   18.6570 C   0  0  0  0  0
   -5.3330  -22.7610   22.2520 C   0  0  0  0  0
   -4.4820  -23.2710   21.1910 N   0  3  0  0  0
   -3.3880  -23.2540   16.3850 C   0  0  0  0  0
   -5.6820  -25.3710   21.4450 C   0  0  0  0  0
   -3.9790  -21.3280   20.2030 C   0  0  0  0  0
   -4.6720  -22.5890   19.9170 C   0  0  0  0  0
   -6.4800  -24.8970   22.4810 O   0  0  0  0  0
   -3.7710  -22.5920   17.5480 C   0  0  0  0  0
   -4.3250  -24.6580   21.5070 C   0  0  0  0  0
   -3.9839  -26.5027   17.3283 H   0  0  0  0  0
   -4.6822  -25.3260   19.3898 H   0  0  0  0  0
   -3.1488  -25.1612   15.3780 H   0  0  0  0  0
   -7.2285  -23.3156   21.5326 H   0  0  0  0  0
   -7.0624  -23.2089   23.3594 H   0  0  0  0  0
   -4.7796  -22.8522   23.1866 H   0  0  0  0  0
   -5.5932  -21.7338   21.9965 H   0  0  0  0  0
   -3.4993  -23.0278   21.0661 H   0  0  0  0  0
   -3.0297  -22.6778   15.5319 H   0  0  0  0  0
   -6.1618  -25.1731   20.4865 H   0  0  0  0  0
   -5.5410  -26.4470   21.5476 H   0  0  0  0  0
   -5.7159  -22.4717   19.6263 H   0  0  0  0  0
   -3.7247  -21.5044   17.6036 H   0  0  0  0  0
   -3.9181  -24.7512   22.5139 H   0  0  0  0  0
   -3.6482  -25.1146   20.7848 H   0  0  0  0  0
  2  1  4  0  0  0
  1  4  4  0  0  0
  6  2  4  0  0  0
 11  3  3  0  0  0
  9  4  4  0  0  0
  7  5  1  0  0  0
  5 13  1  0  0  0
 12  6  1  0  0  0
  6 14  4  0  0  0
  8  7  1  0  0  0
 12  8  1  0  0  0
  8 15  1  0  0  0
 14  9  4  0  0  0
 10 13  1  0  0  0
 15 10  1  0  0  0
 11 12  1  0  0  0
  1 16  1  0  0  0
  2 17  1  0  0  0
  4 18  1  0  0  0
  5 19  1  0  0  0
  5 20  1  0  0  0
  7 21  1  0  0  0
  7 22  1  0  0  0
  8 23  1  0  0  0
  9 24  1  0  0  0
 10 25  1  0  0  0
 10 26  1  0  0  0
 12 27  1  0  0  0
 14 28  1  0  0  0
 15 29  1  0  0  0
 15 30  1  0  0  0
M  END
$$$$
