### 
### Created by X-TOOL on Wed Jan  1 15:39:37 2020
### 

@<TRIPOS>MOLECULE
6czb_ligand
   40    41     1     0     0
SMALL
GAST_HUCK


@<TRIPOS>ATOM
      1 PA         -8.3040  -35.8140   22.1330 P.3       1 UTP         0.3266
      2 O1A        -9.5630  -35.6160   21.2870 O.co2     1 UTP        -0.5692
      3 O2A        -7.2970  -36.6280   21.3460 O.co2     1 UTP        -0.5692
      4 O3A        -7.7260  -34.2940   22.4760 O.3       1 UTP        -0.1171
      5 O5'        -8.4360  -36.5510   23.6560 O.3       1 UTP        -0.2441
      6 PB         -6.6070  -33.5660   21.5420 P.3       1 UTP         0.3553
      7 O1B        -6.5310  -32.1070   21.9330 O.co2     1 UTP        -0.5652
      8 O2B        -7.0700  -33.7350   20.1100 O.co2     1 UTP        -0.5652
      9 O3B        -5.1690  -34.3390   21.8330 O.3       1 UTP        -0.1546
     10 PG         -3.7080  -34.1030   21.0870 P.3       1 UTP         0.1879
     11 O1G        -2.9430  -35.3700   21.4170 O.co2     1 UTP        -0.6091
     12 O2G        -3.6920  -33.8880   19.6010 O.co2     1 UTP        -0.6091
     13 O3G        -3.1300  -32.8210   21.6450 O.co2     1 UTP        -0.6091
     14 C5'        -9.5360  -37.3170   24.0940 C.3       1 UTP         0.1131
     15 C4'        -9.1430  -38.6590   24.2830 C.3       1 UTP         0.1189
     16 O4'        -7.9020  -38.8850   25.1520 O.3       1 UTP        -0.3363
     17 C1'        -8.1200  -40.1250   25.6240 C.3       1 UTP         0.2059
     18 C2'        -9.6740  -40.0370   26.0470 C.3       1 UTP         0.1387
     19 O2'       -10.2870  -41.3450   26.2680 O.3       1 UTP        -0.3836
     20 C3'       -10.2700  -39.4160   25.0480 C.3       1 UTP         0.1149
     21 O3'       -10.9170  -40.3810   24.1140 O.3       1 UTP        -0.3864
     22 N1         -7.2530  -40.5420   26.7020 N.am      1 UTP        -0.1592
     23 C6         -7.7680  -41.1930   27.7410 C.2       1 UTP         0.0591
     24 C2         -5.9140  -40.3160   26.6800 C.2       1 UTP         0.3328
     25 O2         -5.4030  -39.7470   25.7670 O.2       1 UTP        -0.3815
     26 N3         -5.1250  -40.7470   27.7140 N.am      1 UTP        -0.1865
     27 C4         -5.6530  -41.3760   28.7460 C.2       1 UTP         0.1822
     28 O4         -4.9690  -41.7480   29.6500 O.2       1 UTP        -0.4124
     29 C5         -6.9930  -41.6130   28.7660 C.2       1 UTP         0.0062
     30 H1        -10.3343  -37.2739   23.3384 H         1 UTP         0.0648
     31 H2         -9.9088  -36.9090   25.0450 H         1 UTP         0.0648
     32 H3         -8.9768  -39.1091   23.2932 H         1 UTP         0.0651
     33 H4         -7.9957  -40.8533   24.8090 H         1 UTP         0.0997
     34 H5         -9.7699  -39.4464   26.9700 H         1 UTP         0.0676
     35 H6        -10.2356  -41.8566   25.4692 H         1 UTP         0.2101
     36 H7        -11.0223  -38.7116   25.4325 H         1 UTP         0.0648
     37 H8        -11.5678  -40.8880   24.5850 H         1 UTP         0.2100
     38 H9         -8.8383  -41.3923   27.7667 H         1 UTP         0.1178
     39 H10        -4.1389  -40.5830   27.6859 H         1 UTP         0.2259
     40 H11        -7.4406  -42.1405   29.6070 H         1 UTP         0.0258
@<TRIPOS>BOND
     1    1    2 ar 
     2    1    3 ar 
     3    1    4 1  
     4    1    5 1  
     5    4    6 1  
     6    5   14 1  
     7    6    7 ar 
     8    6    8 ar 
     9    6    9 1  
    10    9   10 1  
    11   10   11 ar 
    12   10   12 ar 
    13   10   13 ar 
    14   14   15 1  
    15   15   16 1  
    16   15   20 1  
    17   16   17 1  
    18   17   18 1  
    19   17   22 1  
    20   18   19 1  
    21   18   20 1  
    22   20   21 1  
    23   22   23 1  
    24   22   24 am 
    25   23   29 2  
    26   24   25 2  
    27   24   26 am 
    28   26   27 am 
    29   27   28 2  
    30   27   29 1  
    31   14   30 1  
    32   14   31 1  
    33   15   32 1  
    34   17   33 1  
    35   18   34 1  
    36   19   35 1  
    37   20   36 1  
    38   21   37 1  
    39   23   38 1  
    40   26   39 1  
    41   29   40 1  
@<TRIPOS>SUBSTRUCTURE
     1 UTP         1

