6czb_ligand
  -I-interpret- 

 44 45  0  0  0  0  0  0  0  0999 V2000
   -8.3040  -35.8140   22.1330 P   0  0  0  0  0
   -9.5630  -35.6160   21.2870 O   0  0  0  0  0
   -7.2970  -36.6280   21.3460 O   0  0  0  0  0
   -7.7260  -34.2940   22.4760 O   0  0  0  0  0
   -8.4360  -36.5510   23.6560 O   0  0  0  0  0
   -6.6070  -33.5660   21.5420 P   0  0  0  0  0
   -6.5310  -32.1070   21.9330 O   0  0  0  0  0
   -7.0700  -33.7350   20.1100 O   0  0  0  0  0
   -5.1690  -34.3390   21.8330 O   0  0  0  0  0
   -3.7080  -34.1030   21.0870 P   0  0  0  0  0
   -2.9430  -35.3700   21.4170 O   0  0  0  0  0
   -3.6920  -33.8880   19.6010 O   0  0  0  0  0
   -3.1300  -32.8210   21.6450 O   0  0  0  0  0
   -9.5360  -37.3170   24.0940 C   0  0  0  0  0
   -9.1430  -38.6590   24.2830 C   0  0  0  0  0
   -7.9020  -38.8850   25.1520 O   0  0  0  0  0
   -8.1200  -40.1250   25.6240 C   0  0  0  0  0
   -9.6740  -40.0370   26.0470 C   0  0  0  0  0
  -10.2870  -41.3450   26.2680 O   0  0  0  0  0
  -10.2700  -39.4160   25.0480 C   0  0  0  0  0
  -10.9170  -40.3810   24.1140 O   0  0  0  0  0
   -7.2530  -40.5420   26.7020 N   0  0  0  0  0
   -7.7680  -41.1930   27.7410 C   0  0  0  0  0
   -5.9140  -40.3160   26.6800 C   0  0  0  0  0
   -5.4030  -39.7470   25.7670 O   0  0  0  0  0
   -5.1250  -40.7470   27.7140 N   0  0  0  0  0
   -5.6530  -41.3760   28.7460 C   0  0  0  0  0
   -4.9690  -41.7480   29.6500 O   0  0  0  0  0
   -6.9930  -41.6130   28.7660 C   0  0  0  0  0
  -10.2029  -35.1004   21.7833 H   0  0  0  0  0
   -7.1070  -34.6699   19.8951 H   0  0  0  0  0
   -2.9518  -35.5096   22.3668 H   0  0  0  0  0
   -3.1035  -32.8737   22.6032 H   0  0  0  0  0
  -10.3243  -37.2760   23.3423 H   0  0  0  0  0
   -9.9015  -36.9134   25.0382 H   0  0  0  0  0
   -8.9334  -39.0067   23.2714 H   0  0  0  0  0
   -7.8945  -40.8962   24.8874 H   0  0  0  0  0
   -9.7747  -39.5131   26.9975 H   0  0  0  0  0
  -11.2071  -41.2282   26.5158 H   0  0  0  0  0
  -11.0478  -38.7523   25.4256 H   0  0  0  0  0
  -11.6137  -40.8533   24.5757 H   0  0  0  0  0
   -8.8393  -41.3925   27.7668 H   0  0  0  0  0
   -4.1192  -40.5797   27.6853 H   0  0  0  0  0
   -7.4410  -42.1410   29.6078 H   0  0  0  0  0
  1  2  1  0  0  0
  1  3  2  0  0  0
  1  4  1  0  0  0
  1  5  1  0  0  0
  4  6  1  0  0  0
  5 14  1  0  0  0
  6  7  2  0  0  0
  6  8  1  0  0  0
  6  9  1  0  0  0
  9 10  1  0  0  0
 10 11  1  0  0  0
 10 12  2  0  0  0
 10 13  1  0  0  0
 14 15  1  0  0  0
 15 16  1  0  0  0
 15 20  1  0  0  0
 16 17  1  0  0  0
 17 18  1  0  0  0
 17 22  1  0  0  0
 18 19  1  0  0  0
 18 20  1  0  0  0
 20 21  1  0  0  0
 22 23  1  0  0  0
 22 24  1  0  0  0
 23 29  2  0  0  0
 24 25  2  0  0  0
 24 26  1  0  0  0
 26 27  1  0  0  0
 27 28  2  0  0  0
 27 29  1  0  0  0
  2 30  1  0  0  0
  8 31  1  0  0  0
 11 32  1  0  0  0
 13 33  1  0  0  0
 14 34  1  0  0  0
 14 35  1  0  0  0
 15 36  1  0  0  0
 17 37  1  0  0  0
 18 38  1  0  0  0
 19 39  1  0  0  0
 20 40  1  0  0  0
 21 41  1  0  0  0
 23 42  1  0  0  0
 26 43  1  0  0  0
 29 44  1  0  0  0
M  END
$$$$
