### 
### Created by X-TOOL on Mon Sep 10 21:12:46 2018
### 

@<TRIPOS>MOLECULE
1vgc_ligand
   29    29     1     0     0
SMALL
GAST_HUCK


@<TRIPOS>ATOM
      1 C1         26.8760    3.4290   40.1690 C.ar      1 V36        -0.0418
      2 C2         27.0200    2.5050   41.2060 C.ar      1 V36        -0.0597
      3 C3         26.8610    2.8880   42.5440 C.ar      1 V36        -0.0546
      4 C4         26.5560    4.2020   42.8510 C.ar      1 V36         0.0330
      5 C5         26.4300    5.1380   41.8340 C.ar      1 V36        -0.0546
      6 C6         26.5950    4.7520   40.5090 C.ar      1 V36        -0.0597
      7 C7         26.8560    2.9970   38.7220 C.3       1 V36        -0.0048
      8 C8         27.7440    1.8220   38.3480 C.3       1 V36         0.0627
      9 C9         31.4680    1.6380   38.5250 C.3       1 V36         0.0256
     10 C          30.0570    1.2290   38.9010 C.2       1 V36         0.1722
     11 N          29.0790    2.1210   38.8070 N.am      1 V36        -0.2920
     12 O          29.8210    0.0490   39.1740 O.2       1 V36        -0.3974
     13 O2B        26.4770    0.7070   36.6590 O.3       1 V36        -0.4966
     14 O3B        28.8580    0.6520   36.6170 O.3       1 V36        -0.4966
     15 B          27.6760    1.4890   36.7200 B         1 V36         0.7185
     16 CL4        26.2360    4.8280   44.4970 Cl        1 V36        -0.0771
     17 H1         27.2589    1.4739   40.9717 H         1 V36         0.0557
     18 H2         26.9766    2.1572   43.3362 H         1 V36         0.0606
     19 H3         26.2028    6.1706   42.0732 H         1 V36         0.0606
     20 H4         26.5034    5.4941   39.7242 H         1 V36         0.0557
     21 H5         27.1684    3.8579   38.1128 H         1 V36         0.0437
     22 H6         25.8204    2.7256   38.4695 H         1 V36         0.0437
     23 H7         27.3867    0.9296   38.8827 H         1 V36         0.0454
     24 H8         32.1463    0.7829   38.6615 H         1 V36         0.0467
     25 H9         31.7924    2.4695   39.1679 H         1 V36         0.0467
     26 H10        31.4889    1.9582   37.4729 H         1 V36         0.0467
     27 H11        29.2807    3.0639   39.0721 H         1 V36         0.1841
     28 H12        26.4463    0.2404   35.8321 H         1 V36         0.1667
     29 H13        28.8429    0.1851   35.7898 H         1 V36         0.1667
@<TRIPOS>BOND
     1    1    2 ar 
     2    1    6 ar 
     3    7    1 1  
     4    2    3 ar 
     5    3    4 ar 
     6    5    4 ar 
     7    4   16 1  
     8    6    5 ar 
     9    8    7 1  
    10   11    8 1  
    11    8   15 1  
    12   10    9 1  
    13   10   11 am 
    14   10   12 2  
    15   15   13 1  
    16   15   14 1  
    17    2   17 1  
    18    3   18 1  
    19    5   19 1  
    20    6   20 1  
    21    7   21 1  
    22    7   22 1  
    23    8   23 1  
    24    9   24 1  
    25    9   25 1  
    26    9   26 1  
    27   11   27 1  
    28   13   28 1  
    29   14   29 1  
@<TRIPOS>SUBSTRUCTURE
     1 V36         1

