1vgc_ligand
  -I-interpret- 

 29 29  0  0  0  0  0  0  0  0999 V2000
   26.8760    3.4290   40.1690 C   0  0  0  0  0
   27.0200    2.5050   41.2060 C   0  0  0  0  0
   26.8610    2.8880   42.5440 C   0  0  0  0  0
   26.5560    4.2020   42.8510 C   0  0  0  0  0
   26.4300    5.1380   41.8340 C   0  0  0  0  0
   26.5950    4.7520   40.5090 C   0  0  0  0  0
   26.8560    2.9970   38.7220 C   0  0  0  0  0
   27.7440    1.8220   38.3480 C   0  0  0  0  0
   31.4680    1.6380   38.5250 C   0  0  0  0  0
   30.0570    1.2290   38.9010 C   0  0  0  0  0
   29.0790    2.1210   38.8070 N   0  0  0  0  0
   29.8210    0.0490   39.1740 O   0  0  0  0  0
   26.4770    0.7070   36.6590 O   0  0  0  0  0
   28.8580    0.6520   36.6170 O   0  0  0  0  0
   27.6760    1.4890   36.7200 B   0  0  0  0  0
   26.2360    4.8280   44.4970 Cl  0  0  0  0  0
   27.2602    1.4682   40.9704 H   0  0  0  0  0
   26.9772    2.1532   43.3406 H   0  0  0  0  0
   26.2015    6.1763   42.0745 H   0  0  0  0  0
   26.5029    5.4983   39.7199 H   0  0  0  0  0
   27.2266    3.8474   38.1497 H   0  0  0  0  0
   25.8340    2.6776   38.5182 H   0  0  0  0  0
   27.3937    0.9106   38.8324 H   0  0  0  0  0
   32.1428    1.4115   39.3505 H   0  0  0  0  0
   31.7801    1.0876   37.6374 H   0  0  0  0  0
   31.4918    2.7079   38.3177 H   0  0  0  0  0
   29.2848    3.0827   39.0774 H   0  0  0  0  0
   25.7146    1.2862   36.7294 H   0  0  0  0  0
   29.6433    1.2024   36.6608 H   0  0  0  0  0
  1  2  4  0  0  0
  1  6  4  0  0  0
  7  1  1  0  0  0
  2  3  4  0  0  0
  3  4  4  0  0  0
  5  4  4  0  0  0
  4 16  1  0  0  0
  6  5  4  0  0  0
  8  7  1  0  0  0
 11  8  1  0  0  0
  8 15  1  0  0  0
 10  9  1  0  0  0
 10 11  1  0  0  0
 10 12  2  0  0  0
 15 13  1  0  0  0
 15 14  1  0  0  0
  2 17  1  0  0  0
  3 18  1  0  0  0
  5 19  1  0  0  0
  6 20  1  0  0  0
  7 21  1  0  0  0
  7 22  1  0  0  0
  8 23  1  0  0  0
  9 24  1  0  0  0
  9 25  1  0  0  0
  9 26  1  0  0  0
 11 27  1  0  0  0
 13 28  1  0  0  0
 14 29  1  0  0  0
M  END
$$$$
