### 
### Created by X-TOOL on Mon Sep 10 21:13:26 2018
### 

@<TRIPOS>MOLECULE
5ir1_ligand
  195   197     1     0     0
SMALL
GAST_HUCK


@<TRIPOS>ATOM
      1 N          16.9240  -31.6530  -29.0030 N.am      1 GLY        -0.0895
      2 CA         16.6230  -32.0930  -27.6540 C.3       1 GLY         0.2896
      3 C          17.3160  -33.3790  -27.2430 C.2       1 GLY         0.2370
      4 O          17.4900  -33.6360  -26.0540 O.2       1 GLY        -0.3915
      5 N          17.7110  -34.1910  -28.2190 N.am      1 GLN        -0.2614
      6 CA         18.2770  -35.5050  -27.9340 C.3       1 GLN         0.1331
      7 C          19.7270  -35.5870  -28.3870 C.2       1 GLN         0.2042
      8 O          20.1320  -34.8790  -29.3070 O.2       1 GLN        -0.3944
      9 CB         17.4470  -36.6070  -28.6060 C.3       1 GLN         0.0045
     10 CG         16.0220  -36.7180  -28.0730 C.3       1 GLN         0.0412
     11 CD         15.9740  -37.0510  -26.5850 C.2       1 GLN         0.1737
     12 OE1        15.7640  -36.1740  -25.7440 O.2       1 GLN        -0.3973
     13 NE2        16.1630  -38.3260  -26.2580 N.am      1 GLN        -0.3009
     14 BR         26.2740  -40.9710  -28.8030 Br        1 6CV        -0.0517
     15 N          20.5050  -36.4480  -27.7340 N.am      1 6CV        -0.2619
     16 CA         21.9070  -36.6360  -28.0980 C.3       1 6CV         0.1405
     17 CB         22.6610  -37.4280  -27.0200 C.3       1 6CV         0.0220
     18 CG         24.1200  -37.7020  -27.3050 C.ar      1 6CV        -0.0358
     19 CD1        25.0930  -36.7340  -27.0830 C.ar      1 6CV        -0.0573
     20 CE1        26.4270  -37.0270  -27.3580 C.ar      1 6CV        -0.0657
     21 CZ         26.8020  -38.2690  -27.8600 C.ar      1 6CV        -0.0591
     22 CE2        25.8240  -39.2200  -28.0890 C.ar      1 6CV         0.0063
     23 CD2        24.4950  -38.9360  -27.8100 C.ar      1 6CV        -0.0505
     24 C          22.0230  -37.3060  -29.4720 C.2       1 6CV         0.2060
     25 O          21.3420  -38.2980  -29.7270 O.2       1 6CV        -0.3942
     26 N          22.8700  -36.7590  -30.3450 N.am      1 ASP        -0.2620
     27 CA         23.0610  -37.3040  -31.6850 C.3       1 ASP         0.1423
     28 C          24.3800  -38.0540  -31.8190 C.2       1 ASP         0.2056
     29 O          25.4480  -37.5310  -31.4840 O.2       1 ASP        -0.3943
     30 CB         23.0130  -36.1930  -32.7320 C.3       1 ASP         0.0406
     31 CG         22.9810  -36.7310  -34.1550 C.2       1 ASP         0.0393
     32 OD1        24.0480  -37.1310  -34.6840 O.co2     1 ASP        -0.5688
     33 OD2        21.8780  -36.7450  -34.7450 O.co2     1 ASP        -0.5688
     34 N          24.2890  -39.2670  -32.3570 N.am      1 LEU        -0.2636
     35 CA         25.4230  -40.1710  -32.4910 C.3       1 LEU         0.1312
     36 C          26.5110  -39.6690  -33.4400 C.2       1 LEU         0.2040
     37 O          27.7020  -39.7170  -33.1190 O.2       1 LEU        -0.3944
     38 CB         24.9290  -41.5370  -32.9750 C.3       1 LEU        -0.0101
     39 CG         26.0370  -42.5820  -33.0790 C.3       1 LEU        -0.0425
     40 CD1        26.6330  -42.6600  -31.7250 C.3       1 LEU        -0.0625
     41 CD2        25.5340  -43.9530  -33.5290 C.3       1 LEU        -0.0625
     42 N          26.0910  -39.2160  -34.6180 N.am      1 SER        -0.2616
     43 CA         27.0120  -38.7080  -35.6310 C.3       1 SER         0.1539
     44 C          27.6780  -37.3900  -35.2260 C.2       1 SER         0.2063
     45 O          28.7250  -37.0290  -35.7630 O.2       1 SER        -0.3943
     46 CB         26.2840  -38.5230  -36.9630 C.3       1 SER         0.0843
     47 OG         25.9960  -39.7730  -37.5660 O.3       1 SER        -0.3903
     48 N          27.0710  -36.6870  -34.2700 N.am      1 THR        -0.2613
     49 CA         27.5060  -35.3440  -33.8960 C.3       1 THR         0.1565
     50 C          28.2260  -35.2900  -32.5510 C.2       1 THR         0.2065
     51 O          29.0710  -34.4220  -32.3300 O.2       1 THR        -0.3943
     52 CB         26.3040  -34.3680  -33.8260 C.3       1 THR         0.0924
     53 OG1        25.4040  -34.6130  -34.9160 O.3       1 THR        -0.3874
     54 CG2        26.7870  -32.9320  -33.8840 C.3       1 THR        -0.0346
     55 N          27.8840  -36.2150  -31.6580 N.am      1 ARG        -0.2636
     56 CA         28.2590  -36.1300  -30.2410 C.3       1 ARG         0.1311
     57 C          27.7460  -34.8340  -29.6060 C.2       1 ARG         0.2039
     58 O          28.3410  -34.2890  -28.6790 O.2       1 ARG        -0.3944
     59 CB         29.7730  -36.2990  -30.0120 C.3       1 ARG        -0.0092
     60 CG         30.1340  -36.6450  -28.5510 C.3       1 ARG        -0.0156
     61 CD         31.6180  -36.5040  -28.2400 C.3       1 ARG         0.0627
     62 NE         32.4180  -37.5890  -28.8090 N.pl3     1 ARG        -0.2723
     63 CZ         33.3800  -38.2370  -28.1570 C.cat     1 ARG         0.2882
     64 NH1        33.6660  -37.9170  -26.8980 N.pl3     1 ARG        -0.2849
     65 NH2        34.0540  -39.2110  -28.7640 N.pl3     1 ARG        -0.2849
     66 N          26.6200  -34.3490  -30.1080 N.am      1 ARG        -0.2637
     67 CA         26.0220  -33.1280  -29.5980 C.3       1 ARG         0.1311
     68 C          24.5200  -33.3110  -29.5180 C.2       1 ARG         0.2039
     69 O          23.9850  -34.3110  -30.0010 O.2       1 ARG        -0.3944
     70 CB         26.3590  -31.9490  -30.5160 C.3       1 ARG        -0.0092
     71 CG         27.8480  -31.5810  -30.5510 C.3       1 ARG        -0.0156
     72 CD         28.3080  -30.8300  -29.2860 C.3       1 ARG         0.0627
     73 NE         27.5190  -29.6160  -29.0590 N.pl3     1 ARG        -0.2723
     74 CZ         27.6430  -28.4880  -29.7600 C.cat     1 ARG         0.2882
     75 NH1        28.5340  -28.4010  -30.7380 N.pl3     1 ARG        -0.2849
     76 NH2        26.8690  -27.4470  -29.4790 N.pl3     1 ARG        -0.2849
     77 N          23.8430  -32.3520  -28.8990 N.am      1 LEU        -0.2637
     78 CA         22.3890  -32.3650  -28.8480 C.3       1 LEU         0.1312
     79 C          21.8430  -31.8960  -30.1770 C.2       1 LEU         0.2039
     80 O          22.3630  -30.9610  -30.7740 O.2       1 LEU        -0.3944
     81 CB         21.8670  -31.4610  -27.7350 C.3       1 LEU        -0.0101
     82 CG         22.1450  -31.9000  -26.3060 C.3       1 LEU        -0.0425
     83 CD1        21.7010  -30.8020  -25.3460 C.3       1 LEU        -0.0625
     84 CD2        21.4280  -33.2070  -26.0220 C.3       1 LEU        -0.0625
     85 N          20.7930  -32.5580  -30.6380 N.am      1 LYS        -0.2637
     86 CA         20.1800  -32.2240  -31.9110 C.3       1 LYS         0.1310
     87 C          18.6820  -32.4110  -31.7810 C.2       1 LYS         0.2037
     88 O          18.1750  -33.5290  -31.8940 O.2       1 LYS        -0.3944
     89 CB         20.7370  -33.1170  -33.0240 C.3       1 LYS        -0.0122
     90 CG         20.3960  -32.6700  -34.4440 C.3       1 LYS        -0.0440
     91 CD         21.5050  -33.0600  -35.4180 C.3       1 LYS        -0.0124
     92 CE         21.2410  -32.5210  -36.8170 C.3       1 LYS        -0.0354
     93 NZ         21.0980  -33.6510  -37.7870 N.4       1 LYS         0.2185
     94 N          17.9810  -31.3110  -31.5180 N.am      1 GLY        -0.2664
     95 CA         16.5380  -31.3360  -31.3630 C.3       1 GLY         0.1222
     96 C          16.1320  -31.9370  -30.0330 C.2       1 GLY         0.2295
     97 O          15.1310  -32.6500  -29.9400 O.2       1 GLY        -0.3942
     98 OXT        16.7940  -31.7260  -29.0150 O.3       1 GLY        -0.1970
     99 H1         16.0297  -31.6100  -26.8636 H         1 GLY         0.1177
    100 H2         17.6180  -33.8944  -29.1695 H         1 GLN         0.1884
    101 H3         18.2466  -35.6633  -26.8459 H         1 GLN         0.0801
    102 H4         17.9535  -37.5699  -28.4440 H         1 GLN         0.0337
    103 H5         17.3981  -36.3952  -29.6843 H         1 GLN         0.0337
    104 H6         15.4995  -37.5110  -28.6280 H         1 GLN         0.0504
    105 H7         15.5098  -35.7582  -28.2354 H         1 GLN         0.0504
    106 H8         16.1425  -38.6042  -25.2977 H         1 GLN         0.1814
    107 H9         16.3256  -39.0066  -26.9724 H         1 GLN         0.1814
    108 H10        20.1209  -36.9776  -26.9777 H         1 6CV         0.1885
    109 H11        22.3728  -35.6420  -28.1687 H         1 6CV         0.0823
    110 H12        22.1538  -38.3961  -26.8957 H         1 6CV         0.0474
    111 H13        22.6017  -36.8596  -26.0801 H         1 6CV         0.0474
    112 H14        24.8159  -35.7589  -26.6989 H         1 6CV         0.0581
    113 H15        27.1858  -36.2742  -27.1777 H         1 6CV         0.0606
    114 H16        27.8431  -38.4878  -28.0682 H         1 6CV         0.0585
    115 H17        23.7386  -39.6913  -27.9900 H         1 6CV         0.0583
    116 H18        23.3906  -35.9498  -30.0726 H         1 ASP         0.1884
    117 H19        22.2408  -38.0094  -31.8843 H         1 ASP         0.0819
    118 H20        23.9047  -35.5597  -32.6148 H         1 ASP         0.0478
    119 H21        22.1094  -35.5888  -32.5634 H         1 ASP         0.0478
    120 H22        23.3961  -39.5740  -32.6864 H         1 LEU         0.1883
    121 H23        25.8749  -40.2914  -31.4954 H         1 LEU         0.0800
    122 H24        24.4745  -41.4111  -33.9688 H         1 LEU         0.0315
    123 H25        24.1698  -41.9034  -32.2683 H         1 LEU         0.0315
    124 H26        26.7935  -42.2390  -33.8001 H         1 LEU         0.0298
    125 H27        27.4463  -43.4007  -31.7245 H         1 LEU         0.0232
    126 H28        25.8614  -42.9622  -31.0016 H         1 LEU         0.0232
    127 H29        27.0339  -41.6751  -31.4435 H         1 LEU         0.0232
    128 H30        25.0965  -43.8710  -34.5349 H         1 LEU         0.0232
    129 H31        24.7692  -44.3123  -32.8247 H         1 LEU         0.0232
    130 H32        26.3742  -44.6626  -33.5514 H         1 LEU         0.0232
    131 H33        25.1110  -39.2236  -34.8167 H         1 SER         0.1884
    132 H34        27.8045  -39.4582  -35.7694 H         1 SER         0.0823
    133 H35        26.9200  -37.9352  -37.6412 H         1 SER         0.0606
    134 H36        25.3415  -37.9844  -36.7853 H         1 SER         0.0606
    135 H37        25.5449  -39.6296  -38.3896 H         1 SER         0.2097
    136 H38        26.2915  -37.0928  -33.7928 H         1 THR         0.1884
    137 H39        28.2012  -34.9922  -34.6725 H         1 THR         0.0826
    138 H40        25.7707  -34.5283  -32.8774 H         1 THR         0.0639
    139 H41        25.0838  -35.5060  -34.8662 H         1 THR         0.2101
    140 H42        25.9235  -32.2524  -33.8334 H         1 THR         0.0257
    141 H43        27.3299  -32.7655  -34.8261 H         1 THR         0.0257
    142 H44        27.4580  -32.7362  -33.0346 H         1 THR         0.0257
    143 H45        27.3486  -37.0018  -31.9650 H         1 ARG         0.1883
    144 H46        27.7611  -36.9653  -29.7269 H         1 ARG         0.0800
    145 H47        30.2744  -35.3579  -30.2822 H         1 ARG         0.0313
    146 H48        30.1365  -37.1081  -30.6626 H         1 ARG         0.0313
    147 H49        29.8352  -37.6855  -28.3560 H         1 ARG         0.0301
    148 H50        29.5738  -35.9717  -27.8855 H         1 ARG         0.0301
    149 H51        31.7506  -36.5039  -27.1480 H         1 ARG         0.0689
    150 H52        31.9753  -35.5491  -28.6529 H         1 ARG         0.0689
    151 H53        32.2232  -37.8703  -29.7805 H         1 ARG         0.2642
    152 H54        34.4111  -38.4200  -26.3953 H         1 ARG         0.2615
    153 H55        33.1424  -37.1662  -26.4258 H         1 ARG         0.2615
    154 H56        33.8335  -39.4598  -29.7389 H         1 ARG         0.2615
    155 H57        34.7961  -39.7160  -28.2589 H         1 ARG         0.2615
    156 H58        26.1706  -34.8360  -30.8569 H         1 ARG         0.1883
    157 H59        26.4171  -32.9235  -28.5920 H         1 ARG         0.0800
    158 H60        25.7952  -31.0704  -30.1693 H         1 ARG         0.0313
    159 H61        26.0440  -32.2071  -31.5378 H         1 ARG         0.0313
    160 H62        28.0311  -30.9402  -31.4261 H         1 ARG         0.0301
    161 H63        28.4364  -32.5057  -30.6441 H         1 ARG         0.0301
    162 H64        29.3657  -30.5511  -29.4019 H         1 ARG         0.0689
    163 H65        28.1972  -31.4948  -28.4167 H         1 ARG         0.0689
    164 H66        26.8186  -29.6352  -28.3041 H         1 ARG         0.2642
    165 H67        28.6249  -27.5272  -31.2756 H         1 ARG         0.2615
    166 H68        29.1353  -29.2072  -30.9601 H         1 ARG         0.2615
    167 H69        26.1757  -27.5108  -28.7200 H         1 ARG         0.2615
    168 H70        26.9617  -26.5754  -30.0200 H         1 ARG         0.2615
    169 H71        24.3421  -31.6056  -28.4589 H         1 LEU         0.1883
    170 H72        22.0483  -33.3936  -28.6587 H         1 LEU         0.0800
    171 H73        20.7760  -31.3845  -27.8530 H         1 LEU         0.0315
    172 H74        22.3212  -30.4686  -27.8722 H         1 LEU         0.0315
    173 H75        23.2265  -32.0592  -26.1837 H         1 LEU         0.0298
    174 H76        21.9009  -31.1169  -24.3112 H         1 LEU         0.0232
    175 H77        20.6237  -30.6185  -25.4717 H         1 LEU         0.0232
    176 H78        22.2580  -29.8785  -25.5623 H         1 LEU         0.0232
    177 H79        21.7712  -33.9750  -26.7308 H         1 LEU         0.0232
    178 H80        20.3434  -33.0623  -26.1349 H         1 LEU         0.0232
    179 H81        21.6497  -33.5311  -24.9945 H         1 LEU         0.0232
    180 H82        20.4126  -33.3070  -30.0956 H         1 LYS         0.1883
    181 H83        20.3962  -31.1735  -32.1551 H         1 LYS         0.0800
    182 H84        20.3359  -34.1311  -32.8803 H         1 LYS         0.0312
    183 H85        21.8325  -33.1389  -32.9274 H         1 LYS         0.0312
    184 H86        20.2723  -31.5771  -34.4578 H         1 LYS         0.0269
    185 H87        19.4567  -33.1494  -34.7569 H         1 LYS         0.0269
    186 H88        21.5687  -34.1571  -35.4649 H         1 LYS         0.0317
    187 H89        22.4594  -32.6525  -35.0533 H         1 LYS         0.0317
    188 H90        22.0817  -31.8819  -37.1249 H         1 LYS         0.0813
    189 H91        20.3139  -31.9290  -36.8095 H         1 LYS         0.0813
    190 H92        20.9237  -33.2824  -38.7089 H         1 LYS         0.1994
    191 H93        20.3270  -34.2375  -37.5084 H         1 LYS         0.1994
    192 H94        21.9469  -34.1944  -37.7974 H         1 LYS         0.1994
    193 H95        18.4633  -30.4400  -31.4242 H         1 GLY         0.1880
    194 H96        16.1018  -31.9369  -32.1746 H         1 GLY         0.0763
    195 H97        16.1544  -30.3067  -31.4219 H         1 GLY         0.0763
@<TRIPOS>BOND
     1    2    1 1  
     2    1   96 am 
     3   98    1 1  
     4    3    2 1  
     5    2   98 1  
     6    3    4 2  
     7    5    3 am 
     8    6    5 1  
     9    7    6 1  
    10    6    9 1  
    11    7    8 2  
    12   15    7 am 
    13    9   10 1  
    14   10   11 1  
    15   11   12 2  
    16   11   13 am 
    17   22   14 1  
    18   16   15 1  
    19   17   16 1  
    20   16   24 1  
    21   18   17 1  
    22   19   18 ar 
    23   18   23 ar 
    24   20   19 ar 
    25   21   20 ar 
    26   21   22 ar 
    27   22   23 ar 
    28   24   25 2  
    29   24   26 am 
    30   26   27 1  
    31   27   28 1  
    32   27   30 1  
    33   28   29 2  
    34   28   34 am 
    35   30   31 1  
    36   31   32 ar 
    37   31   33 ar 
    38   34   35 1  
    39   35   36 1  
    40   35   38 1  
    41   36   37 2  
    42   36   42 am 
    43   38   39 1  
    44   39   40 1  
    45   39   41 1  
    46   42   43 1  
    47   43   44 1  
    48   43   46 1  
    49   44   45 2  
    50   44   48 am 
    51   46   47 1  
    52   48   49 1  
    53   49   50 1  
    54   49   52 1  
    55   50   51 2  
    56   50   55 am 
    57   52   53 1  
    58   52   54 1  
    59   55   56 1  
    60   56   57 1  
    61   56   59 1  
    62   57   58 2  
    63   57   66 am 
    64   59   60 1  
    65   60   61 1  
    66   61   62 1  
    67   62   63 ar 
    68   63   64 ar 
    69   63   65 ar 
    70   66   67 1  
    71   67   68 1  
    72   67   70 1  
    73   68   69 2  
    74   68   77 am 
    75   70   71 1  
    76   71   72 1  
    77   72   73 1  
    78   73   74 ar 
    79   74   75 ar 
    80   74   76 ar 
    81   77   78 1  
    82   78   79 1  
    83   78   81 1  
    84   79   80 2  
    85   79   85 am 
    86   81   82 1  
    87   82   83 1  
    88   82   84 1  
    89   85   86 1  
    90   86   87 1  
    91   86   89 1  
    92   87   88 2  
    93   87   94 am 
    94   89   90 1  
    95   90   91 1  
    96   91   92 1  
    97   92   93 1  
    98   94   95 1  
    99   95   96 1  
   100   96   97 2  
   101    2   99 1  
   102    5  100 1  
   103    6  101 1  
   104    9  102 1  
   105    9  103 1  
   106   10  104 1  
   107   10  105 1  
   108   13  106 1  
   109   13  107 1  
   110   15  108 1  
   111   16  109 1  
   112   17  110 1  
   113   17  111 1  
   114   19  112 1  
   115   20  113 1  
   116   21  114 1  
   117   23  115 1  
   118   26  116 1  
   119   27  117 1  
   120   30  118 1  
   121   30  119 1  
   122   34  120 1  
   123   35  121 1  
   124   38  122 1  
   125   38  123 1  
   126   39  124 1  
   127   40  125 1  
   128   40  126 1  
   129   40  127 1  
   130   41  128 1  
   131   41  129 1  
   132   41  130 1  
   133   42  131 1  
   134   43  132 1  
   135   46  133 1  
   136   46  134 1  
   137   47  135 1  
   138   48  136 1  
   139   49  137 1  
   140   52  138 1  
   141   53  139 1  
   142   54  140 1  
   143   54  141 1  
   144   54  142 1  
   145   55  143 1  
   146   56  144 1  
   147   59  145 1  
   148   59  146 1  
   149   60  147 1  
   150   60  148 1  
   151   61  149 1  
   152   61  150 1  
   153   62  151 1  
   154   64  152 1  
   155   64  153 1  
   156   65  154 1  
   157   65  155 1  
   158   66  156 1  
   159   67  157 1  
   160   70  158 1  
   161   70  159 1  
   162   71  160 1  
   163   71  161 1  
   164   72  162 1  
   165   72  163 1  
   166   73  164 1  
   167   75  165 1  
   168   75  166 1  
   169   76  167 1  
   170   76  168 1  
   171   77  169 1  
   172   78  170 1  
   173   81  171 1  
   174   81  172 1  
   175   82  173 1  
   176   83  174 1  
   177   83  175 1  
   178   83  176 1  
   179   84  177 1  
   180   84  178 1  
   181   84  179 1  
   182   85  180 1  
   183   86  181 1  
   184   89  182 1  
   185   89  183 1  
   186   90  184 1  
   187   90  185 1  
   188   91  186 1  
   189   91  187 1  
   190   92  188 1  
   191   92  189 1  
   192   93  190 1  
   193   93  191 1  
   194   93  192 1  
   195   94  193 1  
   196   95  194 1  
   197   95  195 1  
@<TRIPOS>SUBSTRUCTURE
     1 GLY         1

