5ir1_ligand
  -I-interpret- 

194196  0  0  0  0  0  0  0  0999 V2000
   16.9240  -31.6530  -29.0030 N   0  0  0  0  0
   16.6230  -32.0930  -27.6540 C   0  0  0  0  0
   17.3160  -33.3790  -27.2430 C   0  0  0  0  0
   17.4900  -33.6360  -26.0540 O   0  0  0  0  0
   17.7110  -34.1910  -28.2190 N   0  0  0  0  0
   18.2770  -35.5050  -27.9340 C   0  0  0  0  0
   19.7270  -35.5870  -28.3870 C   0  0  0  0  0
   20.1320  -34.8790  -29.3070 O   0  0  0  0  0
   17.4470  -36.6070  -28.6060 C   0  0  0  0  0
   16.0220  -36.7180  -28.0730 C   0  0  0  0  0
   15.9740  -37.0510  -26.5850 C   0  0  0  0  0
   15.7640  -36.1740  -25.7440 O   0  0  0  0  0
   16.1630  -38.3260  -26.2580 N   0  0  0  0  0
   26.2740  -40.9710  -28.8030 Br  0  0  0  0  0
   20.5050  -36.4480  -27.7340 N   0  0  0  0  0
   21.9070  -36.6360  -28.0980 C   0  0  0  0  0
   22.6610  -37.4280  -27.0200 C   0  0  0  0  0
   24.1200  -37.7020  -27.3050 C   0  0  0  0  0
   25.0930  -36.7340  -27.0830 C   0  0  0  0  0
   26.4270  -37.0270  -27.3580 C   0  0  0  0  0
   26.8020  -38.2690  -27.8600 C   0  0  0  0  0
   25.8240  -39.2200  -28.0890 C   0  0  0  0  0
   24.4950  -38.9360  -27.8100 C   0  0  0  0  0
   22.0230  -37.3060  -29.4720 C   0  0  0  0  0
   21.3420  -38.2980  -29.7270 O   0  0  0  0  0
   22.8700  -36.7590  -30.3450 N   0  0  0  0  0
   23.0610  -37.3040  -31.6850 C   0  0  0  0  0
   24.3800  -38.0540  -31.8190 C   0  0  0  0  0
   25.4480  -37.5310  -31.4840 O   0  0  0  0  0
   23.0130  -36.1930  -32.7320 C   0  0  0  0  0
   22.9810  -36.7310  -34.1550 C   0  0  0  0  0
   24.0480  -37.1310  -34.6840 O   0  0  0  0  0
   21.8780  -36.7450  -34.7450 O   0  0  0  0  0
   24.2890  -39.2670  -32.3570 N   0  0  0  0  0
   25.4230  -40.1710  -32.4910 C   0  0  0  0  0
   26.5110  -39.6690  -33.4400 C   0  0  0  0  0
   27.7020  -39.7170  -33.1190 O   0  0  0  0  0
   24.9290  -41.5370  -32.9750 C   0  0  0  0  0
   26.0370  -42.5820  -33.0790 C   0  0  0  0  0
   26.6330  -42.6600  -31.7250 C   0  0  0  0  0
   25.5340  -43.9530  -33.5290 C   0  0  0  0  0
   26.0910  -39.2160  -34.6180 N   0  0  0  0  0
   27.0120  -38.7080  -35.6310 C   0  0  0  0  0
   27.6780  -37.3900  -35.2260 C   0  0  0  0  0
   28.7250  -37.0290  -35.7630 O   0  0  0  0  0
   26.2840  -38.5230  -36.9630 C   0  0  0  0  0
   25.9960  -39.7730  -37.5660 O   0  0  0  0  0
   27.0710  -36.6870  -34.2700 N   0  0  0  0  0
   27.5060  -35.3440  -33.8960 C   0  0  0  0  0
   28.2260  -35.2900  -32.5510 C   0  0  0  0  0
   29.0710  -34.4220  -32.3300 O   0  0  0  0  0
   26.3040  -34.3680  -33.8260 C   0  0  0  0  0
   25.4040  -34.6130  -34.9160 O   0  0  0  0  0
   26.7870  -32.9320  -33.8840 C   0  0  0  0  0
   27.8840  -36.2150  -31.6580 N   0  0  0  0  0
   28.2590  -36.1300  -30.2410 C   0  0  0  0  0
   27.7460  -34.8340  -29.6060 C   0  0  0  0  0
   28.3410  -34.2890  -28.6790 O   0  0  0  0  0
   29.7730  -36.2990  -30.0120 C   0  0  0  0  0
   30.1340  -36.6450  -28.5510 C   0  0  0  0  0
   31.6180  -36.5040  -28.2400 C   0  0  0  0  0
   32.4180  -37.5890  -28.8090 N   0  0  0  0  0
   33.3800  -38.2370  -28.1570 C   0  0  0  0  0
   33.6660  -37.9170  -26.8980 N   0  0  0  0  0
   34.0540  -39.2110  -28.7640 N   0  0  0  0  0
   26.6200  -34.3490  -30.1080 N   0  0  0  0  0
   26.0220  -33.1280  -29.5980 C   0  0  0  0  0
   24.5200  -33.3110  -29.5180 C   0  0  0  0  0
   23.9850  -34.3110  -30.0010 O   0  0  0  0  0
   26.3590  -31.9490  -30.5160 C   0  0  0  0  0
   27.8480  -31.5810  -30.5510 C   0  0  0  0  0
   28.3080  -30.8300  -29.2860 C   0  0  0  0  0
   27.5190  -29.6160  -29.0590 N   0  0  0  0  0
   27.6430  -28.4880  -29.7600 C   0  0  0  0  0
   28.5340  -28.4010  -30.7380 N   0  0  0  0  0
   26.8690  -27.4470  -29.4790 N   0  0  0  0  0
   23.8430  -32.3520  -28.8990 N   0  0  0  0  0
   22.3890  -32.3650  -28.8480 C   0  0  0  0  0
   21.8430  -31.8960  -30.1770 C   0  0  0  0  0
   22.3630  -30.9610  -30.7740 O   0  0  0  0  0
   21.8670  -31.4610  -27.7350 C   0  0  0  0  0
   22.1450  -31.9000  -26.3060 C   0  0  0  0  0
   21.7010  -30.8020  -25.3460 C   0  0  0  0  0
   21.4280  -33.2070  -26.0220 C   0  0  0  0  0
   20.7930  -32.5580  -30.6380 N   0  0  0  0  0
   20.1800  -32.2240  -31.9110 C   0  0  0  0  0
   18.6820  -32.4110  -31.7810 C   0  0  0  0  0
   18.1750  -33.5290  -31.8940 O   0  0  0  0  0
   20.7370  -33.1170  -33.0240 C   0  0  0  0  0
   20.3960  -32.6700  -34.4440 C   0  0  0  0  0
   21.5050  -33.0600  -35.4180 C   0  0  0  0  0
   21.2410  -32.5210  -36.8170 C   0  0  0  0  0
   21.0980  -33.6510  -37.7870 N   0  3  0  0  0
   17.9810  -31.3110  -31.5180 N   0  0  0  0  0
   16.5380  -31.3360  -31.3630 C   0  0  0  0  0
   16.1320  -31.9370  -30.0330 C   0  0  0  0  0
   15.1310  -32.6500  -29.9400 O   0  0  0  0  0
   16.7940  -31.7260  -29.0150 O   0  0  0  0  0
   16.1532  -31.9220  -26.6854 H   0  0  0  0  0
   17.6162  -33.8885  -29.1885 H   0  0  0  0  0
   18.2489  -35.6542  -26.8546 H   0  0  0  0  0
   17.9438  -37.5560  -28.4044 H   0  0  0  0  0
   17.3789  -36.3614  -29.6658 H   0  0  0  0  0
   15.5248  -37.5242  -28.6125 H   0  0  0  0  0
   15.5352  -35.7532  -28.2158 H   0  0  0  0  0
   16.1372  -38.6106  -25.2789 H   0  0  0  0  0
   16.3338  -39.0194  -26.9863 H   0  0  0  0  0
   20.1133  -36.9882  -26.9626 H   0  0  0  0  0
   22.3755  -35.6540  -28.1635 H   0  0  0  0  0
   22.1724  -38.4001  -26.9539 H   0  0  0  0  0
   22.6328  -36.8205  -26.1154 H   0  0  0  0  0
   24.8143  -35.7535  -26.6968 H   0  0  0  0  0
   27.1900  -36.2700  -27.1767 H   0  0  0  0  0
   27.8488  -38.4891  -28.0694 H   0  0  0  0  0
   23.7344  -39.6955  -27.9910 H   0  0  0  0  0
   23.4010  -35.9336  -30.0672 H   0  0  0  0  0
   22.2464  -38.0085  -31.8527 H   0  0  0  0  0
   23.9138  -35.5892  -32.6219 H   0  0  0  0  0
   22.1009  -35.6186  -32.5700 H   0  0  0  0  0
   24.7702  -37.0322  -34.0593 H   0  0  0  0  0
   23.3783  -39.5802  -32.6930 H   0  0  0  0  0
   25.8784  -40.2376  -31.5029 H   0  0  0  0  0
   24.5122  -41.4004  -33.9729 H   0  0  0  0  0
   24.2030  -41.8999  -32.2475 H   0  0  0  0  0
   26.7596  -42.2883  -33.8403 H   0  0  0  0  0
   27.0298  -41.6835  -31.4473 H   0  0  0  0  0
   25.8675  -42.9595  -31.0092 H   0  0  0  0  0
   27.4387  -43.3942  -31.7258 H   0  0  0  0  0
   24.7997  -44.3221  -32.8130 H   0  0  0  0  0
   25.0720  -43.8643  -34.5122 H   0  0  0  0  0
   26.3728  -44.6470  -33.5816 H   0  0  0  0  0
   25.0914  -39.2237  -34.8207 H   0  0  0  0  0
   27.8013  -39.4527  -35.7334 H   0  0  0  0  0
   26.9253  -37.9518  -37.6342 H   0  0  0  0  0
   25.3452  -38.0011  -36.7775 H   0  0  0  0  0
   25.5402  -39.6280  -38.3983 H   0  0  0  0  0
   26.2759  -37.1010  -33.7833 H   0  0  0  0  0
   28.2068  -35.0476  -34.6765 H   0  0  0  0  0
   25.7821  -34.5320  -32.8832 H   0  0  0  0  0
   24.6645  -34.0033  -34.8621 H   0  0  0  0  0
   27.4517  -32.7393  -33.0419 H   0  0  0  0  0
   27.3247  -32.7683  -34.8179 H   0  0  0  0  0
   25.9306  -32.2596  -33.8337 H   0  0  0  0  0
   27.3379  -37.0176  -31.9712 H   0  0  0  0  0
   27.7734  -36.9696  -29.7437 H   0  0  0  0  0
   30.2511  -35.3497  -30.2538 H   0  0  0  0  0
   30.1114  -37.1236  -30.6394 H   0  0  0  0  0
   29.8630  -37.6877  -28.3855 H   0  0  0  0  0
   29.5976  -35.9474  -27.9078 H   0  0  0  0  0
   31.7377  -36.5315  -27.1569 H   0  0  0  0  0
   31.9646  -35.5673  -28.6766 H   0  0  0  0  0
   32.2251  -37.8676  -29.7711 H   0  0  0  0  0
   33.1474  -37.1735  -26.4304 H   0  0  0  0  0
   34.7889  -39.7111  -28.2638 H   0  0  0  0  0
   33.8356  -39.4573  -29.7294 H   0  0  0  0  0
   26.1616  -34.8457  -30.8719 H   0  0  0  0  0
   26.4194  -32.9158  -28.6055 H   0  0  0  0  0
   25.8231  -31.0807  -30.1325 H   0  0  0  0  0
   26.0768  -32.2397  -31.5279 H   0  0  0  0  0
   28.0094  -30.9245  -31.4060 H   0  0  0  0  0
   28.4192  -32.5071  -30.6154 H   0  0  0  0  0
   29.3509  -30.5420  -29.4179 H   0  0  0  0  0
   28.1772  -31.4899  -28.4283 H   0  0  0  0  0
   26.8254  -29.6350  -28.3114 H   0  0  0  0  0
   29.1294  -29.1994  -30.9580 H   0  0  0  0  0
   26.9608  -26.5839  -30.0147 H   0  0  0  0  0
   26.1824  -27.5101  -28.7273 H   0  0  0  0  0
   24.3521  -31.5907  -28.4501 H   0  0  0  0  0
   22.0585  -33.3829  -28.6415 H   0  0  0  0  0
   20.7821  -31.4543  -27.8397 H   0  0  0  0  0
   22.3798  -30.5073  -27.8596 H   0  0  0  0  0
   23.2132  -32.0666  -26.1672 H   0  0  0  0  0
   22.2536  -29.8875  -25.5614 H   0  0  0  0  0
   20.6335  -30.6211  -25.4716 H   0  0  0  0  0
   21.8996  -31.1151  -24.3210 H   0  0  0  0  0
   20.3551  -33.0677  -26.1550 H   0  0  0  0  0
   21.7845  -33.9727  -26.7111 H   0  0  0  0  0
   21.6312  -33.5161  -24.9967 H   0  0  0  0  0
   20.4050  -33.3220  -30.0847 H   0  0  0  0  0
   20.4040  -31.1896  -32.1717 H   0  0  0  0  0
   20.2906  -34.1022  -32.8892 H   0  0  0  0  0
   21.8231  -33.0862  -32.9374 H   0  0  0  0  0
   20.2860  -31.5856  -34.4536 H   0  0  0  0  0
   19.4709  -33.1569  -34.7525 H   0  0  0  0  0
   21.5481  -34.1478  -35.4716 H   0  0  0  0  0
   22.4427  -32.6366  -35.0581 H   0  0  0  0  0
   22.0782  -31.8930  -37.1215 H   0  0  0  0  0
   20.3189  -31.9398  -36.8075 H   0  0  0  0  0
   20.9217  -33.2769  -38.7194 H   0  0  0  0  0
   21.9575  -34.2001  -37.7966 H   0  0  0  0  0
   20.3176  -34.2437  -37.5040 H   0  0  0  0  0
   18.4729  -30.4226  -31.4223 H   0  0  0  0  0
   16.1159  -31.9470  -32.1609 H   0  0  0  0  0
   16.1687  -30.3114  -31.4057 H   0  0  0  0  0
  2  1  1  0  0  0
  1 96  1  0  0  0
 98  1  1  0  0  0
  3  2  1  0  0  0
  2 98  1  0  0  0
  3  4  2  0  0  0
  5  3  1  0  0  0
  6  5  1  0  0  0
  7  6  1  0  0  0
  6  9  1  0  0  0
  7  8  2  0  0  0
 15  7  1  0  0  0
  9 10  1  0  0  0
 10 11  1  0  0  0
 11 12  2  0  0  0
 11 13  1  0  0  0
 22 14  1  0  0  0
 16 15  1  0  0  0
 17 16  1  0  0  0
 16 24  1  0  0  0
 18 17  1  0  0  0
 19 18  4  0  0  0
 18 23  4  0  0  0
 20 19  4  0  0  0
 21 20  4  0  0  0
 21 22  4  0  0  0
 22 23  4  0  0  0
 24 25  2  0  0  0
 24 26  1  0  0  0
 26 27  1  0  0  0
 27 28  1  0  0  0
 27 30  1  0  0  0
 28 29  2  0  0  0
 28 34  1  0  0  0
 30 31  1  0  0  0
 31 32  1  0  0  0
 31 33  2  0  0  0
 34 35  1  0  0  0
 35 36  1  0  0  0
 35 38  1  0  0  0
 36 37  2  0  0  0
 36 42  1  0  0  0
 38 39  1  0  0  0
 39 40  1  0  0  0
 39 41  1  0  0  0
 42 43  1  0  0  0
 43 44  1  0  0  0
 43 46  1  0  0  0
 44 45  2  0  0  0
 44 48  1  0  0  0
 46 47  1  0  0  0
 48 49  1  0  0  0
 49 50  1  0  0  0
 49 52  1  0  0  0
 50 51  2  0  0  0
 50 55  1  0  0  0
 52 53  1  0  0  0
 52 54  1  0  0  0
 55 56  1  0  0  0
 56 57  1  0  0  0
 56 59  1  0  0  0
 57 58  2  0  0  0
 57 66  1  0  0  0
 59 60  1  0  0  0
 60 61  1  0  0  0
 61 62  1  0  0  0
 62 63  1  0  0  0
 63 64  2  0  0  0
 63 65  1  0  0  0
 66 67  1  0  0  0
 67 68  1  0  0  0
 67 70  1  0  0  0
 68 69  2  0  0  0
 68 77  1  0  0  0
 70 71  1  0  0  0
 71 72  1  0  0  0
 72 73  1  0  0  0
 73 74  1  0  0  0
 74 75  2  0  0  0
 74 76  1  0  0  0
 77 78  1  0  0  0
 78 79  1  0  0  0
 78 81  1  0  0  0
 79 80  2  0  0  0
 79 85  1  0  0  0
 81 82  1  0  0  0
 82 83  1  0  0  0
 82 84  1  0  0  0
 85 86  1  0  0  0
 86 87  1  0  0  0
 86 89  1  0  0  0
 87 88  2  0  0  0
 87 94  1  0  0  0
 89 90  1  0  0  0
 90 91  1  0  0  0
 91 92  1  0  0  0
 92 93  1  0  0  0
 94 95  1  0  0  0
 95 96  1  0  0  0
 96 97  2  0  0  0
  2 99  1  0  0  0
  5100  1  0  0  0
  6101  1  0  0  0
  9102  1  0  0  0
  9103  1  0  0  0
 10104  1  0  0  0
 10105  1  0  0  0
 13106  1  0  0  0
 13107  1  0  0  0
 15108  1  0  0  0
 16109  1  0  0  0
 17110  1  0  0  0
 17111  1  0  0  0
 19112  1  0  0  0
 20113  1  0  0  0
 21114  1  0  0  0
 23115  1  0  0  0
 26116  1  0  0  0
 27117  1  0  0  0
 30118  1  0  0  0
 30119  1  0  0  0
 32120  1  0  0  0
 34121  1  0  0  0
 35122  1  0  0  0
 38123  1  0  0  0
 38124  1  0  0  0
 39125  1  0  0  0
 40126  1  0  0  0
 40127  1  0  0  0
 40128  1  0  0  0
 41129  1  0  0  0
 41130  1  0  0  0
 41131  1  0  0  0
 42132  1  0  0  0
 43133  1  0  0  0
 46134  1  0  0  0
 46135  1  0  0  0
 47136  1  0  0  0
 48137  1  0  0  0
 49138  1  0  0  0
 52139  1  0  0  0
 53140  1  0  0  0
 54141  1  0  0  0
 54142  1  0  0  0
 54143  1  0  0  0
 55144  1  0  0  0
 56145  1  0  0  0
 59146  1  0  0  0
 59147  1  0  0  0
 60148  1  0  0  0
 60149  1  0  0  0
 61150  1  0  0  0
 61151  1  0  0  0
 62152  1  0  0  0
 64153  1  0  0  0
 65154  1  0  0  0
 65155  1  0  0  0
 66156  1  0  0  0
 67157  1  0  0  0
 70158  1  0  0  0
 70159  1  0  0  0
 71160  1  0  0  0
 71161  1  0  0  0
 72162  1  0  0  0
 72163  1  0  0  0
 73164  1  0  0  0
 75165  1  0  0  0
 76166  1  0  0  0
 76167  1  0  0  0
 77168  1  0  0  0
 78169  1  0  0  0
 81170  1  0  0  0
 81171  1  0  0  0
 82172  1  0  0  0
 83173  1  0  0  0
 83174  1  0  0  0
 83175  1  0  0  0
 84176  1  0  0  0
 84177  1  0  0  0
 84178  1  0  0  0
 85179  1  0  0  0
 86180  1  0  0  0
 89181  1  0  0  0
 89182  1  0  0  0
 90183  1  0  0  0
 90184  1  0  0  0
 91185  1  0  0  0
 91186  1  0  0  0
 92187  1  0  0  0
 92188  1  0  0  0
 93189  1  0  0  0
 93190  1  0  0  0
 93191  1  0  0  0
 94192  1  0  0  0
 95193  1  0  0  0
 95194  1  0  0  0
M  END
$$$$
