5ur6_ligand
  -I-interpret- 

 41 43  0  0  0  0  0  0  0  0999 V2000
   81.7470    8.2210   19.8960 C   0  0  0  0  0
   80.2610    8.4050   20.1230 C   0  0  0  0  0
   81.2570    9.0510   21.0690 C   0  0  0  0  0
   81.4360   10.5660   21.0990 C   0  0  0  0  0
   81.3810   11.3510   19.9440 C   0  0  0  0  0
   81.6700   11.1660   22.3320 C   0  0  0  0  0
   81.7270   10.3530   23.4980 C   0  0  0  0  0
   81.7680    9.7130   24.4050 N   0  0  0  0  0
   81.8410   12.5410   22.4370 C   0  0  0  0  0
   81.7840   13.3070   21.2790 C   0  0  0  0  0
   81.5640   12.7330   20.0270 C   0  0  0  0  0
   81.5080   13.6290   18.8890 N   0  0  0  0  0
   82.2350   13.3080   17.4420 S   0  0  0  0  0
   81.7110   14.2280   16.4800 O   0  0  0  0  0
   82.1200   11.9200   17.1490 O   0  0  0  0  0
   83.9920   13.6740   17.5750 C   0  0  0  0  0
   84.6390   12.7090   18.5330 C   0  0  0  0  0
   85.1340   11.5000   18.0630 C   0  0  0  0  0
   85.7330   10.6090   18.9380 C   0  0  0  0  0
   85.8570   10.9060   20.2850 C   0  0  0  0  0
   86.5210    9.8980   21.2150 C   0  0  0  0  0
   85.3650   12.1180   20.7610 C   0  0  0  0  0
   84.7720   13.0180   19.8830 C   0  0  0  0  0
   82.4652    8.3036   19.0802 H   0  0  0  0  0
   82.4502    7.4100   19.7062 H   0  0  0  0  0
   79.3611    7.7924   20.1781 H   0  0  0  0  0
   79.3762    8.6862   19.5520 H   0  0  0  0  0
   81.4261    9.0349   22.1457 H   0  0  0  0  0
   81.1950   10.8838   18.9769 H   0  0  0  0  0
   82.0159   13.0083   23.4061 H   0  0  0  0  0
   81.9149   14.3867   21.3511 H   0  0  0  0  0
   80.9924   14.5036   18.9874 H   0  0  0  0  0
   84.1227   14.6916   17.9431 H   0  0  0  0  0
   84.4571   13.5766   16.5940 H   0  0  0  0  0
   85.0512   11.2519   17.0048 H   0  0  0  0  0
   86.1126    9.6595   18.5607 H   0  0  0  0  0
   85.9609    8.9631   21.1949 H   0  0  0  0  0
   87.5434    9.7177   20.8828 H   0  0  0  0  0
   86.5321   10.2946   22.2302 H   0  0  0  0  0
   85.4446   12.3610   21.8206 H   0  0  0  0  0
   84.4076   13.9752   20.2559 H   0  0  0  0  0
  1  2  1  0  0  0
  1  3  1  0  0  0
  2  3  1  0  0  0
  3  4  1  0  0  0
  4  5  4  0  0  0
  4  6  4  0  0  0
  5 11  4  0  0  0
  6  7  1  0  0  0
  6  9  4  0  0  0
  7  8  3  0  0  0
  9 10  4  0  0  0
 10 11  4  0  0  0
 11 12  1  0  0  0
 12 13  1  0  0  0
 13 14  2  0  0  0
 13 15  2  0  0  0
 13 16  1  0  0  0
 16 17  1  0  0  0
 17 18  4  0  0  0
 17 23  4  0  0  0
 18 19  4  0  0  0
 19 20  4  0  0  0
 20 21  1  0  0  0
 20 22  4  0  0  0
 22 23  4  0  0  0
  1 24  1  0  0  0
  1 25  1  0  0  0
  2 26  1  0  0  0
  2 27  1  0  0  0
  3 28  1  0  0  0
  5 29  1  0  0  0
  9 30  1  0  0  0
 10 31  1  0  0  0
 12 32  1  0  0  0
 16 33  1  0  0  0
 16 34  1  0  0  0
 18 35  1  0  0  0
 19 36  1  0  0  0
 21 37  1  0  0  0
 21 38  1  0  0  0
 21 39  1  0  0  0
 22 40  1  0  0  0
 23 41  1  0  0  0
M  END
$$$$
