### 
### Created by X-TOOL on Mon Aug  2 16:17:07 2021
### 

@<TRIPOS>MOLECULE
6qtm_ligand
  137   138     1     0     0
SMALL
GAST_HUCK


@<TRIPOS>ATOM
      1 N           5.7800   43.6100   14.6840 N.4       1 SER         0.2396
      2 CA          6.5160   44.1530   15.8260 C.3       1 SER         0.0885
      3 C           7.8280   43.3760   16.1080 C.2       1 SER         0.2290
      4 O           8.6420   43.8130   16.9400 O.2       1 SER        -0.3906
      5 CB          5.6260   44.2150   17.0680 C.3       1 SER         0.1041
      6 OG          6.1600   45.0840   18.0550 O.3       1 SER        -0.3870
      7 N           8.0330   42.2350   15.4040 N.am      1 SER        -0.2609
      8 CA          9.2410   41.4140   15.5220 C.3       1 SER         0.1313
      9 C          10.1590   41.6640   14.3180 C.2       1 SER         0.2040
     10 O           9.6880   41.9700   13.2230 O.2       1 SER        -0.3944
     11 CB          8.8990   39.9150   15.7100 C.3       1 SER        -0.0101
     12 CG         10.0280   38.9060   15.9880 C.3       1 SER        -0.0425
     13 CD1        10.8880   39.3080   17.1620 C.3       1 SER        -0.0625
     14 CD2         9.4670   37.5490   16.2690 C.3       1 SER        -0.0625
     15 N          11.4700   41.6080   14.5490 N.am      1 SER        -0.2622
     16 CA         12.4790   41.8730   13.5290 C.3       1 SER         0.1423
     17 C          12.6150   40.6820   12.5940 C.2       1 SER         0.2057
     18 O          12.5800   39.5420   13.0500 O.2       1 SER        -0.3943
     19 CB         13.8210   42.1900   14.2170 C.3       1 SER         0.0406
     20 CG         14.9640   42.6760   13.3520 C.2       1 SER         0.0393
     21 OD1        14.7180   43.0170   12.1600 O.co2     1 SER        -0.5688
     22 OD2        16.1130   42.7310   13.8670 O.co2     1 SER        -0.5688
     23 N          12.7790   40.9530   11.2830 N.am      1 SER        -0.2615
     24 CA         12.9760   39.9380   10.2340 C.3       1 SER         0.1539
     25 C          14.4160   39.4380   10.2540 C.2       1 SER         0.2063
     26 O          14.7150   38.3550    9.7460 O.2       1 SER        -0.3943
     27 CB         12.6900   40.5360    8.8600 C.3       1 SER         0.0843
     28 OG         11.3300   40.9060    8.7320 O.3       1 SER        -0.3903
     29 N          15.3100   40.2710   10.8000 N.am      1 SER        -0.2612
     30 CA         16.7380   40.0120   10.9150 C.3       1 SER         0.1588
     31 CB         17.3650   41.3760   10.6070 C.3       1 SER         0.1184
     32 OG         18.1990   41.3210    9.4600 O.3       1 SER        -0.2714
     33 C          17.1140   39.5670   12.3450 C.2       1 SER         0.2090
     34 O          16.4850   40.0060   13.3140 O.2       1 SER        -0.3941
     35 P          18.0130   42.6710    8.7000 P.3       1 SER         0.2010
     36 O1P        18.7230   42.3460    7.4190 O.co2     1 SER        -0.5537
     37 O2P        16.5580   43.1470    8.3290 O.co2     1 SER        -0.5537
     38 O3P        18.7490   43.8010    9.4690 O.co2     1 SER        -0.5537
     39 N          18.1480   38.7220   12.5120 N.am      1 SER        -0.2498
     40 CA         18.5230   38.3110   13.8710 C.3       1 SER         0.1340
     41 C          19.3270   39.4020   14.5910 C.2       1 SER         0.2066
     42 O          19.8620   40.2790   13.9150 O.2       1 SER        -0.3942
     43 CB         19.3460   37.0350   13.6450 C.3       1 SER        -0.0104
     44 CG         19.4060   36.8270   12.1610 C.3       1 SER        -0.0281
     45 CD         19.0260   38.1030   11.5050 C.3       1 SER         0.0369
     46 N          19.4530   39.3980   15.9370 N.am      1 SER        -0.2498
     47 CA         20.2630   40.4370   16.5870 C.3       1 SER         0.1338
     48 C          21.7490   40.3820   16.1790 C.2       1 SER         0.2042
     49 O          22.4810   39.4530   16.5410 O.2       1 SER        -0.3944
     50 CB         20.0180   40.2000   18.0830 C.3       1 SER        -0.0104
     51 CG         18.8380   39.2860   18.1660 C.3       1 SER        -0.0281
     52 CD         18.8860   38.4650   16.9270 C.3       1 SER         0.0369
     53 N          22.1560   41.3330   15.3180 N.am      1 SER        -0.2616
     54 CA         23.5330   41.4380   14.8260 C.3       1 SER         0.1476
     55 C          24.3640   42.0570   15.9520 C.2       1 SER         0.2063
     56 O          24.0710   43.1810   16.3740 O.2       1 SER        -0.3942
     57 CB         23.5970   42.2780   13.5250 C.3       1 SER         0.0773
     58 CG         22.7470   41.7730   12.3520 C.2       1 SER         0.1780
     59 OD1        22.5630   40.5660   12.1240 O.2       1 SER        -0.3970
     60 ND2        22.2440   42.6940   11.5360 N.am      1 SER        -0.3007
     61 N          25.3230   41.2900   16.5200 N.am      1 SER        -0.2612
     62 CA         26.1440   41.7600   17.6570 C.3       1 SER         0.1564
     63 C          27.6740   41.5500   17.4280 C.2       1 SER         0.2060
     64 O          28.3260   40.7690   18.1360 O.2       1 SER        -0.3943
     65 CB         25.6440   41.1760   18.9940 C.3       1 SER         0.0924
     66 OG1        25.4090   39.7710   18.8520 O.3       1 SER        -0.3874
     67 CG2        24.3980   41.8880   19.5140 C.3       1 SER        -0.0346
     68 N          28.2300   42.3020   16.4340 N.am      1 SER        -0.2672
     69 CA         29.6430   42.3230   16.0270 C.3       1 SER         0.1173
     70 C          30.0370   43.7020   15.4350 C.2       1 SER         0.0623
     71 O          30.0810   44.7270   16.1340 O.co2     1 SER        -0.5665
     72 CB         29.9220   41.2130   15.0140 C.3       1 SER         0.0789
     73 OG         29.7760   39.9290   15.5990 O.3       1 SER        -0.3910
     74 OXT        30.3260   43.8420   14.2360 O.co2     1 SER        -0.5665
     75 H1          4.9384   44.1461   14.5410 H         1 SER         0.2016
     76 H2          5.5389   42.6484   14.8661 H         1 SER         0.2016
     77 H3          6.3555   43.6615   13.8581 H         1 SER         0.2016
     78 H4          6.7988   45.1850   15.5710 H         1 SER         0.1122
     79 H5          5.5372   43.2045   17.4935 H         1 SER         0.0640
     80 H6          4.6300   44.5783   16.7748 H         1 SER         0.0640
     81 H7          7.0187   44.7736   18.3175 H         1 SER         0.2099
     82 H8          7.3201   41.9374   14.7690 H         1 SER         0.1884
     83 H9          9.7805   41.7395   16.4236 H         1 SER         0.0800
     84 H10         8.3949   39.5846   14.7899 H         1 SER         0.0315
     85 H11         8.1981   39.8509   16.5554 H         1 SER         0.0315
     86 H12        10.6632   38.8506   15.0917 H         1 SER         0.0298
     87 H13        11.6750   38.5549   17.3149 H         1 SER         0.0232
     88 H14        10.2654   39.3764   18.0662 H         1 SER         0.0232
     89 H15        11.3502   40.2855   16.9602 H         1 SER         0.0232
     90 H16         8.8348   37.2320   15.4265 H         1 SER         0.0232
     91 H17         8.8628   37.5850   17.1875 H         1 SER         0.0232
     92 H18        10.2905   36.8316   16.3996 H         1 SER         0.0232
     93 H19        11.7788   41.3718   15.4703 H         1 SER         0.1884
     94 H20        12.1680   42.7475   12.9386 H         1 SER         0.0819
     95 H21        14.1576   41.2702   14.7177 H         1 SER         0.0478
     96 H22        13.6270   42.9677   14.9704 H         1 SER         0.0478
     97 H23        12.7659   41.9129   11.0028 H         1 SER         0.1884
     98 H24        12.2928   39.0952   10.4154 H         1 SER         0.0823
     99 H25        12.9327   39.7912    8.0877 H         1 SER         0.0606
    100 H26        13.3184   41.4278    8.7197 H         1 SER         0.0606
    101 H27        11.1830   41.2740    7.8686 H         1 SER         0.2097
    102 H28        14.9699   41.1408   11.1575 H         1 SER         0.1884
    103 H29        17.0618   39.2494   10.1914 H         1 SER         0.0827
    104 H30        17.9666   41.6955   11.4707 H         1 SER         0.0662
    105 H31        16.5617   42.1062   10.4294 H         1 SER         0.0662
    106 H32        17.6251   38.0852   14.4649 H         1 SER         0.0802
    107 H33        18.8580   36.1767   14.1300 H         1 SER         0.0313
    108 H34        20.3600   37.1590   14.0530 H         1 SER         0.0313
    109 H35        18.7048   36.0323   11.8665 H         1 SER         0.0287
    110 H36        20.4267   36.5440   11.8644 H         1 SER         0.0287
    111 H37        19.9092   38.7283   11.3077 H         1 SER         0.0524
    112 H38        18.4870   37.9221   10.5633 H         1 SER         0.0524
    113 H39        19.8801   41.4299   16.3086 H         1 SER         0.0802
    114 H40        19.8012   41.1515   18.5905 H         1 SER         0.0313
    115 H41        20.8988   39.7303   18.5451 H         1 SER         0.0313
    116 H42        17.9042   39.8659   18.2073 H         1 SER         0.0287
    117 H43        18.9105   38.6438   19.0561 H         1 SER         0.0287
    118 H44        19.5341   37.5861   17.0593 H         1 SER         0.0524
    119 H45        17.8789   38.1367   16.6303 H         1 SER         0.0524
    120 H46        21.4852   42.0018   14.9976 H         1 SER         0.1885
    121 H47        23.9183   40.4314   14.6062 H         1 SER         0.0826
    122 H48        24.6454   42.3041   13.1932 H         1 SER         0.0551
    123 H49        23.2634   43.2979   13.7669 H         1 SER         0.0551
    124 H50        21.6828   42.4179   10.7558 H         1 SER         0.1814
    125 H51        22.4269   43.6630   11.7024 H         1 SER         0.1814
    126 H52        25.4826   40.3717   16.1578 H         1 SER         0.1884
    127 H53        25.9928   42.8477   17.7196 H         1 SER         0.0826
    128 H54        26.4406   41.3151   19.7397 H         1 SER         0.0639
    129 H55        26.2178   39.3393   18.6030 H         1 SER         0.2101
    130 H56        24.0861   41.4330   20.4657 H         1 SER         0.0257
    131 H57        23.5863   41.7913   18.7779 H         1 SER         0.0257
    132 H58        24.6237   42.9528   19.6732 H         1 SER         0.0257
    133 H59        27.6106   42.9027   15.9286 H         1 SER         0.1876
    134 H60        30.2605   42.1422   16.9192 H         1 SER         0.0749
    135 H61        30.9507   41.3206   14.6395 H         1 SER         0.0599
    136 H62        29.2151   41.3070   14.1765 H         1 SER         0.0599
    137 H63        28.8878   39.8279   15.9206 H         1 SER         0.2096
@<TRIPOS>BOND
     1    1    2 1  
     2    2    3 1  
     3    2    5 1  
     4    3    4 2  
     5    3    7 am 
     6    5    6 1  
     7    7    8 1  
     8    8    9 1  
     9    8   11 1  
    10    9   10 2  
    11    9   15 am 
    12   11   12 1  
    13   12   13 1  
    14   12   14 1  
    15   15   16 1  
    16   16   17 1  
    17   16   19 1  
    18   17   18 2  
    19   17   23 am 
    20   19   20 1  
    21   20   21 ar 
    22   20   22 ar 
    23   23   24 1  
    24   24   25 1  
    25   24   27 1  
    26   25   26 2  
    27   25   29 am 
    28   27   28 1  
    29   29   30 1  
    30   30   31 1  
    31   30   33 1  
    32   31   32 1  
    33   32   35 1  
    34   33   34 2  
    35   33   39 am 
    36   35   36 ar 
    37   35   37 ar 
    38   35   38 ar 
    39   39   40 1  
    40   39   45 1  
    41   40   41 1  
    42   40   43 1  
    43   41   42 2  
    44   41   46 am 
    45   43   44 1  
    46   44   45 1  
    47   46   47 1  
    48   46   52 1  
    49   47   48 1  
    50   47   50 1  
    51   48   49 2  
    52   48   53 am 
    53   50   51 1  
    54   51   52 1  
    55   53   54 1  
    56   54   55 1  
    57   54   57 1  
    58   55   56 2  
    59   55   61 am 
    60   57   58 1  
    61   58   59 2  
    62   58   60 am 
    63   61   62 1  
    64   62   63 1  
    65   62   65 1  
    66   63   64 2  
    67   63   68 am 
    68   65   66 1  
    69   65   67 1  
    70   68   69 1  
    71   69   70 1  
    72   69   72 1  
    73   70   71 ar 
    74   70   74 ar 
    75   72   73 1  
    76    1   75 1  
    77    1   76 1  
    78    1   77 1  
    79    2   78 1  
    80    5   79 1  
    81    5   80 1  
    82    6   81 1  
    83    7   82 1  
    84    8   83 1  
    85   11   84 1  
    86   11   85 1  
    87   12   86 1  
    88   13   87 1  
    89   13   88 1  
    90   13   89 1  
    91   14   90 1  
    92   14   91 1  
    93   14   92 1  
    94   15   93 1  
    95   16   94 1  
    96   19   95 1  
    97   19   96 1  
    98   23   97 1  
    99   24   98 1  
   100   27   99 1  
   101   27  100 1  
   102   28  101 1  
   103   29  102 1  
   104   30  103 1  
   105   31  104 1  
   106   31  105 1  
   107   40  106 1  
   108   43  107 1  
   109   43  108 1  
   110   44  109 1  
   111   44  110 1  
   112   45  111 1  
   113   45  112 1  
   114   47  113 1  
   115   50  114 1  
   116   50  115 1  
   117   51  116 1  
   118   51  117 1  
   119   52  118 1  
   120   52  119 1  
   121   53  120 1  
   122   54  121 1  
   123   57  122 1  
   124   57  123 1  
   125   60  124 1  
   126   60  125 1  
   127   61  126 1  
   128   62  127 1  
   129   65  128 1  
   130   66  129 1  
   131   67  130 1  
   132   67  131 1  
   133   67  132 1  
   134   68  133 1  
   135   69  134 1  
   136   72  135 1  
   137   72  136 1  
   138   73  137 1  
@<TRIPOS>SUBSTRUCTURE
     1 SER         1

