6qtm_ligand
  -I-interpret- 

141142  0  0  0  0  0  0  0  0999 V2000
    5.7800   43.6100   14.6840 N   0  3  0  0  0
    6.5160   44.1530   15.8260 C   0  0  0  0  0
    7.8280   43.3760   16.1080 C   0  0  0  0  0
    8.6420   43.8130   16.9400 O   0  0  0  0  0
    5.6260   44.2150   17.0680 C   0  0  0  0  0
    6.1600   45.0840   18.0550 O   0  0  0  0  0
    8.0330   42.2350   15.4040 N   0  0  0  0  0
    9.2410   41.4140   15.5220 C   0  0  0  0  0
   10.1590   41.6640   14.3180 C   0  0  0  0  0
    9.6880   41.9700   13.2230 O   0  0  0  0  0
    8.8990   39.9150   15.7100 C   0  0  0  0  0
   10.0280   38.9060   15.9880 C   0  0  0  0  0
   10.8880   39.3080   17.1620 C   0  0  0  0  0
    9.4670   37.5490   16.2690 C   0  0  0  0  0
   11.4700   41.6080   14.5490 N   0  0  0  0  0
   12.4790   41.8730   13.5290 C   0  0  0  0  0
   12.6150   40.6820   12.5940 C   0  0  0  0  0
   12.5800   39.5420   13.0500 O   0  0  0  0  0
   13.8210   42.1900   14.2170 C   0  0  0  0  0
   14.9640   42.6760   13.3520 C   0  0  0  0  0
   14.7180   43.0170   12.1600 O   0  0  0  0  0
   16.1130   42.7310   13.8670 O   0  0  0  0  0
   12.7790   40.9530   11.2830 N   0  0  0  0  0
   12.9760   39.9380   10.2340 C   0  0  0  0  0
   14.4160   39.4380   10.2540 C   0  0  0  0  0
   14.7150   38.3550    9.7460 O   0  0  0  0  0
   12.6900   40.5360    8.8600 C   0  0  0  0  0
   11.3300   40.9060    8.7320 O   0  0  0  0  0
   15.3100   40.2710   10.8000 N   0  0  0  0  0
   16.7380   40.0120   10.9150 C   0  0  0  0  0
   17.3650   41.3760   10.6070 C   0  0  0  0  0
   18.1990   41.3210    9.4600 O   0  0  0  0  0
   17.1140   39.5670   12.3450 C   0  0  0  0  0
   16.4850   40.0060   13.3140 O   0  0  0  0  0
   18.0130   42.6710    8.7000 P   0  0  0  0  0
   18.7230   42.3460    7.4190 O   0  0  0  0  0
   16.5580   43.1470    8.3290 O   0  0  0  0  0
   18.7490   43.8010    9.4690 O   0  0  0  0  0
   18.1480   38.7220   12.5120 N   0  0  0  0  0
   18.5230   38.3110   13.8710 C   0  0  0  0  0
   19.3270   39.4020   14.5910 C   0  0  0  0  0
   19.8620   40.2790   13.9150 O   0  0  0  0  0
   19.3460   37.0350   13.6450 C   0  0  0  0  0
   19.4060   36.8270   12.1610 C   0  0  0  0  0
   19.0260   38.1030   11.5050 C   0  0  0  0  0
   19.4530   39.3980   15.9370 N   0  0  0  0  0
   20.2630   40.4370   16.5870 C   0  0  0  0  0
   21.7490   40.3820   16.1790 C   0  0  0  0  0
   22.4810   39.4530   16.5410 O   0  0  0  0  0
   20.0180   40.2000   18.0830 C   0  0  0  0  0
   18.8380   39.2860   18.1660 C   0  0  0  0  0
   18.8860   38.4650   16.9270 C   0  0  0  0  0
   22.1560   41.3330   15.3180 N   0  0  0  0  0
   23.5330   41.4380   14.8260 C   0  0  0  0  0
   24.3640   42.0570   15.9520 C   0  0  0  0  0
   24.0710   43.1810   16.3740 O   0  0  0  0  0
   23.5970   42.2780   13.5250 C   0  0  0  0  0
   22.7470   41.7730   12.3520 C   0  0  0  0  0
   22.5630   40.5660   12.1240 O   0  0  0  0  0
   22.2440   42.6940   11.5360 N   0  0  0  0  0
   25.3230   41.2900   16.5200 N   0  0  0  0  0
   26.1440   41.7600   17.6570 C   0  0  0  0  0
   27.6740   41.5500   17.4280 C   0  0  0  0  0
   28.3260   40.7690   18.1360 O   0  0  0  0  0
   25.6440   41.1760   18.9940 C   0  0  0  0  0
   25.4090   39.7710   18.8520 O   0  0  0  0  0
   24.3980   41.8880   19.5140 C   0  0  0  0  0
   28.2300   42.3020   16.4340 N   0  0  0  0  0
   29.6430   42.3230   16.0270 C   0  0  0  0  0
   30.0370   43.7020   15.4350 C   0  0  0  0  0
   30.0810   44.7270   16.1340 O   0  0  0  0  0
   29.9220   41.2130   15.0140 C   0  0  0  0  0
   29.7760   39.9290   15.5990 O   0  0  0  0  0
   30.3260   43.8420   14.2360 O   0  0  0  0  0
    6.3933   43.5786   13.8696 H   0  0  0  0  0
    5.4583   42.6677   14.9053 H   0  0  0  0  0
    4.9771   44.2064   14.4838 H   0  0  0  0  0
    6.8082   45.1701   15.5649 H   0  0  0  0  0
    5.5595   43.2133   17.4927 H   0  0  0  0  0
    4.6480   44.5935   16.7706 H   0  0  0  0  0
    5.5766   45.0975   18.8173 H   0  0  0  0  0
    7.3058   41.9315   14.7563 H   0  0  0  0  0
    9.7814   41.7097   16.4212 H   0  0  0  0  0
    8.4822   39.6051   14.7517 H   0  0  0  0  0
    8.2758   39.8845   16.6038 H   0  0  0  0  0
   10.6449   38.8900   15.0895 H   0  0  0  0  0
   11.3454   40.2767   16.9609 H   0  0  0  0  0
   10.2699   39.3755   18.0573 H   0  0  0  0  0
   11.6674   38.5610   17.3125 H   0  0  0  0  0
    8.8164   37.5999   17.1421 H   0  0  0  0  0
    8.8939   37.2084   15.4066 H   0  0  0  0  0
   10.2831   36.8528   16.4625 H   0  0  0  0  0
   11.7849   41.3671   15.4888 H   0  0  0  0  0
   12.1753   42.7311   12.9294 H   0  0  0  0  0
   14.1599   41.2445   14.6404 H   0  0  0  0  0
   13.6082   43.0097   14.9032 H   0  0  0  0  0
   13.7831   42.8944   11.9797 H   0  0  0  0  0
   12.7656   41.9320   10.9972 H   0  0  0  0  0
   12.2919   39.1115   10.4264 H   0  0  0  0  0
   12.9182   39.7870    8.1017 H   0  0  0  0  0
   13.3049   41.4273    8.7351 H   0  0  0  0  0
   11.1815   41.2779    7.8595 H   0  0  0  0  0
   14.9631   41.1582   11.1647 H   0  0  0  0  0
   17.0741   39.2136   10.2534 H   0  0  0  0  0
   17.9729   41.6761   11.4605 H   0  0  0  0  0
   16.5626   42.0883   10.4153 H   0  0  0  0  0
   16.0785   43.3626    9.1322 H   0  0  0  0  0
   18.2779   43.9917   10.2834 H   0  0  0  0  0
   17.6618   38.1402   14.5169 H   0  0  0  0  0
   18.8866   36.1803   14.1415 H   0  0  0  0  0
   20.3462   37.1349   14.0667 H   0  0  0  0  0
   18.7224   36.0318   11.8636 H   0  0  0  0  0
   20.4123   36.5340   11.8616 H   0  0  0  0  0
   19.8832   38.7232   11.2430 H   0  0  0  0  0
   18.5397   37.9616   10.5398 H   0  0  0  0  0
   19.9791   41.4454   16.2859 H   0  0  0  0  0
   19.8295   41.1375   18.6061 H   0  0  0  0  0
   20.8929   39.7606   18.5621 H   0  0  0  0  0
   17.9044   39.8436   18.2406 H   0  0  0  0  0
   18.8760   38.6637   19.0601 H   0  0  0  0  0
   19.4792   37.5579   17.0425 H   0  0  0  0  0
   17.9087   38.0803   16.6355 H   0  0  0  0  0
   21.4717   42.0152   14.9912 H   0  0  0  0  0
   23.9309   40.4572   14.5658 H   0  0  0  0  0
   24.6332   42.2410   13.1888 H   0  0  0  0  0
   23.2097   43.2645   13.7797 H   0  0  0  0  0
   21.7041   42.4107   10.7183 H   0  0  0  0  0
   22.3979   43.6839   11.7276 H   0  0  0  0  0
   25.4858   40.3533   16.1506 H   0  0  0  0  0
   26.0130   42.8403   17.7200 H   0  0  0  0  0
   26.4243   41.3381   19.7376 H   0  0  0  0  0
   25.0982   39.4137   19.6871 H   0  0  0  0  0
   24.6229   42.9429   19.6713 H   0  0  0  0  0
   23.5945   41.7914   18.7838 H   0  0  0  0  0
   24.0899   41.4363   20.4570 H   0  0  0  0  0
   27.5982   42.9147   15.9185 H   0  0  0  0  0
   30.2502   42.1513   16.9158 H   0  0  0  0  0
   29.8414   44.5075   17.0373 H   0  0  0  0  0
   30.9477   41.3174   14.6602 H   0  0  0  0  0
   29.2075   41.3037   14.1959 H   0  0  0  0  0
   29.9573   39.2555   14.9393 H   0  0  0  0  0
  1  2  1  0  0  0
  2  3  1  0  0  0
  2  5  1  0  0  0
  3  4  2  0  0  0
  3  7  1  0  0  0
  5  6  1  0  0  0
  7  8  1  0  0  0
  8  9  1  0  0  0
  8 11  1  0  0  0
  9 10  2  0  0  0
  9 15  1  0  0  0
 11 12  1  0  0  0
 12 13  1  0  0  0
 12 14  1  0  0  0
 15 16  1  0  0  0
 16 17  1  0  0  0
 16 19  1  0  0  0
 17 18  2  0  0  0
 17 23  1  0  0  0
 19 20  1  0  0  0
 20 21  1  0  0  0
 20 22  2  0  0  0
 23 24  1  0  0  0
 24 25  1  0  0  0
 24 27  1  0  0  0
 25 26  2  0  0  0
 25 29  1  0  0  0
 27 28  1  0  0  0
 29 30  1  0  0  0
 30 31  1  0  0  0
 30 33  1  0  0  0
 31 32  1  0  0  0
 32 35  1  0  0  0
 33 34  2  0  0  0
 33 39  1  0  0  0
 35 36  2  0  0  0
 35 37  1  0  0  0
 35 38  1  0  0  0
 39 40  1  0  0  0
 39 45  1  0  0  0
 40 41  1  0  0  0
 40 43  1  0  0  0
 41 42  2  0  0  0
 41 46  1  0  0  0
 43 44  1  0  0  0
 44 45  1  0  0  0
 46 47  1  0  0  0
 46 52  1  0  0  0
 47 48  1  0  0  0
 47 50  1  0  0  0
 48 49  2  0  0  0
 48 53  1  0  0  0
 50 51  1  0  0  0
 51 52  1  0  0  0
 53 54  1  0  0  0
 54 55  1  0  0  0
 54 57  1  0  0  0
 55 56  2  0  0  0
 55 61  1  0  0  0
 57 58  1  0  0  0
 58 59  2  0  0  0
 58 60  1  0  0  0
 61 62  1  0  0  0
 62 63  1  0  0  0
 62 65  1  0  0  0
 63 64  2  0  0  0
 63 68  1  0  0  0
 65 66  1  0  0  0
 65 67  1  0  0  0
 68 69  1  0  0  0
 69 70  1  0  0  0
 69 72  1  0  0  0
 70 71  1  0  0  0
 70 74  2  0  0  0
 72 73  1  0  0  0
  1 75  1  0  0  0
  1 76  1  0  0  0
  1 77  1  0  0  0
  2 78  1  0  0  0
  5 79  1  0  0  0
  5 80  1  0  0  0
  6 81  1  0  0  0
  7 82  1  0  0  0
  8 83  1  0  0  0
 11 84  1  0  0  0
 11 85  1  0  0  0
 12 86  1  0  0  0
 13 87  1  0  0  0
 13 88  1  0  0  0
 13 89  1  0  0  0
 14 90  1  0  0  0
 14 91  1  0  0  0
 14 92  1  0  0  0
 15 93  1  0  0  0
 16 94  1  0  0  0
 19 95  1  0  0  0
 19 96  1  0  0  0
 21 97  1  0  0  0
 23 98  1  0  0  0
 24 99  1  0  0  0
 27100  1  0  0  0
 27101  1  0  0  0
 28102  1  0  0  0
 29103  1  0  0  0
 30104  1  0  0  0
 31105  1  0  0  0
 31106  1  0  0  0
 37107  1  0  0  0
 38108  1  0  0  0
 40109  1  0  0  0
 43110  1  0  0  0
 43111  1  0  0  0
 44112  1  0  0  0
 44113  1  0  0  0
 45114  1  0  0  0
 45115  1  0  0  0
 47116  1  0  0  0
 50117  1  0  0  0
 50118  1  0  0  0
 51119  1  0  0  0
 51120  1  0  0  0
 52121  1  0  0  0
 52122  1  0  0  0
 53123  1  0  0  0
 54124  1  0  0  0
 57125  1  0  0  0
 57126  1  0  0  0
 60127  1  0  0  0
 60128  1  0  0  0
 61129  1  0  0  0
 62130  1  0  0  0
 65131  1  0  0  0
 66132  1  0  0  0
 67133  1  0  0  0
 67134  1  0  0  0
 67135  1  0  0  0
 68136  1  0  0  0
 69137  1  0  0  0
 71138  1  0  0  0
 72139  1  0  0  0
 72140  1  0  0  0
 73141  1  0  0  0
M  END
$$$$
