3ipq_ligand
  -I-interpret- 

 73 76  0  0  0  0  0  0  0  0999 V2000
   50.1600   16.4090   -5.4030 O   0  0  0  0  0
   50.4010   16.3250   -4.1820 C   0  0  0  0  0
   51.5110   16.5760   -3.7340 O   0  0  0  0  0
   49.3570   15.8960   -3.1690 C   0  0  0  0  0
   47.9990   16.4340   -3.5080 C   0  0  0  0  0
   47.7650   17.8060   -3.4510 C   0  0  0  0  0
   46.5030   18.2950   -3.7660 C   0  0  0  0  0
   45.4640   17.4320   -4.0960 C   0  0  0  0  0
   45.7200   16.0440   -4.1660 C   0  0  0  0  0
   44.7580   15.1300   -4.4810 O   0  0  0  0  0
   43.4280   15.4160   -4.9060 C   0  0  0  0  0
   42.9020   14.2790   -5.7560 C   0  0  0  0  0
   41.8150   14.7240   -6.7210 C   0  0  0  0  0
   40.5000   14.9460   -6.1380 N   0  3  0  0  0
   40.0890   14.2170   -4.9240 C   0  0  0  0  0
   38.9910   14.8350   -4.0880 C   0  0  0  0  0
   39.2840   16.0210   -3.4390 C   0  0  0  0  0
   38.3200   16.6180   -2.6630 C   0  0  0  0  0
   37.0720   16.0340   -2.5120 C   0  0  0  0  0
   36.7550   14.8450   -3.1620 C   0  0  0  0  0
   37.7360   14.2410   -3.9460 C   0  0  0  0  0
   37.3800   12.6770   -4.7710 Cl  0  0  0  0  0
   35.3790   14.2170   -2.9940 C   0  0  0  0  0
   35.5980   12.9670   -2.6130 F   0  0  0  0  0
   34.6470   14.8240   -2.0660 F   0  0  0  0  0
   34.6800   14.2580   -4.1380 F   0  0  0  0  0
   39.5430   15.7540   -6.9170 C   0  0  0  0  0
   40.1190   17.1340   -7.3490 C   0  0  0  0  0
   40.0100   18.1060   -6.2230 C   0  0  0  0  0
   41.1720   18.6150   -5.6670 C   0  0  0  0  0
   41.0810   19.5200   -4.6160 C   0  0  0  0  0
   39.8510   19.9130   -4.1140 C   0  0  0  0  0
   38.6900   19.4130   -4.6650 C   0  0  0  0  0
   38.7730   18.5110   -5.7300 C   0  0  0  0  0
   39.4520   17.6900   -8.5530 C   0  0  0  0  0
   40.2100   18.4840   -9.4100 C   0  0  0  0  0
   39.6510   19.0030  -10.5620 C   0  0  0  0  0
   38.3160   18.7660  -10.8600 C   0  0  0  0  0
   37.5510   17.9920  -10.0040 C   0  0  0  0  0
   38.1230   17.4390   -8.8560 C   0  0  0  0  0
   46.9690   15.5600   -3.8440 C   0  0  0  0  0
   49.2427   16.1758   -5.5638 H   0  0  0  0  0
   49.6461   16.2853   -2.1928 H   0  0  0  0  0
   49.3047   14.8073   -3.1707 H   0  0  0  0  0
   48.5638   18.4891   -3.1622 H   0  0  0  0  0
   46.3251   19.3703   -3.7542 H   0  0  0  0  0
   44.4659   17.8207   -4.2979 H   0  0  0  0  0
   43.4284   16.3337   -5.4941 H   0  0  0  0  0
   42.7892   15.5356   -4.0309 H   0  0  0  0  0
   42.4722   13.5323   -5.0882 H   0  0  0  0  0
   43.7325   13.8880   -6.3438 H   0  0  0  0  0
   41.6979   13.9175   -7.4448 H   0  0  0  0  0
   42.1375   15.6833   -7.1257 H   0  0  0  0  0
   40.6674   15.6354   -5.4051 H   0  0  0  0  0
   40.9698   14.1883   -4.2826 H   0  0  0  0  0
   39.6958   13.2613   -5.2706 H   0  0  0  0  0
   40.2687   16.4769   -3.5421 H   0  0  0  0  0
   38.5389   17.5604   -2.1610 H   0  0  0  0  0
   36.3283   16.5129   -1.8751 H   0  0  0  0  0
   38.6751   15.9406   -6.2845 H   0  0  0  0  0
   39.3003   15.1981   -7.8227 H   0  0  0  0  0
   41.1649   16.9703   -7.6085 H   0  0  0  0  0
   42.1461   18.3095   -6.0491 H   0  0  0  0  0
   41.9928   19.9274   -4.1793 H   0  0  0  0  0
   39.8010   20.6173   -3.2836 H   0  0  0  0  0
   37.7189   19.7175   -4.2748 H   0  0  0  0  0
   37.8595   18.1209   -6.1789 H   0  0  0  0  0
   41.2516   18.6975   -9.1702 H   0  0  0  0  0
   40.2606   19.6009  -11.2395 H   0  0  0  0  0
   37.8727   19.1867  -11.7625 H   0  0  0  0  0
   36.4990   17.8137  -10.2267 H   0  0  0  0  0
   37.5238   16.8096   -8.1980 H   0  0  0  0  0
   47.1519   14.4855   -3.8524 H   0  0  0  0  0
  1  2  1  0  0  0
  2  3  2  0  0  0
  2  4  1  0  0  0
  4  5  1  0  0  0
  5  6  4  0  0  0
  5 41  4  0  0  0
  6  7  4  0  0  0
  7  8  4  0  0  0
  8  9  4  0  0  0
  9 10  1  0  0  0
  9 41  4  0  0  0
 10 11  1  0  0  0
 11 12  1  0  0  0
 12 13  1  0  0  0
 13 14  1  0  0  0
 14 15  1  0  0  0
 14 27  1  0  0  0
 15 16  1  0  0  0
 16 17  4  0  0  0
 16 21  4  0  0  0
 17 18  4  0  0  0
 18 19  4  0  0  0
 19 20  4  0  0  0
 20 21  4  0  0  0
 20 23  1  0  0  0
 21 22  1  0  0  0
 23 24  1  0  0  0
 23 25  1  0  0  0
 23 26  1  0  0  0
 27 28  1  0  0  0
 28 29  1  0  0  0
 28 35  1  0  0  0
 29 30  4  0  0  0
 29 34  4  0  0  0
 30 31  4  0  0  0
 31 32  4  0  0  0
 32 33  4  0  0  0
 33 34  4  0  0  0
 35 36  4  0  0  0
 35 40  4  0  0  0
 36 37  4  0  0  0
 37 38  4  0  0  0
 38 39  4  0  0  0
 39 40  4  0  0  0
  1 42  1  0  0  0
  4 43  1  0  0  0
  4 44  1  0  0  0
  6 45  1  0  0  0
  7 46  1  0  0  0
  8 47  1  0  0  0
 11 48  1  0  0  0
 11 49  1  0  0  0
 12 50  1  0  0  0
 12 51  1  0  0  0
 13 52  1  0  0  0
 13 53  1  0  0  0
 14 54  1  0  0  0
 15 55  1  0  0  0
 15 56  1  0  0  0
 17 57  1  0  0  0
 18 58  1  0  0  0
 19 59  1  0  0  0
 27 60  1  0  0  0
 27 61  1  0  0  0
 28 62  1  0  0  0
 30 63  1  0  0  0
 31 64  1  0  0  0
 32 65  1  0  0  0
 33 66  1  0  0  0
 34 67  1  0  0  0
 36 68  1  0  0  0
 37 69  1  0  0  0
 38 70  1  0  0  0
 39 71  1  0  0  0
 40 72  1  0  0  0
 41 73  1  0  0  0
M  END
$$$$
