2qe5_ligand
  -I-interpret- 

 33 34  0  0  0  0  0  0  0  0999 V2000
    3.2820   73.7520  143.0960 C   0  0  0  0  0
    2.2760   70.0090  142.8700 C   0  0  0  0  0
    0.3760   73.5760  146.2990 C   0  0  0  0  0
    3.1090   74.7360  143.8940 O   0  0  0  0  0
    4.0090   73.7910  142.0630 O   0  0  0  0  0
    1.1850   70.9230  144.8390 C   0  0  0  0  0
    1.4540   73.3190  145.4130 N   0  0  0  0  0
    1.4380   69.8410  143.9810 C   0  0  0  0  0
   -0.5980   72.8700  146.5920 O   0  0  0  0  0
    1.7260   72.2170  144.5830 C   0  0  0  0  0
    2.6060   72.4050  143.4460 C   0  0  0  0  0
    2.8350   71.2790  142.5830 C   0  0  0  0  0
    0.5620   74.9580  146.9320 C   0  0  0  0  0
    1.7550   75.6410  146.5180 O   0  0  0  0  0
    2.9980   75.4010  147.1320 C   0  0  0  0  0
    3.3880   74.2600  147.9460 C   0  0  0  0  0
    4.6950   74.1670  148.4900 C   0  0  0  0  0
    5.6220   75.2010  148.2420 C   0  0  0  0  0
    5.2530   76.3320  147.4500 C   0  0  0  0  0
    3.9580   76.4340  146.8990 C   0  0  0  0  0
    7.1990   75.0940  148.8920 Cl  0  0  0  0  0
    2.4985   69.1594  142.2244 H   0  0  0  0  0
    2.5187   74.4714  144.6033 H   0  0  0  0  0
    0.5615   70.7705  145.7199 H   0  0  0  0  0
    2.1520   74.0616  145.3709 H   0  0  0  0  0
    0.9829   68.8705  144.1787 H   0  0  0  0  0
    3.4497   71.4041  141.6916 H   0  0  0  0  0
    0.6342   74.8104  148.0095 H   0  0  0  0  0
   -0.2835   75.5707  146.6193 H   0  0  0  0  0
    2.6667   73.4663  148.1404 H   0  0  0  0  0
    4.9800   73.3052  149.0935 H   0  0  0  0  0
    5.9796   77.1242  147.2697 H   0  0  0  0  0
    3.6896   77.3010  146.2954 H   0  0  0  0  0
  1  4  1  0  0  0
  1  5  2  0  0  0
 11  1  1  0  0  0
  8  2  4  0  0  0
  2 12  4  0  0  0
  7  3  1  0  0  0
  3  9  2  0  0  0
  3 13  1  0  0  0
  6  8  4  0  0  0
 10  6  4  0  0  0
 10  7  1  0  0  0
 10 11  4  0  0  0
 11 12  4  0  0  0
 13 14  1  0  0  0
 14 15  1  0  0  0
 15 16  4  0  0  0
 15 20  4  0  0  0
 16 17  4  0  0  0
 17 18  4  0  0  0
 18 19  4  0  0  0
 18 21  1  0  0  0
 19 20  4  0  0  0
  2 22  1  0  0  0
  4 23  1  0  0  0
  6 24  1  0  0  0
  7 25  1  0  0  0
  8 26  1  0  0  0
 12 27  1  0  0  0
 13 28  1  0  0  0
 13 29  1  0  0  0
 16 30  1  0  0  0
 17 31  1  0  0  0
 19 32  1  0  0  0
 20 33  1  0  0  0
M  END
$$$$
