4y3y_ligand
  -I-interpret- 

 24 23  0  0  0  0  0  0  0  0999 V2000
    2.1790    5.1960    8.8640 N   0  3  0  0  0
    2.2560    6.5190    9.5270 C   0  0  0  0  0
    1.6150    6.3810   10.9000 C   0  0  0  0  0
    1.6160    7.6590    8.7180 C   0  0  0  0  0
    1.5430    9.0200    9.4250 C   0  0  0  0  0
    0.8420   10.0630    8.5700 C   0  0  0  0  0
    2.9280    9.4970    9.8050 C   0  0  0  0  0
    0.1920    6.4910   10.8000 O   0  0  0  0  0
    2.6216    4.4937    9.4567 H   0  0  0  0  0
    1.2009    4.9486    8.7140 H   0  0  0  0  0
    2.6617    5.2382    7.9665 H   0  0  0  0  0
    3.3046    6.8043    9.6110 H   0  0  0  0  0
    1.9877    7.1751   11.5470 H   0  0  0  0  0
    1.8672    5.4042   11.3128 H   0  0  0  0  0
    0.5868    7.3579    8.5224 H   0  0  0  0  0
    2.2432    7.8022    7.8381 H   0  0  0  0  0
    0.9537    8.8849   10.3319 H   0  0  0  0  0
    0.7570   10.9936    9.1312 H   0  0  0  0  0
    1.4208   10.2359    7.6627 H   0  0  0  0  0
   -0.1528    9.7048    8.3051 H   0  0  0  0  0
    3.5126    9.6684    8.9011 H   0  0  0  0  0
    2.8487   10.4260   10.3696 H   0  0  0  0  0
    3.4168    8.7390   10.4170 H   0  0  0  0  0
   -0.1969    6.4020   11.6732 H   0  0  0  0  0
  1  2  1  0  0  0
  2  3  1  0  0  0
  2  4  1  0  0  0
  3  8  1  0  0  0
  4  5  1  0  0  0
  5  6  1  0  0  0
  5  7  1  0  0  0
  1  9  1  0  0  0
  1 10  1  0  0  0
  1 11  1  0  0  0
  2 12  1  0  0  0
  3 13  1  0  0  0
  3 14  1  0  0  0
  4 15  1  0  0  0
  4 16  1  0  0  0
  5 17  1  0  0  0
  6 18  1  0  0  0
  6 19  1  0  0  0
  6 20  1  0  0  0
  7 21  1  0  0  0
  7 22  1  0  0  0
  7 23  1  0  0  0
  8 24  1  0  0  0
M  END
$$$$
