### 
### Created by X-TOOL on Mon Sep 10 21:13:25 2018
### 

@<TRIPOS>MOLECULE
4pdk_ligand
  131   133     1     0     0
SMALL
GAST_HUCK


@<TRIPOS>ATOM
      1 C10        15.2000   -9.8560   -6.1810 C.2       1 3VV        -0.0987
      2 C13        16.5640   -7.0540   -4.5320 C.3       1 3VV        -0.0515
      3 C15        18.2460   -5.1920   -4.8410 C.3       1 3VV        -0.0509
      4 C17        18.8020   -2.7880   -4.2340 C.3       1 3VV         0.0317
      5 C21        20.6870   -4.3040   -0.5310 C.3       1 3VV         0.0336
      6 C22        20.2640   -4.6720    0.9050 C.3       1 3VV         0.0422
      7 C24        20.7790   -6.7990    2.2130 C.2       1 3VV         0.1779
      8 C26        21.8290   -7.7790    2.7320 C.3       1 3VV         0.0574
      9 P38        26.4690  -14.0620    6.6870 P.3       1 3VV         0.2971
     10 P42        26.5840  -13.9630    9.5790 P.3       1 3VV         0.2972
     11 P54        30.3040  -17.9600   12.5550 P.3       1 3VV         0.2013
     12 C01        20.2160  -18.5260   -5.9310 C.3       1 3VV        -0.0653
     13 C02        19.0990  -17.4860   -5.8630 C.3       1 3VV        -0.0559
     14 C03        19.6020  -16.0880   -6.2340 C.3       1 3VV        -0.0533
     15 C04        18.5610  -14.9820   -5.9790 C.3       1 3VV        -0.0531
     16 C05        19.1860  -13.5660   -6.1930 C.3       1 3VV        -0.0529
     17 C06        18.1190  -12.4290   -6.1130 C.3       1 3VV        -0.0515
     18 C07        18.7500  -11.0200   -6.4280 C.3       1 3VV        -0.0464
     19 C08        17.7360   -9.8580   -6.1660 C.3       1 3VV        -0.0365
     20 C09        16.3470  -10.1760   -6.8190 C.2       1 3VV        -0.0987
     21 C11        15.2420   -9.2000   -4.8000 C.3       1 3VV        -0.0365
     22 C12        15.2090   -7.6630   -4.9170 C.3       1 3VV        -0.0464
     23 C14        16.7560   -5.5840   -4.9290 C.3       1 3VV        -0.0528
     24 C16        18.5270   -3.7840   -5.3900 C.3       1 3VV        -0.0363
     25 C18        19.7950   -3.3670   -3.2000 C.2       1 3VV         0.1642
     26 O19        20.9390   -3.4980   -3.4800 O.2       1 3VV        -0.3791
     27 S20        19.2050   -3.8600   -1.5250 S.3       1 3VV        -0.0482
     28 N23        21.2250   -5.6440    1.4370 N.am      1 3VV        -0.2860
     29 O25        19.6340   -6.9810    2.4480 O.2       1 3VV        -0.3970
     30 C27        21.4660   -9.2270    2.3650 C.3       1 3VV         0.0477
     31 N28        22.0020  -10.1110    3.4000 N.am      1 3VV        -0.2826
     32 C29        23.4190  -10.4640    3.3180 C.2       1 3VV         0.2057
     33 O30        24.0730  -10.0400    2.4310 O.2       1 3VV        -0.3942
     34 C31        24.0220  -11.3900    4.3850 C.3       1 3VV         0.1510
     35 O32        23.0240  -11.7220    5.2880 O.3       1 3VV        -0.3708
     36 C33        25.1560  -10.7030    5.1620 C.3       1 3VV         0.0367
     37 C34        24.6740   -9.3670    5.7460 C.3       1 3VV        -0.0528
     38 C35        26.4100  -10.4810    4.2930 C.3       1 3VV        -0.0528
     39 C36        25.5360  -11.6550    6.2980 C.3       1 3VV         0.0936
     40 O37        25.9890  -12.8330    5.6910 O.3       1 3VV        -0.2496
     41 O39        25.2690  -14.9250    7.0060 O.co2     1 3VV        -0.6127
     42 O40        27.5300  -14.8900    5.9990 O.co2     1 3VV        -0.6127
     43 O41        27.0590  -13.4140    8.0890 O.3       1 3VV        -0.1319
     44 O43        25.5080  -15.0140    9.4080 O.co2     1 3VV        -0.6127
     45 O44        26.0440  -12.8140   10.4000 O.co2     1 3VV        -0.6127
     46 O45        27.8940  -14.6410   10.3530 O.3       1 3VV        -0.2476
     47 C46        29.1420  -14.6370    9.6870 C.3       1 3VV         0.1131
     48 C47        30.2570  -15.0590   10.6560 C.3       1 3VV         0.1235
     49 O48        31.1210  -14.1150   10.7770 O.3       1 3VV        -0.3360
     50 C49        30.9550  -13.5390   12.1690 C.3       1 3VV         0.2013
     51 C50        29.7070  -14.2720   12.7670 C.3       1 3VV         0.1432
     52 O51        29.8730  -14.5040   14.2620 O.3       1 3VV        -0.3832
     53 C52        29.6620  -15.3620   12.1590 C.3       1 3VV         0.1487
     54 O53        30.5090  -16.3610   12.8610 O.3       1 3VV        -0.2674
     55 O55        31.1910  -18.7670   13.4770 O.co2     1 3VV        -0.5537
     56 O56        30.6780  -18.2500   11.1220 O.co2     1 3VV        -0.5537
     57 O57        28.8630  -18.3410   12.7850 O.co2     1 3VV        -0.5537
     58 N58        30.7530  -12.2080   12.0950 N.pl3     1 3VV        -0.1919
     59 C59        29.6310  -11.6170   11.7160 C.2       1 3VV         0.1123
     60 N60        29.7850  -10.3000   11.7560 N.2       1 3VV        -0.2958
     61 C61        31.0380  -10.0390   12.1680 C.ar      1 3VV         0.1045
     62 C62        31.7780   -8.8620   12.4030 C.ar      1 3VV         0.1298
     63 N63        31.1620   -7.5570   12.1880 N.pl3     1 3VV        -0.3152
     64 N64        33.0330   -8.9480   12.8190 N.ar      1 3VV        -0.2698
     65 C65        33.5950  -10.1390   13.0180 C.ar      1 3VV         0.0533
     66 N66        32.9360  -11.2700   12.8060 N.ar      1 3VV        -0.2714
     67 C67        31.6580  -11.2490   12.3840 C.ar      1 3VV         0.1613
     68 H1         14.2410  -10.0661   -6.6522 H         1 3VV         0.0450
     69 H2         17.3535   -7.6442   -5.0202 H         1 3VV         0.0267
     70 H3         16.6727   -7.1285   -3.4399 H         1 3VV         0.0267
     71 H4         18.8350   -5.9185   -5.4200 H         1 3VV         0.0267
     72 H5         18.5563   -5.2259   -3.7862 H         1 3VV         0.0267
     73 H6         17.8528   -2.5603   -3.7270 H         1 3VV         0.0503
     74 H7         19.2244   -1.8632   -4.6539 H         1 3VV         0.0503
     75 H8         21.1926   -5.1641   -0.9942 H         1 3VV         0.0424
     76 H9         21.3757   -3.4469   -0.5001 H         1 3VV         0.0424
     77 H10        19.2567   -5.1138    0.8937 H         1 3VV         0.0529
     78 H11        20.2616   -3.7697    1.5342 H         1 3VV         0.0529
     79 H12        21.8920   -7.6912    3.8267 H         1 3VV         0.0522
     80 H13        22.8037   -7.5296    2.2874 H         1 3VV         0.0522
     81 H14        19.8148  -19.5133   -5.6584 H         1 3VV         0.0230
     82 H15        21.0175  -18.2497   -5.2301 H         1 3VV         0.0230
     83 H16        20.6199  -18.5640   -6.9534 H         1 3VV         0.0230
     84 H17        18.6980  -17.4602   -4.8390 H         1 3VV         0.0263
     85 H18        18.3005  -17.7745   -6.5624 H         1 3VV         0.0263
     86 H19        19.8635  -16.0825   -7.3024 H         1 3VV         0.0265
     87 H20        20.4988  -15.8688   -5.6359 H         1 3VV         0.0265
     88 H21        18.1970  -15.0620   -4.9441 H         1 3VV         0.0265
     89 H22        17.7192  -15.1127   -6.6749 H         1 3VV         0.0265
     90 H23        19.6617  -13.5355   -7.1843 H         1 3VV         0.0265
     91 H24        19.9455  -13.3935   -5.4163 H         1 3VV         0.0265
     92 H25        17.6919  -12.4106   -5.0995 H         1 3VV         0.0267
     93 H26        17.3223  -12.6348   -6.8430 H         1 3VV         0.0267
     94 H27        19.0553  -10.9947   -7.4845 H         1 3VV         0.0285
     95 H28        19.6324  -10.8737   -5.7877 H         1 3VV         0.0285
     96 H29        18.1334   -8.9278   -6.5981 H         1 3VV         0.0388
     97 H30        17.6044   -9.7315   -5.0813 H         1 3VV         0.0388
     98 H31        16.3063  -10.6586   -7.7944 H         1 3VV         0.0450
     99 H32        16.1667   -9.5018   -4.2864 H         1 3VV         0.0388
    100 H33        14.3721   -9.5350   -4.2160 H         1 3VV         0.0388
    101 H34        14.9718   -7.3861   -5.9548 H         1 3VV         0.0285
    102 H35        14.4328   -7.2676   -4.2454 H         1 3VV         0.0285
    103 H36        16.1728   -4.9459   -4.2488 H         1 3VV         0.0265
    104 H37        16.4035   -5.4384   -5.9608 H         1 3VV         0.0265
    105 H38        17.6537   -3.4393   -5.9631 H         1 3VV         0.0290
    106 H39        19.4064   -3.8228   -6.0496 H         1 3VV         0.0290
    107 H40        22.2016   -5.5141    1.2658 H         1 3VV         0.1851
    108 H41        21.9062   -9.4854    1.3906 H         1 3VV         0.0545
    109 H42        20.3725   -9.3348    2.3135 H         1 3VV         0.0545
    110 H43        21.4217  -10.4606    4.1355 H         1 3VV         0.1853
    111 H44        24.4101  -12.2982    3.9007 H         1 3VV         0.0844
    112 H45        23.3809  -12.2955    5.9560 H         1 3VV         0.2133
    113 H46        25.4972   -8.8898    6.2979 H         1 3VV         0.0238
    114 H47        23.8311   -9.5482    6.4291 H         1 3VV         0.0238
    115 H48        24.3485   -8.7059    4.9293 H         1 3VV         0.0238
    116 H49        26.7455  -11.4440    3.8807 H         1 3VV         0.0238
    117 H50        27.2111  -10.0470    4.9093 H         1 3VV         0.0238
    118 H51        26.1681   -9.7937    3.4690 H         1 3VV         0.0238
    119 H52        24.6592  -11.8646    6.9283 H         1 3VV         0.0628
    120 H53        26.3332  -11.2134    6.9140 H         1 3VV         0.0628
    121 H54        29.3506  -13.6247    9.3106 H         1 3VV         0.0648
    122 H55        29.1068  -15.3419    8.8433 H         1 3VV         0.0648
    123 H56        30.7460  -15.9633   10.2647 H         1 3VV         0.0654
    124 H57        31.8467  -13.7399   12.7810 H         1 3VV         0.0996
    125 H58        28.7924  -13.6880   12.5868 H         1 3VV         0.0680
    126 H59        30.6428  -15.0393   14.4147 H         1 3VV         0.2101
    127 H60        28.6273  -15.7301   12.0972 H         1 3VV         0.0704
    128 H61        28.7200  -12.1333   11.4168 H         1 3VV         0.1349
    129 H62        31.7030   -6.6975   12.3598 H         1 3VV         0.1820
    130 H63        30.1861   -7.4952   11.8644 H         1 3VV         0.1820
    131 H64        34.6214  -10.1851   13.3635 H         1 3VV         0.0996
@<TRIPOS>BOND
     1    1   20 2  
     2   21    1 1  
     3    2   22 1  
     4   23    2 1  
     5    3   23 1  
     6   24    3 1  
     7    4   24 1  
     8   25    4 1  
     9    6    5 1  
    10    5   27 1  
    11   28    6 1  
    12    8    7 1  
    13    7   28 am 
    14    7   29 2  
    15   30    8 1  
    16    9   40 1  
    17    9   41 ar 
    18    9   42 ar 
    19   43    9 1  
    20   10   43 1  
    21   10   44 ar 
    22   10   45 ar 
    23   46   10 1  
    24   54   11 1  
    25   11   55 ar 
    26   11   56 ar 
    27   11   57 ar 
    28   13   12 1  
    29   14   13 1  
    30   15   14 1  
    31   16   15 1  
    32   17   16 1  
    33   18   17 1  
    34   19   18 1  
    35   20   19 1  
    36   22   21 1  
    37   25   26 2  
    38   27   25 1  
    39   31   30 1  
    40   32   31 am 
    41   32   33 2  
    42   34   32 1  
    43   34   35 1  
    44   36   34 1  
    45   36   37 1  
    46   36   38 1  
    47   39   36 1  
    48   40   39 1  
    49   47   46 1  
    50   48   47 1  
    51   48   49 1  
    52   53   48 1  
    53   50   49 1  
    54   51   50 1  
    55   50   58 1  
    56   51   52 1  
    57   53   51 1  
    58   53   54 1  
    59   58   59 1  
    60   58   67 1  
    61   59   60 2  
    62   60   61 1  
    63   61   62 ar 
    64   61   67 ar 
    65   62   63 1  
    66   62   64 ar 
    67   64   65 ar 
    68   65   66 ar 
    69   66   67 ar 
    70    1   68 1  
    71    2   69 1  
    72    2   70 1  
    73    3   71 1  
    74    3   72 1  
    75    4   73 1  
    76    4   74 1  
    77    5   75 1  
    78    5   76 1  
    79    6   77 1  
    80    6   78 1  
    81    8   79 1  
    82    8   80 1  
    83   12   81 1  
    84   12   82 1  
    85   12   83 1  
    86   13   84 1  
    87   13   85 1  
    88   14   86 1  
    89   14   87 1  
    90   15   88 1  
    91   15   89 1  
    92   16   90 1  
    93   16   91 1  
    94   17   92 1  
    95   17   93 1  
    96   18   94 1  
    97   18   95 1  
    98   19   96 1  
    99   19   97 1  
   100   20   98 1  
   101   21   99 1  
   102   21  100 1  
   103   22  101 1  
   104   22  102 1  
   105   23  103 1  
   106   23  104 1  
   107   24  105 1  
   108   24  106 1  
   109   28  107 1  
   110   30  108 1  
   111   30  109 1  
   112   31  110 1  
   113   34  111 1  
   114   35  112 1  
   115   37  113 1  
   116   37  114 1  
   117   37  115 1  
   118   38  116 1  
   119   38  117 1  
   120   38  118 1  
   121   39  119 1  
   122   39  120 1  
   123   47  121 1  
   124   47  122 1  
   125   48  123 1  
   126   50  124 1  
   127   51  125 1  
   128   52  126 1  
   129   53  127 1  
   130   59  128 1  
   131   63  129 1  
   132   63  130 1  
   133   65  131 1  
@<TRIPOS>SUBSTRUCTURE
     1 3VV         1

