4pdk_ligand
  -I-interpret- 

135137  0  0  0  0  0  0  0  0999 V2000
   15.2000   -9.8560   -6.1810 C   0  0  0  0  0
   16.5640   -7.0540   -4.5320 C   0  0  0  0  0
   18.2460   -5.1920   -4.8410 C   0  0  0  0  0
   18.8020   -2.7880   -4.2340 C   0  0  0  0  0
   20.6870   -4.3040   -0.5310 C   0  0  0  0  0
   20.2640   -4.6720    0.9050 C   0  0  0  0  0
   20.7790   -6.7990    2.2130 C   0  0  0  0  0
   21.8290   -7.7790    2.7320 C   0  0  0  0  0
   26.4690  -14.0620    6.6870 P   0  0  0  0  0
   26.5840  -13.9630    9.5790 P   0  0  0  0  0
   30.3040  -17.9600   12.5550 P   0  0  0  0  0
   20.2160  -18.5260   -5.9310 C   0  0  0  0  0
   19.0990  -17.4860   -5.8630 C   0  0  0  0  0
   19.6020  -16.0880   -6.2340 C   0  0  0  0  0
   18.5610  -14.9820   -5.9790 C   0  0  0  0  0
   19.1860  -13.5660   -6.1930 C   0  0  0  0  0
   18.1190  -12.4290   -6.1130 C   0  0  0  0  0
   18.7500  -11.0200   -6.4280 C   0  0  0  0  0
   17.7360   -9.8580   -6.1660 C   0  0  0  0  0
   16.3470  -10.1760   -6.8190 C   0  0  0  0  0
   15.2420   -9.2000   -4.8000 C   0  0  0  0  0
   15.2090   -7.6630   -4.9170 C   0  0  0  0  0
   16.7560   -5.5840   -4.9290 C   0  0  0  0  0
   18.5270   -3.7840   -5.3900 C   0  0  0  0  0
   19.7950   -3.3670   -3.2000 C   0  0  0  0  0
   20.9390   -3.4980   -3.4800 O   0  0  0  0  0
   19.2050   -3.8600   -1.5250 S   0  0  0  0  0
   21.2250   -5.6440    1.4370 N   0  0  0  0  0
   19.6340   -6.9810    2.4480 O   0  0  0  0  0
   21.4660   -9.2270    2.3650 C   0  0  0  0  0
   22.0020  -10.1110    3.4000 N   0  0  0  0  0
   23.4190  -10.4640    3.3180 C   0  0  0  0  0
   24.0730  -10.0400    2.4310 O   0  0  0  0  0
   24.0220  -11.3900    4.3850 C   0  0  0  0  0
   23.0240  -11.7220    5.2880 O   0  0  0  0  0
   25.1560  -10.7030    5.1620 C   0  0  0  0  0
   24.6740   -9.3670    5.7460 C   0  0  0  0  0
   26.4100  -10.4810    4.2930 C   0  0  0  0  0
   25.5360  -11.6550    6.2980 C   0  0  0  0  0
   25.9890  -12.8330    5.6910 O   0  0  0  0  0
   25.2690  -14.9250    7.0060 O   0  0  0  0  0
   27.5300  -14.8900    5.9990 O   0  0  0  0  0
   27.0590  -13.4140    8.0890 O   0  0  0  0  0
   25.5080  -15.0140    9.4080 O   0  0  0  0  0
   26.0440  -12.8140   10.4000 O   0  0  0  0  0
   27.8940  -14.6410   10.3530 O   0  0  0  0  0
   29.1420  -14.6370    9.6870 C   0  0  0  0  0
   30.2570  -15.0590   10.6560 C   0  0  0  0  0
   31.1210  -14.1150   10.7770 O   0  0  0  0  0
   30.9550  -13.5390   12.1690 C   0  0  0  0  0
   29.7070  -14.2720   12.7670 C   0  0  0  0  0
   29.8730  -14.5040   14.2620 O   0  0  0  0  0
   29.6620  -15.3620   12.1590 C   0  0  0  0  0
   30.5090  -16.3610   12.8610 O   0  0  0  0  0
   31.1910  -18.7670   13.4770 O   0  0  0  0  0
   30.6780  -18.2500   11.1220 O   0  0  0  0  0
   28.8630  -18.3410   12.7850 O   0  0  0  0  0
   30.7530  -12.2080   12.0950 N   0  0  0  0  0
   29.6310  -11.6170   11.7160 C   0  0  0  0  0
   29.7850  -10.3000   11.7560 N   0  0  0  0  0
   31.0380  -10.0390   12.1680 C   0  0  0  0  0
   31.7780   -8.8620   12.4030 C   0  0  0  0  0
   31.1620   -7.5570   12.1880 N   0  0  0  0  0
   33.0330   -8.9480   12.8190 N   0  0  0  0  0
   33.5950  -10.1390   13.0180 C   0  0  0  0  0
   32.9360  -11.2700   12.8060 N   0  0  0  0  0
   31.6580  -11.2490   12.3840 C   0  0  0  0  0
   14.2401  -10.0663   -6.6527 H   0  0  0  0  0
   17.3258   -7.6239   -5.0639 H   0  0  0  0  0
   16.6282   -7.0955   -3.4447 H   0  0  0  0  0
   18.8135   -5.9030   -5.4414 H   0  0  0  0  0
   18.5316   -5.2025   -3.7891 H   0  0  0  0  0
   17.8593   -2.5842   -3.7263 H   0  0  0  0  0
   19.2380   -1.8834   -4.6580 H   0  0  0  0  0
   21.1848   -5.1585   -0.9895 H   0  0  0  0  0
   21.3667   -3.4525   -0.4987 H   0  0  0  0  0
   19.2627   -5.1026    0.8997 H   0  0  0  0  0
   20.2521   -3.7793    1.5303 H   0  0  0  0  0
   21.8761   -7.6963    3.8178 H   0  0  0  0  0
   22.7888   -7.5345    2.2768 H   0  0  0  0  0
   20.6154  -18.5626   -6.9445 H   0  0  0  0  0
   21.0095  -18.2510   -5.2361 H   0  0  0  0  0
   19.8173  -19.5038   -5.6607 H   0  0  0  0  0
   18.7212  -17.4547   -4.8410 H   0  0  0  0  0
   18.3218  -17.7704   -6.5724 H   0  0  0  0  0
   19.8276  -16.0901   -7.3004 H   0  0  0  0  0
   20.4712  -15.8736   -5.6122 H   0  0  0  0  0
   18.2135  -15.0592   -4.9488 H   0  0  0  0  0
   17.7357  -15.1099   -6.6795 H   0  0  0  0  0
   19.6334  -13.5405   -7.1866 H   0  0  0  0  0
   19.9195  -13.3975   -5.4045 H   0  0  0  0  0
   17.7138  -12.4070   -5.1014 H   0  0  0  0  0
   17.3428  -12.6320   -6.8509 H   0  0  0  0  0
   19.0316  -10.9982   -7.4808 H   0  0  0  0  0
   19.6114  -10.8767   -5.7757 H   0  0  0  0  0
   18.1298   -8.9413   -6.6050 H   0  0  0  0  0
   17.6015   -9.7439   -5.0904 H   0  0  0  0  0
   16.3062  -10.6590   -7.7953 H   0  0  0  0  0
   16.1661   -9.4930   -4.3017 H   0  0  0  0  0
   14.3711   -9.5261   -4.2314 H   0  0  0  0  0
   14.9856   -7.3952   -5.9497 H   0  0  0  0  0
   14.4467   -7.2767   -4.2405 H   0  0  0  0  0
   16.1830   -4.9550   -4.2478 H   0  0  0  0  0
   16.4129   -5.4459   -5.9543 H   0  0  0  0  0
   17.6547   -3.4434   -5.9478 H   0  0  0  0  0
   19.4052   -3.8264   -6.0342 H   0  0  0  0  0
   22.2212   -5.5115    1.2624 H   0  0  0  0  0
   21.8919   -9.4851    1.3954 H   0  0  0  0  0
   20.3833   -9.3370    2.3032 H   0  0  0  0  0
   21.4101  -10.4676    4.1503 H   0  0  0  0  0
   24.4281  -12.2686    3.8837 H   0  0  0  0  0
   23.3846  -12.3016    5.9630 H   0  0  0  0  0
   24.3517   -8.7129    4.9358 H   0  0  0  0  0
   23.8388   -9.5479    6.4226 H   0  0  0  0  0
   25.4905   -8.8952    6.2926 H   0  0  0  0  0
   26.7786  -11.4430    3.9368 H   0  0  0  0  0
   26.1535   -9.8508    3.4414 H   0  0  0  0  0
   27.1814   -9.9928    4.8886 H   0  0  0  0  0
   24.6818  -11.8520    6.9458 H   0  0  0  0  0
   26.3083  -11.2193    6.9319 H   0  0  0  0  0
   24.6001  -14.3923    7.4424 H   0  0  0  0  0
   25.8535  -15.7422    8.8865 H   0  0  0  0  0
   29.3485  -13.6320    9.3190 H   0  0  0  0  0
   29.1060  -15.3395    8.8544 H   0  0  0  0  0
   30.7108  -15.9602   10.2438 H   0  0  0  0  0
   31.8372  -13.6855   12.7922 H   0  0  0  0  0
   28.7946  -13.6877   12.6479 H   0  0  0  0  0
   29.0964  -14.9536   14.6031 H   0  0  0  0  0
   28.6501  -15.7643   12.1116 H   0  0  0  0  0
   32.1081  -18.5242   13.3303 H   0  0  0  0  0
   31.5953  -18.0072   10.9765 H   0  0  0  0  0
   28.7192  -12.1338   11.4166 H   0  0  0  0  0
   30.1956   -7.4958   11.8675 H   0  0  0  0  0
   31.6978   -6.7059   12.3582 H   0  0  0  0  0
   34.6271  -10.1854   13.3654 H   0  0  0  0  0
  1 20  2  0  0  0
 21  1  1  0  0  0
  2 22  1  0  0  0
 23  2  1  0  0  0
  3 23  1  0  0  0
 24  3  1  0  0  0
  4 24  1  0  0  0
 25  4  1  0  0  0
  6  5  1  0  0  0
  5 27  1  0  0  0
 28  6  1  0  0  0
  8  7  1  0  0  0
  7 28  1  0  0  0
  7 29  2  0  0  0
 30  8  1  0  0  0
  9 40  1  0  0  0
  9 41  1  0  0  0
  9 42  2  0  0  0
 43  9  1  0  0  0
 10 43  1  0  0  0
 10 44  1  0  0  0
 10 45  2  0  0  0
 46 10  1  0  0  0
 54 11  1  0  0  0
 11 55  1  0  0  0
 11 56  1  0  0  0
 11 57  2  0  0  0
 13 12  1  0  0  0
 14 13  1  0  0  0
 15 14  1  0  0  0
 16 15  1  0  0  0
 17 16  1  0  0  0
 18 17  1  0  0  0
 19 18  1  0  0  0
 20 19  1  0  0  0
 22 21  1  0  0  0
 25 26  2  0  0  0
 27 25  1  0  0  0
 31 30  1  0  0  0
 32 31  1  0  0  0
 32 33  2  0  0  0
 34 32  1  0  0  0
 34 35  1  0  0  0
 36 34  1  0  0  0
 36 37  1  0  0  0
 36 38  1  0  0  0
 39 36  1  0  0  0
 40 39  1  0  0  0
 47 46  1  0  0  0
 48 47  1  0  0  0
 48 49  1  0  0  0
 53 48  1  0  0  0
 50 49  1  0  0  0
 51 50  1  0  0  0
 50 58  1  0  0  0
 51 52  1  0  0  0
 53 51  1  0  0  0
 53 54  1  0  0  0
 58 59  4  0  0  0
 58 67  4  0  0  0
 59 60  4  0  0  0
 60 61  4  0  0  0
 61 62  4  0  0  0
 61 67  4  0  0  0
 62 63  1  0  0  0
 62 64  4  0  0  0
 64 65  4  0  0  0
 65 66  4  0  0  0
 66 67  4  0  0  0
  1 68  1  0  0  0
  2 69  1  0  0  0
  2 70  1  0  0  0
  3 71  1  0  0  0
  3 72  1  0  0  0
  4 73  1  0  0  0
  4 74  1  0  0  0
  5 75  1  0  0  0
  5 76  1  0  0  0
  6 77  1  0  0  0
  6 78  1  0  0  0
  8 79  1  0  0  0
  8 80  1  0  0  0
 12 81  1  0  0  0
 12 82  1  0  0  0
 12 83  1  0  0  0
 13 84  1  0  0  0
 13 85  1  0  0  0
 14 86  1  0  0  0
 14 87  1  0  0  0
 15 88  1  0  0  0
 15 89  1  0  0  0
 16 90  1  0  0  0
 16 91  1  0  0  0
 17 92  1  0  0  0
 17 93  1  0  0  0
 18 94  1  0  0  0
 18 95  1  0  0  0
 19 96  1  0  0  0
 19 97  1  0  0  0
 20 98  1  0  0  0
 21 99  1  0  0  0
 21100  1  0  0  0
 22101  1  0  0  0
 22102  1  0  0  0
 23103  1  0  0  0
 23104  1  0  0  0
 24105  1  0  0  0
 24106  1  0  0  0
 28107  1  0  0  0
 30108  1  0  0  0
 30109  1  0  0  0
 31110  1  0  0  0
 34111  1  0  0  0
 35112  1  0  0  0
 37113  1  0  0  0
 37114  1  0  0  0
 37115  1  0  0  0
 38116  1  0  0  0
 38117  1  0  0  0
 38118  1  0  0  0
 39119  1  0  0  0
 39120  1  0  0  0
 41121  1  0  0  0
 44122  1  0  0  0
 47123  1  0  0  0
 47124  1  0  0  0
 48125  1  0  0  0
 50126  1  0  0  0
 51127  1  0  0  0
 52128  1  0  0  0
 53129  1  0  0  0
 55130  1  0  0  0
 56131  1  0  0  0
 59132  1  0  0  0
 63133  1  0  0  0
 63134  1  0  0  0
 65135  1  0  0  0
M  END
$$$$
