3zcl_ligand
  -I-interpret- 

 42 45  0  0  0  0  0  0  0  0999 V2000
   20.2660   82.0660    1.6170 C   0  0  0  0  0
   19.6400   82.9450    2.6970 C   0  0  0  0  0
   18.7390   83.9990    2.0730 C   0  0  0  0  0
   18.8560   82.1120    3.6070 N   0  0  0  0  0
   18.6130   82.4170    4.9340 C   0  0  0  0  0
   17.9750   81.3380    5.7900 C   0  0  0  0  0
   17.7230   81.6030    7.0940 C   0  0  0  0  0
   18.0590   82.8750    7.6300 C   0  0  0  0  0
   17.9400   83.4130    8.8210 N   0  0  0  0  0
   18.4450   84.6960    8.7510 N   0  0  0  0  0
   18.8620   84.9140    7.5150 C   0  0  0  0  0
   19.4830   86.1620    6.9600 C   0  0  0  0  0
   18.8940   87.4150    7.6140 C   0  0  0  0  0
   20.9930   86.1060    7.1160 C   0  0  0  0  0
   21.7460   86.2200    8.2870 C   0  0  0  0  0
   23.0780   86.1120    7.9810 N   0  0  0  0  0
   23.2170   85.9280    6.6370 C   0  0  0  0  0
   24.4070   85.7810    5.9820 N   0  0  0  0  0
   24.2870   85.6090    4.6190 C   0  0  0  0  0
   23.0700   85.5790    3.9080 C   0  0  0  0  0
   21.8650   85.7380    4.6430 C   0  0  0  0  0
   21.9330   85.9190    6.0610 C   0  0  0  0  0
   18.6360   83.7850    6.7640 N   0  0  0  0  0
   18.9260   83.6050    5.4400 N   0  0  0  0  0
   20.9153   81.3255    2.0842 H   0  0  0  0  0
   19.4775   81.5599    1.0600 H   0  0  0  0  0
   20.8506   82.6872    0.9384 H   0  0  0  0  0
   20.4369   83.4466    3.2460 H   0  0  0  0  0
   17.9380   83.5089    1.5195 H   0  0  0  0  0
   18.3113   84.6211    2.8592 H   0  0  0  0  0
   19.3241   84.6198    1.3945 H   0  0  0  0  0
   18.4612   81.2468    3.2382 H   0  0  0  0  0
   17.7241   80.3671    5.3628 H   0  0  0  0  0
   17.2649   80.8445    7.7288 H   0  0  0  0  0
   19.2519   86.2215    5.8964 H   0  0  0  0  0
   17.8204   87.4494    7.4289 H   0  0  0  0  0
   19.0780   87.3834    8.6879 H   0  0  0  0  0
   19.3658   88.3010    7.1891 H   0  0  0  0  0
   21.3387   86.3710    9.2867 H   0  0  0  0  0
   25.2061   85.4865    4.0459 H   0  0  0  0  0
   23.0542   85.4381    2.8273 H   0  0  0  0  0
   20.9014   85.7224    4.1338 H   0  0  0  0  0
  1  2  1  0  0  0
  2  3  1  0  0  0
  2  4  1  0  0  0
  4  5  1  0  0  0
  5  6  4  0  0  0
  5 24  4  0  0  0
  6  7  4  0  0  0
  7  8  4  0  0  0
  8  9  4  0  0  0
  8 23  4  0  0  0
  9 10  4  0  0  0
 10 11  4  0  0  0
 11 12  1  0  0  0
 11 23  4  0  0  0
 12 13  1  0  0  0
 12 14  1  0  0  0
 14 15  4  0  0  0
 14 22  4  0  0  0
 15 16  4  0  0  0
 16 17  4  0  0  0
 17 18  4  0  0  0
 17 22  4  0  0  0
 18 19  4  0  0  0
 19 20  4  0  0  0
 20 21  4  0  0  0
 21 22  4  0  0  0
 23 24  4  0  0  0
  1 25  1  0  0  0
  1 26  1  0  0  0
  1 27  1  0  0  0
  2 28  1  0  0  0
  3 29  1  0  0  0
  3 30  1  0  0  0
  3 31  1  0  0  0
  4 32  1  0  0  0
  6 33  1  0  0  0
  7 34  1  0  0  0
 12 35  1  0  0  0
 13 36  1  0  0  0
 13 37  1  0  0  0
 13 38  1  0  0  0
 15 39  1  0  0  0
 19 40  1  0  0  0
 20 41  1  0  0  0
 21 42  1  0  0  0
M  END
$$$$
