2h03_ligand
  -I-interpret- 

 65 65  0  0  0  0  0  0  0  0999 V2000
   22.4760    4.6290   24.2290 N   0  0  0  0  0
   19.5270    1.7630   31.6650 O   0  0  0  0  0
   20.4130    2.5950   31.5110 C   0  0  0  0  0
   21.2760    2.8430   32.6380 O   0  0  0  0  0
   21.2000    2.0150   33.7980 C   0  0  0  0  0
   22.6080    1.6440   34.1970 C   0  0  0  0  0
   20.6550    3.3490   30.2220 C   0  0  0  0  0
   20.9270    4.8330   30.4910 C   0  0  0  0  0
   19.7780    5.6610   31.0800 C   0  0  0  0  0
   20.2060    7.0420   31.3380 N   0  0  0  0  0
   20.0610    8.1280   30.5670 C   0  0  0  0  0
   19.5320    8.0820   29.4670 O   0  0  0  0  0
   20.5370    9.4430   30.9980 O   0  0  0  0  0
   20.2510   10.6570   30.2850 C   0  0  0  0  0
   18.8420   10.6330   29.6990 C   0  0  0  0  0
   20.3310   11.8610   31.2230 C   0  0  0  0  0
   21.2850   10.8130   29.1670 C   0  0  0  0  0
   19.4450    3.1890   29.3380 C   0  0  0  0  0
   19.0260    1.8380   29.0280 O   0  0  0  0  0
   18.0140    1.6700   28.0200 C   0  0  0  0  0
   17.8430    0.1950   27.7590 C   0  0  0  0  0
   18.8300    4.1490   28.8910 O   0  0  0  0  0
   21.8490    2.6300   29.5480 C   0  0  0  0  0
   22.0220    3.1400   28.1240 C   0  0  0  0  0
   21.5080    2.4320   27.0280 C   0  0  0  0  0
   21.6700    2.9150   25.7180 C   0  0  0  0  0
   22.7030    4.3430   27.8980 C   0  0  0  0  0
   22.8510    4.8380   26.5940 C   0  0  0  0  0
   22.3350    4.1300   25.4950 C   0  0  0  0  0
   23.6760    4.1230   23.2510 S   0  0  0  0  0
   24.8500    4.7340   23.8970 O   0  0  0  0  0
   23.3030    4.7160   21.9520 O   0  0  0  0  0
   23.7460    2.6600   23.3720 O   0  0  0  0  0
   21.8174    5.3309   23.8914 H   0  0  0  0  0
   20.6197    1.1176   33.5836 H   0  0  0  0  0
   20.7057    2.5479   34.6102 H   0  0  0  0  0
   23.0860    1.1051   33.3790 H   0  0  0  0  0
   23.1729    2.5501   34.4161 H   0  0  0  0  0
   22.5780    1.0099   35.0830 H   0  0  0  0  0
   21.1421    5.2754   29.5183 H   0  0  0  0  0
   21.7219    4.8577   31.2364 H   0  0  0  0  0
   19.4668    5.2087   32.0216 H   0  0  0  0  0
   18.9550    5.6767   30.3654 H   0  0  0  0  0
   20.6796    7.1957   32.2282 H   0  0  0  0  0
   18.7510    9.7939   29.0093 H   0  0  0  0  0
   18.1165   10.5229   30.5050 H   0  0  0  0  0
   18.6558   11.5652   29.1657 H   0  0  0  0  0
   19.6045   11.7426   32.0269 H   0  0  0  0  0
   21.3341   11.9255   31.6446 H   0  0  0  0  0
   20.1113   12.7706   30.6641 H   0  0  0  0  0
   22.2836   10.8604   29.6014 H   0  0  0  0  0
   21.2209    9.9589   28.4928 H   0  0  0  0  0
   21.0842   11.7303   28.6136 H   0  0  0  0  0
   18.3122    2.1790   27.1034 H   0  0  0  0  0
   17.0724    2.1001   28.3613 H   0  0  0  0  0
   18.7881   -0.2234   27.4129 H   0  0  0  0  0
   17.5393   -0.3028   28.6799 H   0  0  0  0  0
   17.0783    0.0486   26.9961 H   0  0  0  0  0
   21.6572    1.5572   29.5255 H   0  0  0  0  0
   22.7576    2.8314   30.1155 H   0  0  0  0  0
   20.9761    1.4952   27.1941 H   0  0  0  0  0
   21.2788    2.3453   24.8751 H   0  0  0  0  0
   23.1198    4.8969   28.7392 H   0  0  0  0  0
   23.3717    5.7817   26.4313 H   0  0  0  0  0
   22.5329    4.2612   21.6032 H   0  0  0  0  0
 29  1  1  0  0  0
  1 30  1  0  0  0
  3  2  2  0  0  0
  3  4  1  0  0  0
  7  3  1  0  0  0
  4  5  1  0  0  0
  5  6  1  0  0  0
  7  8  1  0  0  0
  7 18  1  0  0  0
 23  7  1  0  0  0
  8  9  1  0  0  0
  9 10  1  0  0  0
 10 11  1  0  0  0
 11 12  2  0  0  0
 11 13  1  0  0  0
 13 14  1  0  0  0
 14 15  1  0  0  0
 14 16  1  0  0  0
 14 17  1  0  0  0
 18 19  1  0  0  0
 18 22  2  0  0  0
 19 20  1  0  0  0
 20 21  1  0  0  0
 24 23  1  0  0  0
 25 24  4  0  0  0
 24 27  4  0  0  0
 26 25  4  0  0  0
 26 29  4  0  0  0
 27 28  4  0  0  0
 28 29  4  0  0  0
 30 31  2  0  0  0
 30 32  1  0  0  0
 30 33  2  0  0  0
  1 34  1  0  0  0
  5 35  1  0  0  0
  5 36  1  0  0  0
  6 37  1  0  0  0
  6 38  1  0  0  0
  6 39  1  0  0  0
  8 40  1  0  0  0
  8 41  1  0  0  0
  9 42  1  0  0  0
  9 43  1  0  0  0
 10 44  1  0  0  0
 15 45  1  0  0  0
 15 46  1  0  0  0
 15 47  1  0  0  0
 16 48  1  0  0  0
 16 49  1  0  0  0
 16 50  1  0  0  0
 17 51  1  0  0  0
 17 52  1  0  0  0
 17 53  1  0  0  0
 20 54  1  0  0  0
 20 55  1  0  0  0
 21 56  1  0  0  0
 21 57  1  0  0  0
 21 58  1  0  0  0
 23 59  1  0  0  0
 23 60  1  0  0  0
 25 61  1  0  0  0
 26 62  1  0  0  0
 27 63  1  0  0  0
 28 64  1  0  0  0
 32 65  1  0  0  0
M  END
$$$$
