3ckp_ligand
  -I-interpret- 

 80 83  0  0  0  0  0  0  0  0999 V2000
   30.0980    7.4040   10.4860 C   0  0  0  0  0
   31.2330    7.8780   10.5790 O   0  0  0  0  0
   29.7600    6.1170   10.1350 N   0  0  0  0  0
   30.7170    5.0530    9.8010 C   0  0  0  0  0
   30.7750    4.0590   10.9900 C   0  0  0  0  0
   31.1350    4.7580   12.2880 C   0  0  0  0  0
   30.1780    4.8860   13.3290 C   0  0  0  0  0
   32.4210    5.3110   12.4870 C   0  0  0  0  0
   30.5090    5.5510   14.5360 C   0  0  0  0  0
   32.7480    5.9770   13.6930 C   0  0  0  0  0
   31.7900    6.0980   14.7190 C   0  0  0  0  0
   30.2980    4.3650    8.4910 C   0  0  0  0  0
   31.2340    3.3520    8.1920 O   0  0  0  0  0
   30.2440    5.3620    7.3470 C   0  0  0  0  0
   30.3100    4.7080    6.0210 N   0  3  0  0  0
   30.7520    5.5760    4.8970 C   0  0  0  0  0
   32.1790    6.0310    5.0800 C   0  0  0  0  0
   32.4880    7.3870    5.3740 C   0  0  0  0  0
   33.8310    7.7880    5.5590 C   0  0  0  0  0
   34.8710    6.8380    5.4520 C   0  0  0  0  0
   34.5820    5.4650    5.1540 C   0  0  0  0  0
   33.2270    5.0890    4.9730 C   0  0  0  0  0
   35.6070    4.5110    5.0460 N   0  0  0  0  0
   36.9770    4.8310    5.4710 C   0  0  0  0  0
   35.3430    3.1690    4.5060 C   0  0  0  0  0
   28.8850    8.2450   10.8020 C   0  0  0  0  0
   27.6720    7.6940   10.2230 N   0  0  0  0  0
   26.7350    8.1760   11.1400 C   0  0  0  0  0
   25.5470    8.0700   10.9060 O   0  0  0  0  0
   27.2330    8.7890   12.3170 N   0  0  0  0  0
   28.6070    8.3310   12.2940 C   0  0  0  0  0
   26.4440    8.5530   13.5670 C   0  0  0  0  0
   26.5700    7.2330   14.2980 C   0  0  0  0  0
   26.0010    6.0550   13.7610 C   0  0  0  0  0
   26.0970    4.8190   14.4290 C   0  0  0  0  0
   26.7840    4.7610   15.6760 C   0  0  0  0  0
   27.3580    5.9310   16.2310 C   0  0  0  0  0
   27.2510    7.1620   15.5460 C   0  0  0  0  0
   25.4910    3.7040   13.8250 O   0  0  0  0  0
   26.3930    2.7880   13.2400 C   0  0  0  0  0
   28.7676    5.8833   10.1043 H   0  0  0  0  0
   31.7143    5.4629    9.6411 H   0  0  0  0  0
   31.5409    3.3132   10.7774 H   0  0  0  0  0
   29.7913    3.6041   11.1060 H   0  0  0  0  0
   29.1794    4.4689   13.1987 H   0  0  0  0  0
   33.1711    5.2234   11.7010 H   0  0  0  0  0
   29.7648    5.6386   15.3275 H   0  0  0  0  0
   33.7445    6.3976   13.8281 H   0  0  0  0  0
   32.0407    6.6118   15.6471 H   0  0  0  0  0
   29.3029    3.9381    8.6164 H   0  0  0  0  0
   31.2660    2.7233    8.9168 H   0  0  0  0  0
   31.1044    6.0249    7.4380 H   0  0  0  0  0
   29.2962    5.8964    7.4114 H   0  0  0  0  0
   29.3609    4.4076    5.7988 H   0  0  0  0  0
   31.0015    3.9624    6.1001 H   0  0  0  0  0
   30.1096    6.4560    4.8663 H   0  0  0  0  0
   30.6875    5.0034    3.9718 H   0  0  0  0  0
   31.6862    8.1206    5.4571 H   0  0  0  0  0
   34.0637    8.8289    5.7839 H   0  0  0  0  0
   35.9046    7.1518    5.5975 H   0  0  0  0  0
   32.9882    4.0499    4.7462 H   0  0  0  0  0
   37.3486    5.6749    4.8898 H   0  0  0  0  0
   36.9765    5.0895    6.5299 H   0  0  0  0  0
   37.6184    3.9650    5.3074 H   0  0  0  0  0
   34.5974    2.6699    5.1249 H   0  0  0  0  0
   34.9704    3.2563    3.4854 H   0  0  0  0  0
   36.2662    2.5895    4.5088 H   0  0  0  0  0
   29.1235    9.2240   10.3863 H   0  0  0  0  0
   27.5422    7.1214    9.3889 H   0  0  0  0  0
   29.2921    8.9928   12.8239 H   0  0  0  0  0
   28.7565    7.3862   12.8167 H   0  0  0  0  0
   25.4032    8.5902   13.2455 H   0  0  0  0  0
   26.8196    9.2942   14.2725 H   0  0  0  0  0
   25.4756    6.1049   12.8073 H   0  0  0  0  0
   26.8682    3.8119   16.2053 H   0  0  0  0  0
   27.8817    5.8817   17.1856 H   0  0  0  0  0
   27.6920    8.0617   15.9752 H   0  0  0  0  0
   26.9699    3.2927   12.4651 H   0  0  0  0  0
   27.0677    2.4051   14.0057 H   0  0  0  0  0
   25.8351    1.9618   12.7993 H   0  0  0  0  0
  1  2  2  0  0  0
  1  3  1  0  0  0
  1 26  1  0  0  0
  3  4  1  0  0  0
  4  5  1  0  0  0
  4 12  1  0  0  0
  5  6  1  0  0  0
  6  7  4  0  0  0
  6  8  4  0  0  0
  7  9  4  0  0  0
  8 10  4  0  0  0
  9 11  4  0  0  0
 10 11  4  0  0  0
 12 13  1  0  0  0
 12 14  1  0  0  0
 14 15  1  0  0  0
 15 16  1  0  0  0
 16 17  1  0  0  0
 17 18  4  0  0  0
 17 22  4  0  0  0
 18 19  4  0  0  0
 19 20  4  0  0  0
 20 21  4  0  0  0
 21 22  4  0  0  0
 21 23  1  0  0  0
 23 24  1  0  0  0
 23 25  1  0  0  0
 26 27  1  0  0  0
 26 31  1  0  0  0
 27 28  1  0  0  0
 28 29  2  0  0  0
 28 30  1  0  0  0
 30 31  1  0  0  0
 30 32  1  0  0  0
 32 33  1  0  0  0
 33 34  4  0  0  0
 33 38  4  0  0  0
 34 35  4  0  0  0
 35 36  4  0  0  0
 35 39  1  0  0  0
 36 37  4  0  0  0
 37 38  4  0  0  0
 39 40  1  0  0  0
  3 41  1  0  0  0
  4 42  1  0  0  0
  5 43  1  0  0  0
  5 44  1  0  0  0
  7 45  1  0  0  0
  8 46  1  0  0  0
  9 47  1  0  0  0
 10 48  1  0  0  0
 11 49  1  0  0  0
 12 50  1  0  0  0
 13 51  1  0  0  0
 14 52  1  0  0  0
 14 53  1  0  0  0
 15 54  1  0  0  0
 15 55  1  0  0  0
 16 56  1  0  0  0
 16 57  1  0  0  0
 18 58  1  0  0  0
 19 59  1  0  0  0
 20 60  1  0  0  0
 22 61  1  0  0  0
 24 62  1  0  0  0
 24 63  1  0  0  0
 24 64  1  0  0  0
 25 65  1  0  0  0
 25 66  1  0  0  0
 25 67  1  0  0  0
 26 68  1  0  0  0
 27 69  1  0  0  0
 31 70  1  0  0  0
 31 71  1  0  0  0
 32 72  1  0  0  0
 32 73  1  0  0  0
 34 74  1  0  0  0
 36 75  1  0  0  0
 37 76  1  0  0  0
 38 77  1  0  0  0
 40 78  1  0  0  0
 40 79  1  0  0  0
 40 80  1  0  0  0
M  END
$$$$
