### 
### Created by X-TOOL on Mon Sep 10 21:12:52 2018
### 

@<TRIPOS>MOLECULE
1wvc_ligand
   41    42     1     0     0
SMALL
GAST_HUCK


@<TRIPOS>ATOM
      1 N1        -10.6710   31.2460   53.3900 N.am      1 CTP        -0.1649
      2 C2         -9.7220   30.7760   54.2750 C.2       1 CTP         0.2512
      3 N3         -8.7770   29.9640   53.7250 N.2       1 CTP        -0.2774
      4 C4         -8.6690   29.5710   52.4000 C.2       1 CTP         0.0850
      5 C5         -9.7040   30.1040   51.5870 C.2       1 CTP         0.0083
      6 C6        -10.6220   30.8970   52.0680 C.2       1 CTP         0.0795
      7 O2         -9.6860   31.0540   55.4540 O.2       1 CTP        -0.4066
      8 N4         -7.7500   28.8330   52.0660 N.pl3     1 CTP        -0.3156
      9 C1        -11.7580   32.1220   53.8490 C.3       1 CTP         0.2119
     10 C2        -11.5990   33.5590   53.4160 C.3       1 CTP         0.1409
     11 O2        -10.8410   34.2990   54.3800 O.3       1 CTP        -0.3834
     12 C3        -13.0470   34.0570   53.5130 C.3       1 CTP         0.1152
     13 C4        -13.8170   32.8450   53.0200 C.3       1 CTP         0.1191
     14 O4        -12.9760   31.6980   53.2730 O.3       1 CTP        -0.3345
     15 O3        -13.3750   34.4000   54.8700 O.3       1 CTP        -0.3864
     16 C5        -14.3160   32.8600   51.5960 C.3       1 CTP         0.1131
     17 O5        -13.2290   32.8310   50.6570 O.3       1 CTP        -0.2441
     18 PA        -13.3620   33.7110   49.3200 P.3       1 CTP         0.3266
     19 O1A       -13.6170   35.1270   49.5760 O.co2     1 CTP        -0.5692
     20 O2A       -14.3720   33.2210   48.3560 O.co2     1 CTP        -0.5692
     21 O3A       -11.8220   33.6000   48.7430 O.3       1 CTP        -0.1171
     22 PB        -10.5820   34.3910   49.2560 P.3       1 CTP         0.3553
     23 O1B        -9.5090   33.4810   49.7480 O.co2     1 CTP        -0.5652
     24 O2B       -11.0500   35.2360   50.4080 O.co2     1 CTP        -0.5652
     25 O3B        -9.9460   35.3660   48.1100 O.3       1 CTP        -0.1546
     26 PG        -10.1270   35.2020   46.4860 P.3       1 CTP         0.1879
     27 O1G       -10.9100   33.9790   46.1100 O.co2     1 CTP        -0.6091
     28 O2G        -8.7240   35.1010   45.9810 O.co2     1 CTP        -0.6091
     29 O3G       -10.7600   36.3910   45.8710 O.co2     1 CTP        -0.6091
     30 H1         -9.7326   29.8431   50.5301 H         1 CTP         0.0373
     31 H2        -11.3770   31.2957   51.3921 H         1 CTP         0.1328
     32 H3         -7.6599   28.5346   51.0843 H         1 CTP         0.1833
     33 H4         -7.0674   28.5109   52.7669 H         1 CTP         0.1833
     34 H5        -11.8135   32.0715   54.9464 H         1 CTP         0.1026
     35 H6        -11.1698   33.6525   52.4075 H         1 CTP         0.0678
     36 H7        -10.7529   35.1989   54.0887 H         1 CTP         0.2101
     37 H8        -13.2192   34.9284   52.8641 H         1 CTP         0.0648
     38 H9        -14.7132   32.7583   53.6519 H         1 CTP         0.0651
     39 H10       -13.1674   33.6684   55.4394 H         1 CTP         0.2100
     40 H11       -14.9047   33.7748   51.4331 H         1 CTP         0.0648
     41 H12       -14.9540   31.9792   51.4315 H         1 CTP         0.0648
@<TRIPOS>BOND
     1    1    2 am 
     2    1    6 1  
     3    1    9 1  
     4    2    3 1  
     5    2    7 2  
     6    3    4 2  
     7    4    5 1  
     8    4    8 1  
     9    5    6 2  
    10    9   10 1  
    11    9   14 1  
    12   10   11 1  
    13   10   12 1  
    14   12   13 1  
    15   12   15 1  
    16   13   14 1  
    17   13   16 1  
    18   16   17 1  
    19   17   18 1  
    20   18   19 ar 
    21   18   20 ar 
    22   18   21 1  
    23   21   22 1  
    24   22   23 ar 
    25   22   24 ar 
    26   22   25 1  
    27   25   26 1  
    28   26   27 ar 
    29   26   28 ar 
    30   26   29 ar 
    31    5   30 1  
    32    6   31 1  
    33    8   32 1  
    34    8   33 1  
    35    9   34 1  
    36   10   35 1  
    37   11   36 1  
    38   12   37 1  
    39   13   38 1  
    40   15   39 1  
    41   16   40 1  
    42   16   41 1  
@<TRIPOS>SUBSTRUCTURE
     1 CTP         1

