6gfz_ligand
  -I-interpret- 

 65 67  0  0  0  0  0  0  0  0999 V2000
   10.5180   56.5010   95.1370 C   0  0  0  0  0
   11.8370   55.9720   94.5370 C   0  0  0  0  0
   12.8730   56.6150   94.6550 O   0  0  0  0  0
   11.7350   54.7760   93.9420 N   0  0  0  0  0
   12.8340   54.0710   93.2700 C   0  0  0  0  0
   12.9640   52.6300   93.8150 C   0  0  0  0  0
   14.0560   51.8660   93.0180 C   0  0  0  0  0
   11.6480   51.8070   93.7330 C   0  0  0  0  0
   13.3390   52.7410   95.3020 C   0  0  0  0  0
   12.4810   54.1060   91.7620 C   0  0  0  0  0
   11.3140   53.9210   91.4370 O   0  0  0  0  0
   13.4510   54.4250   90.8590 N   0  0  0  0  0
   14.9130   54.7400   91.0480 C   0  0  0  0  0
   15.3080   55.6020   89.8240 C   0  0  0  0  0
   14.9660   56.9700   90.0230 O   0  0  0  0  0
   14.4790   54.9950   88.7400 C   0  0  0  0  0
   15.1710   53.8700   88.3150 F   0  0  0  0  0
   13.1280   54.5600   89.4040 C   0  0  0  0  0
   12.7370   53.3520   88.8410 C   0  0  0  0  0
   13.2050   52.3150   89.3140 O   0  0  0  0  0
   11.9850   53.4160   87.7020 N   0  0  0  0  0
   11.6380   52.1760   86.9780 C   0  0  0  0  0
   12.4400   52.0060   85.7830 C   0  0  0  0  0
   12.2980   50.8280   85.0270 C   0  0  0  0  0
   13.0510   50.5940   83.8660 C   0  0  0  0  0
   13.3910   52.9410   85.3280 C   0  0  0  0  0
   14.1330   52.6980   84.1530 C   0  0  0  0  0
   13.9800   51.5400   83.3860 C   0  0  0  0  0
   14.7390   51.3260   82.2780 C   0  0  0  0  0
   16.3740   51.7960   82.1010 S   0  0  0  0  0
   16.5900   51.1530   80.6040 C   0  0  0  0  0
   15.4540   50.5890   80.2180 N   0  0  0  0  0
   14.4460   50.6810   81.1200 C   0  0  0  0  0
   13.0970   50.0490   80.7650 C   0  0  0  0  0
   10.6313   56.6168   96.2149 H   0  0  0  0  0
   10.2781   57.4657   94.6899 H   0  0  0  0  0
    9.7158   55.7930   94.9287 H   0  0  0  0  0
   10.8229   54.3196   93.9569 H   0  0  0  0  0
   13.8031   54.5374   93.4474 H   0  0  0  0  0
   14.2001   50.8786   93.4566 H   0  0  0  0  0
   13.7401   51.7613   91.9800 H   0  0  0  0  0
   14.9916   52.4237   93.0599 H   0  0  0  0  0
   11.3506   51.7028   92.6896 H   0  0  0  0  0
   11.8106   50.8200   94.1661 H   0  0  0  0  0
   10.8632   52.3231   94.2861 H   0  0  0  0  0
   13.4445   51.7417   95.7244 H   0  0  0  0  0
   14.2821   53.2790   95.3984 H   0  0  0  0  0
   12.5554   53.2807   95.8337 H   0  0  0  0  0
   15.5137   53.8326   91.1098 H   0  0  0  0  0
   15.0913   55.2683   91.9846 H   0  0  0  0  0
   16.3779   55.6046   89.6157 H   0  0  0  0  0
   15.2221   57.4784   89.2500 H   0  0  0  0  0
   14.2894   55.6700   87.9054 H   0  0  0  0  0
   12.3078   55.2626   89.2566 H   0  0  0  0  0
   11.6637   54.3186   87.3522 H   0  0  0  0  0
   10.5908   52.2349   86.6815 H   0  0  0  0  0
   11.8260   51.3300   87.6391 H   0  0  0  0  0
   11.5814   50.0741   85.3529 H   0  0  0  0  0
   12.9145   49.6590   83.3226 H   0  0  0  0  0
   13.5549   53.8609   85.8893 H   0  0  0  0  0
   14.8569   53.4459   83.8294 H   0  0  0  0  0
   17.5131   51.1849   80.0252 H   0  0  0  0  0
   12.8543   49.2786   81.4969 H   0  0  0  0  0
   12.3237   50.8171   80.7742 H   0  0  0  0  0
   13.1562   49.6030   79.7722 H   0  0  0  0  0
  1  2  1  0  0  0
  2  3  2  0  0  0
  2  4  1  0  0  0
  4  5  1  0  0  0
  5  6  1  0  0  0
  5 10  1  0  0  0
  6  7  1  0  0  0
  6  8  1  0  0  0
  6  9  1  0  0  0
 10 11  2  0  0  0
 10 12  1  0  0  0
 12 13  1  0  0  0
 12 18  1  0  0  0
 13 14  1  0  0  0
 14 15  1  0  0  0
 14 16  1  0  0  0
 16 17  1  0  0  0
 16 18  1  0  0  0
 18 19  1  0  0  0
 19 20  2  0  0  0
 19 21  1  0  0  0
 21 22  1  0  0  0
 22 23  1  0  0  0
 23 24  4  0  0  0
 23 26  4  0  0  0
 24 25  4  0  0  0
 25 28  4  0  0  0
 26 27  4  0  0  0
 27 28  4  0  0  0
 28 29  1  0  0  0
 29 30  4  0  0  0
 29 33  4  0  0  0
 30 31  4  0  0  0
 31 32  4  0  0  0
 32 33  4  0  0  0
 33 34  1  0  0  0
  1 35  1  0  0  0
  1 36  1  0  0  0
  1 37  1  0  0  0
  4 38  1  0  0  0
  5 39  1  0  0  0
  7 40  1  0  0  0
  7 41  1  0  0  0
  7 42  1  0  0  0
  8 43  1  0  0  0
  8 44  1  0  0  0
  8 45  1  0  0  0
  9 46  1  0  0  0
  9 47  1  0  0  0
  9 48  1  0  0  0
 13 49  1  0  0  0
 13 50  1  0  0  0
 14 51  1  0  0  0
 15 52  1  0  0  0
 16 53  1  0  0  0
 18 54  1  0  0  0
 21 55  1  0  0  0
 22 56  1  0  0  0
 22 57  1  0  0  0
 24 58  1  0  0  0
 25 59  1  0  0  0
 26 60  1  0  0  0
 27 61  1  0  0  0
 31 62  1  0  0  0
 34 63  1  0  0  0
 34 64  1  0  0  0
 34 65  1  0  0  0
M  END
$$$$
