6s7s_ligand
  -I-interpret- 

 53 56  0  0  0  0  0  0  0  0999 V2000
  170.2760  -13.0350   31.3140 O   0  0  0  0  0
  172.0460   -7.1830   31.6390 C   0  0  0  0  0
  170.0720  -10.2320   32.0010 C   0  0  0  0  0
  165.8750   -9.9750   33.9070 O   0  0  0  0  0
  171.1830  -12.4240   31.8640 C   0  0  0  0  0
  172.2560  -15.5090   32.5190 N   0  0  0  0  0
  172.3960  -13.1440   32.4010 C   0  0  0  0  0
  172.5560  -14.4950   31.7830 C   0  0  0  0  0
  172.3800  -16.7500   31.9710 N   0  0  0  0  0
  172.7880  -17.0580   30.7060 C   0  0  0  0  0
  173.1250  -15.9140   29.8520 C   0  0  0  0  0
  173.5210  -16.0910   28.5200 C   0  0  0  0  0
  173.8140  -14.9800   27.7420 C   0  0  0  0  0
  165.9600  -11.7700   32.2150 N   0  0  0  0  0
  173.7270  -13.6890   28.2810 C   0  0  0  0  0
  173.3450  -13.5000   29.6050 C   0  0  0  0  0
  173.0270  -14.6150   30.3890 C   0  0  0  0  0
  166.0740  -10.1770   32.5100 S   0  0  0  0  0
  165.2130   -9.4850   31.6040 O   0  0  0  0  0
  166.1080  -12.2540   30.8730 C   0  0  0  0  0
  166.1810  -11.3750   29.7940 C   0  0  0  0  0
  166.4730  -11.8510   28.5220 C   0  0  0  0  0
  166.6960  -13.1970   28.3190 C   0  0  0  0  0
  166.6140  -14.0770   29.3900 C   0  0  0  0  0
  166.3190  -13.6120   30.6630 C   0  0  0  0  0
  167.7350   -9.7020   32.1190 C   0  0  0  0  0
  168.7460  -10.6490   32.1770 C   0  0  0  0  0
  170.3460   -8.8740   31.7730 C   0  0  0  0  0
  171.6710   -8.5660   31.6660 O   0  0  0  0  0
  169.3200   -7.9610   31.7000 C   0  0  0  0  0
  168.0100   -8.3730   31.8590 C   0  0  0  0  0
  171.1800  -11.0840   32.0690 N   0  0  0  0  0
  172.9120  -18.2230   30.3660 O   0  0  0  0  0
  171.5742   -6.6965   30.7853 H   0  0  0  0  0
  171.7185   -6.7010   32.5602 H   0  0  0  0  0
  173.1295   -7.1033   31.5511 H   0  0  0  0  0
  172.2716  -13.2710   33.4764 H   0  0  0  0  0
  173.2797  -12.5514   32.1642 H   0  0  0  0  0
  172.1410  -17.5372   32.5740 H   0  0  0  0  0
  173.5983  -17.0931   28.0982 H   0  0  0  0  0
  174.1144  -15.1124   26.7026 H   0  0  0  0  0
  165.7843  -12.4222   32.9793 H   0  0  0  0  0
  173.9606  -12.8261   27.6574 H   0  0  0  0  0
  173.2939  -12.4962   30.0267 H   0  0  0  0  0
  166.0083  -10.3099   29.9487 H   0  0  0  0  0
  166.5261  -11.1587   27.6818 H   0  0  0  0  0
  166.9355  -13.5681   27.3225 H   0  0  0  0  0
  166.7828  -15.1417   29.2290 H   0  0  0  0  0
  166.2527  -14.3102   31.4974 H   0  0  0  0  0
  168.5135  -11.6987   32.3562 H   0  0  0  0  0
  169.5404   -6.9095   31.5162 H   0  0  0  0  0
  167.1966   -7.6518   31.7795 H   0  0  0  0  0
  172.0762  -10.6531   32.2958 H   0  0  0  0  0
  5  1  2  0  0  0
 29  2  1  0  0  0
  3 27  4  0  0  0
 28  3  4  0  0  0
  3 32  1  0  0  0
 18  4  2  0  0  0
  5  7  1  0  0  0
 32  5  1  0  0  0
  8  6  2  0  0  0
  6  9  1  0  0  0
  7  8  1  0  0  0
  8 17  1  0  0  0
  9 10  1  0  0  0
 11 10  1  0  0  0
 10 33  2  0  0  0
 11 12  4  0  0  0
 17 11  4  0  0  0
 12 13  4  0  0  0
 15 13  4  0  0  0
 18 14  1  0  0  0
 14 20  1  0  0  0
 16 15  4  0  0  0
 17 16  4  0  0  0
 18 19  2  0  0  0
 26 18  1  0  0  0
 20 21  4  0  0  0
 20 25  4  0  0  0
 21 22  4  0  0  0
 22 23  4  0  0  0
 24 23  4  0  0  0
 25 24  4  0  0  0
 27 26  4  0  0  0
 26 31  4  0  0  0
 28 29  1  0  0  0
 28 30  4  0  0  0
 30 31  4  0  0  0
  2 34  1  0  0  0
  2 35  1  0  0  0
  2 36  1  0  0  0
  7 37  1  0  0  0
  7 38  1  0  0  0
  9 39  1  0  0  0
 12 40  1  0  0  0
 13 41  1  0  0  0
 14 42  1  0  0  0
 15 43  1  0  0  0
 16 44  1  0  0  0
 21 45  1  0  0  0
 22 46  1  0  0  0
 23 47  1  0  0  0
 24 48  1  0  0  0
 25 49  1  0  0  0
 27 50  1  0  0  0
 30 51  1  0  0  0
 31 52  1  0  0  0
 32 53  1  0  0  0
M  END
$$$$
