2n3k_ligand
  -I-interpret- 

315317  0  0  0  0  0  0  0  0999 V2000
   16.9850    3.8230   -4.0120 N   0  3  0  0  0
   15.6360    4.2050   -3.6150 C   0  0  0  0  0
   14.8670    3.0110   -3.0610 C   0  0  0  0  0
   15.4130    1.9150   -2.9330 O   0  0  0  0  0
   14.8510    4.8020   -4.7980 C   0  0  0  0  0
   15.6260    4.7070   -5.9990 O   0  0  0  0  0
   14.4950    6.2570   -4.5330 C   0  0  0  0  0
   13.5990    3.2300   -2.7350 N   0  0  0  0  0
   12.7550    2.1700   -2.1940 C   0  0  0  0  0
   12.4140    1.1440   -3.2690 C   0  0  0  0  0
   12.4240    1.4540   -4.4610 O   0  0  0  0  0
   11.4700    2.7610   -1.6100 C   0  0  0  0  0
   11.5590    3.0370   -0.1400 C   0  0  0  0  0
   12.2610    4.0410    0.4640 C   0  0  0  0  0
   10.9250    2.3000    0.9110 C   0  0  0  0  0
   12.1020    3.9710    1.8270 N   0  0  0  0  0
   11.2860    2.9130    2.1270 C   0  0  0  0  0
   10.0860    1.1830    0.9430 C   0  0  0  0  0
   10.8360    2.4440    3.3580 C   0  0  0  0  0
    9.6410    0.7180    2.1660 C   0  0  0  0  0
   10.0160    1.3480    3.3600 C   0  0  0  0  0
   12.1140   -0.0780   -2.8410 N   0  0  0  0  0
   11.7710   -1.1490   -3.7680 C   0  0  0  0  0
   10.4300   -1.7780   -3.4010 C   0  0  0  0  0
    9.8940   -1.5340   -2.3200 O   0  0  0  0  0
   12.8650   -2.2190   -3.7710 C   0  0  0  0  0
   12.8420   -3.1170   -2.5450 C   0  0  0  0  0
   14.0380   -4.0550   -2.5190 C   0  0  0  0  0
   13.8600   -5.1940   -3.4160 N   0  0  0  0  0
   14.7170   -6.2050   -3.5000 C   0  0  0  0  0
   15.8060   -6.2190   -2.7440 N   0  0  0  0  0
   14.4860   -7.2050   -4.3410 N   0  0  0  0  0
    9.8940   -2.5890   -4.3080 N   0  0  0  0  0
    8.6170   -3.2530   -4.0800 C   0  0  0  0  0
    8.5400   -4.5720   -4.8400 C   0  0  0  0  0
    9.0770   -4.6970   -5.9400 O   0  0  0  0  0
    7.4360   -2.3590   -4.5030 C   0  0  0  0  0
    6.1240   -3.1230   -4.3990 C   0  0  0  0  0
    7.3950   -1.0950   -3.6580 C   0  0  0  0  0
    7.8680   -5.5530   -4.2460 N   0  0  0  0  0
    7.7210   -6.8640   -4.8680 C   0  0  0  0  0
    6.5050   -7.5970   -4.3110 C   0  0  0  0  0
    6.4370   -7.8900   -3.1180 O   0  0  0  0  0
    8.9810   -7.7010   -4.6460 C   0  0  0  0  0
    9.4040   -7.7910   -3.1890 C   0  0  0  0  0
   10.7030   -7.0600   -2.9120 C   0  0  0  0  0
   11.5870   -6.9970   -3.7660 O   0  0  0  0  0
   10.8250   -6.5040   -1.7120 N   0  0  0  0  0
    5.5460   -7.8890   -5.1840 N   0  0  0  0  0
    4.3310   -8.5870   -4.7790 C   0  0  0  0  0
    4.6310  -10.0410   -4.4270 C   0  0  0  0  0
    5.7450  -10.5230   -4.6330 O   0  0  0  0  0
    3.2870   -8.5260   -5.8950 C   0  0  0  0  0
    3.0810   -7.1300   -6.4610 C   0  0  0  0  0
    3.7870   -6.9620   -7.7970 C   0  0  0  0  0
    2.8460   -6.9240   -8.9130 N   0  0  0  0  0
    3.1440   -6.4310  -10.1100 C   0  0  0  0  0
    4.3520   -5.9360  -10.3450 N   0  0  0  0  0
    2.2330   -6.4320  -11.0750 N   0  0  0  0  0
    3.6290  -10.7350   -3.8960 N   0  0  0  0  0
    3.7870  -12.1330   -3.5120 C   0  0  0  0  0
    2.6590  -12.9840   -4.0870 C   0  0  0  0  0
    1.8520  -12.5070   -4.8830 O   0  0  0  0  0
    3.8150  -12.2640   -1.9880 C   0  0  0  0  0
    4.6740  -13.3160   -1.5830 O   0  0  0  0  0
    2.6120  -14.2480   -3.6760 N   0  0  0  0  0
    1.5850  -15.1670   -4.1510 C   0  0  0  0  0
    0.1930  -14.6680   -3.7760 C   0  0  0  0  0
   -0.7860  -14.9590   -4.4610 O   0  0  0  0  0
    1.8120  -16.5630   -3.5700 C   0  0  0  0  0
    1.5850  -16.6420   -2.0690 C   0  0  0  0  0
    0.1410  -16.9320   -1.7110 C   0  0  0  0  0
   -0.6780  -17.2320   -2.5800 O   0  0  0  0  0
   -0.1800  -16.8430   -0.4260 N   0  0  0  0  0
    0.1140  -13.9150   -2.6830 N   0  0  0  0  0
   -1.1590  -13.3760   -2.2170 C   0  0  0  0  0
   -1.9310  -12.7350   -3.3650 C   0  0  0  0  0
   -1.3870  -12.4560   -4.4340 O   0  0  0  0  0
   -0.9250  -12.3490   -1.1080 C   0  0  0  0  0
   -1.3360  -12.8680    0.2570 C   0  0  0  0  0
   -2.2160  -12.3050    0.9080 O   0  0  0  0  0
   -0.6980  -13.9470    0.6960 N   0  0  0  0  0
   -3.2320  -12.4930   -3.1420 N   0  0  0  0  0
   -4.1070  -11.8800   -4.1450 C   0  0  0  0  0
   -3.7750  -10.4120   -4.3850 C   0  0  0  0  0
   -4.1590   -9.8360   -5.4040 O   0  0  0  0  0
   -5.5020  -12.0200   -3.5310 C   0  0  0  0  0
   -5.2640  -12.0940   -2.0620 C   0  0  0  0  0
   -3.9470  -12.7990   -1.8920 C   0  0  0  0  0
   -3.0600   -9.8100   -3.4410 N   0  0  0  0  0
   -2.6750   -8.4070   -3.5500 C   0  0  0  0  0
   -1.7940   -7.9910   -2.3770 C   0  0  0  0  0
   -2.1150   -7.0550   -1.6450 O   0  0  0  0  0
   -3.9200   -7.5190   -3.6060 C   0  0  0  0  0
   -3.8650   -6.3480   -4.5870 C   0  0  0  0  0
   -2.6990   -5.4290   -4.2560 C   0  0  0  0  0
   -3.7560   -6.8550   -6.0180 C   0  0  0  0  0
   -0.6780   -8.6920   -2.2040 N   0  0  0  0  0
    0.2530   -8.3950   -1.1220 C   0  0  0  0  0
    1.4830   -7.6620   -1.6490 C   0  0  0  0  0
    2.3830   -8.2740   -2.2250 O   0  0  0  0  0
    0.6790   -9.6860   -0.4190 C   0  0  0  0  0
    1.7220   -9.4730    0.6640 C   0  0  0  0  0
    2.2600  -10.7940    1.1880 C   0  0  0  0  0
    1.3610  -11.3720    2.2710 C   0  0  0  0  0
    2.1290  -12.1860    3.2530 N   0  3  0  0  0
    1.5140   -6.3490   -1.4470 N   0  0  0  0  0
    2.6340   -5.5330   -1.9000 C   0  0  0  0  0
    3.6850   -5.3860   -0.8040 C   0  0  0  0  0
    3.4310   -4.7750    0.2340 O   0  0  0  0  0
    2.1690   -4.1330   -2.3420 C   0  0  0  0  0
    0.8290   -4.2250   -3.0750 C   0  0  0  0  0
    3.2200   -3.4810   -3.2270 C   0  0  0  0  0
   -0.3660   -3.9760   -2.1830 C   0  0  0  0  0
    4.8650   -5.9470   -1.0450 N   0  0  0  0  0
    5.9550   -5.8770   -0.0790 C   0  0  0  0  0
    6.8770   -4.7000   -0.3830 C   0  0  0  0  0
    7.6540   -4.7380   -1.3380 O   0  0  0  0  0
    6.7550   -7.1810   -0.0850 C   0  0  0  0  0
    7.8300   -7.2410    0.9870 C   0  0  0  0  0
    7.6090   -8.4120    1.9320 C   0  0  0  0  0
    8.6560   -9.4230    1.8050 N   0  0  0  0  0
    8.6640  -10.3570    0.8610 C   0  0  0  0  0
    7.6880  -10.4090   -0.0340 N   0  0  0  0  0
    9.6510  -11.2420    0.8110 N   0  0  0  0  0
    6.7850   -3.6570    0.4330 N   0  0  0  0  0
    7.6110   -2.4680    0.2510 C   0  0  0  0  0
    8.8010   -2.4800    1.2060 C   0  0  0  0  0
    8.6600   -2.7960    2.3880 O   0  0  0  0  0
    6.7770   -1.2050    0.4730 C   0  0  0  0  0
    5.9100   -0.7580   -0.7040 C   0  0  0  0  0
    5.3610   -1.9630   -1.4510 C   0  0  0  0  0
    4.7770    0.1370   -0.2230 C   0  0  0  0  0
    9.9740   -2.1320    0.6860 N   0  0  0  0  0
   11.1880   -2.1010    1.4920 C   0  0  0  0  0
   12.1660   -1.0530    0.9730 C   0  0  0  0  0
   12.2490   -0.8100   -0.2310 O   0  0  0  0  0
   11.8860   -3.4740    1.5090 C   0  0  0  0  0
   12.4590   -3.7480    0.2260 O   0  0  0  0  0
   10.9030   -4.5760    1.8770 C   0  0  0  0  0
   12.9050   -0.4350    1.8880 N   0  0  0  0  0
   13.8780    0.5870    1.5220 C   0  0  0  0  0
   14.8030    0.0870    0.4170 C   0  0  0  0  0
   16.0220    0.2390    0.4980 O   0  0  0  0  0
   14.7010    0.9980    2.7440 C   0  0  0  0  0
   13.9590    1.9210    3.6970 C   0  0  0  0  0
   14.8290    2.3170    4.8790 C   0  0  0  0  0
   16.2440    2.3680    4.5250 N   0  0  0  0  0
   16.7870    3.3440    3.8060 C   0  0  0  0  0
   16.0370    4.3450    3.3670 N   0  0  0  0  0
   18.0840    3.3200    3.5240 N   0  0  0  0  0
   14.3490   -0.4780   -0.5780 O   0  0  0  0  0
   17.4769    3.4324   -3.2083 H   0  0  0  0  0
   16.9349    3.1247   -4.7538 H   0  0  0  0  0
   17.4842    4.6455   -4.3508 H   0  0  0  0  0
   15.7376    4.9612   -2.8366 H   0  0  0  0  0
   13.9281    4.2341   -4.9154 H   0  0  0  0  0
   15.8487    3.7877   -6.1629 H   0  0  0  0  0
   15.4098    6.8390   -4.4210 H   0  0  0  0  0
   13.9154    6.6462   -5.3701 H   0  0  0  0  0
   13.9056    6.3248   -3.6186 H   0  0  0  0  0
   13.2052    4.1618   -2.8659 H   0  0  0  0  0
   13.3089    1.6676   -1.4010 H   0  0  0  0  0
   10.6740    2.0318   -1.7606 H   0  0  0  0  0
   11.2859    3.7104   -2.1128 H   0  0  0  0  0
   12.8592    4.7877   -0.0583 H   0  0  0  0  0
    9.7877    0.6870    0.0194 H   0  0  0  0  0
   11.1265    2.9326    4.2880 H   0  0  0  0  0
    8.9873   -0.1535    2.2023 H   0  0  0  0  0
    9.6476    0.9578    4.3088 H   0  0  0  0  0
   12.1241   -0.2709   -1.8395 H   0  0  0  0  0
   11.6894   -0.7192   -4.7663 H   0  0  0  0  0
   13.8256   -1.7039   -3.7806 H   0  0  0  0  0
   12.7002   -2.8522   -4.6428 H   0  0  0  0  0
   11.9328   -3.7175   -2.5739 H   0  0  0  0  0
   12.8772   -2.4879   -1.6555 H   0  0  0  0  0
   14.1508   -4.4352   -1.5037 H   0  0  0  0  0
   14.9155   -3.4974   -2.8463 H   0  0  0  0  0
   13.0316   -5.2140   -4.0108 H   0  0  0  0  0
   15.9870   -5.4522   -2.0962 H   0  0  0  0  0
   15.1451   -7.9808   -4.4042 H   0  0  0  0  0
   13.6493   -7.1979   -4.9243 H   0  0  0  0  0
   10.3889   -2.7504   -5.1852 H   0  0  0  0  0
    8.5490   -3.4494   -3.0100 H   0  0  0  0  0
    7.5778   -2.0678   -5.5438 H   0  0  0  0  0
    6.1600   -3.9950   -5.0521 H   0  0  0  0  0
    5.9733   -3.4451   -3.3686 H   0  0  0  0  0
    5.3022   -2.4742   -4.7021 H   0  0  0  0  0
    7.2774   -1.3648   -2.6085 H   0  0  0  0  0
    8.3243   -0.5409   -3.7901 H   0  0  0  0  0
    6.5540   -0.4767   -3.9720 H   0  0  0  0  0
    7.4449   -5.3849   -3.3332 H   0  0  0  0  0
    7.5752   -6.7164   -5.9381 H   0  0  0  0  0
    9.7926   -7.2205   -5.1925 H   0  0  0  0  0
    8.7644   -8.7136   -4.9862 H   0  0  0  0  0
    9.5537   -8.8434   -2.9479 H   0  0  0  0  0
    8.6238   -7.3287   -2.5843 H   0  0  0  0  0
   11.6774   -5.9998   -1.4678 H   0  0  0  0  0
   10.0663   -6.5812   -1.0346 H   0  0  0  0  0
    5.6626   -7.6184   -6.1605 H   0  0  0  0  0
    3.9350   -8.0912   -3.8927 H   0  0  0  0  0
    2.3365   -8.8501   -5.4711 H   0  0  0  0  0
    3.6411   -9.1592   -6.7085 H   0  0  0  0  0
    3.4951   -6.4073   -5.7579 H   0  0  0  0  0
    2.0131   -6.9723   -6.6121 H   0  0  0  0  0
    4.4513   -7.8141   -7.9406 H   0  0  0  0  0
    4.3312   -6.0178   -7.7782 H   0  0  0  0  0
    1.9081   -7.2966   -8.7653 H   0  0  0  0  0
    5.0547   -5.9333   -9.6057 H   0  0  0  0  0
    2.4628   -6.0530  -11.9937 H   0  0  0  0  0
    1.3030   -6.8118  -10.8980 H   0  0  0  0  0
    2.7280  -10.2786   -3.7538 H   0  0  0  0  0
    4.7327  -12.4923   -3.9178 H   0  0  0  0  0
    2.8062  -12.4825   -1.6377 H   0  0  0  0  0
    4.1831  -11.3298   -1.5639 H   0  0  0  0  0
    4.6737  -13.3770   -0.6249 H   0  0  0  0  0
    3.3111  -14.5823   -3.0127 H   0  0  0  0  0
    1.6529  -15.2179   -5.2377 H   0  0  0  0  0
    2.8520  -16.8299   -3.7577 H   0  0  0  0  0
    1.0966  -17.2347   -4.0444 H   0  0  0  0  0
    1.8492  -15.6759   -1.6390 H   0  0  0  0  0
    2.1965  -17.4562   -1.6802 H   0  0  0  0  0
   -1.1373  -17.0264   -0.1256 H   0  0  0  0  0
    0.5307  -16.5912    0.2610 H   0  0  0  0  0
    0.9638  -13.7093   -2.1578 H   0  0  0  0  0
   -1.7517  -14.2005   -1.8206 H   0  0  0  0  0
   -1.5290  -11.4693   -1.3302 H   0  0  0  0  0
    0.1410  -12.1240   -1.0762 H   0  0  0  0  0
   -0.9311  -14.3419    1.6071 H   0  0  0  0  0
    0.0250  -14.3808    0.1220 H   0  0  0  0  0
   -4.0056  -12.3564   -5.1201 H   0  0  0  0  0
   -6.0231  -12.9021   -3.9031 H   0  0  0  0  0
   -6.1485  -11.1835   -3.7962 H   0  0  0  0  0
   -6.0677  -12.6308   -1.5579 H   0  0  0  0  0
   -5.2410  -11.1003   -1.6147 H   0  0  0  0  0
   -3.4048  -12.4654   -1.0072 H   0  0  0  0  0
   -4.0638  -13.8703   -1.7280 H   0  0  0  0  0
   -2.7730  -10.3420   -2.6194 H   0  0  0  0  0
   -2.1051   -8.2832   -4.4708 H   0  0  0  0  0
   -4.0287   -7.0817   -2.6135 H   0  0  0  0  0
   -4.7373   -8.1588   -3.9389 H   0  0  0  0  0
   -4.7892   -5.7777   -4.4939 H   0  0  0  0  0
   -2.8208   -5.0393   -3.2454 H   0  0  0  0  0
   -1.7665   -5.9896   -4.3207 H   0  0  0  0  0
   -2.6772   -4.6019   -4.9656 H   0  0  0  0  0
   -2.8480   -7.4487   -6.1236 H   0  0  0  0  0
   -4.6241   -7.4718   -6.2507 H   0  0  0  0  0
   -3.7181   -6.0063   -6.7009 H   0  0  0  0  0
   -0.4675   -9.4573   -2.8446 H   0  0  0  0  0
   -0.2552   -7.7490   -0.4061 H   0  0  0  0  0
    1.1193  -10.3386   -1.1729 H   0  0  0  0  0
   -0.2066  -10.1057    0.0582 H   0  0  0  0  0
    1.2558   -8.9379    1.4913 H   0  0  0  0  0
    2.5509   -8.9076    0.2381 H   0  0  0  0  0
    3.2473  -10.6194    1.6156 H   0  0  0  0  0
    2.3026  -11.5021    0.3604 H   0  0  0  0  0
    0.6230  -12.0174    1.7946 H   0  0  0  0  0
    0.8927  -10.5448    2.8043 H   0  0  0  0  0
    1.4922  -12.5540    3.9597 H   0  0  0  0  0
    2.5851  -12.9593    2.7689 H   0  0  0  0  0
    2.8340  -11.6004    3.7007 H   0  0  0  0  0
    0.7355   -5.9013   -0.9634 H   0  0  0  0  0
    3.0733   -6.0466   -2.7551 H   0  0  0  0  0
    2.0346   -3.5137   -1.4552 H   0  0  0  0  0
    0.7393   -5.2382   -3.4669 H   0  0  0  0  0
    0.8257   -3.4569   -3.8484 H   0  0  0  0  0
    4.1533   -3.3872   -2.6717 H   0  0  0  0  0
    3.3821   -4.0977   -4.1110 H   0  0  0  0  0
    2.8752   -2.4924   -3.5303 H   0  0  0  0  0
   -0.3804   -4.7154   -1.3823 H   0  0  0  0  0
   -0.2961   -2.9761   -1.7548 H   0  0  0  0  0
   -1.2801   -4.0576   -2.7711 H   0  0  0  0  0
    5.0119   -6.4383   -1.9267 H   0  0  0  0  0
    5.5212   -5.7297    0.9100 H   0  0  0  0  0
    7.2534   -7.2539   -1.0516 H   0  0  0  0  0
    6.0554   -7.9942    0.1083 H   0  0  0  0  0
    7.7927   -6.3181    1.5658 H   0  0  0  0  0
    8.7969   -7.3677    0.5000 H   0  0  0  0  0
    6.6549   -8.8762    1.6822 H   0  0  0  0  0
    7.6235   -8.0328    2.9538 H   0  0  0  0  0
    9.4224   -9.4108    2.4779 H   0  0  0  0  0
    6.9274   -9.7303    0.0008 H   0  0  0  0  0
    9.6568  -11.9590    0.0856 H   0  0  0  0  0
   10.4041  -11.2054    1.4980 H   0  0  0  0  0
    6.1205   -3.6875    1.2063 H   0  0  0  0  0
    7.9892   -2.4713   -0.7713 H   0  0  0  0  0
    7.4867   -0.3978    0.6539 H   0  0  0  0  0
    6.0912   -1.4310    1.2895 H   0  0  0  0  0
    6.5319   -0.1840   -1.3909 H   0  0  0  0  0
    6.1890   -2.5628   -1.8288 H   0  0  0  0  0
    4.7550   -2.5640   -0.7730 H   0  0  0  0  0
    4.7468   -1.6231   -2.2848 H   0  0  0  0  0
    4.1570   -0.4128    0.4851 H   0  0  0  0  0
    5.1938    1.0181    0.2648 H   0  0  0  0  0
    4.1715    0.4444   -1.0757 H   0  0  0  0  0
   10.0257   -1.8805   -0.3012 H   0  0  0  0  0
   10.8869   -1.8419    2.5070 H   0  0  0  0  0
   12.6751   -3.4467    2.2604 H   0  0  0  0  0
   12.8914   -4.6049    0.2463 H   0  0  0  0  0
   10.4914   -4.3783    2.8667 H   0  0  0  0  0
   10.0960   -4.6007    1.1447 H   0  0  0  0  0
   11.4201   -5.5355    1.8822 H   0  0  0  0  0
   12.7887   -0.6817    2.8708 H   0  0  0  0  0
   13.3333    1.4549    1.1503 H   0  0  0  0  0
   16.2332    0.6903    1.3185 H   0  0  0  0  0
   15.5757    1.5381    2.3816 H   0  0  0  0  0
   14.9448    0.0890    3.2939 H   0  0  0  0  0
   13.0821    1.3951    4.0745 H   0  0  0  0  0
   13.6801    2.8248    3.1553 H   0  0  0  0  0
   14.7006    1.5694    5.6618 H   0  0  0  0  0
   14.5244    3.3105    5.2082 H   0  0  0  0  0
   16.8491    1.6128    4.8474 H   0  0  0  0  0
   15.0400    4.3673    3.5811 H   0  0  0  0  0
   18.4998    4.0699    2.9715 H   0  0  0  0  0
   18.6648    2.5517    3.8598 H   0  0  0  0  0
  1  2  1  0  0  0
  2  3  1  0  0  0
  2  5  1  0  0  0
  3  4  2  0  0  0
  3  8  1  0  0  0
  5  6  1  0  0  0
  5  7  1  0  0  0
  8  9  1  0  0  0
  9 10  1  0  0  0
  9 12  1  0  0  0
 10 11  2  0  0  0
 10 22  1  0  0  0
 12 13  1  0  0  0
 13 14  4  0  0  0
 13 15  4  0  0  0
 14 16  4  0  0  0
 15 17  4  0  0  0
 15 18  4  0  0  0
 16 17  4  0  0  0
 17 19  4  0  0  0
 18 20  4  0  0  0
 19 21  4  0  0  0
 20 21  4  0  0  0
 22 23  1  0  0  0
 23 24  1  0  0  0
 23 26  1  0  0  0
 24 25  2  0  0  0
 24 33  1  0  0  0
 26 27  1  0  0  0
 27 28  1  0  0  0
 28 29  1  0  0  0
 29 30  1  0  0  0
 30 31  2  0  0  0
 30 32  1  0  0  0
 33 34  1  0  0  0
 34 35  1  0  0  0
 34 37  1  0  0  0
 35 36  2  0  0  0
 35 40  1  0  0  0
 37 38  1  0  0  0
 37 39  1  0  0  0
 40 41  1  0  0  0
 41 42  1  0  0  0
 41 44  1  0  0  0
 42 43  2  0  0  0
 42 49  1  0  0  0
 44 45  1  0  0  0
 45 46  1  0  0  0
 46 47  2  0  0  0
 46 48  1  0  0  0
 49 50  1  0  0  0
 50 51  1  0  0  0
 50 53  1  0  0  0
 51 52  2  0  0  0
 51 60  1  0  0  0
 53 54  1  0  0  0
 54 55  1  0  0  0
 55 56  1  0  0  0
 56 57  1  0  0  0
 57 58  2  0  0  0
 57 59  1  0  0  0
 60 61  1  0  0  0
 61 62  1  0  0  0
 61 64  1  0  0  0
 62 63  2  0  0  0
 62 66  1  0  0  0
 64 65  1  0  0  0
 66 67  1  0  0  0
 67 68  1  0  0  0
 67 70  1  0  0  0
 68 69  2  0  0  0
 68 75  1  0  0  0
 70 71  1  0  0  0
 71 72  1  0  0  0
 72 73  2  0  0  0
 72 74  1  0  0  0
 75 76  1  0  0  0
 76 77  1  0  0  0
 76 79  1  0  0  0
 77 78  2  0  0  0
 77 83  1  0  0  0
 79 80  1  0  0  0
 80 81  2  0  0  0
 80 82  1  0  0  0
 83 84  1  0  0  0
 83 89  1  0  0  0
 84 85  1  0  0  0
 84 87  1  0  0  0
 85 86  2  0  0  0
 85 90  1  0  0  0
 87 88  1  0  0  0
 88 89  1  0  0  0
 90 91  1  0  0  0
 91 92  1  0  0  0
 91 94  1  0  0  0
 92 93  2  0  0  0
 92 98  1  0  0  0
 94 95  1  0  0  0
 95 96  1  0  0  0
 95 97  1  0  0  0
 98 99  1  0  0  0
 99100  1  0  0  0
 99102  1  0  0  0
100101  2  0  0  0
100107  1  0  0  0
102103  1  0  0  0
103104  1  0  0  0
104105  1  0  0  0
105106  1  0  0  0
107108  1  0  0  0
108109  1  0  0  0
108111  1  0  0  0
109110  2  0  0  0
109115  1  0  0  0
111112  1  0  0  0
111113  1  0  0  0
112114  1  0  0  0
115116  1  0  0  0
116117  1  0  0  0
116119  1  0  0  0
117118  2  0  0  0
117126  1  0  0  0
119120  1  0  0  0
120121  1  0  0  0
121122  1  0  0  0
122123  1  0  0  0
123124  2  0  0  0
123125  1  0  0  0
126127  1  0  0  0
127128  1  0  0  0
127130  1  0  0  0
128129  2  0  0  0
128134  1  0  0  0
130131  1  0  0  0
131132  1  0  0  0
131133  1  0  0  0
134135  1  0  0  0
135136  1  0  0  0
135138  1  0  0  0
136137  2  0  0  0
136141  1  0  0  0
138139  1  0  0  0
138140  1  0  0  0
141142  1  0  0  0
142143  1  0  0  0
142145  1  0  0  0
143144  1  0  0  0
143152  2  0  0  0
145146  1  0  0  0
146147  1  0  0  0
147148  1  0  0  0
148149  1  0  0  0
149150  2  0  0  0
149151  1  0  0  0
  1153  1  0  0  0
  1154  1  0  0  0
  1155  1  0  0  0
  2156  1  0  0  0
  5157  1  0  0  0
  6158  1  0  0  0
  7159  1  0  0  0
  7160  1  0  0  0
  7161  1  0  0  0
  8162  1  0  0  0
  9163  1  0  0  0
 12164  1  0  0  0
 12165  1  0  0  0
 14166  1  0  0  0
 18167  1  0  0  0
 19168  1  0  0  0
 20169  1  0  0  0
 21170  1  0  0  0
 22171  1  0  0  0
 23172  1  0  0  0
 26173  1  0  0  0
 26174  1  0  0  0
 27175  1  0  0  0
 27176  1  0  0  0
 28177  1  0  0  0
 28178  1  0  0  0
 29179  1  0  0  0
 31180  1  0  0  0
 32181  1  0  0  0
 32182  1  0  0  0
 33183  1  0  0  0
 34184  1  0  0  0
 37185  1  0  0  0
 38186  1  0  0  0
 38187  1  0  0  0
 38188  1  0  0  0
 39189  1  0  0  0
 39190  1  0  0  0
 39191  1  0  0  0
 40192  1  0  0  0
 41193  1  0  0  0
 44194  1  0  0  0
 44195  1  0  0  0
 45196  1  0  0  0
 45197  1  0  0  0
 48198  1  0  0  0
 48199  1  0  0  0
 49200  1  0  0  0
 50201  1  0  0  0
 53202  1  0  0  0
 53203  1  0  0  0
 54204  1  0  0  0
 54205  1  0  0  0
 55206  1  0  0  0
 55207  1  0  0  0
 56208  1  0  0  0
 58209  1  0  0  0
 59210  1  0  0  0
 59211  1  0  0  0
 60212  1  0  0  0
 61213  1  0  0  0
 64214  1  0  0  0
 64215  1  0  0  0
 65216  1  0  0  0
 66217  1  0  0  0
 67218  1  0  0  0
 70219  1  0  0  0
 70220  1  0  0  0
 71221  1  0  0  0
 71222  1  0  0  0
 74223  1  0  0  0
 74224  1  0  0  0
 75225  1  0  0  0
 76226  1  0  0  0
 79227  1  0  0  0
 79228  1  0  0  0
 82229  1  0  0  0
 82230  1  0  0  0
 84231  1  0  0  0
 87232  1  0  0  0
 87233  1  0  0  0
 88234  1  0  0  0
 88235  1  0  0  0
 89236  1  0  0  0
 89237  1  0  0  0
 90238  1  0  0  0
 91239  1  0  0  0
 94240  1  0  0  0
 94241  1  0  0  0
 95242  1  0  0  0
 96243  1  0  0  0
 96244  1  0  0  0
 96245  1  0  0  0
 97246  1  0  0  0
 97247  1  0  0  0
 97248  1  0  0  0
 98249  1  0  0  0
 99250  1  0  0  0
102251  1  0  0  0
102252  1  0  0  0
103253  1  0  0  0
103254  1  0  0  0
104255  1  0  0  0
104256  1  0  0  0
105257  1  0  0  0
105258  1  0  0  0
106259  1  0  0  0
106260  1  0  0  0
106261  1  0  0  0
107262  1  0  0  0
108263  1  0  0  0
111264  1  0  0  0
112265  1  0  0  0
112266  1  0  0  0
113267  1  0  0  0
113268  1  0  0  0
113269  1  0  0  0
114270  1  0  0  0
114271  1  0  0  0
114272  1  0  0  0
115273  1  0  0  0
116274  1  0  0  0
119275  1  0  0  0
119276  1  0  0  0
120277  1  0  0  0
120278  1  0  0  0
121279  1  0  0  0
121280  1  0  0  0
122281  1  0  0  0
124282  1  0  0  0
125283  1  0  0  0
125284  1  0  0  0
126285  1  0  0  0
127286  1  0  0  0
130287  1  0  0  0
130288  1  0  0  0
131289  1  0  0  0
132290  1  0  0  0
132291  1  0  0  0
132292  1  0  0  0
133293  1  0  0  0
133294  1  0  0  0
133295  1  0  0  0
134296  1  0  0  0
135297  1  0  0  0
138298  1  0  0  0
139299  1  0  0  0
140300  1  0  0  0
140301  1  0  0  0
140302  1  0  0  0
141303  1  0  0  0
142304  1  0  0  0
144305  1  0  0  0
145306  1  0  0  0
145307  1  0  0  0
146308  1  0  0  0
146309  1  0  0  0
147310  1  0  0  0
147311  1  0  0  0
148312  1  0  0  0
150313  1  0  0  0
151314  1  0  0  0
151315  1  0  0  0
M  END
$$$$
