### 
### Created by X-TOOL on Mon Sep 10 21:13:30 2018
### 

@<TRIPOS>MOLECULE
2n3k_ligand
  319   321     1     0     0
SMALL
GAST_HUCK


@<TRIPOS>ATOM
      1 N          16.9850    3.8230   -4.0120 N.4       1 THR         0.2398
      2 CA         15.6360    4.2050   -3.6150 C.3       1 THR         0.0910
      3 C          14.8670    3.0110   -3.0610 C.2       1 THR         0.2293
      4 O          15.4130    1.9150   -2.9330 O.2       1 THR        -0.3906
      5 CB         14.8510    4.8020   -4.7980 C.3       1 THR         0.1120
      6 OG1        15.6260    4.7070   -5.9990 O.3       1 THR        -0.3840
      7 CG2        14.4950    6.2570   -4.5330 C.3       1 THR        -0.0314
      8 N          13.5990    3.2300   -2.7350 N.am      1 TRP        -0.2599
      9 CA         12.7550    2.1700   -2.1940 C.3       1 TRP         0.1353
     10 C          12.4140    1.1440   -3.2690 C.2       1 TRP         0.2052
     11 O          12.4240    1.4540   -4.4610 O.2       1 TRP        -0.3942
     12 CB         11.4700    2.7610   -1.6100 C.3       1 TRP         0.0042
     13 CG         11.5590    3.0370   -0.1400 C.2       1 TRP        -0.0418
     14 CD1        12.2610    4.0410    0.4640 C.2       1 TRP         0.0167
     15 CD2        10.9250    2.3000    0.9110 C.ar      1 TRP        -0.0214
     16 NE1        12.1020    3.9710    1.8270 N.pl3     1 TRP        -0.2890
     17 CE2        11.2860    2.9130    2.1270 C.ar      1 TRP         0.0603
     18 CE3        10.0860    1.1830    0.9430 C.ar      1 TRP        -0.0747
     19 CZ2        10.8360    2.4440    3.3580 C.ar      1 TRP        -0.0443
     20 CZ3         9.6410    0.7180    2.1660 C.ar      1 TRP        -0.0792
     21 CH2        10.0160    1.3480    3.3600 C.ar      1 TRP        -0.0768
     22 N          12.1140   -0.0780   -2.8410 N.am      1 ARG        -0.2636
     23 CA         11.7710   -1.1490   -3.7680 C.3       1 ARG         0.1311
     24 C          10.4300   -1.7780   -3.4010 C.2       1 ARG         0.2039
     25 O           9.8940   -1.5340   -2.3200 O.2       1 ARG        -0.3944
     26 CB         12.8650   -2.2190   -3.7710 C.3       1 ARG        -0.0092
     27 CG         12.8420   -3.1170   -2.5450 C.3       1 ARG        -0.0156
     28 CD         14.0380   -4.0550   -2.5190 C.3       1 ARG         0.0627
     29 NE         13.8600   -5.1940   -3.4160 N.pl3     1 ARG        -0.2723
     30 CZ         14.7170   -6.2050   -3.5000 C.cat     1 ARG         0.2882
     31 NH1        15.8060   -6.2190   -2.7440 N.pl3     1 ARG        -0.2849
     32 NH2        14.4860   -7.2050   -4.3410 N.pl3     1 ARG        -0.2849
     33 N           9.8940   -2.5890   -4.3080 N.am      1 VAL        -0.2635
     34 CA          8.6170   -3.2530   -4.0800 C.3       1 VAL         0.1332
     35 C           8.5400   -4.5720   -4.8400 C.2       1 VAL         0.2042
     36 O           9.0770   -4.6970   -5.9400 O.2       1 VAL        -0.3944
     37 CB          7.4360   -2.3590   -4.5030 C.3       1 VAL        -0.0063
     38 CG1         6.1240   -3.1230   -4.3990 C.3       1 VAL        -0.0584
     39 CG2         7.3950   -1.0950   -3.6580 C.3       1 VAL        -0.0584
     40 N           7.8680   -5.5530   -4.2460 N.am      1 GLN        -0.2636
     41 CA          7.7210   -6.8640   -4.8680 C.3       1 GLN         0.1330
     42 C           6.5050   -7.5970   -4.3110 C.2       1 GLN         0.2040
     43 O           6.4370   -7.8900   -3.1180 O.2       1 GLN        -0.3944
     44 CB          8.9810   -7.7010   -4.6460 C.3       1 GLN         0.0045
     45 CG          9.4040   -7.7910   -3.1890 C.3       1 GLN         0.0412
     46 CD         10.7030   -7.0600   -2.9120 C.2       1 GLN         0.1737
     47 OE1        11.5870   -6.9970   -3.7660 O.2       1 GLN        -0.3973
     48 NE2        10.8250   -6.5040   -1.7120 N.am      1 GLN        -0.3009
     49 N           5.5460   -7.8890   -5.1840 N.am      1 ARG        -0.2637
     50 CA          4.3310   -8.5870   -4.7790 C.3       1 ARG         0.1311
     51 C           4.6310  -10.0410   -4.4270 C.2       1 ARG         0.2040
     52 O           5.7450  -10.5230   -4.6330 O.2       1 ARG        -0.3944
     53 CB          3.2870   -8.5260   -5.8950 C.3       1 ARG        -0.0092
     54 CG          3.0810   -7.1300   -6.4610 C.3       1 ARG        -0.0156
     55 CD          3.7870   -6.9620   -7.7970 C.3       1 ARG         0.0627
     56 NE          2.8460   -6.9240   -8.9130 N.pl3     1 ARG        -0.2723
     57 CZ          3.1440   -6.4310  -10.1100 C.cat     1 ARG         0.2882
     58 NH1         4.3520   -5.9360  -10.3450 N.pl3     1 ARG        -0.2849
     59 NH2         2.2330   -6.4320  -11.0750 N.pl3     1 ARG        -0.2849
     60 N           3.6290  -10.7350   -3.8960 N.am      1 SER        -0.2616
     61 CA          3.7870  -12.1330   -3.5120 C.3       1 SER         0.1539
     62 C           2.6590  -12.9840   -4.0870 C.2       1 SER         0.2062
     63 O           1.8520  -12.5070   -4.8830 O.2       1 SER        -0.3943
     64 CB          3.8150  -12.2640   -1.9880 C.3       1 SER         0.0843
     65 OG          4.6740  -13.3160   -1.5830 O.3       1 SER        -0.3903
     66 N           2.6120  -14.2480   -3.6760 N.am      1 GLN        -0.2635
     67 CA          1.5850  -15.1670   -4.1510 C.3       1 GLN         0.1330
     68 C           0.1930  -14.6680   -3.7760 C.2       1 GLN         0.2042
     69 O          -0.7860  -14.9590   -4.4610 O.2       1 GLN        -0.3944
     70 CB          1.8120  -16.5630   -3.5700 C.3       1 GLN         0.0045
     71 CG          1.5850  -16.6420   -2.0690 C.3       1 GLN         0.0412
     72 CD          0.1410  -16.9320   -1.7110 C.2       1 GLN         0.1737
     73 OE1        -0.6780  -17.2320   -2.5800 O.2       1 GLN        -0.3973
     74 NE2        -0.1800  -16.8430   -0.4260 N.am      1 GLN        -0.3009
     75 N           0.1140  -13.9150   -2.6830 N.am      1 ASN        -0.2616
     76 CA         -1.1590  -13.3760   -2.2170 C.3       1 ASN         0.1478
     77 C          -1.9310  -12.7350   -3.3650 C.2       1 ASN         0.2088
     78 O          -1.3870  -12.4560   -4.4340 O.2       1 ASN        -0.3940
     79 CB         -0.9250  -12.3490   -1.1080 C.3       1 ASN         0.0773
     80 CG         -1.3360  -12.8680    0.2570 C.2       1 ASN         0.1780
     81 OD1        -2.2160  -12.3050    0.9080 O.2       1 ASN        -0.3970
     82 ND2        -0.6980  -13.9470    0.6960 N.am      1 ASN        -0.3007
     83 N          -3.2320  -12.4930   -3.1420 N.am      1 PRO        -0.2497
     84 CA         -4.1070  -11.8800   -4.1450 C.3       1 PRO         0.1338
     85 C          -3.7750  -10.4120   -4.3850 C.2       1 PRO         0.2041
     86 O          -4.1590   -9.8360   -5.4040 O.2       1 PRO        -0.3944
     87 CB         -5.5020  -12.0200   -3.5310 C.3       1 PRO        -0.0104
     88 CG         -5.2640  -12.0940   -2.0620 C.3       1 PRO        -0.0281
     89 CD         -3.9470  -12.7990   -1.8920 C.3       1 PRO         0.0369
     90 N          -3.0600   -9.8100   -3.4410 N.am      1 LEU        -0.2637
     91 CA         -2.6750   -8.4070   -3.5500 C.3       1 LEU         0.1312
     92 C          -1.7940   -7.9910   -2.3770 C.2       1 LEU         0.2039
     93 O          -2.1150   -7.0550   -1.6450 O.2       1 LEU        -0.3944
     94 CB         -3.9200   -7.5190   -3.6060 C.3       1 LEU        -0.0101
     95 CG         -3.8650   -6.3480   -4.5870 C.3       1 LEU        -0.0425
     96 CD1        -2.6990   -5.4290   -4.2560 C.3       1 LEU        -0.0625
     97 CD2        -3.7560   -6.8550   -6.0180 C.3       1 LEU        -0.0625
     98 N          -0.6780   -8.6920   -2.2040 N.am      1 LYS        -0.2637
     99 CA          0.2530   -8.3950   -1.1220 C.3       1 LYS         0.1310
    100 C           1.4830   -7.6620   -1.6490 C.2       1 LYS         0.2039
    101 O           2.3830   -8.2740   -2.2250 O.2       1 LYS        -0.3944
    102 CB          0.6790   -9.6860   -0.4190 C.3       1 LYS        -0.0122
    103 CG          1.7220   -9.4730    0.6640 C.3       1 LYS        -0.0440
    104 CD          2.2600  -10.7940    1.1880 C.3       1 LYS        -0.0124
    105 CE          1.3610  -11.3720    2.2710 C.3       1 LYS        -0.0354
    106 NZ          2.1290  -12.1860    3.2530 N.4       1 LYS         0.2185
    107 N           1.5140   -6.3490   -1.4470 N.am      1 ILE        -0.2635
    108 CA          2.6340   -5.5330   -1.9000 C.3       1 ILE         0.1335
    109 C           3.6850   -5.3860   -0.8040 C.2       1 ILE         0.2042
    110 O           3.4310   -4.7750    0.2340 O.2       1 ILE        -0.3944
    111 CB          2.1690   -4.1330   -2.3420 C.3       1 ILE        -0.0037
    112 CG1         0.8290   -4.2250   -3.0750 C.3       1 ILE        -0.0491
    113 CG2         3.2200   -3.4810   -3.2270 C.3       1 ILE        -0.0582
    114 CD1        -0.3660   -3.9760   -2.1830 C.3       1 ILE        -0.0648
    115 N           4.8650   -5.9470   -1.0450 N.am      1 ARG        -0.2637
    116 CA          5.9550   -5.8770   -0.0790 C.3       1 ARG         0.1311
    117 C           6.8770   -4.7000   -0.3830 C.2       1 ARG         0.2039
    118 O           7.6540   -4.7380   -1.3380 O.2       1 ARG        -0.3944
    119 CB          6.7550   -7.1810   -0.0850 C.3       1 ARG        -0.0092
    120 CG          7.8300   -7.2410    0.9870 C.3       1 ARG        -0.0156
    121 CD          7.6090   -8.4120    1.9320 C.3       1 ARG         0.0627
    122 NE          8.6560   -9.4230    1.8050 N.pl3     1 ARG        -0.2723
    123 CZ          8.6640  -10.3570    0.8610 C.cat     1 ARG         0.2882
    124 NH1         7.6880  -10.4090   -0.0340 N.pl3     1 ARG        -0.2849
    125 NH2         9.6510  -11.2420    0.8110 N.pl3     1 ARG        -0.2849
    126 N           6.7850   -3.6570    0.4330 N.am      1 LEU        -0.2637
    127 CA          7.6110   -2.4680    0.2510 C.3       1 LEU         0.1312
    128 C           8.8010   -2.4800    1.2060 C.2       1 LEU         0.2040
    129 O           8.6600   -2.7960    2.3880 O.2       1 LEU        -0.3944
    130 CB          6.7770   -1.2050    0.4730 C.3       1 LEU        -0.0101
    131 CG          5.9100   -0.7580   -0.7040 C.3       1 LEU        -0.0425
    132 CD1         5.3610   -1.9630   -1.4510 C.3       1 LEU        -0.0625
    133 CD2         4.7770    0.1370   -0.2230 C.3       1 LEU        -0.0625
    134 N           9.9740   -2.1320    0.6860 N.am      1 THR        -0.2613
    135 CA         11.1880   -2.1010    1.4920 C.3       1 THR         0.1564
    136 C          12.1660   -1.0530    0.9730 C.2       1 THR         0.2059
    137 O          12.2490   -0.8100   -0.2310 O.2       1 THR        -0.3943
    138 CB         11.8860   -3.4740    1.5090 C.3       1 THR         0.0924
    139 OG1        12.4590   -3.7480    0.2260 O.3       1 THR        -0.3874
    140 CG2        10.9030   -4.5760    1.8770 C.3       1 THR        -0.0346
    141 N          12.9050   -0.4350    1.8880 N.am      1 ARG        -0.2694
    142 CA         13.8780    0.5870    1.5220 C.3       1 ARG         0.0945
    143 C          14.8030    0.0870    0.4170 C.2       1 ARG         0.0601
    144 O          16.0220    0.2390    0.4980 O.co2     1 ARG        -0.5666
    145 CB         14.7010    0.9980    2.7440 C.3       1 ARG        -0.0148
    146 CG         13.9590    1.9210    3.6970 C.3       1 ARG        -0.0162
    147 CD         14.8290    2.3170    4.8790 C.3       1 ARG         0.0627
    148 NE         16.2440    2.3680    4.5250 N.pl3     1 ARG        -0.2723
    149 CZ         16.7870    3.3440    3.8060 C.cat     1 ARG         0.2882
    150 NH1        16.0370    4.3450    3.3670 N.pl3     1 ARG        -0.2849
    151 NH2        18.0840    3.3200    3.5240 N.pl3     1 ARG        -0.2849
    152 OXT        14.3490   -0.4780   -0.5780 O.co2     1 ARG        -0.5666
    153 H1         17.4721    3.4368   -3.2185 H         1 THR         0.2016
    154 H2         17.4793    4.6351   -4.3470 H         1 THR         0.2016
    155 H3         16.9368    3.1328   -4.7451 H         1 THR         0.2016
    156 H4         15.7144    4.9680   -2.8266 H         1 THR         0.1125
    157 H5         13.9211    4.2290   -4.9280 H         1 THR         0.0674
    158 H6         15.1338    5.0775   -6.7223 H         1 THR         0.2102
    159 H7         13.9360    6.6597   -5.3905 H         1 THR         0.0258
    160 H8         15.4168    6.8399   -4.3899 H         1 THR         0.0258
    161 H9         13.8747    6.3236   -3.6271 H         1 THR         0.0258
    162 H10        13.2130    4.1435   -2.8633 H         1 TRP         0.1886
    163 H11        13.3064    1.6625   -1.3888 H         1 TRP         0.0815
    164 H12        10.6488    2.0498   -1.7825 H         1 TRP         0.0397
    165 H13        11.2524    3.7056   -2.1300 H         1 TRP         0.0397
    166 H14        12.8586    4.7870   -0.0578 H         1 TRP         0.0795
    167 H15        12.5279    4.6110    2.5125 H         1 TRP         0.2216
    168 H16         9.7893    0.6898    0.0244 H         1 TRP         0.0540
    169 H17        11.1249    2.9299    4.2829 H         1 TRP         0.0541
    170 H18         8.9909   -0.1487    2.2021 H         1 TRP         0.0510
    171 H19         9.6497    0.9600    4.3036 H         1 TRP         0.0530
    172 H20        12.1239   -0.2671   -1.8591 H         1 ARG         0.1883
    173 H21        11.6926   -0.7229   -4.7791 H         1 ARG         0.0800
    174 H22        13.8425   -1.7166   -3.8156 H         1 ARG         0.0313
    175 H23        12.7344   -2.8472   -4.6645 H         1 ARG         0.0313
    176 H24        11.9189   -3.7151   -2.5573 H         1 ARG         0.0301
    177 H25        12.8603   -2.4894   -1.6418 H         1 ARG         0.0301
    178 H26        14.1740   -4.4286   -1.4934 H         1 ARG         0.0689
    179 H27        14.9340   -3.4966   -2.8277 H         1 ARG         0.0689
    180 H28        13.0235   -5.2142   -4.0166 H         1 ARG         0.2642
    181 H29        16.4693   -7.0042   -2.8108 H         1 ARG         0.2615
    182 H30        15.9888   -5.4447   -2.0898 H         1 ARG         0.2615
    183 H31        13.6411   -7.1978   -4.9300 H         1 ARG         0.2615
    184 H32        15.1516   -7.9885   -4.4048 H         1 ARG         0.2615
    185 H33        10.3792   -2.7473   -5.1680 H         1 VAL         0.1883
    186 H34         8.5282   -3.4631   -3.0039 H         1 VAL         0.0802
    187 H35         7.5823   -2.0668   -5.5533 H         1 VAL         0.0343
    188 H36         5.2938   -2.4692   -4.7046 H         1 VAL         0.0234
    189 H37         5.9707   -3.4486   -3.3596 H         1 VAL         0.0234
    190 H38         6.1591   -4.0033   -5.0577 H         1 VAL         0.0234
    191 H39         8.3526   -0.5615   -3.7497 H         1 VAL         0.0234
    192 H40         7.2241   -1.3632   -2.6050 H         1 VAL         0.0234
    193 H41         6.5788   -0.4461   -4.0082 H         1 VAL         0.0234
    194 H42         7.4532   -5.3882   -3.3511 H         1 GLN         0.1883
    195 H43         7.5788   -6.7224   -5.9495 H         1 GLN         0.0801
    196 H44         9.8038   -7.2493   -5.2195 H         1 GLN         0.0337
    197 H45         8.7916   -8.7193   -5.0164 H         1 GLN         0.0337
    198 H46         9.5331   -8.8509   -2.9246 H         1 GLN         0.0504
    199 H47         8.6124   -7.3511   -2.5646 H         1 GLN         0.0504
    200 H48        11.6602   -6.0087   -1.4730 H         1 GLN         0.1814
    201 H49        10.0816   -6.5807   -1.0475 H         1 GLN         0.1814
    202 H50         5.6603   -7.6237   -6.1414 H         1 ARG         0.1883
    203 H51         3.9230   -8.0881   -3.8876 H         1 ARG         0.0800
    204 H52         2.3274   -8.8833   -5.4932 H         1 ARG         0.0313
    205 H53         3.6118   -9.1877   -6.7115 H         1 ARG         0.0313
    206 H54         3.4817   -6.3929   -5.7496 H         1 ARG         0.0301
    207 H55         2.0039   -6.9563   -6.6014 H         1 ARG         0.0301
    208 H56         4.4766   -7.8065   -7.9428 H         1 ARG         0.0689
    209 H57         4.3572   -6.0215   -7.7814 H         1 ARG         0.0689
    210 H58         1.8989   -7.3002   -8.7638 H         1 ARG         0.2642
    211 H59         4.5804   -5.5544  -11.2740 H         1 ARG         0.2615
    212 H60         5.0616   -5.9333   -9.5984 H         1 ARG         0.2615
    213 H61         1.2939   -6.8155  -10.8963 H         1 ARG         0.2615
    214 H62         2.4650   -6.0493  -12.0027 H         1 ARG         0.2615
    215 H63         2.7456  -10.2876   -3.7565 H         1 SER         0.1884
    216 H64         4.7427  -12.4998   -3.9146 H         1 SER         0.0823
    217 H65         2.7972  -12.4717   -1.6263 H         1 SER         0.0606
    218 H66         4.1733  -11.3196   -1.5525 H         1 SER         0.0606
    219 H67         4.6737  -13.3764   -0.6349 H         1 SER         0.2097
    220 H68         3.2974  -14.5757   -3.0257 H         1 GLN         0.1883
    221 H69         1.6514  -15.2272   -5.2473 H         1 GLN         0.0801
    222 H70         2.8490  -16.8631   -3.7811 H         1 GLN         0.0337
    223 H71         1.1204  -17.2617   -4.0635 H         1 GLN         0.0337
    224 H72         1.8732  -15.6809   -1.6183 H         1 GLN         0.0504
    225 H73         2.2171  -17.4435   -1.6590 H         1 GLN         0.0504
    226 H74        -1.1184  -17.0236   -0.1314 H         1 GLN         0.1814
    227 H75         0.5166  -16.5954    0.2474 H         1 GLN         0.1814
    228 H76         0.9472  -13.7133   -2.1681 H         1 ASN         0.1885
    229 H77        -1.7597  -14.2028   -1.8101 H         1 ASN         0.0826
    230 H78        -1.5109  -11.4458   -1.3336 H         1 ASN         0.0551
    231 H79         0.1449  -12.0950   -1.0818 H         1 ASN         0.0551
    232 H80        -0.9267  -14.3343    1.5892 H         1 ASN         0.1814
    233 H81         0.0110  -14.3721    0.1334 H         1 ASN         0.1814
    234 H82        -4.0413  -12.4248   -5.0983 H         1 PRO         0.0802
    235 H83        -5.9939  -12.9358   -3.8907 H         1 PRO         0.0313
    236 H84        -6.1244  -11.1477   -3.7795 H         1 PRO         0.0313
    237 H85        -6.0682  -12.6628   -1.5724 H         1 PRO         0.0287
    238 H86        -5.2150  -11.0831   -1.6311 H         1 PRO         0.0287
    239 H87        -3.4011  -12.4083   -1.0206 H         1 PRO         0.0524
    240 H88        -4.0930  -13.8832   -1.7774 H         1 PRO         0.0524
    241 H89        -2.7786  -10.3316   -2.6355 H         1 LEU         0.1883
    242 H90        -2.1045   -8.2733   -4.4809 H         1 LEU         0.0800
    243 H91        -4.0851   -7.1071   -2.5995 H         1 LEU         0.0315
    244 H92        -4.7735   -8.1535   -3.8871 H         1 LEU         0.0315
    245 H93        -4.7977   -5.7726   -4.4930 H         1 LEU         0.0298
    246 H94        -2.6759   -4.5938   -4.9715 H         1 LEU         0.0232
    247 H95        -1.7572   -5.9936   -4.3210 H         1 LEU         0.0232
    248 H96        -2.8207   -5.0349   -3.2363 H         1 LEU         0.0232
    249 H97        -4.6066   -7.5168   -6.2383 H         1 LEU         0.0232
    250 H98        -2.8161   -7.4135   -6.1385 H         1 LEU         0.0232
    251 H99        -3.7667   -6.0011   -6.7114 H         1 LEU         0.0232
    252 H100       -0.4717   -9.4423   -2.8321 H         1 LYS         0.1883
    253 H101       -0.2551   -7.7474   -0.3924 H         1 LYS         0.0800
    254 H102        1.0949  -10.3712   -1.1723 H         1 LYS         0.0312
    255 H103       -0.2107  -10.1419    0.0400 H         1 LYS         0.0312
    256 H104        1.2645   -8.9182    1.4964 H         1 LYS         0.0269
    257 H105        2.5552   -8.8880    0.2475 H         1 LYS         0.0269
    258 H106        3.2639  -10.6302    1.6067 H         1 LYS         0.0317
    259 H107        2.3222  -11.5101    0.3554 H         1 LYS         0.0317
    260 H108        0.5996  -12.0099    1.7984 H         1 LYS         0.0813
    261 H109        0.8678  -10.5450    2.8029 H         1 LYS         0.0813
    262 H110        1.5006  -12.5502    3.9519 H         1 LYS         0.1994
    263 H111        2.8260  -11.6083    3.6962 H         1 LYS         0.1994
    264 H112        2.5802  -12.9506    2.7758 H         1 LYS         0.1994
    265 H113        0.7508   -5.9101   -0.9729 H         1 ILE         0.1883
    266 H114        3.0957   -6.0356   -2.7627 H         1 ILE         0.0803
    267 H115        2.0338   -3.5104   -1.4453 H         1 ILE         0.0345
    268 H116        0.7370   -5.2325   -3.5067 H         1 ILE         0.0267
    269 H117        0.8221   -3.4780   -3.8825 H         1 ILE         0.0267
    270 H118        4.1741   -3.4245   -2.6824 H         1 ILE         0.0235
    271 H119        2.8924   -2.4667   -3.4989 H         1 ILE         0.0235
    272 H120        3.3538   -4.0802   -4.1397 H         1 ILE         0.0235
    273 H121       -1.2892   -4.0581   -2.7754 H         1 ILE         0.0230
    274 H122       -0.2966   -2.9671   -1.7502 H         1 ILE         0.0230
    275 H123       -0.3817   -4.7216   -1.3744 H         1 ILE         0.0230
    276 H124        5.0090   -6.4287   -1.9094 H         1 ARG         0.1883
    277 H125        5.5238   -5.7336    0.9227 H         1 ARG         0.0800
    278 H126        7.2377   -7.2882   -1.0676 H         1 ARG         0.0313
    279 H127        6.0582   -8.0171    0.0744 H         1 ARG         0.0313
    280 H128        7.8104   -6.3058    1.5658 H         1 ARG         0.0301
    281 H129        8.8116   -7.3523    0.5032 H         1 ARG         0.0301
    282 H130        6.6382   -8.8754    1.7023 H         1 ARG         0.0689
    283 H131        7.6009   -8.0372    2.9661 H         1 ARG         0.0689
    284 H132        9.4300   -9.4107    2.4845 H         1 ARG         0.2642
    285 H133        7.6975  -11.1348   -0.7648 H         1 ARG         0.2615
    286 H134        6.9200   -9.7236    0.0012 H         1 ARG         0.2615
    287 H135       10.4115  -11.2051    1.5047 H         1 ARG         0.2615
    288 H136        9.6569  -11.9661    0.0785 H         1 ARG         0.2615
    289 H137        6.1336   -3.6869    1.1911 H         1 LEU         0.1883
    290 H138        7.9910   -2.4621   -0.7813 H         1 LEU         0.0800
    291 H139        7.4680   -0.3834    0.7128 H         1 LEU         0.0315
    292 H140        6.1123   -1.3872    1.3303 H         1 LEU         0.0315
    293 H141        6.5383   -0.1786   -1.3965 H         1 LEU         0.0298
    294 H142        4.7409   -1.6212   -2.2928 H         1 LEU         0.0232
    295 H143        4.7492   -2.5704   -0.7678 H         1 LEU         0.0232
    296 H144        6.1957   -2.5692   -1.8329 H         1 LEU         0.0232
    297 H145        5.1952    1.0012    0.3139 H         1 LEU         0.0232
    298 H146        4.1216   -0.4322    0.4526 H         1 LEU         0.0232
    299 H147        4.1954    0.4890   -1.0878 H         1 LEU         0.0232
    300 H148       10.0246   -1.8855   -0.2818 H         1 THR         0.1884
    301 H149       10.9075   -1.8387    2.5228 H         1 THR         0.0826
    302 H150       12.6890   -3.4515    2.2604 H         1 THR         0.0639
    303 H151       13.0960   -3.0756    0.0148 H         1 THR         0.2101
    304 H152       11.4237   -5.5449    1.8825 H         1 THR         0.0257
    305 H153       10.0880   -4.6020    1.1387 H         1 THR         0.0257
    306 H154       10.4869   -4.3777    2.8757 H         1 THR         0.0257
    307 H155       12.7909   -0.6769    2.8516 H         1 ARG         0.1875
    308 H156       13.3346    1.4685    1.1510 H         1 ARG         0.0726
    309 H157       15.6071    1.5148    2.3949 H         1 ARG         0.0307
    310 H158       14.9861    0.0884    3.2929 H         1 ARG         0.0307
    311 H159       13.0627    1.4039    4.0702 H         1 ARG         0.0301
    312 H160       13.6589    2.8293    3.1539 H         1 ARG         0.0301
    313 H161       14.6909    1.5802    5.6840 H         1 ARG         0.0689
    314 H162       14.5158    3.3102    5.2333 H         1 ARG         0.0689
    315 H163       16.8550    1.6054    4.8505 H         1 ARG         0.2642
    316 H164       16.4611    5.1003    2.8097 H         1 ARG         0.2615
    317 H165       15.0302    4.3675    3.5832 H         1 ARG         0.2615
    318 H166       18.6705    2.5441    3.8631 H         1 ARG         0.2615
    319 H167       18.5038    4.0772    2.9661 H         1 ARG         0.2615
@<TRIPOS>BOND
     1    1    2 1  
     2    2    3 1  
     3    2    5 1  
     4    3    4 2  
     5    3    8 am 
     6    5    6 1  
     7    5    7 1  
     8    8    9 1  
     9    9   10 1  
    10    9   12 1  
    11   10   11 2  
    12   10   22 am 
    13   12   13 1  
    14   13   14 2  
    15   13   15 1  
    16   14   16 1  
    17   15   17 ar 
    18   15   18 ar 
    19   16   17 1  
    20   17   19 ar 
    21   18   20 ar 
    22   19   21 ar 
    23   20   21 ar 
    24   22   23 1  
    25   23   24 1  
    26   23   26 1  
    27   24   25 2  
    28   24   33 am 
    29   26   27 1  
    30   27   28 1  
    31   28   29 1  
    32   29   30 ar 
    33   30   31 ar 
    34   30   32 ar 
    35   33   34 1  
    36   34   35 1  
    37   34   37 1  
    38   35   36 2  
    39   35   40 am 
    40   37   38 1  
    41   37   39 1  
    42   40   41 1  
    43   41   42 1  
    44   41   44 1  
    45   42   43 2  
    46   42   49 am 
    47   44   45 1  
    48   45   46 1  
    49   46   47 2  
    50   46   48 am 
    51   49   50 1  
    52   50   51 1  
    53   50   53 1  
    54   51   52 2  
    55   51   60 am 
    56   53   54 1  
    57   54   55 1  
    58   55   56 1  
    59   56   57 ar 
    60   57   58 ar 
    61   57   59 ar 
    62   60   61 1  
    63   61   62 1  
    64   61   64 1  
    65   62   63 2  
    66   62   66 am 
    67   64   65 1  
    68   66   67 1  
    69   67   68 1  
    70   67   70 1  
    71   68   69 2  
    72   68   75 am 
    73   70   71 1  
    74   71   72 1  
    75   72   73 2  
    76   72   74 am 
    77   75   76 1  
    78   76   77 1  
    79   76   79 1  
    80   77   78 2  
    81   77   83 am 
    82   79   80 1  
    83   80   81 2  
    84   80   82 am 
    85   83   84 1  
    86   83   89 1  
    87   84   85 1  
    88   84   87 1  
    89   85   86 2  
    90   85   90 am 
    91   87   88 1  
    92   88   89 1  
    93   90   91 1  
    94   91   92 1  
    95   91   94 1  
    96   92   93 2  
    97   92   98 am 
    98   94   95 1  
    99   95   96 1  
   100   95   97 1  
   101   98   99 1  
   102   99  100 1  
   103   99  102 1  
   104  100  101 2  
   105  100  107 am 
   106  102  103 1  
   107  103  104 1  
   108  104  105 1  
   109  105  106 1  
   110  107  108 1  
   111  108  109 1  
   112  108  111 1  
   113  109  110 2  
   114  109  115 am 
   115  111  112 1  
   116  111  113 1  
   117  112  114 1  
   118  115  116 1  
   119  116  117 1  
   120  116  119 1  
   121  117  118 2  
   122  117  126 am 
   123  119  120 1  
   124  120  121 1  
   125  121  122 1  
   126  122  123 ar 
   127  123  124 ar 
   128  123  125 ar 
   129  126  127 1  
   130  127  128 1  
   131  127  130 1  
   132  128  129 2  
   133  128  134 am 
   134  130  131 1  
   135  131  132 1  
   136  131  133 1  
   137  134  135 1  
   138  135  136 1  
   139  135  138 1  
   140  136  137 2  
   141  136  141 am 
   142  138  139 1  
   143  138  140 1  
   144  141  142 1  
   145  142  143 1  
   146  142  145 1  
   147  143  144 ar 
   148  143  152 ar 
   149  145  146 1  
   150  146  147 1  
   151  147  148 1  
   152  148  149 ar 
   153  149  150 ar 
   154  149  151 ar 
   155    1  153 1  
   156    1  154 1  
   157    1  155 1  
   158    2  156 1  
   159    5  157 1  
   160    6  158 1  
   161    7  159 1  
   162    7  160 1  
   163    7  161 1  
   164    8  162 1  
   165    9  163 1  
   166   12  164 1  
   167   12  165 1  
   168   14  166 1  
   169   16  167 1  
   170   18  168 1  
   171   19  169 1  
   172   20  170 1  
   173   21  171 1  
   174   22  172 1  
   175   23  173 1  
   176   26  174 1  
   177   26  175 1  
   178   27  176 1  
   179   27  177 1  
   180   28  178 1  
   181   28  179 1  
   182   29  180 1  
   183   31  181 1  
   184   31  182 1  
   185   32  183 1  
   186   32  184 1  
   187   33  185 1  
   188   34  186 1  
   189   37  187 1  
   190   38  188 1  
   191   38  189 1  
   192   38  190 1  
   193   39  191 1  
   194   39  192 1  
   195   39  193 1  
   196   40  194 1  
   197   41  195 1  
   198   44  196 1  
   199   44  197 1  
   200   45  198 1  
   201   45  199 1  
   202   48  200 1  
   203   48  201 1  
   204   49  202 1  
   205   50  203 1  
   206   53  204 1  
   207   53  205 1  
   208   54  206 1  
   209   54  207 1  
   210   55  208 1  
   211   55  209 1  
   212   56  210 1  
   213   58  211 1  
   214   58  212 1  
   215   59  213 1  
   216   59  214 1  
   217   60  215 1  
   218   61  216 1  
   219   64  217 1  
   220   64  218 1  
   221   65  219 1  
   222   66  220 1  
   223   67  221 1  
   224   70  222 1  
   225   70  223 1  
   226   71  224 1  
   227   71  225 1  
   228   74  226 1  
   229   74  227 1  
   230   75  228 1  
   231   76  229 1  
   232   79  230 1  
   233   79  231 1  
   234   82  232 1  
   235   82  233 1  
   236   84  234 1  
   237   87  235 1  
   238   87  236 1  
   239   88  237 1  
   240   88  238 1  
   241   89  239 1  
   242   89  240 1  
   243   90  241 1  
   244   91  242 1  
   245   94  243 1  
   246   94  244 1  
   247   95  245 1  
   248   96  246 1  
   249   96  247 1  
   250   96  248 1  
   251   97  249 1  
   252   97  250 1  
   253   97  251 1  
   254   98  252 1  
   255   99  253 1  
   256  102  254 1  
   257  102  255 1  
   258  103  256 1  
   259  103  257 1  
   260  104  258 1  
   261  104  259 1  
   262  105  260 1  
   263  105  261 1  
   264  106  262 1  
   265  106  263 1  
   266  106  264 1  
   267  107  265 1  
   268  108  266 1  
   269  111  267 1  
   270  112  268 1  
   271  112  269 1  
   272  113  270 1  
   273  113  271 1  
   274  113  272 1  
   275  114  273 1  
   276  114  274 1  
   277  114  275 1  
   278  115  276 1  
   279  116  277 1  
   280  119  278 1  
   281  119  279 1  
   282  120  280 1  
   283  120  281 1  
   284  121  282 1  
   285  121  283 1  
   286  122  284 1  
   287  124  285 1  
   288  124  286 1  
   289  125  287 1  
   290  125  288 1  
   291  126  289 1  
   292  127  290 1  
   293  130  291 1  
   294  130  292 1  
   295  131  293 1  
   296  132  294 1  
   297  132  295 1  
   298  132  296 1  
   299  133  297 1  
   300  133  298 1  
   301  133  299 1  
   302  134  300 1  
   303  135  301 1  
   304  138  302 1  
   305  139  303 1  
   306  140  304 1  
   307  140  305 1  
   308  140  306 1  
   309  141  307 1  
   310  142  308 1  
   311  145  309 1  
   312  145  310 1  
   313  146  311 1  
   314  146  312 1  
   315  147  313 1  
   316  147  314 1  
   317  148  315 1  
   318  150  316 1  
   319  150  317 1  
   320  151  318 1  
   321  151  319 1  
@<TRIPOS>SUBSTRUCTURE
     1 THR         1

