1nj5_ligand
  -I-interpret- 

 52 55  0  0  0  0  0  0  0  0999 V2000
  -33.8120  -78.6330  -41.0350 C   0  0  0  0  0
  -34.6990  -77.7560  -40.1660 C   0  0  0  0  0
  -34.2250  -80.8960  -39.9730 C   0  0  0  0  0
  -35.0350  -81.1790  -39.0820 O   0  0  0  0  0
  -36.0370  -79.5520  -40.9990 N   0  3  0  0  0
  -36.1590  -78.1620  -40.5100 C   0  0  0  0  0
  -34.6190  -79.9300  -41.1030 C   0  0  0  0  0
  -32.9820  -81.3910  -40.0110 N   0  0  0  0  0
  -32.3650  -82.3860  -38.9380 S   0  0  0  0  0
  -33.2810  -83.5300  -38.7480 O   0  0  0  0  0
  -30.9780  -82.6450  -39.4540 O   0  0  0  0  0
  -32.2310  -81.5750  -37.5700 O   0  0  0  0  0
  -31.4920  -80.3370  -37.5110 C   0  0  0  0  0
  -30.3650  -80.3880  -36.4960 C   0  0  0  0  0
  -30.9010  -80.6470  -35.1770 O   0  0  0  0  0
  -29.9890  -81.4020  -34.4060 C   0  0  0  0  0
  -30.6730  -82.5670  -33.8150 N   0  0  0  0  0
  -30.7710  -82.8100  -32.4510 C   0  0  0  0  0
  -30.2670  -82.0510  -31.4230 N   0  0  0  0  0
  -30.5510  -82.5820  -30.2240 C   0  0  0  0  0
  -31.2470  -83.7160  -29.9550 N   0  0  0  0  0
  -31.7410  -84.4570  -30.9940 C   0  0  0  0  0
  -32.4220  -85.5610  -30.7000 N   0  0  0  0  0
  -31.5060  -83.9940  -32.3310 C   0  0  0  0  0
  -31.8500  -84.4870  -33.5800 N   0  0  0  0  0
  -31.3400  -83.6100  -34.4210 C   0  0  0  0  0
  -28.7710  -81.6700  -35.2950 C   0  0  0  0  0
  -27.7780  -80.7320  -34.9190 O   0  0  0  0  0
  -29.3420  -81.4940  -36.6970 C   0  0  0  0  0
  -28.3540  -81.0540  -37.6250 O   0  0  0  0  0
  -32.8090  -78.7687  -40.6305 H   0  0  0  0  0
  -33.6038  -78.2016  -42.0141 H   0  0  0  0  0
  -34.5245  -76.6978  -40.3607 H   0  0  0  0  0
  -34.4854  -77.9006  -39.1070 H   0  0  0  0  0
  -36.4700  -79.6217  -41.9199 H   0  0  0  0  0
  -36.5030  -80.1792  -40.3433 H   0  0  0  0  0
  -36.6083  -77.5009  -41.2511 H   0  0  0  0  0
  -36.8237  -78.0832  -39.6497 H   0  0  0  0  0
  -34.4212  -80.4547  -42.0377 H   0  0  0  0  0
  -32.3856  -81.1075  -40.7884 H   0  0  0  0  0
  -32.1801  -79.5458  -37.2133 H   0  0  0  0  0
  -31.0551  -80.1564  -38.4932 H   0  0  0  0  0
  -29.8776  -79.4208  -36.6183 H   0  0  0  0  0
  -29.6087  -80.8805  -33.5277 H   0  0  0  0  0
  -30.1765  -82.0351  -29.3587 H   0  0  0  0  0
  -32.5611  -85.8302  -29.7261 H   0  0  0  0  0
  -32.8051  -86.1384  -31.4485 H   0  0  0  0  0
  -31.4372  -83.7015  -35.5028 H   0  0  0  0  0
  -28.2906  -82.6455  -35.2191 H   0  0  0  0  0
  -26.9932  -80.8663  -35.4553 H   0  0  0  0  0
  -29.7408  -82.4241  -37.1020 H   0  0  0  0  0
  -27.7058  -81.7501  -37.7546 H   0  0  0  0  0
  1  2  1  0  0  0
  7  1  1  0  0  0
  2  6  1  0  0  0
  3  4  2  0  0  0
  3  7  1  0  0  0
  3  8  1  0  0  0
  6  5  1  0  0  0
  5  7  1  0  0  0
  8  9  1  0  0  0
  9 10  2  0  0  0
  9 11  2  0  0  0
  9 12  1  0  0  0
 12 13  1  0  0  0
 13 14  1  0  0  0
 14 15  1  0  0  0
 14 29  1  0  0  0
 15 16  1  0  0  0
 16 17  1  0  0  0
 16 27  1  0  0  0
 17 18  4  0  0  0
 17 26  4  0  0  0
 18 19  4  0  0  0
 18 24  4  0  0  0
 19 20  4  0  0  0
 20 21  4  0  0  0
 21 22  4  0  0  0
 22 23  1  0  0  0
 22 24  4  0  0  0
 24 25  4  0  0  0
 25 26  4  0  0  0
 27 28  1  0  0  0
 27 29  1  0  0  0
 29 30  1  0  0  0
  1 31  1  0  0  0
  1 32  1  0  0  0
  2 33  1  0  0  0
  2 34  1  0  0  0
  5 35  1  0  0  0
  5 36  1  0  0  0
  6 37  1  0  0  0
  6 38  1  0  0  0
  7 39  1  0  0  0
  8 40  1  0  0  0
 13 41  1  0  0  0
 13 42  1  0  0  0
 14 43  1  0  0  0
 16 44  1  0  0  0
 20 45  1  0  0  0
 23 46  1  0  0  0
 23 47  1  0  0  0
 26 48  1  0  0  0
 27 49  1  0  0  0
 28 50  1  0  0  0
 29 51  1  0  0  0
 30 52  1  0  0  0
M  END
$$$$
