2xpa_ligand
  -I-interpret- 

 35 36  0  0  0  0  0  0  0  0999 V2000
   39.0110  -17.8670   10.2520 C   0  0  0  0  0
   38.9630  -19.2590   10.3400 C   0  0  0  0  0
   38.9080  -19.8960   11.5870 C   0  0  0  0  0
   38.9010  -19.1200   12.7480 C   0  0  0  0  0
   38.9310  -17.7180   12.6660 C   0  0  0  0  0
   38.9550  -17.0920   11.4200 C   0  0  0  0  0
   39.0400  -15.7000   11.3420 C   0  0  0  0  0
   39.6080  -14.9950   12.3240 N   0  0  0  0  0
   38.6750  -14.8520   10.3400 N   0  0  0  0  0
   39.0110  -13.6040   10.7330 C   0  0  0  0  0
   38.8020  -12.2970    9.9310 C   0  0  0  0  0
   38.5330  -12.3280    8.7110 O   0  0  0  0  0
   38.9850  -11.2150   10.5150 O   0  0  0  0  0
   39.6140  -13.7110   11.9930 C   0  0  0  0  0
   40.2250  -12.6800   12.9800 C   0  0  0  0  0
   39.4830  -11.9210   13.5970 O   0  0  0  0  0
   41.5650  -12.7720   13.2150 N   0  0  0  0  0
   42.3730  -13.7430   12.4110 C   0  0  0  0  0
   42.2000  -11.9070   14.2400 C   0  0  0  0  0
   42.6600  -12.7830   15.4700 C   0  0  0  0  0
   42.0210  -13.7660   15.8860 O   0  0  0  0  0
   43.8080  -12.3780   16.0350 N   0  0  0  0  0
   39.0918  -17.3834    9.2785 H   0  0  0  0  0
   38.9683  -19.8572    9.4289 H   0  0  0  0  0
   38.8711  -20.9836   11.6499 H   0  0  0  0  0
   38.8721  -19.6051   13.7237 H   0  0  0  0  0
   38.9355  -17.1191   13.5767 H   0  0  0  0  0
   38.4253  -13.2400    8.4313 H   0  0  0  0  0
   41.9940  -14.7519   12.5743 H   0  0  0  0  0
   42.2947  -13.4908   11.3535 H   0  0  0  0  0
   43.4164  -13.6907   12.7220 H   0  0  0  0  0
   41.4802  -11.1616   14.5781 H   0  0  0  0  0
   43.0686  -11.4122   13.8055 H   0  0  0  0  0
   44.1874  -12.8818   16.8366 H   0  0  0  0  0
   44.3011  -11.5664   15.6628 H   0  0  0  0  0
  1  2  4  0  0  0
  1  6  4  0  0  0
  2  3  4  0  0  0
  3  4  4  0  0  0
  4  5  4  0  0  0
  5  6  4  0  0  0
  6  7  1  0  0  0
  7  8  4  0  0  0
  7  9  4  0  0  0
  8 14  4  0  0  0
  9 10  4  0  0  0
 10 11  1  0  0  0
 10 14  4  0  0  0
 11 12  1  0  0  0
 11 13  2  0  0  0
 14 15  1  0  0  0
 15 16  2  0  0  0
 15 17  1  0  0  0
 17 18  1  0  0  0
 17 19  1  0  0  0
 19 20  1  0  0  0
 20 21  2  0  0  0
 20 22  1  0  0  0
  1 23  1  0  0  0
  2 24  1  0  0  0
  3 25  1  0  0  0
  4 26  1  0  0  0
  5 27  1  0  0  0
 12 28  1  0  0  0
 18 29  1  0  0  0
 18 30  1  0  0  0
 18 31  1  0  0  0
 19 32  1  0  0  0
 19 33  1  0  0  0
 22 34  1  0  0  0
 22 35  1  0  0  0
M  END
$$$$
