6bke_ligand
  -I-interpret- 

 67 72  0  0  0  0  0  0  0  0999 V2000
   37.8620   25.4880   17.6090 C   0  0  0  0  0
   35.4940   26.1780   17.7520 C   0  0  0  0  0
   35.0120   27.9600   13.4200 C   0  0  0  0  0
   34.5630   26.6960   16.9370 C   0  0  0  0  0
   35.1390   26.8800   15.6670 C   0  0  0  0  0
   36.2920   27.6980   13.0050 C   0  0  0  0  0
   36.7930   28.3090   11.8290 C   0  0  0  0  0
   36.6020   25.1800   19.7030 N   0  3  0  0  0
   37.8080   25.7820   19.1130 C   0  0  0  0  0
   36.6640   25.2370   21.1720 C   0  0  0  0  0
   36.6290   26.0280   17.0320 N   0  0  0  0  0
   36.3870   26.4710   15.7310 N   0  0  0  0  0
   34.4430   27.3960   14.5640 N   0  0  0  0  0
   36.0300   29.1250   11.1390 N   0  0  0  0  0
   34.7200   29.4040   11.5390 N   0  0  0  0  0
   34.2130   28.8390   12.6500 C   0  0  0  0  0
   33.0670   29.0870   12.9950 O   0  0  0  0  0
   38.1830   28.0230   11.3730 C   0  0  0  0  0
   39.2130   27.9270   12.3090 C   0  0  0  0  0
   40.5040   27.6540   11.8970 C   0  0  0  0  0
   40.7910   27.4740   10.5560 C   0  0  0  0  0
   39.7740   27.5620    9.6160 C   0  0  0  0  0
   38.4760   27.8300   10.0210 C   0  0  0  0  0
   37.4110   27.9270    8.9620 C   0  0  0  0  0
   37.4750   29.3410    8.3750 C   0  0  0  0  0
   36.5900   29.4420    7.2560 O   0  0  0  0  0
   40.0360   27.3790    8.2530 N   0  0  0  0  0
   40.6890   28.3020    7.5190 C   0  0  0  0  0
   41.0770   29.3340    8.0350 O   0  0  0  0  0
   40.9300   28.0470    6.0900 C   0  0  0  0  0
   40.5300   26.9500    5.4400 C   0  0  0  0  0
   40.8610   26.8920    4.0760 C   0  0  0  0  0
   40.5760   25.8730    3.1340 C   0  0  0  0  0
   40.9810   25.9940    1.8410 C   0  0  0  0  0
   41.6820   27.1180    1.4190 C   0  0  0  0  0
   41.9740   28.1240    2.3090 C   0  0  0  0  0
   41.5670   28.0220    3.6460 C   0  0  0  0  0
   41.7850   29.1230    5.0010 S   0  0  0  0  0
   35.3590   25.8120   19.2110 C   0  0  0  0  0
   37.9412   24.4166   17.4246 H   0  0  0  0  0
   38.7388   25.9485   17.1538 H   0  0  0  0  0
   33.5354   26.9338   17.2120 H   0  0  0  0  0
   36.9237   27.0203   13.5792 H   0  0  0  0  0
   36.5784   24.2039   19.4079 H   0  0  0  0  0
   37.7806   26.8609   19.2658 H   0  0  0  0  0
   38.6904   25.3581   19.5922 H   0  0  0  0  0
   37.5401   24.6892   21.5189 H   0  0  0  0  0
   36.7341   26.2768   21.4913 H   0  0  0  0  0
   35.7635   24.7871   21.5901 H   0  0  0  0  0
   33.4245   27.3555   14.6009 H   0  0  0  0  0
   34.1452   30.0394   10.9856 H   0  0  0  0  0
   38.9991   28.0677   13.3685 H   0  0  0  0  0
   41.3026   27.5800   12.6352 H   0  0  0  0  0
   41.8124   27.2638   10.2387 H   0  0  0  0  0
   36.4274   27.7359    9.3911 H   0  0  0  0  0
   37.5778   27.1825    8.1835 H   0  0  0  0  0
   38.4938   29.5497    8.0485 H   0  0  0  0  0
   37.1762   30.0611    9.1367 H   0  0  0  0  0
   36.6348   30.3296    6.8931 H   0  0  0  0  0
   39.7228   26.5199    7.8010 H   0  0  0  0  0
   39.9812   26.1502    5.9372 H   0  0  0  0  0
   40.0277   24.9847    3.4478 H   0  0  0  0  0
   40.7535   25.2013    1.1283 H   0  0  0  0  0
   42.0008   27.2017    0.3800 H   0  0  0  0  0
   42.5237   29.0036    1.9738 H   0  0  0  0  0
   34.5345   25.1082   19.3249 H   0  0  0  0  0
   35.1698   26.7176   19.7874 H   0  0  0  0  0
  1  9  1  0  0  0
 11  1  1  0  0  0
  4  2  4  0  0  0
  2 11  4  0  0  0
  2 39  1  0  0  0
  3  6  2  0  0  0
 13  3  1  0  0  0
  3 16  1  0  0  0
  5  4  4  0  0  0
  5 12  4  0  0  0
  5 13  1  0  0  0
  6  7  1  0  0  0
  7 14  2  0  0  0
  7 18  1  0  0  0
  9  8  1  0  0  0
  8 10  1  0  0  0
  8 39  1  0  0  0
 11 12  4  0  0  0
 14 15  1  0  0  0
 15 16  1  0  0  0
 16 17  2  0  0  0
 18 19  4  0  0  0
 18 23  4  0  0  0
 19 20  4  0  0  0
 20 21  4  0  0  0
 21 22  4  0  0  0
 22 23  4  0  0  0
 22 27  1  0  0  0
 23 24  1  0  0  0
 24 25  1  0  0  0
 25 26  1  0  0  0
 27 28  1  0  0  0
 28 29  2  0  0  0
 28 30  1  0  0  0
 30 31  4  0  0  0
 30 38  4  0  0  0
 31 32  4  0  0  0
 32 33  4  0  0  0
 32 37  4  0  0  0
 33 34  4  0  0  0
 34 35  4  0  0  0
 35 36  4  0  0  0
 36 37  4  0  0  0
 37 38  4  0  0  0
  1 40  1  0  0  0
  1 41  1  0  0  0
  4 42  1  0  0  0
  6 43  1  0  0  0
  8 44  1  0  0  0
  9 45  1  0  0  0
  9 46  1  0  0  0
 10 47  1  0  0  0
 10 48  1  0  0  0
 10 49  1  0  0  0
 13 50  1  0  0  0
 15 51  1  0  0  0
 19 52  1  0  0  0
 20 53  1  0  0  0
 21 54  1  0  0  0
 24 55  1  0  0  0
 24 56  1  0  0  0
 25 57  1  0  0  0
 25 58  1  0  0  0
 26 59  1  0  0  0
 27 60  1  0  0  0
 31 61  1  0  0  0
 33 62  1  0  0  0
 34 63  1  0  0  0
 35 64  1  0  0  0
 36 65  1  0  0  0
 39 66  1  0  0  0
 39 67  1  0  0  0
M  END
$$$$
