2zns_ligand
  -I-interpret- 

 20 19  0  0  0  0  0  0  0  0999 V2000
   20.3010   -1.8800   10.9680 N   0  3  0  0  0
   21.5960   -2.6680   10.8410 C   0  0  0  0  0
   21.2320   -4.0760   10.4370 C   0  0  0  0  0
   22.0780   -4.9660   10.3610 O   0  0  0  0  0
   22.3560   -2.7070   12.1990 C   0  0  0  0  0
   23.2200   -1.4750   12.4880 C   0  0  0  0  0
   24.4120   -1.3520   11.5310 C   0  0  0  0  0
   24.7760   -2.3850   10.9700 O   0  0  0  0  0
   24.9760   -0.2290   11.3710 O   0  0  0  0  0
   20.0600   -4.3610   10.1410 O   0  0  0  0  0
   19.8218   -1.8684   10.0677 H   0  0  0  0  0
   19.7033   -2.3209   11.6670 H   0  0  0  0  0
   20.5127   -0.9241   11.2541 H   0  0  0  0  0
   22.2443   -2.1961   10.1027 H   0  0  0  0  0
   23.0292   -3.5634   12.1602 H   0  0  0  0  0
   21.6003   -2.7543   12.9831 H   0  0  0  0  0
   23.6117   -1.5704   13.5007 H   0  0  0  0  0
   22.5957   -0.5906   12.3611 H   0  0  0  0  0
   24.5271    0.4320   11.9032 H   0  0  0  0  0
   19.5072   -3.5828   10.2427 H   0  0  0  0  0
  1  2  1  0  0  0
  2  3  1  0  0  0
  2  5  1  0  0  0
  3  4  2  0  0  0
  3 10  1  0  0  0
  5  6  1  0  0  0
  6  7  1  0  0  0
  7  8  2  0  0  0
  7  9  1  0  0  0
  1 11  1  0  0  0
  1 12  1  0  0  0
  1 13  1  0  0  0
  2 14  1  0  0  0
  5 15  1  0  0  0
  5 16  1  0  0  0
  6 17  1  0  0  0
  6 18  1  0  0  0
  9 19  1  0  0  0
 10 20  1  0  0  0
M  END
$$$$
