4kmu_ligand
  -I-interpret- 

128132  0  0  0  0  0  0  0  0999 V2000
 -113.1570   26.4420    8.4140 C   0  0  0  0  0
 -112.0110   26.1610    7.6560 C   0  0  0  0  0
 -110.7220   26.3310    8.1320 C   0  0  0  0  0
 -110.5060   26.8070    9.4110 C   0  0  0  0  0
 -111.5050   27.5780   11.5580 C   0  0  0  0  0
 -112.6880   27.8420   12.2940 C   0  0  0  0  0
 -113.9900   27.6890   11.8840 C   0  0  0  0  0
 -114.1500   27.2060   10.5610 C   0  0  0  0  0
 -112.9590   26.9190    9.7520 C   0  0  0  0  0
 -111.5950   27.0970   10.2340 C   0  0  0  0  0
 -110.4700   27.9030   12.4580 C   0  0  0  0  0
 -110.8310   28.5720   13.5880 C   0  0  0  0  0
 -110.0870   27.9080   14.7240 C   0  0  0  0  0
 -115.1840   27.9950   12.7500 C   0  0  0  0  0
 -113.1370   25.8740    5.3110 C   0  0  0  0  0
 -112.8440   25.2980    3.9340 C   0  0  0  0  0
 -112.0470   26.1860    3.1850 C   0  0  0  0  0
 -112.2850   27.7150    3.3180 C   0  0  0  0  0
 -111.5580   28.5950    2.4810 C   0  0  0  0  0
 -110.8010   29.8210    2.9660 C   0  0  0  0  0
 -110.9600   30.0580    4.4610 C   0  0  0  0  0
 -109.9870   31.0380    5.0560 C   0  0  0  0  0
 -110.6340   31.6020    6.2960 C   0  0  0  0  0
 -109.6980   31.7220    7.4680 C   0  0  0  0  0
 -110.3040   32.7430    8.4340 C   0  0  0  0  0
 -110.8190   32.0730    9.6950 C   0  0  0  0  0
 -110.3910   32.8070   10.9590 C   0  0  0  0  0
 -110.7820   32.0650   12.2190 C   0  0  0  0  0
 -110.7670   30.6630   12.2560 C   0  0  0  0  0
 -112.4090   23.8450    4.0370 C   0  0  0  0  0
 -109.3990   29.6180    2.4950 C   0  0  0  0  0
 -109.6030   32.1840    4.1530 C   0  0  0  0  0
 -108.2630   32.0730    7.0900 C   0  0  0  0  0
 -112.3170   31.9050    9.6320 C   0  0  0  0  0
 -109.2060   34.8330    7.7070 C   0  0  0  0  0
 -107.8490   35.3960    7.4190 C   0  0  0  0  0
 -111.9590   34.5560   11.7230 C   0  0  0  0  0
 -103.4190   25.5160    6.1440 C   0  0  0  0  0
 -105.6080   25.9440    7.3140 C   0  0  0  0  0
 -107.0230   26.3240    7.0090 C   0  0  0  0  0
 -107.0330   24.7850    5.0720 C   0  0  0  0  0
 -105.6130   24.4350    5.4970 C   0  0  0  0  0
 -109.6810   25.3780    7.5370 C   0  0  0  0  0
 -112.0260   25.6720    6.2710 N   0  0  0  0  0
 -108.9690   25.8550    6.5150 N   0  3  0  0  0
 -107.7070   25.3480    6.2190 N   0  3  0  0  0
 -104.9080   25.5260    6.1300 N   0  3  0  0  0
 -114.3990   26.2410    7.9090 O   0  0  0  0  0
 -115.4170   27.0030    9.9830 O   0  0  0  0  0
 -112.2320   28.3550   13.7070 O   0  0  0  0  0
 -109.3000   27.5970   12.2430 O   0  0  0  0  0
 -110.5390   29.9600   13.4570 O   0  0  0  0  0
 -110.8530   34.1200   10.9850 O   0  0  0  0  0
 -109.3790   33.7730    8.6350 O   0  0  0  0  0
 -110.0490   35.0390    6.8480 O   0  0  0  0  0
 -111.7030   30.7800    6.6320 O   0  0  0  0  0
 -112.2570   30.4910    4.7130 O   0  0  0  0  0
 -114.1760   26.4630    5.5830 O   0  0  0  0  0
 -109.2250   26.9650    9.8480 O   0  0  0  0  0
 -110.3738   26.8579   14.7798 H   0  0  0  0  0
 -109.0141   27.9840   14.5475 H   0  0  0  0  0
 -110.3385   28.4050   15.6610 H   0  0  0  0  0
 -115.1539   27.3696   13.6423 H   0  0  0  0  0
 -115.1612   29.0455   13.0401 H   0  0  0  0  0
 -116.0978   27.7905   12.1921 H   0  0  0  0  0
 -113.7477   25.2251    3.3290 H   0  0  0  0  0
 -112.2773   25.9574    2.1444 H   0  0  0  0  0
 -111.0331   26.0286    3.5527 H   0  0  0  0  0
 -111.9675   27.9627    4.3309 H   0  0  0  0  0
 -113.3293   27.8627    3.0430 H   0  0  0  0  0
 -112.3416   29.0320    1.8621 H   0  0  0  0  0
 -110.7573   27.9566    2.1076 H   0  0  0  0  0
 -111.1984   30.7493    2.5556 H   0  0  0  0  0
 -110.7455   29.1029    4.9405 H   0  0  0  0  0
 -109.0617   30.4953    5.2497 H   0  0  0  0  0
 -110.9573   32.6178    6.0684 H   0  0  0  0  0
 -109.6060   30.7444    7.9412 H   0  0  0  0  0
 -111.1948   33.2047    8.0080 H   0  0  0  0  0
 -110.3649   31.0835    9.7469 H   0  0  0  0  0
 -109.3019   32.8433   10.9325 H   0  0  0  0  0
 -111.8299   32.3253   12.3684 H   0  0  0  0  0
 -110.0274   32.3599   12.9482 H   0  0  0  0  0
 -109.9144   30.3953   11.6319 H   0  0  0  0  0
 -111.7842   30.3845   11.9805 H   0  0  0  0  0
 -111.5066   23.7794    4.6449 H   0  0  0  0  0
 -113.2041   23.2610    4.5005 H   0  0  0  0  0
 -112.2055   23.4564    3.0392 H   0  0  0  0  0
 -109.0009   28.7004    2.9281 H   0  0  0  0  0
 -109.3898   29.5420    1.4077 H   0  0  0  0  0
 -108.7863   30.4640    2.8066 H   0  0  0  0  0
 -109.1383   31.7920    3.2483 H   0  0  0  0  0
 -110.4954   32.7510    3.8882 H   0  0  0  0  0
 -108.8988   32.8340    4.6724 H   0  0  0  0  0
 -107.8607   31.2983    6.4372 H   0  0  0  0  0
 -108.2495   33.0310    6.5703 H   0  0  0  0  0
 -107.6566   32.1397    7.9933 H   0  0  0  0  0
 -112.7872   32.8834    9.5336 H   0  0  0  0  0
 -112.5762   31.2877    8.7719 H   0  0  0  0  0
 -112.6660   31.4230   10.5452 H   0  0  0  0  0
 -107.4647   34.9607    6.4965 H   0  0  0  0  0
 -107.9218   36.4780    7.3089 H   0  0  0  0  0
 -107.1759   35.1578    8.2426 H   0  0  0  0  0
 -112.8482   34.0176   11.3950 H   0  0  0  0  0
 -111.7863   34.3638   12.7819 H   0  0  0  0  0
 -112.1011   35.6251   11.5649 H   0  0  0  0  0
 -103.0520   26.5233    6.3410 H   0  0  0  0  0
 -103.0688   24.8411    6.9250 H   0  0  0  0  0
 -103.0501   25.1764    5.1762 H   0  0  0  0  0
 -105.6180   25.1140    8.0204 H   0  0  0  0  0
 -105.0982   26.8142    7.7275 H   0  0  0  0  0
 -107.0015   27.2542    6.4413 H   0  0  0  0  0
 -107.5537   26.4145    7.9568 H   0  0  0  0  0
 -107.5557   23.8942    4.7237 H   0  0  0  0  0
 -107.0180   25.5015    4.2507 H   0  0  0  0  0
 -105.0600   24.1700    4.5958 H   0  0  0  0  0
 -105.6815   23.6265    6.2248 H   0  0  0  0  0
 -110.2345   24.5218    7.1515 H   0  0  0  0  0
 -108.9685   25.1662    8.3343 H   0  0  0  0  0
 -111.2099   25.1541    5.9452 H   0  0  0  0  0
 -108.7907   26.8262    6.7708 H   0  0  0  0  0
 -109.5276   25.6202    5.6945 H   0  0  0  0  0
 -107.7662   24.3307    6.2636 H   0  0  0  0  0
 -104.9496   26.3069    5.4751 H   0  0  0  0  0
 -115.0541   26.4870    8.5662 H   0  0  0  0  0
 -115.3100   26.6746    9.0873 H   0  0  0  0  0
 -112.1314   31.1204    7.4208 H   0  0  0  0  0
 -112.3652   30.6428    5.6547 H   0  0  0  0  0
 -109.2340   27.3004   10.7475 H   0  0  0  0  0
  2  1  4  0  0  0
  1  9  4  0  0  0
  1 48  1  0  0  0
  3  2  4  0  0  0
  2 44  1  0  0  0
  3  4  4  0  0  0
 43  3  1  0  0  0
  4 10  4  0  0  0
  4 59  1  0  0  0
  5  6  4  0  0  0
 10  5  4  0  0  0
  5 11  1  0  0  0
  6  7  4  0  0  0
  6 50  1  0  0  0
  8  7  4  0  0  0
  7 14  1  0  0  0
  9  8  4  0  0  0
  8 49  1  0  0  0
 10  9  4  0  0  0
 11 12  1  0  0  0
 11 51  2  0  0  0
 12 13  1  0  0  0
 12 50  1  0  0  0
 12 52  1  0  0  0
 15 16  1  0  0  0
 44 15  1  0  0  0
 15 58  2  0  0  0
 16 17  1  0  0  0
 16 30  1  0  0  0
 17 18  1  0  0  0
 18 19  1  0  0  0
 19 20  1  0  0  0
 20 21  1  0  0  0
 20 31  1  0  0  0
 21 22  1  0  0  0
 21 57  1  0  0  0
 22 23  1  0  0  0
 22 32  1  0  0  0
 23 24  1  0  0  0
 23 56  1  0  0  0
 25 24  1  0  0  0
 24 33  1  0  0  0
 26 25  1  0  0  0
 25 54  1  0  0  0
 27 26  1  0  0  0
 26 34  1  0  0  0
 28 27  1  0  0  0
 27 53  1  0  0  0
 29 28  1  0  0  0
 52 29  1  0  0  0
 35 36  1  0  0  0
 54 35  1  0  0  0
 35 55  2  0  0  0
 53 37  1  0  0  0
 47 38  1  0  0  0
 40 39  1  0  0  0
 39 47  1  0  0  0
 46 40  1  0  0  0
 41 42  1  0  0  0
 46 41  1  0  0  0
 42 47  1  0  0  0
 45 43  1  0  0  0
 45 46  1  0  0  0
 13 60  1  0  0  0
 13 61  1  0  0  0
 13 62  1  0  0  0
 14 63  1  0  0  0
 14 64  1  0  0  0
 14 65  1  0  0  0
 16 66  1  0  0  0
 17 67  1  0  0  0
 17 68  1  0  0  0
 18 69  1  0  0  0
 18 70  1  0  0  0
 19 71  1  0  0  0
 19 72  1  0  0  0
 20 73  1  0  0  0
 21 74  1  0  0  0
 22 75  1  0  0  0
 23 76  1  0  0  0
 24 77  1  0  0  0
 25 78  1  0  0  0
 26 79  1  0  0  0
 27 80  1  0  0  0
 28 81  1  0  0  0
 28 82  1  0  0  0
 29 83  1  0  0  0
 29 84  1  0  0  0
 30 85  1  0  0  0
 30 86  1  0  0  0
 30 87  1  0  0  0
 31 88  1  0  0  0
 31 89  1  0  0  0
 31 90  1  0  0  0
 32 91  1  0  0  0
 32 92  1  0  0  0
 32 93  1  0  0  0
 33 94  1  0  0  0
 33 95  1  0  0  0
 33 96  1  0  0  0
 34 97  1  0  0  0
 34 98  1  0  0  0
 34 99  1  0  0  0
 36100  1  0  0  0
 36101  1  0  0  0
 36102  1  0  0  0
 37103  1  0  0  0
 37104  1  0  0  0
 37105  1  0  0  0
 38106  1  0  0  0
 38107  1  0  0  0
 38108  1  0  0  0
 39109  1  0  0  0
 39110  1  0  0  0
 40111  1  0  0  0
 40112  1  0  0  0
 41113  1  0  0  0
 41114  1  0  0  0
 42115  1  0  0  0
 42116  1  0  0  0
 43117  1  0  0  0
 43118  1  0  0  0
 44119  1  0  0  0
 45120  1  0  0  0
 45121  1  0  0  0
 46122  1  0  0  0
 47123  1  0  0  0
 48124  1  0  0  0
 49125  1  0  0  0
 56126  1  0  0  0
 57127  1  0  0  0
 59128  1  0  0  0
M  END
$$$$
