### 
### Created by X-TOOL on Mon Sep 10 21:12:51 2018
### 

@<TRIPOS>MOLECULE
1o4g_ligand
   25    26     1     0     0
SMALL
GAST_HUCK


@<TRIPOS>ATOM
      1 C1         21.8620   29.4050   15.8120 C.ar      1 I59        -0.0629
      2 C2         21.7960   28.7990   17.0960 C.ar      1 I59        -0.0569
      3 C3         20.5400   28.3900   17.5910 C.ar      1 I59        -0.0242
      4 C4         19.3210   28.5830   16.7830 C.ar      1 I59        -0.0083
      5 C5         19.4290   29.2090   15.5000 C.ar      1 I59        -0.0547
      6 C6         20.7030   29.6120   15.0280 C.ar      1 I59        -0.0625
      7 C7         20.4670   27.7650   18.8530 C.ar      1 I59        -0.0631
      8 C8         19.2250   27.3110   19.3150 C.ar      1 I59        -0.0706
      9 C9         18.0460   27.4800   18.5260 C.ar      1 I59        -0.0569
     10 C10        18.0530   28.1140   17.2640 C.ar      1 I59         0.0125
     11 C11        16.8120   28.2920   16.4450 C.3       1 I59         0.1614
     12 O12        16.4530   27.1220   15.6900 O.3       1 I59        -0.3623
     13 P13        15.4140   29.0300   17.3630 P.3       1 I59         0.1016
     14 O15        15.8490   30.5200   17.5180 O.co2     1 I59        -0.5590
     15 O16        15.0960   28.3870   18.6210 O.co2     1 I59        -0.5590
     16 O17        14.2020   29.0850   16.4470 O.co2     1 I59        -0.5590
     17 H1         22.8250   29.7164   15.4237 H         1 I59         0.0616
     18 H2         22.6948   28.6537   17.6843 H         1 I59         0.0609
     19 H3         18.5445   29.3732   14.8952 H         1 I59         0.0628
     20 H4         20.7902   30.0838   14.0560 H         1 I59         0.0601
     21 H5         21.3585   27.6378   19.4564 H         1 I59         0.0542
     22 H6         19.1577   26.8260   20.2821 H         1 I59         0.0595
     23 H7         17.1052   27.1053   18.9128 H         1 I59         0.0531
     24 H8         17.0796   29.0450   15.6891 H         1 I59         0.0967
     25 H9         16.1177   26.4567   16.2794 H         1 I59         0.2150
@<TRIPOS>BOND
     1    1    2 ar 
     2    1    6 ar 
     3    2    3 ar 
     4    3    4 ar 
     5    3    7 ar 
     6    4    5 ar 
     7    4   10 ar 
     8    5    6 ar 
     9    7    8 ar 
    10    8    9 ar 
    11    9   10 ar 
    12   10   11 1  
    13   11   12 1  
    14   11   13 1  
    15   13   14 ar 
    16   13   15 ar 
    17   13   16 ar 
    18    1   17 1  
    19    2   18 1  
    20    5   19 1  
    21    6   20 1  
    22    7   21 1  
    23    8   22 1  
    24    9   23 1  
    25   11   24 1  
    26   12   25 1  
@<TRIPOS>SUBSTRUCTURE
     1 I59         1

