6oxx_ligand
  -I-interpret- 

 87 90  0  0  0  0  0  0  0  0999 V2000
   71.0470   57.6330   15.1580 C   0  0  0  0  0
   70.6830   57.9830   16.6240 C   0  0  0  0  0
   72.6450   58.6060   18.1680 C   0  0  0  0  0
   74.2910   59.6690   19.6530 C   0  0  0  0  0
   75.7430   60.2820   19.2080 C   0  0  0  0  0
   74.4590   61.9260   20.1600 C   0  0  0  0  0
   72.1280   61.8040   19.8460 C   0  0  0  0  0
   69.3130   58.6620   16.7130 C   0  0  0  0  0
   67.3120   51.3450   13.5790 C   0  0  0  0  0
   66.8700   52.7960   13.4370 C   0  0  0  0  0
   67.5070   53.8390   14.3600 C   0  0  0  0  0
   68.5320   53.3710   15.3490 C   0  0  0  0  0
   68.9890   51.9190   15.4800 C   0  0  0  0  0
   68.3690   50.8880   14.5630 C   0  0  0  0  0
   71.4190   54.2380   14.7100 C   0  0  0  0  0
   70.1790   56.4820   14.6610 C   0  0  0  0  0
   73.8500   60.5230   20.5720 C   0  0  0  0  0
   72.3600   60.7490   20.5880 C   0  0  0  0  0
   69.0510   59.0850   18.1800 C   0  0  0  0  0
   69.1930   60.5510   18.5890 C   0  0  0  0  0
   68.9370   60.9680   20.0260 C   0  0  0  0  0
   68.5310   59.9160   21.0790 C   0  0  0  0  0
   68.3890   58.4380   20.6700 C   0  0  0  0  0
   68.6350   58.0210   19.2410 C   0  0  0  0  0
   67.8920   49.8200   11.8330 C   0  0  0  0  0
   72.9560   54.6360   14.7530 C   0  0  0  0  0
   73.4670   54.6190   16.1900 C   0  0  0  0  0
   66.7080   50.3060   12.6340 C   0  0  0  0  0
   73.7570   53.5910   13.9230 C   0  0  0  0  0
   70.5720   55.2490   15.4150 N   0  0  0  0  0
   71.6680   58.9200   17.0700 N   0  0  0  0  0
   68.4010   55.5960   16.9370 O   0  0  0  0  0
   69.9160   53.9090   17.6090 O   0  0  0  0  0
   70.8430   58.7450   14.3600 O   0  0  0  0  0
   72.6730   57.5510   18.7470 O   0  0  0  0  0
   73.5110   59.6810   18.4450 O   0  0  0  0  0
   75.5040   61.5890   19.0650 O   0  0  0  0  0
   73.5320   62.6260   19.6820 O   0  0  0  0  0
   65.8280   50.9740   11.8000 O   0  0  0  0  0
   68.6650   50.9240   11.4490 O   0  0  0  0  0
   69.3450   54.5900   16.4430 S   0  0  0  0  0
   72.0933   57.3311   15.1108 H   0  0  0  0  0
   70.6531   57.0735   17.2241 H   0  0  0  0  0
   74.2787   58.6607   20.0669 H   0  0  0  0  0
   76.1246   59.8264   18.2943 H   0  0  0  0  0
   76.5228   60.0795   19.9422 H   0  0  0  0  0
   74.9087   62.4731   20.9886 H   0  0  0  0  0
   71.3745   62.4362   20.3157 H   0  0  0  0  0
   71.7527   61.5014   18.8684 H   0  0  0  0  0
   68.5381   57.9680   16.3876 H   0  0  0  0  0
   69.2973   59.5416   16.0695 H   0  0  0  0  0
   66.1212   53.0838   12.6990 H   0  0  0  0  0
   67.2237   54.8898   14.2997 H   0  0  0  0  0
   69.7418   51.6336   16.2148 H   0  0  0  0  0
   68.6751   49.8429   14.6092 H   0  0  0  0  0
   71.2969   53.2766   15.2089 H   0  0  0  0  0
   71.1036   54.1894   13.6678 H   0  0  0  0  0
   70.3264   56.3330   13.5913 H   0  0  0  0  0
   69.1251   56.7056   14.8267 H   0  0  0  0  0
   74.1315   60.1166   21.5434 H   0  0  0  0  0
   71.8322   59.8783   20.1988 H   0  0  0  0  0
   72.0031   60.9056   21.6059 H   0  0  0  0  0
   69.9127   58.4456   17.9884 H   0  0  0  0  0
   68.4251   61.0692   18.0146 H   0  0  0  0  0
   70.2460   60.7788   18.4232 H   0  0  0  0  0
   68.0777   61.6359   19.9652 H   0  0  0  0  0
   69.8993   61.3428   20.3747 H   0  0  0  0  0
   67.5289   60.2118   21.3895 H   0  0  0  0  0
   69.3468   59.9230   21.8019 H   0  0  0  0  0
   67.3376   58.2082   20.8428 H   0  0  0  0  0
   69.1622   57.9230   21.2401 H   0  0  0  0  0
   69.4874   57.3440   19.2972 H   0  0  0  0  0
   67.6695   57.6529   18.8942 H   0  0  0  0  0
   67.5442   49.2881   10.9474 H   0  0  0  0  0
   68.4934   49.1423   12.4390 H   0  0  0  0  0
   73.0828   55.6380   14.3430 H   0  0  0  0  0
   72.8972   55.3324   16.7854 H   0  0  0  0  0
   73.3460   53.6186   16.6055 H   0  0  0  0  0
   74.5217   54.8939   16.2025 H   0  0  0  0  0
   66.1816   49.4922   13.1327 H   0  0  0  0  0
   73.6154   52.6002   14.3548 H   0  0  0  0  0
   73.3987   53.5947   12.8936 H   0  0  0  0  0
   74.8159   53.8488   13.9414 H   0  0  0  0  0
   71.7087   59.8371   16.6253 H   0  0  0  0  0
   71.3904   59.4681   14.6748 H   0  0  0  0  0
   65.4289   50.3485   11.1908 H   0  0  0  0  0
   69.4203   50.6225   10.9389 H   0  0  0  0  0
  1  2  1  0  0  0
 16  1  1  0  0  0
  1 34  1  0  0  0
  2  8  1  0  0  0
  2 31  1  0  0  0
 31  3  1  0  0  0
  3 35  2  0  0  0
  3 36  1  0  0  0
  4  5  1  0  0  0
  4 17  1  0  0  0
 36  4  1  0  0  0
  5 37  1  0  0  0
 17  6  1  0  0  0
  6 37  1  0  0  0
  6 38  1  0  0  0
 18  7  1  0  0  0
  7 38  1  0  0  0
  8 19  1  0  0  0
 10  9  4  0  0  0
 14  9  4  0  0  0
  9 28  1  0  0  0
 11 10  4  0  0  0
 12 11  4  0  0  0
 12 13  4  0  0  0
 41 12  1  0  0  0
 13 14  4  0  0  0
 15 26  1  0  0  0
 30 15  1  0  0  0
 30 16  1  0  0  0
 17 18  1  0  0  0
 19 20  1  0  0  0
 19 24  1  0  0  0
 20 21  1  0  0  0
 21 22  1  0  0  0
 23 22  1  0  0  0
 24 23  1  0  0  0
 28 25  1  0  0  0
 25 40  1  0  0  0
 26 27  1  0  0  0
 26 29  1  0  0  0
 28 39  1  0  0  0
 30 41  1  0  0  0
 41 32  2  0  0  0
 41 33  2  0  0  0
  1 42  1  0  0  0
  2 43  1  0  0  0
  4 44  1  0  0  0
  5 45  1  0  0  0
  5 46  1  0  0  0
  6 47  1  0  0  0
  7 48  1  0  0  0
  7 49  1  0  0  0
  8 50  1  0  0  0
  8 51  1  0  0  0
 10 52  1  0  0  0
 11 53  1  0  0  0
 13 54  1  0  0  0
 14 55  1  0  0  0
 15 56  1  0  0  0
 15 57  1  0  0  0
 16 58  1  0  0  0
 16 59  1  0  0  0
 17 60  1  0  0  0
 18 61  1  0  0  0
 18 62  1  0  0  0
 19 63  1  0  0  0
 20 64  1  0  0  0
 20 65  1  0  0  0
 21 66  1  0  0  0
 21 67  1  0  0  0
 22 68  1  0  0  0
 22 69  1  0  0  0
 23 70  1  0  0  0
 23 71  1  0  0  0
 24 72  1  0  0  0
 24 73  1  0  0  0
 25 74  1  0  0  0
 25 75  1  0  0  0
 26 76  1  0  0  0
 27 77  1  0  0  0
 27 78  1  0  0  0
 27 79  1  0  0  0
 28 80  1  0  0  0
 29 81  1  0  0  0
 29 82  1  0  0  0
 29 83  1  0  0  0
 31 84  1  0  0  0
 34 85  1  0  0  0
 39 86  1  0  0  0
 40 87  1  0  0  0
M  END
$$$$
