5aan_ligand
  -I-interpret- 

 46 49  0  0  0  0  0  0  0  0999 V2000
   -7.3860   -1.8160   10.5610 C   0  0  0  0  0
   -7.3000   -0.4370   10.3860 C   0  0  0  0  0
   -7.2870    0.3750   11.5130 C   0  0  0  0  0
   -7.3500   -0.2040   12.7810 C   0  0  0  0  0
   -7.4300   -1.5850   12.9480 C   0  0  0  0  0
   -7.4540   -2.4000   11.8160 C   0  0  0  0  0
   -6.3550   -4.3730   11.2220 C   0  0  0  0  0
   -5.4130   -5.1970   11.8450 C   0  0  0  0  0
   -4.3140   -5.6430   11.1090 C   0  0  0  0  0
   -4.1360   -5.2680    9.7840 C   0  0  0  0  0
   -5.0650   -4.4390    9.1600 C   0  0  0  0  0
   -6.1650   -4.0060    9.8930 C   0  0  0  0  0
   -8.0630   -5.5780   13.4210 C   0  0  0  0  0
   -9.1020   -6.6970   13.4480 C   0  0  0  0  0
   -7.8190   -8.5570   14.2560 C   0  0  0  0  0
   -7.4080   -9.9980   14.0550 C   0  0  0  0  0
   -7.4450  -10.2840   12.6010 C   0  0  0  0  0
   -8.9010  -10.1930   12.1630 C   0  0  0  0  0
   -9.5760   -8.9650   12.7180 C   0  0  0  0  0
   -7.5050   -3.8190   11.8460 N   0  0  0  0  0
   -8.4270   -4.5220   12.6700 N   0  0  0  0  0
   -8.5450   -8.0050   13.0860 N   0  3  0  0  0
   -7.0140   -5.6730   14.0630 O   0  0  0  0  0
   -7.3860   -2.9370    9.2020 S   0  0  0  0  0
   -7.2441   -0.0045    9.3870 H   0  0  0  0  0
   -7.2279    1.4583   11.4074 H   0  0  0  0  0
   -7.3363    0.4389   13.6611 H   0  0  0  0  0
   -7.4731   -2.0211   13.9460 H   0  0  0  0  0
   -5.5348   -5.4865   12.8888 H   0  0  0  0  0
   -3.5824   -6.2974   11.5829 H   0  0  0  0  0
   -3.2668   -5.6234    9.2307 H   0  0  0  0  0
   -4.9331   -4.1365    8.1212 H   0  0  0  0  0
   -9.8738   -6.4513   12.7186 H   0  0  0  0  0
   -9.4856   -6.7695   14.4657 H   0  0  0  0  0
   -6.9144   -7.9662   14.3999 H   0  0  0  0  0
   -8.4865   -8.5145   15.1167 H   0  0  0  0  0
   -8.0884  -10.6623   14.5877 H   0  0  0  0  0
   -6.4041  -10.1622   14.4465 H   0  0  0  0  0
   -7.0423  -11.2755   12.3937 H   0  0  0  0  0
   -6.8330   -9.5680   12.0525 H   0  0  0  0  0
   -9.4269  -11.0717   12.5364 H   0  0  0  0  0
   -8.9288  -10.1373   11.0748 H   0  0  0  0  0
  -10.1717   -9.2281   13.5921 H   0  0  0  0  0
  -10.2403   -8.5325   11.9698 H   0  0  0  0  0
   -9.3993   -4.2147   12.6926 H   0  0  0  0  0
   -7.9316   -7.8617   12.2837 H   0  0  0  0  0
  1  2  4  0  0  0
  6  1  4  0  0  0
  1 24  1  0  0  0
  2  3  4  0  0  0
  4  3  4  0  0  0
  5  4  4  0  0  0
  6  5  4  0  0  0
 20  6  1  0  0  0
  7  8  4  0  0  0
  7 12  4  0  0  0
 20  7  1  0  0  0
  8  9  4  0  0  0
  9 10  4  0  0  0
 11 10  4  0  0  0
 12 11  4  0  0  0
 12 24  1  0  0  0
 13 14  1  0  0  0
 21 13  1  0  0  0
 13 23  2  0  0  0
 14 22  1  0  0  0
 15 16  1  0  0  0
 22 15  1  0  0  0
 16 17  1  0  0  0
 18 17  1  0  0  0
 19 18  1  0  0  0
 22 19  1  0  0  0
 20 21  1  0  0  0
  2 25  1  0  0  0
  3 26  1  0  0  0
  4 27  1  0  0  0
  5 28  1  0  0  0
  8 29  1  0  0  0
  9 30  1  0  0  0
 10 31  1  0  0  0
 11 32  1  0  0  0
 14 33  1  0  0  0
 14 34  1  0  0  0
 15 35  1  0  0  0
 15 36  1  0  0  0
 16 37  1  0  0  0
 16 38  1  0  0  0
 17 39  1  0  0  0
 17 40  1  0  0  0
 18 41  1  0  0  0
 18 42  1  0  0  0
 19 43  1  0  0  0
 19 44  1  0  0  0
 21 45  1  0  0  0
 22 46  1  0  0  0
M  END
$$$$
