6a93_ligand
  -I-interpret- 

 58 62  0  0  0  0  0  0  0  0999 V2000
   10.8750    1.4190   64.6530 C   0  0  0  0  0
   10.0800    0.2610   63.7990 C   0  0  0  0  0
   10.3740    0.0030   62.5010 C   0  0  0  0  0
   11.4700    0.7270   61.6580 C   0  0  0  0  0
   12.8300    0.0680   61.8460 C   0  0  0  0  0
   15.1460    0.2650   61.4670 C   0  0  0  0  0
   16.3220    0.4130   60.4880 C   0  0  0  0  0
   16.0830   -0.3110   59.1370 C   0  0  0  0  0
   14.7150    0.1020   58.5670 C   0  0  0  0  0
   13.5600    0.0200   59.5630 C   0  0  0  0  0
   17.1410   -0.0710   58.0390 C   0  0  0  0  0
   19.1000   -0.1510   56.7940 C   0  0  0  0  0
   18.5100   -0.6800   57.9630 C   0  0  0  0  0
   19.2850   -1.5900   58.7420 C   0  0  0  0  0
   20.5830   -1.9640   58.3730 C   0  0  0  0  0
   21.1610   -1.4150   57.1770 C   0  0  0  0  0
   20.4310   -0.5050   56.3770 C   0  0  0  0  0
    9.6250   -1.0970   61.6990 C   0  0  0  0  0
    7.6810   -3.0120   61.7640 C   0  0  0  0  0
    7.0730   -4.0500   62.7310 C   0  0  0  0  0
    6.2580   -3.3280   63.7790 C   0  0  0  0  0
    7.1480   -2.3410   64.5610 C   0  0  0  0  0
    8.3460   -1.4600   63.8190 C   0  0  0  0  0
   22.3840   -1.7800   56.8470 F   0  0  0  0  0
   13.8330    0.6560   60.8930 N   0  3  0  0  0
   17.0180    0.7350   56.9740 N   0  0  0  0  0
    8.5350   -1.8620   62.4550 N   0  0  0  0  0
    9.0170   -0.5180   64.4590 N   0  0  0  0  0
   18.1460    0.7090   56.2220 O   0  0  0  0  0
    9.8410   -1.3830   60.5280 O   0  0  0  0  0
   11.9381    1.1803   64.6839 H   0  0  0  0  0
   10.7324    2.3862   64.1711 H   0  0  0  0  0
   10.4798    1.4556   65.6682 H   0  0  0  0  0
   11.5360    1.7637   61.9881 H   0  0  0  0  0
   11.1960    0.6676   60.6047 H   0  0  0  0  0
   12.7373   -1.0001   61.6496 H   0  0  0  0  0
   13.1689    0.2381   62.8679 H   0  0  0  0  0
   15.3411    0.9268   62.3109 H   0  0  0  0  0
   15.0805   -0.7886   61.7385 H   0  0  0  0  0
   17.1995   -0.0356   60.9538 H   0  0  0  0  0
   16.4463    1.4752   60.2774 H   0  0  0  0  0
   16.1421   -1.3701   59.3879 H   0  0  0  0  0
   14.4860   -0.5901   57.7567 H   0  0  0  0  0
   14.7991    1.1453   58.2627 H   0  0  0  0  0
   13.3762   -1.0381   59.7492 H   0  0  0  0  0
   12.7210    0.5573   59.1207 H   0  0  0  0  0
   18.8536   -2.0068   59.6521 H   0  0  0  0  0
   21.1494   -2.6645   58.9867 H   0  0  0  0  0
   20.8646   -0.0837   55.4700 H   0  0  0  0  0
    6.8451   -2.5234   61.2633 H   0  0  0  0  0
    8.3609   -3.5558   61.1082 H   0  0  0  0  0
    7.8709   -4.6162   63.2116 H   0  0  0  0  0
    6.4336   -4.7376   62.1775 H   0  0  0  0  0
    5.8417   -4.0587   64.4724 H   0  0  0  0  0
    5.4574   -2.7742   63.2887 H   0  0  0  0  0
    7.6925   -2.9810   65.2553 H   0  0  0  0  0
    6.4469   -1.5812   64.9062 H   0  0  0  0  0
   13.8005    1.6678   60.7680 H   0  0  0  0  0
  2  1  1  0  0  0
  3  2  2  0  0  0
  2 28  1  0  0  0
  3  4  1  0  0  0
 18  3  1  0  0  0
  4  5  1  0  0  0
  5 25  1  0  0  0
  6  7  1  0  0  0
 25  6  1  0  0  0
  7  8  1  0  0  0
  9  8  1  0  0  0
  8 11  1  0  0  0
 10  9  1  0  0  0
 25 10  1  0  0  0
 11 13  4  0  0  0
 11 26  4  0  0  0
 13 12  4  0  0  0
 12 17  4  0  0  0
 12 29  4  0  0  0
 13 14  4  0  0  0
 14 15  4  0  0  0
 15 16  4  0  0  0
 17 16  4  0  0  0
 16 24  1  0  0  0
 27 18  1  0  0  0
 18 30  2  0  0  0
 19 20  1  0  0  0
 19 27  1  0  0  0
 20 21  1  0  0  0
 21 22  1  0  0  0
 22 23  1  0  0  0
 23 27  1  0  0  0
 23 28  2  0  0  0
 26 29  4  0  0  0
  1 31  1  0  0  0
  1 32  1  0  0  0
  1 33  1  0  0  0
  4 34  1  0  0  0
  4 35  1  0  0  0
  5 36  1  0  0  0
  5 37  1  0  0  0
  6 38  1  0  0  0
  6 39  1  0  0  0
  7 40  1  0  0  0
  7 41  1  0  0  0
  8 42  1  0  0  0
  9 43  1  0  0  0
  9 44  1  0  0  0
 10 45  1  0  0  0
 10 46  1  0  0  0
 14 47  1  0  0  0
 15 48  1  0  0  0
 17 49  1  0  0  0
 19 50  1  0  0  0
 19 51  1  0  0  0
 20 52  1  0  0  0
 20 53  1  0  0  0
 21 54  1  0  0  0
 21 55  1  0  0  0
 22 56  1  0  0  0
 22 57  1  0  0  0
 25 58  1  0  0  0
M  END
$$$$
