6ffs_ligand
  -I-interpret- 

 72 74  0  0  0  0  0  0  0  0999 V2000
  -28.2950    4.6700    0.2210 C   0  0  0  0  0
  -28.3060    5.5320    1.5080 C   0  0  0  0  0
  -26.2790    6.4190   -2.5500 C   0  0  0  0  0
  -26.2770    7.9250   -2.6120 C   0  0  0  0  0
  -26.3040    5.7560   -3.9690 C   0  0  0  0  0
  -25.6250    4.3630   -3.9540 C   0  0  0  0  0
  -25.8230    3.5150   -5.1830 C   0  0  0  0  0
  -29.5840    5.4550    2.3380 C   0  0  0  0  0
  -29.4930    5.2660    3.7250 C   0  0  0  0  0
  -30.6470    5.1920    4.5090 C   0  0  0  0  0
  -31.9000    5.3150    3.9060 C   0  0  0  0  0
  -31.9920    5.5240    2.5300 C   0  0  0  0  0
  -30.8360    5.5970    1.7450 C   0  0  0  0  0
  -24.3480    2.1430   -3.8590 C   0  0  0  0  0
  -24.8370    1.0530   -2.8580 C   0  0  0  0  0
  -25.5820    1.6060   -1.5980 C   0  0  0  0  0
  -28.0240    3.2350    0.4150 N   0  0  0  0  0
  -28.0510    2.2630   -0.5430 C   0  0  0  0  0
  -28.3560    2.5640   -1.6910 O   0  0  0  0  0
  -27.7190    0.7820   -0.3530 C   0  0  0  0  0
  -28.5980    0.0270   -1.2340 N   0  0  0  0  0
  -26.2280    0.5040   -0.7040 C   0  0  0  0  0
  -29.6360   -0.6790   -0.7400 C   0  0  0  0  0
  -27.1760    5.1580   -0.6510 C   0  0  0  0  0
  -27.4050    5.9370   -1.7330 N   0  0  0  0  0
  -26.0480    4.8370   -0.2930 O   0  0  0  0  0
  -26.1930    8.6800   -1.5190 O   0  0  0  0  0
  -26.5210    3.9170   -6.1430 O   0  0  0  0  0
  -25.1390    2.3370   -5.0950 N   0  0  0  0  0
  -33.0080    5.2470    4.6400 F   0  0  0  0  0
  -30.5030   -1.3980   -1.6860 C   0  0  0  0  0
  -29.9190   -0.7540    0.4400 O   0  0  0  0  0
  -30.1910   -1.5450   -2.9090 N   0  0  0  0  0
  -31.2650   -2.2700   -3.4910 O   0  0  0  0  0
  -32.1480   -2.4600   -2.5170 C   0  0  0  0  0
  -31.8030   -1.9640   -1.3400 C   0  0  0  0  0
  -33.4170   -3.1950   -2.8370 C   0  0  0  0  0
  -25.1520    1.3360   -6.1400 C   0  0  0  0  0
  -29.2981    4.7704   -0.1935 H   0  0  0  0  0
  -28.2052    6.5691    1.1882 H   0  0  0  0  0
  -27.5016    5.1564    2.1405 H   0  0  0  0  0
  -25.3425    6.1204   -2.0789 H   0  0  0  0  0
  -27.2624    8.1646   -3.0117 H   0  0  0  0  0
  -25.3590    8.1562   -3.1522 H   0  0  0  0  0
  -25.7602    6.3988   -4.6612 H   0  0  0  0  0
  -27.3428    5.6316   -4.2748 H   0  0  0  0  0
  -26.0759    3.8129   -3.1281 H   0  0  0  0  0
  -24.5532    4.5470   -3.8800 H   0  0  0  0  0
  -28.5137    5.1761    4.1950 H   0  0  0  0  0
  -30.5694    5.0391    5.5854 H   0  0  0  0  0
  -32.9711    5.6312    2.0630 H   0  0  0  0  0
  -30.9153    5.7648    0.6709 H   0  0  0  0  0
  -23.3614    1.8178   -4.1892 H   0  0  0  0  0
  -24.4101    3.0876   -3.3187 H   0  0  0  0  0
  -23.9493    0.5330   -2.4979 H   0  0  0  0  0
  -25.5477    0.4255   -3.3958 H   0  0  0  0  0
  -26.3896    2.2446   -1.9559 H   0  0  0  0  0
  -24.8418    2.1230   -0.9874 H   0  0  0  0  0
  -27.7924    2.9371    1.3626 H   0  0  0  0  0
  -27.8678    0.4872    0.6858 H   0  0  0  0  0
  -28.4266    0.0318   -2.2395 H   0  0  0  0  0
  -25.6714    0.4749    0.2327 H   0  0  0  0  0
  -26.1923   -0.4320   -1.2615 H   0  0  0  0  0
  -28.3605    6.1912   -1.9835 H   0  0  0  0  0
  -26.2075    9.6066   -1.7696 H   0  0  0  0  0
  -32.3349   -1.9749   -0.3887 H   0  0  0  0  0
  -33.9640   -2.6539   -3.6091 H   0  0  0  0  0
  -33.1753   -4.1958   -3.1949 H   0  0  0  0  0
  -34.0300   -3.2672   -1.9386 H   0  0  0  0  0
  -26.1753    0.9995   -6.3063 H   0  0  0  0  0
  -24.7561    1.7673   -7.0594 H   0  0  0  0  0
  -24.5344    0.4899   -5.8386 H   0  0  0  0  0
  1  2  1  0  0  0
 17  1  1  0  0  0
  1 24  1  0  0  0
  2  8  1  0  0  0
  3  4  1  0  0  0
  5  3  1  0  0  0
  3 25  1  0  0  0
  4 27  1  0  0  0
  6  5  1  0  0  0
  7  6  1  0  0  0
  7 28  2  0  0  0
 29  7  1  0  0  0
  8  9  4  0  0  0
  8 13  4  0  0  0
  9 10  4  0  0  0
 10 11  4  0  0  0
 12 11  4  0  0  0
 11 30  1  0  0  0
 13 12  4  0  0  0
 15 14  1  0  0  0
 14 29  1  0  0  0
 16 15  1  0  0  0
 22 16  1  0  0  0
 18 17  1  0  0  0
 18 19  2  0  0  0
 20 18  1  0  0  0
 20 21  1  0  0  0
 20 22  1  0  0  0
 21 23  1  0  0  0
 23 31  1  0  0  0
 23 32  2  0  0  0
 24 25  1  0  0  0
 24 26  2  0  0  0
 29 38  1  0  0  0
 31 33  4  0  0  0
 31 36  4  0  0  0
 33 34  4  0  0  0
 34 35  4  0  0  0
 35 36  4  0  0  0
 35 37  1  0  0  0
  1 39  1  0  0  0
  2 40  1  0  0  0
  2 41  1  0  0  0
  3 42  1  0  0  0
  4 43  1  0  0  0
  4 44  1  0  0  0
  5 45  1  0  0  0
  5 46  1  0  0  0
  6 47  1  0  0  0
  6 48  1  0  0  0
  9 49  1  0  0  0
 10 50  1  0  0  0
 12 51  1  0  0  0
 13 52  1  0  0  0
 14 53  1  0  0  0
 14 54  1  0  0  0
 15 55  1  0  0  0
 15 56  1  0  0  0
 16 57  1  0  0  0
 16 58  1  0  0  0
 17 59  1  0  0  0
 20 60  1  0  0  0
 21 61  1  0  0  0
 22 62  1  0  0  0
 22 63  1  0  0  0
 25 64  1  0  0  0
 27 65  1  0  0  0
 36 66  1  0  0  0
 37 67  1  0  0  0
 37 68  1  0  0  0
 37 69  1  0  0  0
 38 70  1  0  0  0
 38 71  1  0  0  0
 38 72  1  0  0  0
M  END
$$$$
