2byp_ligand
  -I-interpret- 

169173  0  0  0  0  0  0  0  0999 V2000
   36.1300   50.5560   86.2740 N   0  3  0  0  0
   34.8540   50.2790   86.9850 C   0  0  0  0  0
   33.7090   50.0700   86.0320 C   0  0  0  0  0
   33.9150   49.8250   84.8400 O   0  0  0  0  0
   32.5060   50.1790   86.5810 N   0  0  0  0  0
   31.2680   49.9360   85.8740 C   0  0  0  0  0
   31.1830   50.6650   84.5390 C   0  0  0  0  0
   30.8570   50.0730   83.5170 O   0  0  0  0  0
   30.1150   50.3840   86.7560 C   0  0  0  0  0
   28.5260   50.4390   85.9460 S   0  0  0  0  0
   31.4790   51.9610   84.5640 N   0  0  0  0  0
   31.3000   52.8220   83.3920 C   0  0  0  0  0
   32.2680   52.5060   82.2300 C   0  0  0  0  0
   32.0700   53.0200   81.1250 O   0  0  0  0  0
   31.3670   54.2900   83.8260 C   0  0  0  0  0
   30.1880   54.5940   85.2360 S   0  0  0  0  0
   33.2660   51.6470   82.4730 N   0  0  0  0  0
   34.1240   51.0830   81.4230 C   0  0  0  0  0
   33.6350   49.7370   80.8570 C   0  0  0  0  0
   34.0530   49.3210   79.7730 O   0  0  0  0  0
   35.5480   50.8980   81.9460 C   0  0  0  0  0
   36.0700   52.1200   82.4510 O   0  0  0  0  0
   32.7610   49.0630   81.5980 N   0  0  0  0  0
   32.2800   47.7320   81.2580 C   0  0  0  0  0
   31.0010   47.8240   80.4430 C   0  0  0  0  0
   30.0200   48.3670   80.9070 O   0  0  0  0  0
   32.0170   46.9420   82.5420 C   0  0  0  0  0
   31.7890   45.4580   82.2910 C   0  0  0  0  0
   32.3640   44.6560   83.0250 O   0  0  0  0  0
   31.0390   45.0900   81.3830 O   0  0  0  0  0
   31.0030   47.2640   79.2170 N   0  0  0  0  0
   29.8360   47.3660   78.3440 C   0  0  0  0  0
   28.5470   46.7290   78.8680 C   0  0  0  0  0
   27.4660   47.1010   78.4270 O   0  0  0  0  0
   30.2860   46.6850   77.0430 C   0  0  0  0  0
   31.5320   46.0340   77.3220 C   0  0  0  0  0
   32.1110   46.5440   78.5840 C   0  0  0  0  0
   28.6620   45.7640   79.7690 N   0  0  0  0  0
   27.4930   45.1480   80.4280 C   0  0  0  0  0
   26.8540   46.0670   81.5060 C   0  0  0  0  0
   25.7140   45.8820   81.8760 O   0  0  0  0  0
   27.9240   43.8150   81.0810 C   0  0  0  0  0
   28.4430   42.7540   80.1010 C   0  0  0  0  0
   29.2120   41.6490   80.7960 C   0  0  0  0  0
   30.4160   42.1230   81.4920 N   0  0  0  0  0
   31.3340   41.3280   82.0280 C   0  0  0  0  0
   31.2470   40.0200   81.8880 N   0  0  0  0  0
   32.3820   41.8330   82.6450 N   0  0  0  0  0
   27.6330   47.0130   82.0260 N   0  0  0  0  0
   27.2580   47.8520   83.1740 C   0  0  0  0  0
   27.0210   49.3160   82.7940 C   0  0  0  0  0
   26.1230   49.9530   83.3360 O   0  0  0  0  0
   28.3670   47.8010   84.2350 C   0  0  0  0  0
   27.9040   48.4780   85.9200 S   0  0  0  0  0
   27.8280   49.8350   81.8620 N   0  0  0  0  0
   27.9400   51.2740   81.6090 C   0  0  0  0  0
   26.6130   51.9950   81.4000 C   0  0  0  0  0
   26.4980   53.1590   81.7240 O   0  0  0  0  0
   28.8790   51.5310   80.4200 C   0  0  0  0  0
   25.6190   51.3030   80.8680 N   0  0  0  0  0
   24.2820   51.8710   80.6860 C   0  0  0  0  0
   23.5920   52.3450   81.9820 C   0  0  0  0  0
   22.5860   53.0530   81.9210 O   0  0  0  0  0
   23.3850   50.8560   80.0010 C   0  0  0  0  0
   23.1200   49.6390   80.8200 C   0  0  0  0  0
   23.9080   48.5220   80.9190 C   0  0  0  0  0
   21.9800   49.4000   81.6670 C   0  0  0  0  0
   23.3330   47.6120   81.7780 N   0  0  0  0  0
   22.1470   48.1190   82.2430 C   0  0  0  0  0
   20.8400   50.1420   81.9960 C   0  0  0  0  0
   21.2090   47.5620   83.1180 C   0  0  0  0  0
   19.9030   49.5810   82.8730 C   0  0  0  0  0
   20.0970   48.3080   83.4190 C   0  0  0  0  0
   24.1210   51.9370   83.1310 N   0  0  0  0  0
   23.6290   52.3770   84.4350 C   0  0  0  0  0
   24.1980   53.7370   84.8700 C   0  0  0  0  0
   23.7060   54.3170   85.8300 O   0  0  0  0  0
   23.9540   51.3220   85.4930 C   0  0  0  0  0
   23.2320   50.0150   85.2520 C   0  0  0  0  0
   23.5980   48.9760   86.3060 C   0  0  0  0  0
   22.9190   47.7060   86.0500 N   0  0  0  0  0
   21.6960   47.3920   86.4910 C   0  0  0  0  0
   21.0040   48.2400   87.2460 N   0  0  0  0  0
   21.1700   46.2030   86.1880 N   0  0  0  0  0
   25.2010   54.2990   84.1940 N   0  0  0  0  0
   25.9710   55.4490   84.6140 C   0  0  0  0  0
   25.3110   56.7350   84.1830 C   0  0  0  0  0
   24.5510   56.7450   83.2230 O   0  0  0  0  0
   27.3610   55.3220   84.0160 C   0  0  0  0  0
   28.3070   53.9870   84.8010 S   0  0  0  0  0
   25.5710   57.8630   84.8740 N   0  0  0  0  0
   36.8759   50.6906   86.9566 H   0  0  0  0  0
   36.3591   49.7671   85.6694 H   0  0  0  0  0
   36.0273   51.3996   85.7100 H   0  0  0  0  0
   34.6211   51.1390   87.6129 H   0  0  0  0  0
   34.9811   49.3674   87.5689 H   0  0  0  0  0
   32.4509   50.4510   87.5625 H   0  0  0  0  0
   31.2212   48.8692   85.6552 H   0  0  0  0  0
   30.3405   51.4008   87.0774 H   0  0  0  0  0
   30.0329   49.6550   87.5622 H   0  0  0  0  0
   31.8419   52.3685   85.4258 H   0  0  0  0  0
   30.3125   52.6152   82.9795 H   0  0  0  0  0
   31.0902   54.9251   82.9845 H   0  0  0  0  0
   32.3813   54.5213   84.1512 H   0  0  0  0  0
   33.4396   51.3695   83.4391 H   0  0  0  0  0
   34.0885   51.8055   80.6076 H   0  0  0  0  0
   36.1805   50.5613   81.1246 H   0  0  0  0  0
   35.5309   50.1657   82.7532 H   0  0  0  0  0
   36.9632   51.9766   82.7724 H   0  0  0  0  0
   32.4092   49.5014   82.4491 H   0  0  0  0  0
   33.0381   47.2229   80.6629 H   0  0  0  0  0
   31.1133   47.3440   83.0001 H   0  0  0  0  0
   32.8966   47.0399   83.1782 H   0  0  0  0  0
   30.6894   45.8589   80.9268 H   0  0  0  0  0
   29.5547   48.4139   78.2393 H   0  0  0  0  0
   30.4031   47.4173   76.2442 H   0  0  0  0  0
   29.5406   45.9645   76.7063 H   0  0  0  0  0
   32.2270   46.2347   76.5067 H   0  0  0  0  0
   31.3579   44.9624   77.4196 H   0  0  0  0  0
   32.4972   45.7432   79.2146 H   0  0  0  0  0
   32.9758   47.1850   78.4124 H   0  0  0  0  0
   29.5947   45.4338   80.0170 H   0  0  0  0  0
   26.7375   44.9805   79.6604 H   0  0  0  0  0
   27.0382   43.3968   81.5591 H   0  0  0  0  0
   28.7451   44.0467   81.7594 H   0  0  0  0  0
   29.1188   43.2449   79.4007 H   0  0  0  0  0
   27.5826   42.3045   79.6053 H   0  0  0  0  0
   29.5322   40.9411   80.0315 H   0  0  0  0  0
   28.5518   41.2102   81.5442 H   0  0  0  0  0
   30.5558   43.1305   81.5684 H   0  0  0  0  0
   31.9840   39.4177   82.2547 H   0  0  0  0  0
   30.4427   39.6103   81.4129 H   0  0  0  0  0
   32.4945   42.8444   82.7147 H   0  0  0  0  0
   28.5478   47.1655   81.6013 H   0  0  0  0  0
   26.3208   47.4503   83.5592 H   0  0  0  0  0
   29.1807   48.4238   83.8634 H   0  0  0  0  0
   28.6097   46.7483   84.3797 H   0  0  0  0  0
   28.3929   49.1981   81.3001 H   0  0  0  0  0
   28.3559   51.6974   82.5233 H   0  0  0  0  0
   29.8669   51.1293   80.6454 H   0  0  0  0  0
   28.4804   51.0414   79.5315 H   0  0  0  0  0
   28.9534   52.6039   80.2427 H   0  0  0  0  0
   25.7899   50.3411   80.5747 H   0  0  0  0  0
   24.4305   52.7620   80.0760 H   0  0  0  0  0
   23.8938   50.5326   79.0929 H   0  0  0  0  0
   22.4258   51.3404   79.8183 H   0  0  0  0  0
   24.8521   48.3753   80.3944 H   0  0  0  0  0
   20.6844   51.1366   81.5781 H   0  0  0  0  0
   21.3559   46.5703   83.5459 H   0  0  0  0  0
   19.0080   50.1457   83.1342 H   0  0  0  0  0
   19.3488   47.8995   84.0983 H   0  0  0  0  0
   24.9064   51.2869   83.1014 H   0  0  0  0  0
   22.5505   52.5016   84.3380 H   0  0  0  0  0
   23.6346   51.7081   86.4610 H   0  0  0  0  0
   25.0254   51.1257   85.4529 H   0  0  0  0  0
   23.5234   49.6334   84.2734 H   0  0  0  0  0
   22.1586   50.1975   85.3033 H   0  0  0  0  0
   23.2890   49.3463   87.2835 H   0  0  0  0  0
   24.6747   48.8092   86.2728 H   0  0  0  0  0
   23.4145   47.0087   85.4944 H   0  0  0  0  0
   21.4048   49.1440   87.4962 H   0  0  0  0  0
   20.2445   45.9514   86.5351 H   0  0  0  0  0
   21.6937   45.5462   85.6094 H   0  0  0  0  0
   25.4479   53.8789   83.2979 H   0  0  0  0  0
   26.0322   55.4784   85.7019 H   0  0  0  0  0
   27.8918   56.2604   84.1764 H   0  0  0  0  0
   27.2598   55.0943   82.9549 H   0  0  0  0  0
   25.1321   58.7419   84.5994 H   0  0  0  0  0
   26.2066   57.8376   85.6714 H   0  0  0  0  0
  1  2  1  0  0  0
  2  3  1  0  0  0
  3  4  2  0  0  0
  3  5  1  0  0  0
  5  6  1  0  0  0
  6  7  1  0  0  0
  6  9  1  0  0  0
  7  8  2  0  0  0
  7 11  1  0  0  0
  9 10  1  0  0  0
 10 54  1  0  0  0
 11 12  1  0  0  0
 12 13  1  0  0  0
 12 15  1  0  0  0
 13 14  2  0  0  0
 13 17  1  0  0  0
 15 16  1  0  0  0
 16 90  1  0  0  0
 17 18  1  0  0  0
 18 19  1  0  0  0
 18 21  1  0  0  0
 19 20  2  0  0  0
 19 23  1  0  0  0
 21 22  1  0  0  0
 23 24  1  0  0  0
 24 25  1  0  0  0
 24 27  1  0  0  0
 25 26  2  0  0  0
 25 31  1  0  0  0
 27 28  1  0  0  0
 28 29  2  0  0  0
 28 30  1  0  0  0
 31 32  1  0  0  0
 31 37  1  0  0  0
 32 33  1  0  0  0
 32 35  1  0  0  0
 33 34  2  0  0  0
 33 38  1  0  0  0
 35 36  1  0  0  0
 36 37  1  0  0  0
 38 39  1  0  0  0
 39 40  1  0  0  0
 39 42  1  0  0  0
 40 41  2  0  0  0
 40 49  1  0  0  0
 42 43  1  0  0  0
 43 44  1  0  0  0
 44 45  1  0  0  0
 45 46  1  0  0  0
 46 47  1  0  0  0
 46 48  2  0  0  0
 49 50  1  0  0  0
 50 51  1  0  0  0
 50 53  1  0  0  0
 51 52  2  0  0  0
 51 55  1  0  0  0
 53 54  1  0  0  0
 55 56  1  0  0  0
 56 57  1  0  0  0
 56 59  1  0  0  0
 57 58  2  0  0  0
 57 60  1  0  0  0
 60 61  1  0  0  0
 61 62  1  0  0  0
 61 64  1  0  0  0
 62 63  2  0  0  0
 62 74  1  0  0  0
 64 65  1  0  0  0
 65 66  4  0  0  0
 65 67  4  0  0  0
 66 68  4  0  0  0
 67 69  4  0  0  0
 67 70  4  0  0  0
 68 69  4  0  0  0
 69 71  4  0  0  0
 70 72  4  0  0  0
 71 73  4  0  0  0
 72 73  4  0  0  0
 74 75  1  0  0  0
 75 76  1  0  0  0
 75 78  1  0  0  0
 76 77  2  0  0  0
 76 85  1  0  0  0
 78 79  1  0  0  0
 79 80  1  0  0  0
 80 81  1  0  0  0
 81 82  1  0  0  0
 82 83  2  0  0  0
 82 84  1  0  0  0
 85 86  1  0  0  0
 86 87  1  0  0  0
 86 89  1  0  0  0
 87 88  2  0  0  0
 87 91  1  0  0  0
 89 90  1  0  0  0
  1 92  1  0  0  0
  1 93  1  0  0  0
  1 94  1  0  0  0
  2 95  1  0  0  0
  2 96  1  0  0  0
  5 97  1  0  0  0
  6 98  1  0  0  0
  9 99  1  0  0  0
  9100  1  0  0  0
 11101  1  0  0  0
 12102  1  0  0  0
 15103  1  0  0  0
 15104  1  0  0  0
 17105  1  0  0  0
 18106  1  0  0  0
 21107  1  0  0  0
 21108  1  0  0  0
 22109  1  0  0  0
 23110  1  0  0  0
 24111  1  0  0  0
 27112  1  0  0  0
 27113  1  0  0  0
 30114  1  0  0  0
 32115  1  0  0  0
 35116  1  0  0  0
 35117  1  0  0  0
 36118  1  0  0  0
 36119  1  0  0  0
 37120  1  0  0  0
 37121  1  0  0  0
 38122  1  0  0  0
 39123  1  0  0  0
 42124  1  0  0  0
 42125  1  0  0  0
 43126  1  0  0  0
 43127  1  0  0  0
 44128  1  0  0  0
 44129  1  0  0  0
 45130  1  0  0  0
 47131  1  0  0  0
 47132  1  0  0  0
 48133  1  0  0  0
 49134  1  0  0  0
 50135  1  0  0  0
 53136  1  0  0  0
 53137  1  0  0  0
 55138  1  0  0  0
 56139  1  0  0  0
 59140  1  0  0  0
 59141  1  0  0  0
 59142  1  0  0  0
 60143  1  0  0  0
 61144  1  0  0  0
 64145  1  0  0  0
 64146  1  0  0  0
 66147  1  0  0  0
 70148  1  0  0  0
 71149  1  0  0  0
 72150  1  0  0  0
 73151  1  0  0  0
 74152  1  0  0  0
 75153  1  0  0  0
 78154  1  0  0  0
 78155  1  0  0  0
 79156  1  0  0  0
 79157  1  0  0  0
 80158  1  0  0  0
 80159  1  0  0  0
 81160  1  0  0  0
 83161  1  0  0  0
 84162  1  0  0  0
 84163  1  0  0  0
 85164  1  0  0  0
 86165  1  0  0  0
 89166  1  0  0  0
 89167  1  0  0  0
 91168  1  0  0  0
 91169  1  0  0  0
M  END
$$$$
