### 
### Created by X-TOOL on Mon Sep 10 21:12:52 2018
### 

@<TRIPOS>MOLECULE
2byp_ligand
  171   175     1     0     0
SMALL
GAST_HUCK


@<TRIPOS>ATOM
      1 N          36.1300   50.5560   86.2740 N.4       1 GLY         0.2357
      2 CA         34.8540   50.2790   86.9850 C.3       1 GLY         0.0545
      3 C          33.7090   50.0700   86.0320 C.2       1 GLY         0.2237
      4 O          33.9150   49.8250   84.8400 O.2       1 GLY        -0.3910
      5 N          32.5060   50.1790   86.5810 N.am      1 CYS        -0.2604
      6 CA         31.2680   49.9360   85.8740 C.3       1 CYS         0.1407
      7 C          31.1830   50.6650   84.5390 C.2       1 CYS         0.2048
      8 O          30.8570   50.0730   83.5170 O.2       1 CYS        -0.3944
      9 CB         30.1150   50.3840   86.7560 C.3       1 CYS         0.0443
     10 SG         28.5260   50.4390   85.9460 S.3       1 CYS        -0.0882
     11 N          31.4790   51.9610   84.5640 N.am      1 CYS        -0.2629
     12 CA         31.3000   52.8220   83.3920 C.3       1 CYS         0.1406
     13 C          32.2680   52.5060   82.2300 C.2       1 CYS         0.2048
     14 O          32.0700   53.0200   81.1250 O.2       1 CYS        -0.3944
     15 CB         31.3670   54.2900   83.8260 C.3       1 CYS         0.0443
     16 SG         30.1880   54.5940   85.2360 S.3       1 CYS        -0.0882
     17 N          33.2660   51.6470   82.4730 N.am      1 SER        -0.2615
     18 CA         34.1240   51.0830   81.4230 C.3       1 SER         0.1539
     19 C          33.6350   49.7370   80.8570 C.2       1 SER         0.2063
     20 O          34.0530   49.3210   79.7730 O.2       1 SER        -0.3943
     21 CB         35.5480   50.8980   81.9460 C.3       1 SER         0.0843
     22 OG         36.0700   52.1200   82.4510 O.3       1 SER        -0.3903
     23 N          32.7610   49.0630   81.5980 N.am      1 ASP        -0.2621
     24 CA         32.2800   47.7320   81.2580 C.3       1 ASP         0.1425
     25 C          31.0010   47.8240   80.4430 C.2       1 ASP         0.2081
     26 O          30.0200   48.3670   80.9070 O.2       1 ASP        -0.3941
     27 CB         32.0170   46.9420   82.5420 C.3       1 ASP         0.0406
     28 CG         31.7890   45.4580   82.2910 C.2       1 ASP         0.0393
     29 OD1        32.3640   44.6560   83.0250 O.co2     1 ASP        -0.5688
     30 OD2        31.0390   45.0900   81.3830 O.co2     1 ASP        -0.5688
     31 N          31.0030   47.2640   79.2170 N.am      1 PRO        -0.2497
     32 CA         29.8360   47.3660   78.3440 C.3       1 PRO         0.1338
     33 C          28.5470   46.7290   78.8680 C.2       1 PRO         0.2041
     34 O          27.4660   47.1010   78.4270 O.2       1 PRO        -0.3944
     35 CB         30.2860   46.6850   77.0430 C.3       1 PRO        -0.0104
     36 CG         31.5320   46.0340   77.3220 C.3       1 PRO        -0.0281
     37 CD         32.1110   46.5440   78.5840 C.3       1 PRO         0.0369
     38 N          28.6620   45.7640   79.7690 N.am      1 ARG        -0.2637
     39 CA         27.4930   45.1480   80.4280 C.3       1 ARG         0.1311
     40 C          26.8540   46.0670   81.5060 C.2       1 ARG         0.2039
     41 O          25.7140   45.8820   81.8760 O.2       1 ARG        -0.3944
     42 CB         27.9240   43.8150   81.0810 C.3       1 ARG        -0.0092
     43 CG         28.4430   42.7540   80.1010 C.3       1 ARG        -0.0156
     44 CD         29.2120   41.6490   80.7960 C.3       1 ARG         0.0627
     45 NE         30.4160   42.1230   81.4920 N.pl3     1 ARG        -0.2723
     46 CZ         31.3340   41.3280   82.0280 C.cat     1 ARG         0.2882
     47 NH1        31.2470   40.0200   81.8880 N.pl3     1 ARG        -0.2849
     48 NH2        32.3820   41.8330   82.6450 N.pl3     1 ARG        -0.2849
     49 N          27.6330   47.0130   82.0260 N.am      1 CYS        -0.2629
     50 CA         27.2580   47.8520   83.1740 C.3       1 CYS         0.1406
     51 C          27.0210   49.3160   82.7940 C.2       1 CYS         0.2047
     52 O          26.1230   49.9530   83.3360 O.2       1 CYS        -0.3944
     53 CB         28.3670   47.8010   84.2350 C.3       1 CYS         0.0443
     54 SG         27.9040   48.4780   85.9200 S.3       1 CYS        -0.0882
     55 N          27.8280   49.8350   81.8620 N.am      1 ALA        -0.2640
     56 CA         27.9400   51.2740   81.6090 C.3       1 ALA         0.1282
     57 C          26.6130   51.9950   81.4000 C.2       1 ALA         0.2037
     58 O          26.4980   53.1590   81.7240 O.2       1 ALA        -0.3944
     59 CB         28.8790   51.5310   80.4200 C.3       1 ALA        -0.0244
     60 N          25.6190   51.3030   80.8680 N.am      1 TRP        -0.2627
     61 CA         24.2820   51.8710   80.6860 C.3       1 TRP         0.1352
     62 C          23.5920   52.3450   81.9820 C.2       1 TRP         0.2052
     63 O          22.5860   53.0530   81.9210 O.2       1 TRP        -0.3942
     64 CB         23.3850   50.8560   80.0010 C.3       1 TRP         0.0042
     65 CG         23.1200   49.6390   80.8200 C.2       1 TRP        -0.0418
     66 CD1        23.9080   48.5220   80.9190 C.2       1 TRP         0.0167
     67 CD2        21.9800   49.4000   81.6670 C.ar      1 TRP        -0.0214
     68 NE1        23.3330   47.6120   81.7780 N.pl3     1 TRP        -0.2890
     69 CE2        22.1470   48.1190   82.2430 C.ar      1 TRP         0.0603
     70 CE3        20.8400   50.1420   81.9960 C.ar      1 TRP        -0.0747
     71 CZ2        21.2090   47.5620   83.1180 C.ar      1 TRP        -0.0443
     72 CZ3        19.9030   49.5810   82.8730 C.ar      1 TRP        -0.0792
     73 CH2        20.0970   48.3080   83.4190 C.ar      1 TRP        -0.0768
     74 N          24.1210   51.9370   83.1310 N.am      1 ARG        -0.2636
     75 CA         23.6290   52.3770   84.4350 C.3       1 ARG         0.1311
     76 C          24.1980   53.7370   84.8700 C.2       1 ARG         0.2039
     77 O          23.7060   54.3170   85.8300 O.2       1 ARG        -0.3944
     78 CB         23.9540   51.3220   85.4930 C.3       1 ARG        -0.0092
     79 CG         23.2320   50.0150   85.2520 C.3       1 ARG        -0.0156
     80 CD         23.5980   48.9760   86.3060 C.3       1 ARG         0.0627
     81 NE         22.9190   47.7060   86.0500 N.pl3     1 ARG        -0.2723
     82 CZ         21.6960   47.3920   86.4910 C.cat     1 ARG         0.2882
     83 NH1        21.0040   48.2400   87.2460 N.pl3     1 ARG        -0.2849
     84 NH2        21.1700   46.2030   86.1880 N.pl3     1 ARG        -0.2849
     85 N          25.2010   54.2990   84.1940 N.am      1 CY3        -0.2629
     86 CA         25.9710   55.4490   84.6140 C.3       1 CY3         0.1403
     87 C          25.3110   56.7350   84.1830 C.2       1 CY3         0.2000
     88 O          24.5510   56.7450   83.2230 O.2       1 CY3        -0.3947
     89 CB         27.3610   55.3220   84.0160 C.3       1 CY3         0.0443
     90 SG         28.3070   53.9870   84.8010 S.3       1 CY3        -0.0882
     91 N1         25.5710   57.8630   84.8740 N.am      1 CY3        -0.2989
     92 H1         36.8679   50.6892   86.9477 H         1 GLY         0.2012
     93 H2         36.0298   51.3896   85.7162 H         1 GLY         0.2012
     94 H3         36.3575   49.7770   85.6761 H         1 GLY         0.2012
     95 H4         34.6199   51.1320   87.6390 H         1 GLY         0.1061
     96 H5         34.9776   49.3722   87.5952 H         1 GLY         0.1061
     97 H6         32.4520   50.4457   87.5433 H         1 CYS         0.1885
     98 H7         31.1821   48.8559   85.6843 H         1 CYS         0.0808
     99 H8         30.3429   51.3931   87.1298 H         1 CYS         0.0432
    100 H9         30.0423   49.6867   87.6036 H         1 CYS         0.0432
    101 H10        31.8348   52.3605   85.4089 H         1 CYS         0.1884
    102 H11        30.2848   52.6394   83.0099 H         1 CYS         0.0808
    103 H12        31.0927   54.9334   82.9771 H         1 CYS         0.0432
    104 H13        32.3910   54.5274   84.1502 H         1 CYS         0.0432
    105 H14        33.4362   51.3750   83.4201 H         1 SER         0.1884
    106 H15        34.1469   51.8060   80.5943 H         1 SER         0.0823
    107 H16        36.1894   50.5453   81.1249 H         1 SER         0.0606
    108 H17        35.5403   50.1500   82.7525 H         1 SER         0.0606
    109 H18        36.0823   52.7686   81.7570 H         1 SER         0.2097
    110 H19        32.4161   49.4928   82.4324 H         1 ASP         0.1884
    111 H20        33.0471   47.2132   80.6644 H         1 ASP         0.0819
    112 H21        31.1232   47.3561   83.0315 H         1 ASP         0.0478
    113 H22        32.8854   47.0555   83.2076 H         1 ASP         0.0478
    114 H23        29.6265   48.4294   78.1564 H         1 PRO         0.0802
    115 H24        30.4209   47.4357   76.2504 H         1 PRO         0.0313
    116 H25        29.5363   45.9458   76.7243 H         1 PRO         0.0313
    117 H26        32.2341   46.2271   76.4975 H         1 PRO         0.0287
    118 H27        31.3623   44.9510   77.4131 H         1 PRO         0.0287
    119 H28        32.4527   45.7146   79.2206 H         1 PRO         0.0524
    120 H29        32.9532   47.2221   78.3818 H         1 PRO         0.0524
    121 H30        29.5764   45.4403   80.0121 H         1 ARG         0.1883
    122 H31        26.7339   44.9404   79.6595 H         1 ARG         0.0800
    123 H32        27.0547   43.3963   81.6091 H         1 ARG         0.0313
    124 H33        28.7234   44.0317   81.8049 H         1 ARG         0.0313
    125 H34        29.1073   43.2416   79.3724 H         1 ARG         0.0301
    126 H35        27.5851   42.3098   79.5751 H         1 ARG         0.0301
    127 H36        29.5147   40.9076   80.0419 H         1 ARG         0.0689
    128 H37        28.5484   41.1728   81.5328 H         1 ARG         0.0689
    129 H38        30.5572   43.1404   81.5692 H         1 ARG         0.2642
    130 H39        31.9626   39.4086   82.3063 H         1 ARG         0.2615
    131 H40        30.4635   39.6095   81.3603 H         1 ARG         0.2615
    132 H41        32.4677   42.8525   82.7641 H         1 ARG         0.2615
    133 H42        33.1160   41.2085   83.0085 H         1 ARG         0.2615
    134 H43        28.5298   47.1625   81.6096 H         1 CYS         0.1884
    135 H44        26.3291   47.4496   83.6043 H         1 CYS         0.0808
    136 H45        29.2220   48.3824   83.8596 H         1 CYS         0.0432
    137 H46        28.6658   46.7501   84.3626 H         1 CYS         0.0432
    138 H47        28.3818   49.2106   81.3111 H         1 ALA         0.1883
    139 H48        28.4037   51.7176   82.5024 H         1 ALA         0.0797
    140 H49        28.9549   52.6135   80.2401 H         1 ALA         0.0277
    141 H50        28.4778   51.0374   79.5226 H         1 ALA         0.0277
    142 H51        29.8764   51.1261   80.6463 H         1 ALA         0.0277
    143 H52        25.7865   50.3600   80.5804 H         1 TRP         0.1884
    144 H53        24.3858   52.7464   80.0281 H         1 TRP         0.0815
    145 H54        23.8670   50.5445   79.0626 H         1 TRP         0.0397
    146 H55        22.4227   51.3392   79.7762 H         1 TRP         0.0397
    147 H56        24.8512   48.3754   80.3948 H         1 TRP         0.0795
    148 H57        23.7307   46.6961   82.0309 H         1 TRP         0.2216
    149 H58        20.6852   51.1311   81.5804 H         1 TRP         0.0540
    150 H59        21.3551   46.5758   83.5435 H         1 TRP         0.0541
    151 H60        19.0130   50.1426   83.1328 H         1 TRP         0.0510
    152 H61        19.3529   47.9018   84.0946 H         1 TRP         0.0530
    153 H62        24.8910   51.2997   83.1019 H         1 ARG         0.1883
    154 H63        22.5357   52.4764   84.3656 H         1 ARG         0.0800
    155 H64        23.6602   51.7101   86.4794 H         1 ARG         0.0313
    156 H65        25.0376   51.1332   85.4811 H         1 ARG         0.0313
    157 H66        23.5088   49.6307   84.2592 H         1 ARG         0.0301
    158 H67        22.1471   50.1935   85.2867 H         1 ARG         0.0301
    159 H68        23.3006   49.3492   87.2971 H         1 ARG         0.0689
    160 H69        24.6856   48.8123   86.2870 H         1 ARG         0.0689
    161 H70        23.4194   47.0019   85.4890 H         1 ARG         0.2642
    162 H71        20.0632   47.9841   87.5781 H         1 ARG         0.2615
    163 H72        21.4087   49.1528   87.4987 H         1 ARG         0.2615
    164 H73        21.6988   45.5397   85.6038 H         1 ARG         0.2615
    165 H74        20.2354   45.9489   86.5385 H         1 ARG         0.2615
    166 H75        25.4430   53.8871   83.3155 H         1 CY3         0.1884
    167 H76        26.0493   55.4484   85.7112 H         1 CY3         0.0808
    168 H77        27.8985   56.2712   84.1575 H         1 CY3         0.0432
    169 H78        27.2689   55.1095   82.9407 H         1 CY3         0.0432
    170 H79        25.1428   58.7252   84.6032 H         1 CY3         0.1815
    171 H80        26.1921   57.8376   85.6573 H         1 CY3         0.1815
@<TRIPOS>BOND
     1    1    2 1  
     2    2    3 1  
     3    3    4 2  
     4    3    5 am 
     5    5    6 1  
     6    6    7 1  
     7    6    9 1  
     8    7    8 2  
     9    7   11 am 
    10    9   10 1  
    11   10   54 1  
    12   11   12 1  
    13   12   13 1  
    14   12   15 1  
    15   13   14 2  
    16   13   17 am 
    17   15   16 1  
    18   16   90 1  
    19   17   18 1  
    20   18   19 1  
    21   18   21 1  
    22   19   20 2  
    23   19   23 am 
    24   21   22 1  
    25   23   24 1  
    26   24   25 1  
    27   24   27 1  
    28   25   26 2  
    29   25   31 am 
    30   27   28 1  
    31   28   29 ar 
    32   28   30 ar 
    33   31   32 1  
    34   31   37 1  
    35   32   33 1  
    36   32   35 1  
    37   33   34 2  
    38   33   38 am 
    39   35   36 1  
    40   36   37 1  
    41   38   39 1  
    42   39   40 1  
    43   39   42 1  
    44   40   41 2  
    45   40   49 am 
    46   42   43 1  
    47   43   44 1  
    48   44   45 1  
    49   45   46 ar 
    50   46   47 ar 
    51   46   48 ar 
    52   49   50 1  
    53   50   51 1  
    54   50   53 1  
    55   51   52 2  
    56   51   55 am 
    57   53   54 1  
    58   55   56 1  
    59   56   57 1  
    60   56   59 1  
    61   57   58 2  
    62   57   60 am 
    63   60   61 1  
    64   61   62 1  
    65   61   64 1  
    66   62   63 2  
    67   62   74 am 
    68   64   65 1  
    69   65   66 2  
    70   65   67 1  
    71   66   68 1  
    72   67   69 ar 
    73   67   70 ar 
    74   68   69 1  
    75   69   71 ar 
    76   70   72 ar 
    77   71   73 ar 
    78   72   73 ar 
    79   74   75 1  
    80   75   76 1  
    81   75   78 1  
    82   76   77 2  
    83   76   85 am 
    84   78   79 1  
    85   79   80 1  
    86   80   81 1  
    87   81   82 ar 
    88   82   83 ar 
    89   82   84 ar 
    90   85   86 1  
    91   86   87 1  
    92   86   89 1  
    93   87   88 2  
    94   87   91 am 
    95   89   90 1  
    96    1   92 1  
    97    1   93 1  
    98    1   94 1  
    99    2   95 1  
   100    2   96 1  
   101    5   97 1  
   102    6   98 1  
   103    9   99 1  
   104    9  100 1  
   105   11  101 1  
   106   12  102 1  
   107   15  103 1  
   108   15  104 1  
   109   17  105 1  
   110   18  106 1  
   111   21  107 1  
   112   21  108 1  
   113   22  109 1  
   114   23  110 1  
   115   24  111 1  
   116   27  112 1  
   117   27  113 1  
   118   32  114 1  
   119   35  115 1  
   120   35  116 1  
   121   36  117 1  
   122   36  118 1  
   123   37  119 1  
   124   37  120 1  
   125   38  121 1  
   126   39  122 1  
   127   42  123 1  
   128   42  124 1  
   129   43  125 1  
   130   43  126 1  
   131   44  127 1  
   132   44  128 1  
   133   45  129 1  
   134   47  130 1  
   135   47  131 1  
   136   48  132 1  
   137   48  133 1  
   138   49  134 1  
   139   50  135 1  
   140   53  136 1  
   141   53  137 1  
   142   55  138 1  
   143   56  139 1  
   144   59  140 1  
   145   59  141 1  
   146   59  142 1  
   147   60  143 1  
   148   61  144 1  
   149   64  145 1  
   150   64  146 1  
   151   66  147 1  
   152   68  148 1  
   153   70  149 1  
   154   71  150 1  
   155   72  151 1  
   156   73  152 1  
   157   74  153 1  
   158   75  154 1  
   159   78  155 1  
   160   78  156 1  
   161   79  157 1  
   162   79  158 1  
   163   80  159 1  
   164   80  160 1  
   165   81  161 1  
   166   83  162 1  
   167   83  163 1  
   168   84  164 1  
   169   84  165 1  
   170   85  166 1  
   171   86  167 1  
   172   89  168 1  
   173   89  169 1  
   174   91  170 1  
   175   91  171 1  
@<TRIPOS>SUBSTRUCTURE
     1 GLY         1

