4l6q_ligand

Created by X-TOOL on Fri Nov 18 17:38:37 2016
 37 39  0  0  0  0  0  0  0  0999 V2000
   -3.0210    2.3330  -32.7210  F 0  0  0  1  0  1
   -4.0440    2.0560  -31.8970  C 0  0  0  1  0  3
   -4.5730    3.0730  -31.1200  C 0  0  0  2  0  3
   -5.6410    2.8260  -30.2520  C 0  0  0  1  0  3
   -6.2370    3.9950  -29.3460  C 0  0  0  3  0  4
   -5.2210    4.4180  -28.3000  N 0  3  0  4  0  4
   -6.1570    1.5200  -30.1870  C 0  0  0  2  0  3
   -5.6160    0.4920  -30.9800  C 0  0  0  2  0  3
   -4.5570    0.7690  -31.8420  C 0  0  0  1  0  3
   -3.9840   -0.1980  -32.6360  O 0  0  0  1  0  2
   -4.6780   -1.2040  -33.3180  C 0  0  0  1  0  3
   -4.1160   -2.4980  -33.4120  C 0  0  0  2  0  3
   -5.9250   -0.9680  -33.9480  C 0  0  0  2  0  3
   -6.5760   -2.0130  -34.6460  C 0  0  0  2  0  3
   -5.9810   -3.2640  -34.7150  C 0  0  0  1  0  3
   -6.5120   -4.5110  -35.3960  C 0  0  0  3  0  4
   -5.6070   -5.5760  -35.1020  O 0  0  0  2  0  3
   -4.4250   -5.0030  -34.3680  B 0  0  0  1  0  3
   -4.7920   -3.4890  -34.1140  C 0  0  0  2  0  4
   -3.1890   -5.7500  -33.9710  O 0  0  0  3  0  3
   -4.1547    4.0709  -31.1854  H 0  0  0  1  0  1
   -7.1478    3.6370  -28.8438  H 0  0  0  1  0  1
   -6.4840    4.8577  -29.9822  H 0  0  0  1  0  1
   -5.6089    5.1566  -27.7342  H 0  0  0  1  0  1
   -4.3857    4.7485  -28.7572  H 0  0  0  1  0  1
   -4.9940    3.6299  -27.7141  H 0  0  0  1  0  1
   -6.9816    1.3026  -29.5178  H 0  0  0  1  0  1
   -6.0213   -0.5116  -30.9208  H 0  0  0  1  0  1
   -3.1647   -2.7156  -32.9400  H 0  0  0  1  0  1
   -6.3809    0.0141  -33.8953  H 0  0  0  1  0  1
   -7.5331   -1.8369  -35.1234  H 0  0  0  1  0  1
   -6.5652   -4.3521  -36.4831  H 0  0  0  1  0  1
   -7.5139   -4.7520  -35.0112  H 0  0  0  1  0  1
   -4.7439   -5.3572  -35.4333  H 0  0  0  1  0  1
   -4.3500   -4.4765  -34.1817  H 0  0  0  1  0  1
   -2.7649   -6.0941  -34.7483  H 0  0  0  1  0  1
   -2.7649   -6.0941  -34.7483  H 0  0  0  1  0  1
  1  2  1  0  0  2
  2  3  4  0  0  1
  2  9  4  0  0  1
  3  4  4  0  0  1
  4  5  1  0  0  2
  4  7  4  0  0  1
  5  6  1  0  0  2
  7  8  4  0  0  1
  8  9  4  0  0  1
  9 10  1  0  0  2
 10 11  1  0  0  2
 11 12  4  0  0  1
 11 13  4  0  0  1
 12 19  4  0  0  1
 13 14  4  0  0  1
 14 15  4  0  0  1
 15 16  1  0  0  1
 15 19  4  0  0  1
 16 17  1  0  0  1
 17 18  1  0  0  1
 18 19  1  0  0  1
 18 20  1  0  0  2
  3 21  1  0  0  2
  5 22  1  0  0  2
  5 23  1  0  0  2
  6 24  1  0  0  2
  6 25  1  0  0  2
  6 26  1  0  0  2
  7 27  1  0  0  2
  8 28  1  0  0  2
 12 29  1  0  0  2
 13 30  1  0  0  2
 14 31  1  0  0  2
 16 32  1  0  0  2
 16 33  1  0  0  2
 17 34  1  0  0  2
 19 35  1  0  0  2
 20 36  1  0  0  2
 20 37  1  0  0  2
M  END
> <MOLECULAR_FORMULA>
C14H17NO3FB

> <MOLECULAR_WEIGHT>
277.0

> <NUM_HB_ATOMS>
4  

> <NUM_ROTOR>
3  

> <XLOGP2>
2.08 

$$$$
