#	Name:			4l6q_ligand
#	Creating user name:	wangrx
#	Creation time:		Wed Aug  4 17:53:08 2021

#	Modifying user name:	wangrx
#	Modification time:	Wed Aug  4 17:53:36 2021

@<TRIPOS>MOLECULE
4l6q_ligand
   35    37     1     0     0
SMALL
GAST_HUCK


@<TRIPOS>ATOM
      1 F7         -3.0210    2.3330  -32.7210 F         1 1WU        -0.1908 
      2 C3         -4.0440    2.0560  -31.8970 C.ar      1 1WU         0.1580 
      3 C5         -4.5730    3.0730  -31.1200 C.ar      1 1WU        -0.0291 
      4 C6         -5.6410    2.8260  -30.2520 C.ar      1 1WU        -0.0107 
      5 C8         -6.2370    3.9950  -29.3460 C.3       1 1WU        -0.0071 
      6 N9         -5.2210    4.4180  -28.3000 N.4       1 1WU         0.2294 
      7 C4         -6.1570    1.5200  -30.1870 C.ar      1 1WU        -0.0669 
      8 C2         -5.6160    0.4920  -30.9800 C.ar      1 1WU        -0.0365 
      9 C1         -4.5570    0.7690  -31.8420 C.ar      1 1WU         0.1388 
     10 O10        -3.9840   -0.1980  -32.6360 O.3       1 1WU        -0.2870 
     11 C15        -4.6780   -1.2040  -33.3180 C.ar      1 1WU         0.0096 
     12 C13        -4.1160   -2.4980  -33.4120 C.ar      1 1WU        -0.1542 
     13 C16        -5.9250   -0.9680  -33.9480 C.ar      1 1WU        -0.1510 
     14 C14        -6.5760   -2.0130  -34.6460 C.ar      1 1WU        -0.1842 
     15 C12        -5.9810   -3.2640  -34.7150 C.ar      1 1WU        -0.1711 
     16 C18        -6.5120   -4.5110  -35.3960 C.3       1 1WU        -0.1273 
     17 O19        -5.6070   -5.5760  -35.1020 O.3       1 1WU        -0.8469 
     18 B17        -4.4250   -5.0030  -34.3680 B         1 1WU         3.0000 
     19 C11        -4.7920   -3.4890  -34.1140 C.ar      1 1WU        -0.1976 
     20 O20        -3.1890   -5.7500  -33.9710 O.3       1 1WU        -0.4105 
     21 H1         -4.1547    4.0709  -31.1854 H         1 1WU         0.0518 
     22 H2         -7.1478    3.6370  -28.8438 H         1 1WU         0.0958 
     23 H3         -6.4840    4.8577  -29.9822 H         1 1WU         0.0958 
     24 H4         -5.6089    5.1566  -27.7342 H         1 1WU         0.2006 
     25 H5         -4.3857    4.7485  -28.7572 H         1 1WU         0.2006 
     26 H6         -4.9940    3.6299  -27.7141 H         1 1WU         0.2006 
     27 H7         -6.9816    1.3026  -29.5178 H         1 1WU         0.0499 
     28 H8         -6.0213   -0.5116  -30.9208 H         1 1WU         0.0523 
     29 H9         -3.1647   -2.7156  -32.9400 H         1 1WU        -0.0214 
     30 H10        -6.3809    0.0141  -33.8953 H         1 1WU        -0.0211 
     31 H11        -7.5331   -1.8369  -35.1234 H         1 1WU        -0.0213 
     32 H12        -6.5652   -4.3521  -36.4831 H         1 1WU         0.0205 
     33 H13        -7.5139   -4.7520  -35.0112 H         1 1WU         0.0205 
     34 H16        -2.7649   -6.0941  -34.7483 H         1 1WU         0.2052 
     35 H17        -2.7649   -6.0941  -34.7483 H         1 1WU         0.2052 
@<TRIPOS>BOND
     1    1    2 1    
     2    2    3 ar   
     3    2    9 ar   
     4    3    4 ar   
     5    4    5 1    
     6    4    7 ar   
     7    5    6 1    
     8    7    8 ar   
     9    8    9 ar   
    10    9   10 1    
    11   10   11 1    
    12   11   12 ar   
    13   11   13 ar   
    14   12   19 ar   
    15   13   14 ar   
    16   14   15 ar   
    17   15   16 1    
    18   15   19 ar   
    19   16   17 1    
    20   17   18 1    
    21   18   19 1    
    22   18   20 1    
    23    3   21 1    
    24    5   22 1    
    25    5   23 1    
    26    6   24 1    
    27    6   25 1    
    28    6   26 1    
    29    7   27 1    
    30    8   28 1    
    31   12   29 1    
    32   13   30 1    
    33   14   31 1    
    34   16   32 1    
    35   16   33 1    
    36   20   34 1    
    37   20   35 1    
@<TRIPOS>SUBSTRUCTURE
     1 1WU         1 PERM              0 ****  ****    0 ROOT 
