4lwt_ligand
  -I-interpret- 

 50 53  0  0  0  0  0  0  0  0999 V2000
   12.9010   10.1710   33.0750 C   0  0  0  0  0
   11.7150    9.2850   34.8110 C   0  0  0  0  0
   12.8530   10.0930   35.4400 C   0  0  0  0  0
   13.5740   10.5250   34.2060 C   0  0  0  0  0
   11.7850    9.4000   33.4340 N   0  0  0  0  0
   13.2550   10.5380   31.8010 C   0  0  0  0  0
   14.7540   11.2410   34.1360 C   0  0  0  0  0
   15.1970   11.6650   32.8860 C   0  0  0  0  0
   14.4080   11.3690   31.7200 C   0  0  0  0  0
   10.3080   13.8660   34.1220 C   0  0  0  0  0
   10.4740   15.3250   33.3190 Cl  0  0  0  0  0
   11.4200   13.2570   34.7980 C   0  0  0  0  0
   11.2080   12.0430   35.4630 C   0  0  0  0  0
   12.3350   11.3450   36.2040 C   0  0  0  0  0
   13.7480    9.2100   36.3320 C   0  0  0  0  0
    9.9380   11.4520   35.4620 C   0  0  0  0  0
    8.8720   12.0570   34.7940 C   0  0  0  0  0
    9.0410   13.2460   34.1240 C   0  0  0  0  0
   12.9170    8.2860   37.2260 C   0  0  0  0  0
   13.8110    7.4840   38.0820 N   0  0  0  0  0
   14.8060    8.2080   38.8910 C   0  0  0  0  0
   15.6240    9.1570   38.0020 C   0  0  0  0  0
   14.6950   10.0620   37.1830 C   0  0  0  0  0
   10.8480    8.6190   35.3930 O   0  0  0  0  0
   14.8350   12.0590   30.2780 Cl  0  0  0  0  0
   13.8650    6.1530   37.9650 C   0  0  0  0  0
   14.7410    5.5120   38.5590 O   0  0  0  0  0
   12.8200    5.5170   37.0910 C   0  0  0  0  0
   11.1235    8.9858   32.7773 H   0  0  0  0  0
   12.6974   10.2185   30.9206 H   0  0  0  0  0
   15.3237   11.4681   35.0371 H   0  0  0  0  0
   16.1327   12.2160   32.7917 H   0  0  0  0  0
   12.4031   13.7277   34.7933 H   0  0  0  0  0
   13.1621   12.0479   36.3037 H   0  0  0  0  0
   11.9538   11.0184   37.1715 H   0  0  0  0  0
   14.3468    8.5873   35.6673 H   0  0  0  0  0
    9.7806   10.5104   35.9880 H   0  0  0  0  0
    7.8918   11.5803   34.8036 H   0  0  0  0  0
    8.2033   13.7052   33.5991 H   0  0  0  0  0
   12.3218    7.6196   36.6017 H   0  0  0  0  0
   12.2598    8.8872   37.8542 H   0  0  0  0  0
   15.4784    7.4881   39.3575 H   0  0  0  0  0
   14.2897    8.7905   39.6540 H   0  0  0  0  0
   16.2332    8.5648   37.3191 H   0  0  0  0  0
   16.2554    9.7794   38.6361 H   0  0  0  0  0
   14.1079   10.6806   37.8618 H   0  0  0  0  0
   15.2958   10.6927   36.5277 H   0  0  0  0  0
   13.3067    4.9837   36.2744 H   0  0  0  0  0
   12.2299    4.8174   37.6829 H   0  0  0  0  0
   12.1685    6.2905   36.6843 H   0  0  0  0  0
  4  1  4  0  0  0
  1  5  1  0  0  0
  1  6  4  0  0  0
  3  2  1  0  0  0
  2  5  1  0  0  0
  2 24  2  0  0  0
  3  4  1  0  0  0
 14  3  1  0  0  0
  3 15  1  0  0  0
  4  7  4  0  0  0
  6  9  4  0  0  0
  7  8  4  0  0  0
  8  9  4  0  0  0
  9 25  1  0  0  0
 10 11  1  0  0  0
 12 10  4  0  0  0
 10 18  4  0  0  0
 13 12  4  0  0  0
 13 14  1  0  0  0
 13 16  4  0  0  0
 15 19  1  0  0  0
 15 23  1  0  0  0
 16 17  4  0  0  0
 17 18  4  0  0  0
 19 20  1  0  0  0
 20 21  1  0  0  0
 20 26  1  0  0  0
 21 22  1  0  0  0
 22 23  1  0  0  0
 26 27  2  0  0  0
 26 28  1  0  0  0
  5 29  1  0  0  0
  6 30  1  0  0  0
  7 31  1  0  0  0
  8 32  1  0  0  0
 12 33  1  0  0  0
 14 34  1  0  0  0
 14 35  1  0  0  0
 15 36  1  0  0  0
 16 37  1  0  0  0
 17 38  1  0  0  0
 18 39  1  0  0  0
 19 40  1  0  0  0
 19 41  1  0  0  0
 21 42  1  0  0  0
 21 43  1  0  0  0
 22 44  1  0  0  0
 22 45  1  0  0  0
 23 46  1  0  0  0
 23 47  1  0  0  0
 28 48  1  0  0  0
 28 49  1  0  0  0
 28 50  1  0  0  0
M  END
$$$$
