3jwr_ligand
  -I-interpret- 

 29 30  0  0  0  0  0  0  0  0999 V2000
  -22.8180   13.6410  -39.3760 N   0  0  0  0  0
  -22.8760   14.2560  -40.5780 C   0  0  0  0  0
  -23.1510   13.3520  -41.5500 N   0  0  0  0  0
  -23.2730   12.1460  -40.9630 C   0  0  0  0  0
  -23.0670   12.3370  -39.6170 C   0  0  0  0  0
  -23.1300   11.3270  -38.7360 N   0  0  0  0  0
  -23.3790   10.0690  -39.1600 C   0  0  0  0  0
  -23.5910    9.7850  -40.4650 N   0  0  0  0  0
  -23.5550   10.7530  -41.4070 C   0  0  0  0  0
  -23.7550   10.4970  -42.6180 O   0  0  0  0  0
  -23.4350    9.1350  -38.3230 O   0  0  0  0  0
  -23.8700    8.3930  -40.8450 C   0  0  0  0  0
  -22.9020   11.5750  -37.3100 C   0  0  0  0  0
  -24.0670   12.3530  -36.6970 C   0  0  0  0  0
  -24.4740   11.7250  -35.3660 C   0  0  0  0  0
  -23.7270   13.8280  -36.5160 C   0  0  0  0  0
  -22.7239   15.3228  -40.7419 H   0  0  0  0  0
  -23.0285    7.7633  -40.5562 H   0  0  0  0  0
  -24.7717    8.0525  -40.3360 H   0  0  0  0  0
  -24.0160    8.3344  -41.9236 H   0  0  0  0  0
  -21.9910   12.1630  -37.1982 H   0  0  0  0  0
  -22.8129   10.6169  -36.7979 H   0  0  0  0  0
  -24.9085   12.2974  -37.3876 H   0  0  0  0  0
  -24.7803   10.6921  -35.5316 H   0  0  0  0  0
  -23.6269   11.7486  -34.6805 H   0  0  0  0  0
  -25.3043   12.2875  -34.9391 H   0  0  0  0  0
  -22.8652   13.9225  -35.8553 H   0  0  0  0  0
  -23.4929   14.2672  -37.4857 H   0  0  0  0  0
  -24.5807   14.3452  -36.0780 H   0  0  0  0  0
  1  2  4  0  0  0
  1  5  4  0  0  0
  2  3  4  0  0  0
  3  4  4  0  0  0
  4  5  4  0  0  0
  4  9  1  0  0  0
  5  6  1  0  0  0
  6  7  1  0  0  0
  6 13  1  0  0  0
  7  8  1  0  0  0
  7 11  2  0  0  0
  8  9  1  0  0  0
  8 12  1  0  0  0
  9 10  2  0  0  0
 13 14  1  0  0  0
 14 15  1  0  0  0
 14 16  1  0  0  0
  2 17  1  0  0  0
 12 18  1  0  0  0
 12 19  1  0  0  0
 12 20  1  0  0  0
 13 21  1  0  0  0
 13 22  1  0  0  0
 14 23  1  0  0  0
 15 24  1  0  0  0
 15 25  1  0  0  0
 15 26  1  0  0  0
 16 27  1  0  0  0
 16 28  1  0  0  0
 16 29  1  0  0  0
M  END
$$$$
