3m11_ligand
  -I-interpret- 

 67 72  0  0  0  0  0  0  0  0999 V2000
    3.8610   31.3560    9.0250 N   0  0  0  0  0
    4.6360   30.4240    9.5570 C   0  0  0  0  0
    5.3550   29.6010    8.8100 N   0  0  0  0  0
    5.3220   29.6850    7.4730 C   0  0  0  0  0
    4.5200   30.6500    6.8830 C   0  0  0  0  0
    3.7780   31.4990    7.6950 C   0  0  0  0  0
    6.0140   30.5940    2.3700 C   0  0  0  0  0
    5.4790   31.1880    3.5080 C   0  0  0  0  0
    4.7880   30.4160    4.4350 C   0  0  0  0  0
    4.6330   29.0510    4.2250 C   0  0  0  0  0
    5.1680   28.4570    3.0870 C   0  0  0  0  0
    5.8590   29.2290    2.1600 C   0  0  0  0  0
    4.2530   31.0090    5.5720 C   0  0  0  0  0
    3.3580   32.0640    5.5960 C   0  0  0  0  0
    3.0660   32.3650    6.8970 O   0  0  0  0  0
    2.8410   32.7110    4.4800 C   0  0  0  0  0
    3.0300   32.1710    3.2140 C   0  0  0  0  0
    2.5130   32.8190    2.0980 C   0  0  0  0  0
    1.8070   34.0060    2.2490 C   0  0  0  0  0
    1.6170   34.5460    3.5150 C   0  0  0  0  0
    2.1340   33.8990    4.6310 C   0  0  0  0  0
    6.8750   27.8250    7.3630 C   0  0  0  0  0
    8.2600   28.3990    7.6670 C   0  0  0  0  0
    9.1770   27.3310    8.2680 C   0  0  0  0  0
    8.8950   26.7970    9.5200 C   0  0  0  0  0
    9.7280   25.8270   10.0650 C   0  0  0  0  0
   10.8420   25.3910    9.3590 C   0  0  0  0  0
   11.1240   25.9240    8.1070 C   0  0  0  0  0
   10.2920   26.8940    7.5610 C   0  0  0  0  0
   11.6390   24.4620    9.8810 N   0  0  0  0  0
   11.7550   23.2760    9.2910 C   0  0  0  0  0
   12.5700   22.3990    9.8700 N   0  0  0  0  0
   12.7350   21.1920    9.3370 C   0  0  0  0  0
   13.9480   20.5280    9.4840 C   0  0  0  0  0
   14.1210   19.2660    8.9270 C   0  0  0  0  0
   13.0820   18.6690    8.2220 C   0  0  0  0  0
   11.8700   19.3330    8.0750 C   0  0  0  0  0
   11.6970   20.5940    8.6330 C   0  0  0  0  0
   11.1400   23.0040    8.2610 O   0  0  0  0  0
    6.0450   28.8570    6.7250 N   0  0  0  0  0
    4.6835   30.3315   10.6420 H   0  0  0  0  0
    6.5550   31.1992    1.6426 H   0  0  0  0  0
    5.6014   32.2585    3.6731 H   0  0  0  0  0
    4.0920   28.4458    4.9524 H   0  0  0  0  0
    5.0456   27.3865    2.9219 H   0  0  0  0  0
    6.2792   28.7636    1.2684 H   0  0  0  0  0
    3.5835   31.2395    3.0958 H   0  0  0  0  0
    2.6615   32.3958    1.1045 H   0  0  0  0  0
    1.4019   34.5139    1.3738 H   0  0  0  0  0
    1.0625   35.4770    3.6329 H   0  0  0  0  0
    1.9854   34.3225    5.6243 H   0  0  0  0  0
    6.4037   27.5030    8.2916 H   0  0  0  0  0
    6.9749   26.9728    6.6908 H   0  0  0  0  0
    8.1517   29.2113    8.3857 H   0  0  0  0  0
    8.7022   28.7562    6.7370 H   0  0  0  0  0
    8.0209   27.1389   10.0742 H   0  0  0  0  0
    9.5070   25.4083   11.0468 H   0  0  0  0  0
   11.9979   25.5812    7.5531 H   0  0  0  0  0
   10.5132   27.3121    6.5790 H   0  0  0  0  0
   12.1614   24.6598   10.7344 H   0  0  0  0  0
   13.0686   22.6522   10.7230 H   0  0  0  0  0
   14.7628   20.9968   10.0357 H   0  0  0  0  0
   15.0712   18.7446    9.0430 H   0  0  0  0  0
   13.2180   17.6800    7.7845 H   0  0  0  0  0
   11.0554   18.8649    7.5223 H   0  0  0  0  0
   10.7461   21.1144    8.5183 H   0  0  0  0  0
    6.0237   28.9379    5.7084 H   0  0  0  0  0
  2  1  4  0  0  0
  6  1  4  0  0  0
  3  2  4  0  0  0
  4  3  4  0  0  0
  4  5  4  0  0  0
 40  4  1  0  0  0
  5  6  4  0  0  0
  5 13  4  0  0  0
  6 15  4  0  0  0
  8  7  4  0  0  0
  7 12  4  0  0  0
  9  8  4  0  0  0
  9 10  4  0  0  0
 13  9  1  0  0  0
 10 11  4  0  0  0
 11 12  4  0  0  0
 13 14  4  0  0  0
 14 15  4  0  0  0
 14 16  1  0  0  0
 16 17  4  0  0  0
 16 21  4  0  0  0
 17 18  4  0  0  0
 18 19  4  0  0  0
 20 19  4  0  0  0
 21 20  4  0  0  0
 22 23  1  0  0  0
 22 40  1  0  0  0
 23 24  1  0  0  0
 24 25  4  0  0  0
 24 29  4  0  0  0
 25 26  4  0  0  0
 26 27  4  0  0  0
 27 28  4  0  0  0
 27 30  1  0  0  0
 28 29  4  0  0  0
 30 31  1  0  0  0
 31 32  1  0  0  0
 31 39  2  0  0  0
 32 33  1  0  0  0
 33 34  4  0  0  0
 33 38  4  0  0  0
 34 35  4  0  0  0
 35 36  4  0  0  0
 36 37  4  0  0  0
 37 38  4  0  0  0
  2 41  1  0  0  0
  7 42  1  0  0  0
  8 43  1  0  0  0
 10 44  1  0  0  0
 11 45  1  0  0  0
 12 46  1  0  0  0
 17 47  1  0  0  0
 18 48  1  0  0  0
 19 49  1  0  0  0
 20 50  1  0  0  0
 21 51  1  0  0  0
 22 52  1  0  0  0
 22 53  1  0  0  0
 23 54  1  0  0  0
 23 55  1  0  0  0
 25 56  1  0  0  0
 26 57  1  0  0  0
 28 58  1  0  0  0
 29 59  1  0  0  0
 30 60  1  0  0  0
 32 61  1  0  0  0
 34 62  1  0  0  0
 35 63  1  0  0  0
 36 64  1  0  0  0
 37 65  1  0  0  0
 38 66  1  0  0  0
 40 67  1  0  0  0
M  END
$$$$
