2ym8_ligand
  -I-interpret- 

 47 49  0  0  0  0  0  0  0  0999 V2000
   15.1990   -3.3210   11.2440 C   0  0  0  0  0
   15.3130   -3.9110   16.0280 C   0  0  0  0  0
   15.6290   -1.7460   15.0200 C   0  0  0  0  0
   10.1130   -1.8040   13.6000 N   0  0  0  0  0
   20.6760    0.9060    7.4620 Cl  0  0  0  0  0
   10.8770   -1.3100   12.9130 C   0  0  0  0  0
   19.7620   -1.9840   10.0760 C   0  0  0  0  0
   20.4560   -1.1750    9.1820 C   0  0  0  0  0
   18.4260   -1.7230   10.3630 C   0  0  0  0  0
   12.4270    0.9940   10.5920 C   0  0  0  0  0
   17.8180    1.2220    8.2660 C   0  0  0  0  0
   16.4490   -0.3680   10.0220 C   0  0  0  0  0
   15.2830   -3.6260   13.6120 C   0  0  0  0  0
   11.5370    0.4300   11.3880 N   0  0  0  0  0
   16.5490    1.4730    8.5440 N   0  0  0  0  0
   14.0070   -0.6810   11.0940 N   0  0  0  0  0
   14.5570    1.0550    9.6150 N   0  0  0  0  0
   13.4210   -2.4050   12.5800 O   0  0  0  0  0
   19.8130   -0.1020    8.5750 C   0  0  0  0  0
   11.8490   -0.6910   12.0560 C   0  0  0  0  0
   13.6840    0.4250   10.4110 C   0  0  0  0  0
   15.8320    0.7050    9.3810 C   0  0  0  0  0
   13.0940   -1.2860   11.8690 C   0  0  0  0  0
   17.7850   -0.6490    9.7550 C   0  0  0  0  0
   18.4770    0.1570    8.8650 C   0  0  0  0  0
   14.8450   -2.6230   12.5590 C   0  0  0  0  0
   14.9300   -3.0350   14.9130 N   0  3  0  0  0
   16.2710   -3.5164   11.2150 H   0  0  0  0  0
   14.6547   -4.2629   11.1761 H   0  0  0  0  0
   14.9226   -2.6791   10.4075 H   0  0  0  0  0
   14.7963   -4.8659   15.9322 H   0  0  0  0  0
   16.3903   -4.0755   16.0056 H   0  0  0  0  0
   15.0357   -3.4394   16.9707 H   0  0  0  0  0
   16.7046   -1.9110   14.9563 H   0  0  0  0  0
   15.3114   -1.0933   14.2068 H   0  0  0  0  0
   15.3874   -1.2814   15.9760 H   0  0  0  0  0
   20.2663   -2.8245   10.5528 H   0  0  0  0  0
   21.5024   -1.3820    8.9577 H   0  0  0  0  0
   17.8831   -2.3586   11.0625 H   0  0  0  0  0
   12.1739    1.9169   10.0701 H   0  0  0  0  0
   18.3514    1.8579    7.5595 H   0  0  0  0  0
   15.8889   -0.9822   10.7271 H   0  0  0  0  0
   16.3531   -3.8226   13.5468 H   0  0  0  0  0
   14.7886   -4.5869   13.4695 H   0  0  0  0  0
   14.2176    1.8890    9.1357 H   0  0  0  0  0
   15.3164   -1.6521   12.7113 H   0  0  0  0  0
   13.9192   -2.9095   14.9668 H   0  0  0  0  0
 26  1  1  0  0  0
 27  2  1  0  0  0
 27  3  1  0  0  0
  6  4  3  0  0  0
 19  5  1  0  0  0
 20  6  1  0  0  0
  7  8  4  0  0  0
  9  7  4  0  0  0
  8 19  4  0  0  0
 24  9  4  0  0  0
 10 14  4  0  0  0
 21 10  4  0  0  0
 15 11  4  0  0  0
 11 25  4  0  0  0
 22 12  4  0  0  0
 12 24  4  0  0  0
 26 13  1  0  0  0
 13 27  1  0  0  0
 14 20  4  0  0  0
 22 15  4  0  0  0
 16 21  4  0  0  0
 23 16  4  0  0  0
 21 17  1  0  0  0
 17 22  1  0  0  0
 18 23  1  0  0  0
 18 26  1  0  0  0
 19 25  4  0  0  0
 20 23  4  0  0  0
 24 25  4  0  0  0
  1 28  1  0  0  0
  1 29  1  0  0  0
  1 30  1  0  0  0
  2 31  1  0  0  0
  2 32  1  0  0  0
  2 33  1  0  0  0
  3 34  1  0  0  0
  3 35  1  0  0  0
  3 36  1  0  0  0
  7 37  1  0  0  0
  8 38  1  0  0  0
  9 39  1  0  0  0
 10 40  1  0  0  0
 11 41  1  0  0  0
 12 42  1  0  0  0
 13 43  1  0  0  0
 13 44  1  0  0  0
 17 45  1  0  0  0
 26 46  1  0  0  0
 27 47  1  0  0  0
M  END
$$$$
