### 
### Created by X-TOOL on Mon Sep 10 21:13:10 2018
### 

@<TRIPOS>MOLECULE
2ym8_ligand
   46    48     1     0     0
SMALL
GAST_HUCK


@<TRIPOS>ATOM
      1 CAA        15.1990   -3.3210   11.2440 C.3       1 YM8        -0.0350
      2 CAB        15.3130   -3.9110   16.0280 C.3       1 YM8        -0.1259
      3 CAC        15.6290   -1.7460   15.0200 C.3       1 YM8        -0.1259
      4 NAD        10.1130   -1.8040   13.6000 N.1       1 YM8        -0.3360
      5 CL         20.6760    0.9060    7.4620 Cl        1 YM8        -0.0657
      6 CAF        10.8770   -1.3100   12.9130 C.1       1 YM8         0.1098
      7 CAG        19.7620   -1.9840   10.0760 C.ar      1 YM8        -0.0593
      8 CAH        20.4560   -1.1750    9.1820 C.ar      1 YM8        -0.0451
      9 CAI        18.4260   -1.7230   10.3630 C.ar      1 YM8        -0.0525
     10 CAJ        12.4270    0.9940   10.5920 C.ar      1 YM8         0.0640
     11 CAK        17.8180    1.2220    8.2660 C.ar      1 YM8         0.0152
     12 CAL        16.4490   -0.3680   10.0220 C.ar      1 YM8        -0.0106
     13 CAM        15.2830   -3.6260   13.6120 C.3       1 YM8        -0.0814
     14 NAN        11.5370    0.4300   11.3880 N.ar      1 YM8        -0.2600
     15 NAO        16.5490    1.4730    8.5440 N.ar      1 YM8        -0.2720
     16 NAP        14.0070   -0.6810   11.0940 N.ar      1 YM8        -0.2197
     17 NAQ        14.5570    1.0550    9.6150 N.pl3     1 YM8        -0.2389
     18 OAR        13.4210   -2.4050   12.5800 O.3       1 YM8        -0.2842
     19 CAS        19.8130   -0.1020    8.5750 C.ar      1 YM8         0.0528
     20 CAT        11.8490   -0.6910   12.0560 C.ar      1 YM8         0.2133
     21 CAU        13.6840    0.4250   10.4110 C.ar      1 YM8         0.1616
     22 CAV        15.8320    0.7050    9.3810 C.ar      1 YM8         0.1363
     23 CAW        13.0940   -1.2860   11.8690 C.ar      1 YM8         0.2178
     24 CAX        17.7850   -0.6490    9.7550 C.ar      1 YM8        -0.0136
     25 CAY        18.4770    0.1570    8.8650 C.ar      1 YM8         0.0151
     26 CAZ        14.8450   -2.6230   12.5590 C.3       1 YM8         0.0684
     27 NBA        14.9300   -3.0350   14.9130 N.4       1 YM8         0.4007
     28 H          16.2710   -3.5164   11.2150 H         1 YM8         0.0259
     29 H          14.6547   -4.2629   11.1761 H         1 YM8         0.0259
     30 H          14.9226   -2.6791   10.4075 H         1 YM8         0.0259
     31 H          14.7963   -4.8659   15.9322 H         1 YM8        -0.0019
     32 H          16.3903   -4.0755   16.0056 H         1 YM8        -0.0019
     33 H          15.0357   -3.4394   16.9707 H         1 YM8        -0.0019
     34 H          16.7046   -1.9110   14.9563 H         1 YM8        -0.0019
     35 H          15.3114   -1.0933   14.2068 H         1 YM8        -0.0019
     36 H          15.3874   -1.2814   15.9760 H         1 YM8        -0.0019
     37 H          20.2663   -2.8245   10.5528 H         1 YM8         0.0643
     38 H          21.5024   -1.3820    8.9577 H         1 YM8         0.0617
     39 H          17.8831   -2.3586   11.0625 H         1 YM8         0.0613
     40 H          12.1739    1.9169   10.0701 H         1 YM8         0.0789
     41 H          18.3514    1.8579    7.5595 H         1 YM8         0.0858
     42 H          15.8889   -0.9822   10.7271 H         1 YM8         0.0584
     43 H          16.3531   -3.8226   13.5468 H         1 YM8         0.0047
     44 H          14.7886   -4.5869   13.4695 H         1 YM8         0.0047
     45 H          14.2176    1.8890    9.1357 H         1 YM8         0.2208
     46 H          15.3164   -1.6521   12.7113 H         1 YM8         0.0641
@<TRIPOS>BOND
     1   26    1 1  
     2   27    2 1  
     3   27    3 1  
     4    6    4 3  
     5   19    5 1  
     6   20    6 1  
     7    7    8 ar 
     8    9    7 ar 
     9    8   19 ar 
    10   24    9 ar 
    11   10   14 ar 
    12   21   10 ar 
    13   15   11 ar 
    14   11   25 ar 
    15   22   12 ar 
    16   12   24 ar 
    17   26   13 1  
    18   13   27 1  
    19   14   20 ar 
    20   22   15 ar 
    21   16   21 ar 
    22   23   16 ar 
    23   21   17 1  
    24   17   22 1  
    25   18   23 1  
    26   18   26 1  
    27   19   25 ar 
    28   20   23 ar 
    29   24   25 ar 
    30    1   28 1  
    31    1   29 1  
    32    1   30 1  
    33    2   31 1  
    34    2   32 1  
    35    2   33 1  
    36    3   34 1  
    37    3   35 1  
    38    3   36 1  
    39    7   37 1  
    40    8   38 1  
    41    9   39 1  
    42   10   40 1  
    43   11   41 1  
    44   12   42 1  
    45   13   43 1  
    46   13   44 1  
    47   17   45 1  
    48   26   46 1  
@<TRIPOS>SUBSTRUCTURE
     1 YM8         1

