2qrp_ligand
  -I-interpret- 

 44 47  0  0  0  0  0  0  0  0999 V2000
   36.2690   24.6150   30.4880 C   0  0  0  0  0
   36.9200   25.1130   31.6240 C   0  0  0  0  0
   38.2910   25.3550   31.5810 C   0  0  0  0  0
   38.9300   25.8500   32.7220 C   0  0  0  0  0
   38.2130   26.1050   33.8940 C   0  0  0  0  0
   36.8410   25.8670   33.9390 C   0  0  0  0  0
   36.1980   25.3730   32.7990 C   0  0  0  0  0
   34.8280   25.1280   32.8400 C   0  0  0  0  0
   34.1850   24.6370   31.7040 C   0  0  0  0  0
   34.8970   24.3690   30.5300 C   0  0  0  0  0
   34.2170   23.8950   29.4030 C   0  0  0  0  0
   34.8140   23.2020   28.1810 C   0  0  0  0  0
   32.9080   24.0230   29.2040 N   0  0  0  0  0
   32.4780   23.4740   27.9610 O   0  0  0  0  0
   33.5790   22.7290   27.4130 C   0  0  0  0  0
   33.3860   21.3180   27.6420 O   0  0  0  0  0
   32.1730   20.7930   27.0250 C   0  0  0  0  0
   32.0140   19.3370   27.4590 C   0  0  0  0  0
   33.0630   18.5510   26.8780 O   0  0  0  0  0
   32.2790   20.9650   25.4970 C   0  0  0  0  0
   31.1080   20.4510   24.8440 O   0  0  0  0  0
   32.4960   22.4410   25.1320 C   0  0  0  0  0
   32.7230   22.5600   23.7220 O   0  0  0  0  0
   33.7070   23.0090   25.9020 C   0  0  0  0  0
   33.8470   24.4170   25.6640 O   0  0  0  0  0
   36.8323   24.4207   29.5753 H   0  0  0  0  0
   38.8580   25.1612   30.6705 H   0  0  0  0  0
   40.0031   26.0397   32.6969 H   0  0  0  0  0
   38.7277   26.4906   34.7740 H   0  0  0  0  0
   36.2761   26.0631   34.8503 H   0  0  0  0  0
   34.2628   25.3184   33.7523 H   0  0  0  0  0
   33.1100   24.4591   31.7313 H   0  0  0  0  0
   35.4845   22.3844   28.4457 H   0  0  0  0  0
   35.4501   23.8619   27.5910 H   0  0  0  0  0
   31.2810   21.3325   27.3434 H   0  0  0  0  0
   31.0477   18.9602   27.1237 H   0  0  0  0  0
   32.0693   19.2725   28.5457 H   0  0  0  0  0
   32.9639   17.6358   27.1502 H   0  0  0  0  0
   33.1409   20.3949   25.1502 H   0  0  0  0  0
   31.1948   20.5679   23.8951 H   0  0  0  0  0
   31.6059   23.0071   25.4066 H   0  0  0  0  0
   32.8582   23.4836   23.4976 H   0  0  0  0  0
   34.6025   22.5070   25.5356 H   0  0  0  0  0
   33.9254   24.5746   24.7203 H   0  0  0  0  0
  1  2  4  0  0  0
  1 10  4  0  0  0
  2  3  4  0  0  0
  2  7  4  0  0  0
  3  4  4  0  0  0
  4  5  4  0  0  0
  5  6  4  0  0  0
  6  7  4  0  0  0
  7  8  4  0  0  0
  8  9  4  0  0  0
  9 10  4  0  0  0
 10 11  1  0  0  0
 11 12  1  0  0  0
 11 13  2  0  0  0
 12 15  1  0  0  0
 13 14  1  0  0  0
 14 15  1  0  0  0
 15 16  1  0  0  0
 15 24  1  0  0  0
 16 17  1  0  0  0
 17 18  1  0  0  0
 17 20  1  0  0  0
 18 19  1  0  0  0
 20 21  1  0  0  0
 20 22  1  0  0  0
 22 23  1  0  0  0
 22 24  1  0  0  0
 24 25  1  0  0  0
  1 26  1  0  0  0
  3 27  1  0  0  0
  4 28  1  0  0  0
  5 29  1  0  0  0
  6 30  1  0  0  0
  8 31  1  0  0  0
  9 32  1  0  0  0
 12 33  1  0  0  0
 12 34  1  0  0  0
 17 35  1  0  0  0
 18 36  1  0  0  0
 18 37  1  0  0  0
 19 38  1  0  0  0
 20 39  1  0  0  0
 21 40  1  0  0  0
 22 41  1  0  0  0
 23 42  1  0  0  0
 24 43  1  0  0  0
 25 44  1  0  0  0
M  END
$$$$
