5xij_ligand
  -I-interpret- 

 44 46  0  0  0  0  0  0  0  0999 V2000
    4.4230  -13.1520    3.4470 C   0  0  0  0  0
    3.0770  -13.4660    3.1820 C   0  0  0  0  0
    2.2160  -12.5030    2.6750 C   0  0  0  0  0
    2.6910  -11.1980    2.4270 C   0  0  0  0  0
    1.4570  -15.0680    3.2150 O   0  0  0  0  0
    2.5810  -14.7840    3.4340 C   0  0  0  0  0
    4.0180  -10.8800    2.6960 C   0  0  0  0  0
    4.8950  -11.8660    3.1970 C   0  0  0  0  0
    5.2690  -14.1350    3.9540 N   0  0  0  0  0
    4.7850  -15.3060    4.1630 C   0  0  0  0  0
    3.4800  -15.6970    3.9210 N   0  0  0  0  0
    3.0260  -17.0740    4.2190 C   0  0  0  0  0
    3.4160  -18.0500    3.0940 C   0  0  0  0  0
    3.2970  -17.3930    1.8310 O   0  0  0  0  0
    2.4870  -19.2870    3.1230 C   0  0  0  0  0
    2.5580  -20.1390    1.8790 C   0  0  0  0  0
    3.2630  -19.4310    0.7880 N   0  3  0  0  0
    3.1310  -20.1490   -0.5000 C   0  0  0  0  0
    3.2480  -21.4790    2.1990 C   0  0  0  0  0
    4.3040  -21.2680    3.1620 O   0  0  0  0  0
    3.8350  -22.0940    0.9280 C   0  0  0  0  0
    2.9980  -21.6720   -0.2830 C   0  0  0  0  0
    1.1756  -12.7542    2.4689 H   0  0  0  0  0
    2.0189  -10.4399    2.0251 H   0  0  0  0  0
    4.3814   -9.8676    2.5196 H   0  0  0  0  0
    5.9399  -11.6212    3.3879 H   0  0  0  0  0
    5.4622  -16.0586    4.5668 H   0  0  0  0  0
    1.9399  -17.0681    4.3110 H   0  0  0  0  0
    3.5017  -17.4029    5.1429 H   0  0  0  0  0
    4.4463  -18.3736    3.2420 H   0  0  0  0  0
    3.5404  -18.0025    1.1303 H   0  0  0  0  0
    1.4638  -18.9205    3.2054 H   0  0  0  0  0
    2.8045  -19.9097    3.9594 H   0  0  0  0  0
    1.5423  -20.3397    1.5382 H   0  0  0  0  0
    4.2532  -19.3750    1.0264 H   0  0  0  0  0
    2.8499  -18.5041    0.6847 H   0  0  0  0  0
    4.0243  -19.9603   -1.0953 H   0  0  0  0  0
    2.2344  -19.7912   -1.0061 H   0  0  0  0  0
    2.5059  -22.1616    2.6132 H   0  0  0  0  0
    4.7298  -22.1060    3.3571 H   0  0  0  0  0
    3.8244  -23.1806    1.0139 H   0  0  0  0  0
    4.8598  -21.7462    0.7981 H   0  0  0  0  0
    3.3542  -22.1964   -1.1697 H   0  0  0  0  0
    1.9522  -21.9223   -0.1051 H   0  0  0  0  0
  1  2  4  0  0  0
  1  8  4  0  0  0
  1  9  1  0  0  0
  2  3  4  0  0  0
  2  6  1  0  0  0
  3  4  4  0  0  0
  4  7  4  0  0  0
  6  5  2  0  0  0
  6 11  1  0  0  0
  7  8  4  0  0  0
  9 10  2  0  0  0
 10 11  1  0  0  0
 11 12  1  0  0  0
 12 13  1  0  0  0
 13 14  1  0  0  0
 13 15  1  0  0  0
 15 16  1  0  0  0
 16 17  1  0  0  0
 16 19  1  0  0  0
 17 18  1  0  0  0
 18 22  1  0  0  0
 19 20  1  0  0  0
 19 21  1  0  0  0
 21 22  1  0  0  0
  3 23  1  0  0  0
  4 24  1  0  0  0
  7 25  1  0  0  0
  8 26  1  0  0  0
 10 27  1  0  0  0
 12 28  1  0  0  0
 12 29  1  0  0  0
 13 30  1  0  0  0
 14 31  1  0  0  0
 15 32  1  0  0  0
 15 33  1  0  0  0
 16 34  1  0  0  0
 17 35  1  0  0  0
 17 36  1  0  0  0
 18 37  1  0  0  0
 18 38  1  0  0  0
 19 39  1  0  0  0
 20 40  1  0  0  0
 21 41  1  0  0  0
 21 42  1  0  0  0
 22 43  1  0  0  0
 22 44  1  0  0  0
M  END
$$$$
