6csr_ligand
  -I-interpret- 

 17 17  0  0  0  0  0  0  0  0999 V2000
   -8.8180   -3.4890   17.7910 C   0  0  0  0  0
   -9.2660   -4.5670   17.0120 C   0  0  0  0  0
   -8.4450   -5.1360   16.0250 C   0  0  0  0  0
   -7.1670   -4.6450   15.7750 C   0  0  0  0  0
   -6.7040   -3.5780   16.5450 C   0  0  0  0  0
   -7.5240   -3.0200   17.5400 C   0  0  0  0  0
   -9.6830   -2.8600   18.8590 C   0  0  0  0  0
   -9.1880   -2.4060   19.8840 O   0  0  0  0  0
  -11.0720   -2.7770   18.6970 N   0  0  0  0  0
  -11.7750   -2.1890   19.7230 O   0  0  0  0  0
  -10.2661   -4.9685   17.1755 H   0  0  0  0  0
   -8.8162   -5.9794   15.4428 H   0  0  0  0  0
   -6.5430   -5.0836   14.9963 H   0  0  0  0  0
   -5.7050   -3.1767   16.3745 H   0  0  0  0  0
   -7.1388   -2.1933   18.1369 H   0  0  0  0  0
  -11.5375   -3.1337   17.8625 H   0  0  0  0  0
  -12.7105   -2.1855   19.5076 H   0  0  0  0  0
  1  2  4  0  0  0
  1  6  4  0  0  0
  1  7  1  0  0  0
  2  3  4  0  0  0
  3  4  4  0  0  0
  4  5  4  0  0  0
  5  6  4  0  0  0
  7  8  2  0  0  0
  7  9  1  0  0  0
  9 10  1  0  0  0
  2 11  1  0  0  0
  3 12  1  0  0  0
  4 13  1  0  0  0
  5 14  1  0  0  0
  6 15  1  0  0  0
  9 16  1  0  0  0
 10 17  1  0  0  0
M  END
$$$$
