4wwn_ligand
  -I-interpret- 

 44 48  0  0  0  0  0  0  0  0999 V2000
   21.9930   13.3620   23.1400 C   0  0  0  0  0
   23.2630   12.9610   23.2290 N   0  0  0  0  0
   23.2800   11.7360   23.7460 C   0  0  0  0  0
   22.0260   11.3540   23.9870 N   0  0  0  0  0
   21.2080   12.3280   23.6370 C   0  0  0  0  0
   19.8800   12.4610   23.6930 N   0  0  0  0  0
   19.3390   13.5870   23.2400 C   0  0  0  0  0
   20.0610   14.6030   22.7540 N   0  0  0  0  0
   21.3910   14.5340   22.6790 C   0  0  0  0  0
   22.1430   15.5360   22.1820 N   0  0  0  0  0
   21.6650   16.8530   21.6770 C   0  0  0  0  0
   22.8940   17.7340   21.4680 C   0  0  0  0  0
   20.9680   16.7530   20.3160 C   0  0  0  0  0
   21.4980   15.9010   19.3520 C   0  0  0  0  0
   20.8590   15.8250   18.1210 C   0  0  0  0  0
   21.3540   14.9740   17.1520 C   0  0  0  0  0
   20.7090   14.8830   15.9220 C   0  0  0  0  0
   19.5800   15.6580   15.6520 C   0  0  0  0  0
   18.9870   15.5450   14.4460 F   0  0  0  0  0
   19.0760   16.5220   16.6220 C   0  0  0  0  0
   19.7190   16.5980   17.8550 C   0  0  0  0  0
   19.2290   17.4060   18.7940 N   0  0  0  0  0
   19.8240   17.5060   19.9940 C   0  0  0  0  0
   19.2180   18.3880   20.8730 C   0  0  0  0  0
   19.6900   19.6950   20.9800 C   0  0  0  0  0
   19.0440   20.5610   21.8500 C   0  0  0  0  0
   17.9470   20.0900   22.5680 C   0  0  0  0  0
   17.5200   18.7740   22.4030 C   0  0  0  0  0
   18.1440   17.9680   21.5730 N   0  0  0  0  0
   24.1728   11.1418   23.9407 H   0  0  0  0  0
   18.2540   13.6878   23.2656 H   0  0  0  0  0
   23.1496   15.3747   22.1480 H   0  0  0  0  0
   20.9543   17.2473   22.4033 H   0  0  0  0  0
   23.4181   17.8551   22.4160 H   0  0  0  0  0
   23.5574   17.2638   20.7421 H   0  0  0  0  0
   22.5810   18.7100   21.0972 H   0  0  0  0  0
   22.3902   15.3094   19.5572 H   0  0  0  0  0
   22.2445   14.3773   17.3495 H   0  0  0  0  0
   21.0892   14.2000   15.1623 H   0  0  0  0  0
   18.1932   17.1283   16.4192 H   0  0  0  0  0
   20.5464   20.0287   20.3940 H   0  0  0  0  0
   19.3875   21.5885   21.9694 H   0  0  0  0  0
   17.4229   20.7507   23.2586 H   0  0  0  0  0
   16.6613   18.4098   22.9669 H   0  0  0  0  0
  1  2  4  0  0  0
  1  5  4  0  0  0
  1  9  4  0  0  0
  2  3  4  0  0  0
  3  4  4  0  0  0
  4  5  4  0  0  0
  5  6  4  0  0  0
  6  7  4  0  0  0
  7  8  4  0  0  0
  8  9  4  0  0  0
  9 10  1  0  0  0
 10 11  1  0  0  0
 11 12  1  0  0  0
 11 13  1  0  0  0
 13 14  4  0  0  0
 13 23  4  0  0  0
 14 15  4  0  0  0
 15 16  4  0  0  0
 15 21  4  0  0  0
 16 17  4  0  0  0
 17 18  4  0  0  0
 18 19  1  0  0  0
 18 20  4  0  0  0
 20 21  4  0  0  0
 21 22  4  0  0  0
 22 23  4  0  0  0
 23 24  1  0  0  0
 24 25  4  0  0  0
 24 29  4  0  0  0
 25 26  4  0  0  0
 26 27  4  0  0  0
 27 28  4  0  0  0
 28 29  4  0  0  0
  3 30  1  0  0  0
  7 31  1  0  0  0
 10 32  1  0  0  0
 11 33  1  0  0  0
 12 34  1  0  0  0
 12 35  1  0  0  0
 12 36  1  0  0  0
 14 37  1  0  0  0
 16 38  1  0  0  0
 17 39  1  0  0  0
 20 40  1  0  0  0
 25 41  1  0  0  0
 26 42  1  0  0  0
 27 43  1  0  0  0
 28 44  1  0  0  0
M  END
$$$$
