2piz_ligand
  -I-interpret- 

 51 52  0  0  0  0  0  0  0  0999 V2000
   35.5980   18.5350   63.3690 C   0  0  0  0  0
   36.3650   19.4500   64.1340 C   0  0  0  0  0
   37.3160   20.2890   63.4910 C   0  0  0  0  0
   37.4970   20.2130   62.0860 C   0  0  0  0  0
   36.7290   19.2980   61.3210 C   0  0  0  0  0
   35.7800   18.4590   61.9600 C   0  0  0  0  0
   34.9430   17.4830   61.1210 C   0  0  0  0  0
   35.4510   16.0480   61.2680 C   0  0  0  0  0
   34.6780   15.0870   60.3590 C   0  0  0  0  0
   35.1990   13.3660   60.6110 P   0  0  0  0  0
   34.4640   12.5380   59.6320 O   0  0  0  0  0
   35.0350   13.0660   62.0440 O   0  0  0  0  0
   36.9470   13.3740   60.1230 C   0  0  0  0  0
   37.5990   12.0100   60.4580 C   0  0  0  0  0
   37.9090   11.8860   61.9770 C   0  0  0  0  0
   37.7350   10.7690   62.4900 O   0  0  0  0  0
   38.3360   12.9090   62.5830 O   0  0  0  0  0
   38.9200   11.8050   59.6840 C   0  0  0  0  0
   39.2110   10.5120   59.1750 C   0  0  0  0  0
   39.8950   12.8430   59.5750 C   0  0  0  0  0
   41.1480   12.5730   58.9690 C   0  0  0  0  0
   41.4360   11.2760   58.4710 C   0  0  0  0  0
   40.4680   10.2450   58.5780 C   0  0  0  0  0
   40.7780    8.9930   58.1990 N   0  0  0  0  0
   40.4850    8.4880   56.9870 C   0  0  0  0  0
   39.8920    9.2310   56.0480 N   0  0  0  0  0
   40.8210    7.2290   56.7200 N   0  0  0  0  0
   34.8693   17.8902   63.8602 H   0  0  0  0  0
   36.2258   19.5101   65.2134 H   0  0  0  0  0
   37.9069   20.9917   64.0785 H   0  0  0  0  0
   38.2259   20.8574   61.5945 H   0  0  0  0  0
   36.8681   19.2395   60.2415 H   0  0  0  0  0
   35.0190   17.7726   60.0729 H   0  0  0  0  0
   33.9107   17.5232   61.4686 H   0  0  0  0  0
   35.3107   15.7349   62.3026 H   0  0  0  0  0
   36.5033   16.0221   60.9849 H   0  0  0  0  0
   34.8760   15.3588   59.3222 H   0  0  0  0  0
   33.6173   15.1646   60.5978 H   0  0  0  0  0
   34.6630   12.8426   58.7436 H   0  0  0  0  0
   37.4668   14.1624   60.6674 H   0  0  0  0  0
   37.0180   13.5506   59.0497 H   0  0  0  0  0
   36.8773   11.2484   60.1626 H   0  0  0  0  0
   38.3826   13.6464   61.9701 H   0  0  0  0  0
   38.4641    9.7211   59.2438 H   0  0  0  0  0
   39.6763   13.8403   59.9568 H   0  0  0  0  0
   41.8927   13.3646   58.8854 H   0  0  0  0  0
   42.4007   11.0721   58.0064 H   0  0  0  0  0
   41.2619    8.3930   58.8670 H   0  0  0  0  0
   39.6981    8.8324   55.1293 H   0  0  0  0  0
   39.6332   10.1967   56.2499 H   0  0  0  0  0
   41.2918    6.6656   57.4281 H   0  0  0  0  0
  1  2  4  0  0  0
  1  6  4  0  0  0
  2  3  4  0  0  0
  3  4  4  0  0  0
  4  5  4  0  0  0
  5  6  4  0  0  0
  6  7  1  0  0  0
  7  8  1  0  0  0
  8  9  1  0  0  0
  9 10  1  0  0  0
 10 11  1  0  0  0
 10 12  2  0  0  0
 10 13  1  0  0  0
 13 14  1  0  0  0
 14 15  1  0  0  0
 14 18  1  0  0  0
 15 16  2  0  0  0
 15 17  1  0  0  0
 18 19  4  0  0  0
 18 20  4  0  0  0
 19 23  4  0  0  0
 20 21  4  0  0  0
 21 22  4  0  0  0
 22 23  4  0  0  0
 23 24  1  0  0  0
 24 25  1  0  0  0
 25 26  1  0  0  0
 25 27  2  0  0  0
  1 28  1  0  0  0
  2 29  1  0  0  0
  3 30  1  0  0  0
  4 31  1  0  0  0
  5 32  1  0  0  0
  7 33  1  0  0  0
  7 34  1  0  0  0
  8 35  1  0  0  0
  8 36  1  0  0  0
  9 37  1  0  0  0
  9 38  1  0  0  0
 11 39  1  0  0  0
 13 40  1  0  0  0
 13 41  1  0  0  0
 14 42  1  0  0  0
 17 43  1  0  0  0
 19 44  1  0  0  0
 20 45  1  0  0  0
 21 46  1  0  0  0
 22 47  1  0  0  0
 24 48  1  0  0  0
 26 49  1  0  0  0
 26 50  1  0  0  0
 27 51  1  0  0  0
M  END
$$$$
