### 
### Created by X-TOOL on Mon Sep 10 21:12:59 2018
### 

@<TRIPOS>MOLECULE
2piz_ligand
   50    51     1     0     0
SMALL
GAST_HUCK


@<TRIPOS>ATOM
      1 C29        35.5980   18.5350   63.3690 C.ar      1 606        -0.0603
      2 C30        36.3650   19.4500   64.1340 C.ar      1 606        -0.0686
      3 C31        37.3160   20.2890   63.4910 C.ar      1 606        -0.0687
      4 C32        37.4970   20.2130   62.0860 C.ar      1 606        -0.0686
      5 C33        36.7290   19.2980   61.3210 C.ar      1 606        -0.0603
      6 C28        35.7800   18.4590   61.9600 C.ar      1 606        -0.0430
      7 C27        34.9430   17.4830   61.1210 C.3       1 606        -0.0177
      8 C26        35.4510   16.0480   61.2680 C.3       1 606        -0.0273
      9 C25        34.6780   15.0870   60.3590 C.3       1 606         0.0155
     10 P24        35.1990   13.3660   60.6110 P.3       1 606        -0.0118
     11 O34        34.4640   12.5380   59.6320 O.co2     1 606        -0.6188
     12 O35        35.0350   13.0660   62.0440 O.co2     1 606        -0.6188
     13 C23        36.9470   13.3740   60.1230 C.3       1 606         0.0420
     14 C1         37.5990   12.0100   60.4580 C.3       1 606         0.1183
     15 C2         37.9090   11.8860   61.9770 C.2       1 606         0.3610
     16 O14        37.7350   10.7690   62.4900 O.co2     1 606        -0.2593
     17 O13        38.3360   12.9090   62.5830 O.co2     1 606        -0.2593
     18 C3         38.9200   11.8050   59.6840 C.ar      1 606        -0.0295
     19 C8         39.2110   10.5120   59.1750 C.ar      1 606        -0.0357
     20 C4         39.8950   12.8430   59.5750 C.ar      1 606        -0.0689
     21 C5         41.1480   12.5730   58.9690 C.ar      1 606        -0.0769
     22 C6         41.4360   11.2760   58.4710 C.ar      1 606        -0.0455
     23 C7         40.4680   10.2450   58.5780 C.ar      1 606         0.0444
     24 N9         40.7780    8.9930   58.1990 N.pl3     1 606        -0.3025
     25 C10        40.4850    8.4880   56.9870 C.cat     1 606         0.1283
     26 N12        39.8920    9.2310   56.0480 N.pl3     1 606        -0.3577
     27 N11        40.8210    7.2290   56.7200 N.pl3     1 606        -0.3577
     28 H1         34.8733   17.8937   63.8575 H         1 606         0.0557
     29 H2         36.2265   19.5098   65.2075 H         1 606         0.0599
     30 H3         37.9036   20.9878   64.0753 H         1 606         0.0559
     31 H4         38.2219   20.8539   61.5972 H         1 606         0.0599
     32 H5         36.8673   19.2398   60.2474 H         1 606         0.0557
     33 H6         35.0025   17.7776   60.0629 H         1 606         0.0426
     34 H7         33.8963   17.5287   61.4561 H         1 606         0.0426
     35 H8         35.3272   15.7295   62.3136 H         1 606         0.0302
     36 H9         36.5171   16.0161   60.9988 H         1 606         0.0302
     37 H10        34.8583   15.3647   59.3100 H         1 606         0.0467
     38 H11        33.6040   15.1712   60.5813 H         1 606         0.0467
     39 H12        37.4731   14.1722   60.6672 H         1 606         0.0509
     40 H13        37.0219   13.5571   59.0409 H         1 606         0.0509
     41 H14        36.8943   11.2149   60.1732 H         1 606         0.0691
     42 H15        38.4682    9.7255   59.2434 H         1 606         0.0481
     43 H16        39.6775   13.8348   59.9547 H         1 606         0.0470
     44 H17        41.8886   13.3602   58.8859 H         1 606         0.0573
     45 H18        42.3954   11.0732   58.0090 H         1 606         0.0487
     46 H19        41.2667    8.3871   58.8736 H         1 606         0.1952
     47 H20        39.6775    8.8223   55.1272 H         1 606         0.1636
     48 H21        39.6494   10.2125   56.2450 H         1 606         0.1636
     49 H22        41.2782    6.6538   57.4418 H         1 606         0.1636
     50 H23        40.6240    6.8292   55.7914 H         1 606         0.1636
@<TRIPOS>BOND
     1    1    2 ar 
     2    1    6 ar 
     3    2    3 ar 
     4    3    4 ar 
     5    4    5 ar 
     6    5    6 ar 
     7    6    7 1  
     8    7    8 1  
     9    8    9 1  
    10    9   10 1  
    11   10   11 ar 
    12   10   12 ar 
    13   10   13 1  
    14   13   14 1  
    15   14   15 1  
    16   14   18 1  
    17   15   16 ar 
    18   15   17 ar 
    19   18   19 ar 
    20   18   20 ar 
    21   19   23 ar 
    22   20   21 ar 
    23   21   22 ar 
    24   22   23 ar 
    25   23   24 1  
    26   24   25 ar 
    27   25   26 ar 
    28   25   27 ar 
    29    1   28 1  
    30    2   29 1  
    31    3   30 1  
    32    4   31 1  
    33    5   32 1  
    34    7   33 1  
    35    7   34 1  
    36    8   35 1  
    37    8   36 1  
    38    9   37 1  
    39    9   38 1  
    40   13   39 1  
    41   13   40 1  
    42   14   41 1  
    43   19   42 1  
    44   20   43 1  
    45   21   44 1  
    46   22   45 1  
    47   24   46 1  
    48   26   47 1  
    49   26   48 1  
    50   27   49 1  
    51   27   50 1  
@<TRIPOS>SUBSTRUCTURE
     1 606         1

