4ury_ligand
  -I-interpret- 

 26 27  0  0  0  0  0  0  0  0999 V2000
   56.8590   39.2320   63.4430 C   0  0  0  0  0
   58.0660   39.0550   62.8280 N   0  0  0  0  0
   52.0360   38.6630   65.2120 O   0  0  0  0  0
   52.8430   39.8100   65.4980 S   0  0  0  0  0
   55.7170   38.5640   62.9880 C   0  0  0  0  0
   52.1260   41.1500   64.8860 N   0  0  0  0  0
   53.1030   40.1870   66.8570 O   0  0  0  0  0
   54.4950   38.7360   63.6110 C   0  0  0  0  0
   52.1220   40.5490   62.6710 O   0  0  0  0  0
   54.3930   39.6120   64.6820 C   0  0  0  0  0
   55.5150   40.2680   65.1710 C   0  0  0  0  0
   56.7340   40.0900   64.5420 C   0  0  0  0  0
   51.8590   41.3580   63.5610 C   0  0  0  0  0
   51.1470   42.6570   63.2890 C   0  0  0  0  0
   50.0370   42.6190   62.2970 C   0  0  0  0  0
   51.2910   43.2900   61.9410 C   0  0  0  0  0
   58.1429   38.4292   62.0262 H   0  0  0  0  0
   58.8902   39.5486   63.1706 H   0  0  0  0  0
   55.7920   37.8975   62.1288 H   0  0  0  0  0
   51.8588   41.8838   65.5422 H   0  0  0  0  0
   53.6191   38.1881   63.2638 H   0  0  0  0  0
   55.4358   40.9175   66.0428 H   0  0  0  0  0
   57.6101   40.6257   64.9074 H   0  0  0  0  0
   51.2775   43.0010   64.3150 H   0  0  0  0  0
   49.0254   42.3136   62.0295 H   0  0  0  0  0
   51.8909   43.8452   61.2199 H   0  0  0  0  0
  1  2  1  0  0  0
  5  1  4  0  0  0
  1 12  4  0  0  0
  4  3  2  0  0  0
  4  6  1  0  0  0
  4  7  2  0  0  0
 10  4  1  0  0  0
  8  5  4  0  0  0
  6 13  1  0  0  0
  8 10  4  0  0  0
 13  9  2  0  0  0
 10 11  4  0  0  0
 11 12  4  0  0  0
 13 14  1  0  0  0
 14 15  1  0  0  0
 14 16  1  0  0  0
 15 16  2  0  0  0
  2 17  1  0  0  0
  2 18  1  0  0  0
  5 19  1  0  0  0
  6 20  1  0  0  0
  8 21  1  0  0  0
 11 22  1  0  0  0
 12 23  1  0  0  0
 14 24  1  0  0  0
 15 25  1  0  0  0
 16 26  1  0  0  0
M  END
$$$$
