### 
### Created by X-TOOL on Mon Sep 10 21:12:52 2018
### 

@<TRIPOS>MOLECULE
1syo_ligand
   27    27     1     0     0
SMALL
GAST_HUCK


@<TRIPOS>ATOM
      1 C1         31.4410  -14.2150   20.3590 C.3       1 M6P         0.1854
      2 C2         31.7100  -12.9810   19.4700 C.3       1 M6P         0.1339
      3 C3         31.5690  -11.6480   20.2960 C.3       1 M6P         0.1141
      4 C4         30.1390  -11.5830   20.8670 C.3       1 M6P         0.1122
      5 C5         29.9430  -12.8130   21.7980 C.3       1 M6P         0.1176
      6 C6         28.5600  -12.8840   22.4040 C.3       1 M6P         0.1071
      7 O1         32.4520  -14.3110   21.3940 O.3       1 M6P        -0.3649
      8 O2         30.7000  -12.9860   18.4610 O.3       1 M6P        -0.3841
      9 O3         31.8190  -10.5340   19.4570 O.3       1 M6P        -0.3864
     10 O4         29.9620  -10.3850   21.6300 O.3       1 M6P        -0.3865
     11 O5         30.1350  -14.0660   21.0180 O.3       1 M6P        -0.3404
     12 O6         28.4980  -14.0110   23.2540 O.3       1 M6P        -0.2734
     13 P          27.1690  -14.3620   24.0220 P.3       1 M6P         0.2008
     14 O1P        27.4000  -15.6780   24.9320 O.co2     1 M6P        -0.5537
     15 O2P        26.0820  -14.7180   22.9030 O.co2     1 M6P        -0.5537
     16 O3P        26.6510  -13.1170   24.9040 O.co2     1 M6P        -0.5537
     17 H1         31.4499  -15.1247   19.7407 H         1 M6P         0.0935
     18 H2         32.7132  -13.0426   19.0230 H         1 M6P         0.0671
     19 H3         32.2945  -11.6474   21.1228 H         1 M6P         0.0648
     20 H4         29.4071  -11.6093   20.0462 H         1 M6P         0.0647
     21 H5         30.6870  -12.7607   22.6065 H         1 M6P         0.0650
     22 H6         27.8098  -12.9805   21.6053 H         1 M6P         0.0639
     23 H7         28.3623  -11.9707   22.9844 H         1 M6P         0.0639
     24 H8         33.3072  -14.4082   20.9918 H         1 M6P         0.2126
     25 H9         30.8180  -12.2340   17.8927 H         1 M6P         0.2101
     26 H10        31.7224   -9.7331   19.9587 H         1 M6P         0.2100
     27 H11        30.0809   -9.6306   21.0650 H         1 M6P         0.2100
@<TRIPOS>BOND
     1    1    2 1  
     2    1    7 1  
     3    1   11 1  
     4    2    3 1  
     5    2    8 1  
     6    3    4 1  
     7    3    9 1  
     8    4    5 1  
     9    4   10 1  
    10    5    6 1  
    11    5   11 1  
    12    6   12 1  
    13   12   13 1  
    14   13   14 ar 
    15   13   15 ar 
    16   13   16 ar 
    17    1   17 1  
    18    2   18 1  
    19    3   19 1  
    20    4   20 1  
    21    5   21 1  
    22    6   22 1  
    23    6   23 1  
    24    7   24 1  
    25    8   25 1  
    26    9   26 1  
    27   10   27 1  
@<TRIPOS>SUBSTRUCTURE
     1 M6P         1

