1syo_ligand
  -I-interpret- 

 29 29  0  0  0  0  0  0  0  0999 V2000
   31.4410  -14.2150   20.3590 C   0  0  0  0  0
   31.7100  -12.9810   19.4700 C   0  0  0  0  0
   31.5690  -11.6480   20.2960 C   0  0  0  0  0
   30.1390  -11.5830   20.8670 C   0  0  0  0  0
   29.9430  -12.8130   21.7980 C   0  0  0  0  0
   28.5600  -12.8840   22.4040 C   0  0  0  0  0
   32.4520  -14.3110   21.3940 O   0  0  0  0  0
   30.7000  -12.9860   18.4610 O   0  0  0  0  0
   31.8190  -10.5340   19.4570 O   0  0  0  0  0
   29.9620  -10.3850   21.6300 O   0  0  0  0  0
   30.1350  -14.0660   21.0180 O   0  0  0  0  0
   28.4980  -14.0110   23.2540 O   0  0  0  0  0
   27.1690  -14.3620   24.0220 P   0  0  0  0  0
   27.4000  -15.6780   24.9320 O   0  0  0  0  0
   26.0820  -14.7180   22.9030 O   0  0  0  0  0
   26.6510  -13.1170   24.9040 O   0  0  0  0  0
   31.4589  -15.1066   19.7322 H   0  0  0  0  0
   32.7193  -13.0269   19.0611 H   0  0  0  0  0
   32.2921  -11.6281   21.1113 H   0  0  0  0  0
   29.4140  -11.5871   20.0531 H   0  0  0  0  0
   30.6748  -12.7045   22.5985 H   0  0  0  0  0
   27.8131  -12.9724   21.6151 H   0  0  0  0  0
   28.3575  -11.9774   22.9742 H   0  0  0  0  0
   33.3161  -14.4092   20.9875 H   0  0  0  0  0
   30.7689  -13.7925   17.9449 H   0  0  0  0  0
   32.7125  -10.5900   19.1104 H   0  0  0  0  0
   30.0821   -9.6226   21.0591 H   0  0  0  0  0
   28.0503  -15.4857   25.6115 H   0  0  0  0  0
   27.3056  -12.9066   25.5739 H   0  0  0  0  0
  1  2  1  0  0  0
  1  7  1  0  0  0
  1 11  1  0  0  0
  2  3  1  0  0  0
  2  8  1  0  0  0
  3  4  1  0  0  0
  3  9  1  0  0  0
  4  5  1  0  0  0
  4 10  1  0  0  0
  5  6  1  0  0  0
  5 11  1  0  0  0
  6 12  1  0  0  0
 12 13  1  0  0  0
 13 14  1  0  0  0
 13 15  2  0  0  0
 13 16  1  0  0  0
  1 17  1  0  0  0
  2 18  1  0  0  0
  3 19  1  0  0  0
  4 20  1  0  0  0
  5 21  1  0  0  0
  6 22  1  0  0  0
  6 23  1  0  0  0
  7 24  1  0  0  0
  8 25  1  0  0  0
  9 26  1  0  0  0
 10 27  1  0  0  0
 14 28  1  0  0  0
 16 29  1  0  0  0
M  END
$$$$
