1qft_ligand
  -I-interpret- 

 17 17  0  0  0  0  0  0  0  0999 V2000
   71.8720   47.2080   26.1100 N   0  3  0  0  0
   72.6830   46.2330   25.3940 C   0  0  0  0  0
   73.0430   45.0470   26.2970 C   0  0  0  0  0
   73.7210   43.9370   25.5650 C   0  0  0  0  0
   75.0750   43.9390   25.2840 N   0  0  0  0  0
   73.2220   42.8020   25.0140 C   0  0  0  0  0
   75.3780   42.8580   24.5830 C   0  0  0  0  0
   74.2700   42.1500   24.4040 N   0  0  0  0  0
   71.6474   47.9843   25.4876 H   0  0  0  0  0
   71.0099   46.7643   26.4269 H   0  0  0  0  0
   72.3926   47.5558   26.9152 H   0  0  0  0  0
   73.6041   46.7164   25.0684 H   0  0  0  0  0
   72.1130   45.8629   24.5418 H   0  0  0  0  0
   72.1149   44.6523   26.7104 H   0  0  0  0  0
   73.7319   45.4094   27.0601 H   0  0  0  0  0
   72.1848   42.4685   25.0479 H   0  0  0  0  0
   76.3695   42.5941   24.2151 H   0  0  0  0  0
  2  1  1  0  0  0
  2  3  1  0  0  0
  3  4  1  0  0  0
  4  6  4  0  0  0
  4  5  4  0  0  0
  5  7  4  0  0  0
  7  8  4  0  0  0
  8  6  4  0  0  0
  1  9  1  0  0  0
  1 10  1  0  0  0
  1 11  1  0  0  0
  2 12  1  0  0  0
  2 13  1  0  0  0
  3 14  1  0  0  0
  3 15  1  0  0  0
  6 16  1  0  0  0
  7 17  1  0  0  0
M  END
$$$$
