3kiv_ligand
  -I-interpret- 

 23 22  0  0  0  0  0  0  0  0999 V2000
    8.2050   11.9810    4.0400 C   0  0  0  0  0
    7.7650   12.6130    3.0210 O   0  0  0  0  0
    8.2330   10.7450    4.2470 O   0  0  0  0  0
    8.8920   12.9020    5.0800 C   0  0  0  0  0
    9.5420   14.0690    4.2640 C   0  0  0  0  0
   10.0720   15.1500    5.2410 C   0  0  0  0  0
   10.7850   14.5700    6.4320 C   0  0  0  0  0
   10.9690   15.2760    7.6940 C   0  0  0  0  0
   12.0190   14.7800    8.6560 N   0  3  0  0  0
    7.8805   13.5563    3.1565 H   0  0  0  0  0
    9.6417   12.3574    5.6539 H   0  0  0  0  0
    8.1728   13.2817    5.8057 H   0  0  0  0  0
    8.7955   14.5105    3.6038 H   0  0  0  0  0
   10.3685   13.6802    3.6692 H   0  0  0  0  0
    9.2142   15.7124    5.6099 H   0  0  0  0  0
   10.7858   15.7678    4.6960 H   0  0  0  0  0
   11.8064   14.4560    6.0689 H   0  0  0  0  0
   10.1426   13.7359    6.7143 H   0  0  0  0  0
   10.0232   15.1605    8.2233 H   0  0  0  0  0
   11.2934   16.2779    7.4130 H   0  0  0  0  0
   12.0260   15.3736    9.4855 H   0  0  0  0  0
   11.8052   13.8197    8.9254 H   0  0  0  0  0
   12.9336   14.8124    8.2055 H   0  0  0  0  0
  1  4  1  0  0  0
  1  3  2  0  0  0
  1  2  1  0  0  0
  4  5  1  0  0  0
  5  6  1  0  0  0
  6  7  1  0  0  0
  7  8  1  0  0  0
  8  9  1  0  0  0
  2 10  1  0  0  0
  4 11  1  0  0  0
  4 12  1  0  0  0
  5 13  1  0  0  0
  5 14  1  0  0  0
  6 15  1  0  0  0
  6 16  1  0  0  0
  7 17  1  0  0  0
  7 18  1  0  0  0
  8 19  1  0  0  0
  8 20  1  0  0  0
  9 21  1  0  0  0
  9 22  1  0  0  0
  9 23  1  0  0  0
M  END
$$$$
