3uvu_ligand
  -I-interpret- 

318319  0  0  0  0  0  0  0  0999 V2000
   46.1840   49.0450   39.9510 N   0  3  0  0  0
   45.2730   49.8140   40.7900 C   0  0  0  0  0
   44.4970   50.8380   39.9680 C   0  0  0  0  0
   45.0560   51.8390   39.5180 O   0  0  0  0  0
   46.0410   50.5140   41.9130 C   0  0  0  0  0
   45.2380   51.4960   42.5440 O   0  0  0  0  0
   43.2080   50.5810   39.7760 N   0  0  0  0  0
   42.3540   51.4800   39.0080 C   0  0  0  0  0
   41.8960   52.6620   39.8550 C   0  0  0  0  0
   41.1550   53.5250   39.3850 O   0  0  0  0  0
   41.1540   50.7260   38.4540 C   0  0  0  0  0
   42.3440   52.6960   41.1060 N   0  0  0  0  0
   41.9750   53.7940   42.0390 C   0  0  0  0  0
   42.4540   55.1330   41.5160 C   0  0  0  0  0
   43.5870   55.2500   41.0750 O   0  0  0  0  0
   42.6060   53.6310   43.4220 C   0  0  0  0  0
   42.2470   52.3770   44.2120 C   0  0  0  0  0
   40.7930   52.2570   44.5110 C   0  0  0  0  0
   40.5270   50.8980   45.0870 C   0  0  0  0  0
   39.4170   50.8200   46.0520 N   0  3  0  0  0
   41.5820   56.1270   41.5110 N   0  0  0  0  0
   41.9600   57.4560   41.1950 C   0  0  0  0  0
   41.8780   58.3810   42.4570 C   0  0  0  0  0
   40.8190   58.5580   43.1010 O   0  0  0  0  0
   41.1660   57.9470   40.0300 C   0  0  0  0  0
   41.4760   57.2050   38.7520 C   0  0  0  0  0
   40.2080   57.0770   37.9500 C   0  0  0  0  0
   39.6710   58.3840   37.6270 N   0  0  0  0  0
   38.4700   58.8800   37.9780 C   0  0  0  0  0
   37.5860   58.2030   38.7080 N   0  0  0  0  0
   38.1670   60.0890   37.5740 N   0  0  0  0  0
   43.0450   58.9420   42.7740 N   0  0  0  0  0
   43.3180   59.5590   44.0340 C   0  0  0  0  0
   43.4200   61.0440   43.9450 C   0  0  0  0  0
   43.9410   61.6380   44.8950 O   0  0  0  0  0
   44.6860   59.1090   44.5890 C   0  0  0  0  0
   44.6220   58.5990   45.9850 C   0  0  0  0  0
   45.8870   57.9240   46.4110 C   0  0  0  0  0
   45.5960   56.6300   47.1450 C   0  0  0  0  0
   45.1130   56.8440   48.4550 N   0  3  0  0  0
   43.0570   61.7650   42.9100 N   0  0  0  0  0
   43.4890   63.1650   43.2850 C   0  0  0  0  0
   42.4130   64.2030   43.2370 C   0  0  0  0  0
   42.3730   64.9620   42.2880 O   0  0  0  0  0
   44.6830   63.6090   42.4680 C   0  0  0  0  0
   45.7010   64.2140   43.3650 C   0  0  0  0  0
   47.0610   63.5400   43.2140 C   0  0  0  0  0
   47.5280   63.4160   42.0350 O   0  0  0  0  0
   47.6310   63.1380   44.2840 O   0  0  0  0  0
   41.4990   64.2090   44.2140 N   0  0  0  0  0
   40.3070   64.9790   43.8610 C   0  0  0  0  0
   40.5570   66.5110   43.8280 C   0  0  0  0  0
   41.5300   66.9920   44.4250 O   0  0  0  0  0
   39.3090   64.5750   44.9540 C   0  0  0  0  0
   40.2010   64.2520   46.1660 C   0  0  0  0  0
   41.4470   63.6520   45.5760 C   0  0  0  0  0
   39.7050   67.2330   43.1070 N   0  0  0  0  0
   39.5650   68.6790   43.1450 C   0  0  0  0  0
   39.6060   69.1480   44.5950 C   0  0  0  0  0
   38.8030   68.6800   45.4270 O   0  0  0  0  0
   38.2060   69.0310   42.5600 C   0  0  0  0  0
   37.8730   70.5720   42.3980 C   0  0  0  0  0
   36.5140   70.8230   41.5990 C   0  0  0  0  0
   36.1680   69.9890   40.6850 O   0  0  0  0  0
   35.8030   71.8480   41.8890 O   0  0  0  0  0
   40.6140   69.9950   44.9340 N   0  0  0  0  0
   40.7320   70.5160   46.2910 C   0  0  0  0  0
   39.4430   71.2360   46.7690 C   0  0  0  0  0
   38.7860   71.9480   45.9960 O   0  0  0  0  0
   41.9430   71.4390   46.2240 C   0  0  0  0  0
   42.2380   71.6160   44.7290 C   0  0  0  0  0
   41.7300   70.4110   44.0660 C   0  0  0  0  0
   39.0960   70.9930   48.0370 N   0  0  0  0  0
   37.8380   71.4110   48.6230 C   0  0  0  0  0
   38.0370   71.4650   50.1290 C   0  0  0  0  0
   38.6760   70.5760   50.6980 O   0  0  0  0  0
   36.8440   70.3010   48.3880 C   0  0  0  0  0
   35.7070   70.5420   47.5280 C   0  0  0  0  0
   34.7710   69.2800   47.8780 C   0  0  0  0  0
   33.3340   69.3540   47.3130 C   0  0  0  0  0
   32.7150   70.7190   47.6410 N   0  3  0  0  0
   37.4960   72.4850   50.7790 N   0  0  0  0  0
   37.5710   72.5390   52.2010 C   0  0  0  0  0
   36.6080   73.4870   52.8500 C   0  0  0  0  0
   35.7620   74.0790   52.2190 O   0  0  0  0  0
   36.7480   73.6210   54.1390 N   0  0  0  0  0
   36.1690   74.7130   54.8480 C   0  0  0  0  0
   36.8020   76.0640   54.4400 C   0  0  0  0  0
   37.6860   76.1320   53.5970 O   0  0  0  0  0
   36.4370   74.4770   56.3240 C   0  0  0  0  0
   35.2940   74.8480   57.0380 O   0  0  0  0  0
   36.3530   77.1340   55.0680 N   0  0  0  0  0
   36.9710   78.4460   54.9880 C   0  0  0  0  0
   38.4250   78.3360   55.2860 C   0  0  0  0  0
   38.7730   77.7230   56.2760 O   0  0  0  0  0
   36.3890   79.2950   56.1730 C   0  0  0  0  0
   34.9420   79.2150   56.1250 O   0  0  0  0  0
   36.8140   80.7190   56.1020 C   0  0  0  0  0
   39.2720   78.8890   54.4340 N   0  0  0  0  0
   40.7160   78.9930   54.7240 C   0  0  0  0  0
   41.0210   80.0560   55.8170 C   0  0  0  0  0
   41.7070   79.7680   56.7800 O   0  0  0  0  0
   41.4970   79.3140   53.4380 C   0  0  0  0  0
   41.4890   78.1640   52.4320 C   0  0  0  0  0
   41.6320   78.7140   50.9980 C   0  0  0  0  0
   41.7000   77.5690   49.8840 C   0  0  0  0  0
   43.1500   77.0520   49.7140 N   0  3  0  0  0
   40.4670   81.2590   55.6510 N   0  0  0  0  0
   40.7390   82.3980   56.5000 C   0  0  0  0  0
   39.4430   83.1200   56.7520 C   0  0  0  0  0
   38.5020   83.0660   55.9740 O   0  0  0  0  0
   41.7330   83.3610   55.8290 C   0  0  0  0  0
   43.1110   82.7810   55.6300 C   0  0  0  0  0
   44.0890   83.8500   55.1880 C   0  0  0  0  0
   45.4440   83.1990   54.8380 C   0  0  0  0  0
   46.2590   84.0720   53.8550 N   0  3  0  0  0
   39.3800   83.8590   57.8370 N   0  0  0  0  0
   38.0530   84.3930   58.2860 C   0  0  0  0  0
   38.3020   85.6650   59.0570 C   0  0  0  0  0
   39.0740   85.6610   60.0320 O   0  0  0  0  0
   37.5020   83.3520   59.2650 C   0  0  0  0  0
   36.0760   83.2470   59.3710 C   0  0  0  0  0
   35.7510   81.8900   60.0420 C   0  0  0  0  0
   36.4970   81.7010   61.3460 C   0  0  0  0  0
   35.6830   80.9930   62.3450 N   0  3  0  0  0
   37.6870   86.7600   58.6320 N   0  0  0  0  0
   37.7550   88.0220   59.4320 C   0  0  0  0  0
   36.6820   87.9750   60.5460 C   0  0  0  0  0
   35.6510   87.3350   60.3800 O   0  0  0  0  0
   37.5740   89.2630   58.5340 C   0  0  0  0  0
   36.9540   88.6300   61.6720 N   0  0  0  0  0
   35.9700   88.8150   62.7080 C   0  0  0  0  0
   35.1960   90.1350   62.5010 C   0  0  0  0  0
   35.7580   91.2450   62.4560 O   0  0  0  0  0
   36.5800   88.6910   64.1040 C   0  0  0  0  0
   35.5990   88.8890   65.2220 C   0  0  0  0  0
   36.3470   88.6110   66.4640 C   0  0  0  0  0
   35.7280   89.1880   67.7270 C   0  0  0  0  0
   34.5700   88.4630   68.0700 N   0  3  0  0  0
   33.8830   89.9220   62.4980 N   0  0  0  0  0
   32.7650   90.7010   61.8990 C   0  0  0  0  0
   33.1080   91.5990   60.7690 C   0  0  0  0  0
   32.7550   91.2090   59.6800 O   0  0  0  0  0
   31.7580   91.3000   62.9060 C   0  0  0  0  0
   32.0830   92.6700   63.1380 O   0  0  0  0  0
   31.7590   90.5010   64.2800 C   0  0  0  0  0
   33.6980   92.6090   61.0780 O   0  0  0  0  0
   45.6555   48.5860   39.2091 H   0  0  0  0  0
   46.8760   49.6713   39.5396 H   0  0  0  0  0
   46.6557   48.3415   40.5193 H   0  0  0  0  0
   44.5582   49.1186   41.2300 H   0  0  0  0  0
   46.9172   51.0015   41.4855 H   0  0  0  0  0
   46.3298   49.7697   42.6551 H   0  0  0  0  0
   45.7421   51.9192   43.2429 H   0  0  0  0  0
   42.8052   49.7335   40.1758 H   0  0  0  0  0
   42.9383   51.8706   38.1748 H   0  0  0  0  0
   41.5000   49.9221   37.8042 H   0  0  0  0  0
   40.5781   50.3060   39.2786 H   0  0  0  0  0
   40.5274   51.4117   37.8837 H   0  0  0  0  0
   42.9567   51.9497   41.4347 H   0  0  0  0  0
   40.8885   53.7508   42.1145 H   0  0  0  0  0
   42.2375   54.4683   44.0147 H   0  0  0  0  0
   43.6809   53.5738   43.2507 H   0  0  0  0  0
   42.7735   52.4290   45.1650 H   0  0  0  0  0
   42.5280   51.5165   43.6049 H   0  0  0  0  0
   40.2161   52.3890   43.5956 H   0  0  0  0  0
   40.4990   53.0249   45.2266 H   0  0  0  0  0
   41.4280   50.6104   45.6288 H   0  0  0  0  0
   40.2541   50.2557   44.2497 H   0  0  0  0  0
   39.3209   49.8593   46.3809 H   0  0  0  0  0
   39.6121   51.4336   46.8431 H   0  0  0  0  0
   38.5520   51.1133   45.5979 H   0  0  0  0  0
   40.6078   55.9314   41.7415 H   0  0  0  0  0
   43.0062   57.4786   40.8900 H   0  0  0  0  0
   41.4172   58.9962   39.8748 H   0  0  0  0  0
   40.1113   57.7919   40.2572 H   0  0  0  0  0
   41.8695   56.2153   38.9840 H   0  0  0  0  0
   42.2242   57.7517   38.1780 H   0  0  0  0  0
   39.4723   56.5300   38.5395 H   0  0  0  0  0
   40.4297   56.5485   37.0228 H   0  0  0  0  0
   40.2696   58.9957   37.0722 H   0  0  0  0  0
   36.6888   58.6267   38.9446 H   0  0  0  0  0
   37.8059   57.2607   39.0306 H   0  0  0  0  0
   38.8323   60.6210   37.0129 H   0  0  0  0  0
   43.7879   58.9302   42.0752 H   0  0  0  0  0
   42.4838   59.2613   44.6693 H   0  0  0  0  0
   45.3420   59.9795   44.5882 H   0  0  0  0  0
   45.0430   58.2944   43.9589 H   0  0  0  0  0
   43.8172   57.8657   46.0370 H   0  0  0  0  0
   44.4580   59.4505   46.6454 H   0  0  0  0  0
   46.4288   58.5908   47.0818 H   0  0  0  0  0
   46.4763   57.6958   45.5229 H   0  0  0  0  0
   46.5282   56.0699   47.2190 H   0  0  0  0  0
   44.8273   56.0945   46.5879 H   0  0  0  0  0
   44.9344   55.9444   48.9014 H   0  0  0  0  0
   45.8096   57.3595   48.9929 H   0  0  0  0  0
   44.2474   57.3820   48.4133 H   0  0  0  0  0
   42.5937   61.4548   42.0559 H   0  0  0  0  0
   43.7660   63.0860   44.3363 H   0  0  0  0  0
   44.3645   64.3463   41.7311 H   0  0  0  0  0
   45.1145   62.7475   41.9583 H   0  0  0  0  0
   45.3684   64.0875   44.3953 H   0  0  0  0  0
   45.8087   65.2660   43.1008 H   0  0  0  0  0
   47.0771   63.3493   45.0391 H   0  0  0  0  0
   39.9546   64.7660   42.8518 H   0  0  0  0  0
   38.6898   63.7284   44.6576 H   0  0  0  0  0
   38.5875   65.3634   45.1686 H   0  0  0  0  0
   39.7111   63.5693   46.8602 H   0  0  0  0  0
   40.4193   65.1409   46.7578 H   0  0  0  0  0
   42.3374   63.8944   46.1561 H   0  0  0  0  0
   41.4214   62.5623   45.5764 H   0  0  0  0  0
   39.0931   66.7253   42.4682 H   0  0  0  0  0
   40.3681   69.1543   42.5817 H   0  0  0  0  0
   37.4687   68.6382   43.2601 H   0  0  0  0  0
   38.1983   68.6163   41.5520 H   0  0  0  0  0
   38.6842   71.0340   41.8353 H   0  0  0  0  0
   37.7607   70.9984   43.3948 H   0  0  0  0  0
   36.8283   69.2951   40.6199 H   0  0  0  0  0
   40.8618   69.7257   47.0304 H   0  0  0  0  0
   42.7974   71.0174   46.7534 H   0  0  0  0  0
   41.7450   72.3949   46.7089 H   0  0  0  0  0
   43.3061   71.7413   44.5515 H   0  0  0  0  0
   41.7571   72.5123   44.3371 H   0  0  0  0  0
   41.4173   70.5963   43.0384 H   0  0  0  0  0
   42.4905   69.6375   43.9587 H   0  0  0  0  0
   39.7548   70.4839   48.6262 H   0  0  0  0  0
   37.5103   72.3641   48.2079 H   0  0  0  0  0
   36.4139   70.0994   49.3691 H   0  0  0  0  0
   37.4130   69.5188   47.8855 H   0  0  0  0  0
   35.9653   70.6155   46.4716 H   0  0  0  0  0
   35.2253   71.5047   47.6991 H   0  0  0  0  0
   34.6804   69.2476   48.9637 H   0  0  0  0  0
   35.2410   68.4057   47.4276 H   0  0  0  0  0
   32.7292   68.5669   47.7633 H   0  0  0  0  0
   33.3653   69.2235   46.2313 H   0  0  0  0  0
   31.7676   70.7605   47.2654 H   0  0  0  0  0
   32.6866   70.8438   48.6529 H   0  0  0  0  0
   33.2808   71.4571   47.2220 H   0  0  0  0  0
   37.0271   73.2295   50.2630 H   0  0  0  0  0
   38.5730   72.8881   52.4505 H   0  0  0  0  0
   37.3266   71.5419   52.5673 H   0  0  0  0  0
   37.2869   72.9250   54.6543 H   0  0  0  0  0
   35.1040   74.7649   54.6219 H   0  0  0  0  0
   37.2921   75.0693   56.6498 H   0  0  0  0  0
   36.6656   73.4260   56.5008 H   0  0  0  0  0
   35.4436   74.7060   57.9756 H   0  0  0  0  0
   35.5189   77.0334   55.6464 H   0  0  0  0  0
   36.7944   78.8725   54.0006 H   0  0  0  0  0
   36.7718   78.8902   57.1099 H   0  0  0  0  0
   34.5701   79.7301   56.8447 H   0  0  0  0  0
   37.9017   80.7748   56.1454 H   0  0  0  0  0
   36.4636   81.1552   55.1666 H   0  0  0  0  0
   36.3870   81.2666   56.9422 H   0  0  0  0  0
   38.9172   79.2545   53.5503 H   0  0  0  0  0
   41.0384   78.0265   55.1113 H   0  0  0  0  0
   42.5334   79.5036   53.7174 H   0  0  0  0  0
   41.0197   80.1723   52.9651 H   0  0  0  0  0
   40.5469   77.6222   52.5153 H   0  0  0  0  0
   42.3244   77.4968   52.6444 H   0  0  0  0  0
   42.5662   79.2737   50.9519 H   0  0  0  0  0
   40.7525   79.3235   50.7901 H   0  0  0  0  0
   41.3607   77.9823   48.9342 H   0  0  0  0  0
   41.0651   76.7390   50.1941 H   0  0  0  0  0
   43.1686   76.3239   48.9999 H   0  0  0  0  0
   43.7538   77.8236   49.4303 H   0  0  0  0  0
   43.4793   76.6691   50.6002 H   0  0  0  0  0
   39.8122   81.3825   54.8787 H   0  0  0  0  0
   41.1791   82.0502   57.4346 H   0  0  0  0  0
   41.8379   84.2255   56.4846 H   0  0  0  0  0
   41.3366   83.5982   54.8417 H   0  0  0  0  0
   43.0597   82.0125   54.8588 H   0  0  0  0  0
   43.4544   82.3612   56.5755 H   0  0  0  0  0
   44.2300   84.5682   55.9957 H   0  0  0  0  0
   43.6948   84.3607   54.3094 H   0  0  0  0  0
   45.2512   82.2363   54.3646 H   0  0  0  0  0
   46.0194   83.0868   55.7569 H   0  0  0  0  0
   47.1451   83.6114   53.6474 H   0  0  0  0  0
   45.7288   84.1962   52.9925 H   0  0  0  0  0
   46.4387   84.9821   54.2791 H   0  0  0  0  0
   40.2255   84.0671   58.3683 H   0  0  0  0  0
   37.3766   84.5815   57.4523 H   0  0  0  0  0
   37.8516   83.6574   60.2512 H   0  0  0  0  0
   37.8444   82.3856   58.8949 H   0  0  0  0  0
   35.6178   83.3006   58.3834 H   0  0  0  0  0
   35.6789   84.0689   59.9668 H   0  0  0  0  0
   36.0535   81.0947   59.3608 H   0  0  0  0  0
   34.6827   81.8661   60.2569 H   0  0  0  0  0
   36.7463   82.6850   61.7431 H   0  0  0  0  0
   37.3882   81.1058   61.1470 H   0  0  0  0  0
   36.2200   80.8864   63.2056 H   0  0  0  0  0
   34.8370   81.5302   62.5350 H   0  0  0  0  0
   35.4293   80.0730   61.9849 H   0  0  0  0  0
   37.1653   86.7417   57.7557 H   0  0  0  0  0
   38.7411   88.1021   59.8894 H   0  0  0  0  0
   38.3632   89.2843   57.7825 H   0  0  0  0  0
   36.6028   89.2150   58.0415 H   0  0  0  0  0
   37.6285   90.1636   59.1457 H   0  0  0  0  0
   37.8896   89.0136   61.8060 H   0  0  0  0  0
   35.2426   88.0068   62.6326 H   0  0  0  0  0
   37.3352   89.4716   64.1961 H   0  0  0  0  0
   36.9724   87.6782   64.1953 H   0  0  0  0  0
   34.7397   88.2264   65.1188 H   0  0  0  0  0
   35.1934   89.9007   65.2203 H   0  0  0  0  0
   37.3270   89.0750   66.3526 H   0  0  0  0  0
   36.3631   87.5281   66.5869 H   0  0  0  0  0
   35.4602   90.2299   67.5516 H   0  0  0  0  0
   36.4481   89.1208   68.5425 H   0  0  0  0  0
   34.1622   88.8572   68.9178 H   0  0  0  0  0
   33.8951   88.5219   67.3075 H   0  0  0  0  0
   34.8171   87.4868   68.2322 H   0  0  0  0  0
   33.5917   89.0784   62.9919 H   0  0  0  0  0
   32.2060   89.9067   61.4043 H   0  0  0  0  0
   30.7580   91.2209   62.4797 H   0  0  0  0  0
   31.4584   93.0444   63.7636 H   0  0  0  0  0
   31.4850   89.4623   64.0950 H   0  0  0  0  0
   32.7545   90.5423   64.7221 H   0  0  0  0  0
   31.0382   90.9524   64.9618 H   0  0  0  0  0
   33.8287   92.6237   62.0289 H   0  0  0  0  0
  1  2  1  0  0  0
  2  3  1  0  0  0
  2  5  1  0  0  0
  3  4  2  0  0  0
  3  7  1  0  0  0
  5  6  1  0  0  0
  7  8  1  0  0  0
  8  9  1  0  0  0
  8 11  1  0  0  0
  9 10  2  0  0  0
  9 12  1  0  0  0
 12 13  1  0  0  0
 13 14  1  0  0  0
 13 16  1  0  0  0
 14 15  2  0  0  0
 14 21  1  0  0  0
 16 17  1  0  0  0
 17 18  1  0  0  0
 18 19  1  0  0  0
 19 20  1  0  0  0
 21 22  1  0  0  0
 22 23  1  0  0  0
 22 25  1  0  0  0
 23 24  2  0  0  0
 23 32  1  0  0  0
 25 26  1  0  0  0
 26 27  1  0  0  0
 27 28  1  0  0  0
 28 29  1  0  0  0
 29 30  1  0  0  0
 29 31  2  0  0  0
 32 33  1  0  0  0
 33 34  1  0  0  0
 33 36  1  0  0  0
 34 35  2  0  0  0
 34 41  1  0  0  0
 36 37  1  0  0  0
 37 38  1  0  0  0
 38 39  1  0  0  0
 39 40  1  0  0  0
 41 42  1  0  0  0
 42 43  1  0  0  0
 42 45  1  0  0  0
 43 44  2  0  0  0
 43 50  1  0  0  0
 45 46  1  0  0  0
 46 47  1  0  0  0
 47 48  2  0  0  0
 47 49  1  0  0  0
 50 51  1  0  0  0
 50 56  1  0  0  0
 51 52  1  0  0  0
 51 54  1  0  0  0
 52 53  2  0  0  0
 52 57  1  0  0  0
 54 55  1  0  0  0
 55 56  1  0  0  0
 57 58  1  0  0  0
 58 59  1  0  0  0
 58 61  1  0  0  0
 59 60  2  0  0  0
 59 66  1  0  0  0
 61 62  1  0  0  0
 62 63  1  0  0  0
 63 64  1  0  0  0
 63 65  2  0  0  0
 66 67  1  0  0  0
 66 72  1  0  0  0
 67 68  1  0  0  0
 67 70  1  0  0  0
 68 69  2  0  0  0
 68 73  1  0  0  0
 70 71  1  0  0  0
 71 72  1  0  0  0
 73 74  1  0  0  0
 74 75  1  0  0  0
 74 77  1  0  0  0
 75 76  2  0  0  0
 75 82  1  0  0  0
 77 78  1  0  0  0
 78 79  1  0  0  0
 79 80  1  0  0  0
 80 81  1  0  0  0
 82 83  1  0  0  0
 83 84  1  0  0  0
 84 85  2  0  0  0
 84 86  1  0  0  0
 86 87  1  0  0  0
 87 88  1  0  0  0
 87 90  1  0  0  0
 88 89  2  0  0  0
 88 92  1  0  0  0
 90 91  1  0  0  0
 92 93  1  0  0  0
 93 94  1  0  0  0
 93 96  1  0  0  0
 94 95  2  0  0  0
 94 99  1  0  0  0
 96 97  1  0  0  0
 96 98  1  0  0  0
 99100  1  0  0  0
100101  1  0  0  0
100103  1  0  0  0
101102  2  0  0  0
101108  1  0  0  0
103104  1  0  0  0
104105  1  0  0  0
105106  1  0  0  0
106107  1  0  0  0
108109  1  0  0  0
109110  1  0  0  0
109112  1  0  0  0
110111  2  0  0  0
110117  1  0  0  0
112113  1  0  0  0
113114  1  0  0  0
114115  1  0  0  0
115116  1  0  0  0
117118  1  0  0  0
118119  1  0  0  0
118121  1  0  0  0
119120  2  0  0  0
119126  1  0  0  0
121122  1  0  0  0
122123  1  0  0  0
123124  1  0  0  0
124125  1  0  0  0
126127  1  0  0  0
127128  1  0  0  0
127130  1  0  0  0
128129  2  0  0  0
128131  1  0  0  0
131132  1  0  0  0
132133  1  0  0  0
132135  1  0  0  0
133134  2  0  0  0
133140  1  0  0  0
135136  1  0  0  0
136137  1  0  0  0
137138  1  0  0  0
138139  1  0  0  0
140141  1  0  0  0
141142  1  0  0  0
141144  1  0  0  0
142143  2  0  0  0
142147  1  0  0  0
144145  1  0  0  0
144146  1  0  0  0
  1148  1  0  0  0
  1149  1  0  0  0
  1150  1  0  0  0
  2151  1  0  0  0
  5152  1  0  0  0
  5153  1  0  0  0
  6154  1  0  0  0
  7155  1  0  0  0
  8156  1  0  0  0
 11157  1  0  0  0
 11158  1  0  0  0
 11159  1  0  0  0
 12160  1  0  0  0
 13161  1  0  0  0
 16162  1  0  0  0
 16163  1  0  0  0
 17164  1  0  0  0
 17165  1  0  0  0
 18166  1  0  0  0
 18167  1  0  0  0
 19168  1  0  0  0
 19169  1  0  0  0
 20170  1  0  0  0
 20171  1  0  0  0
 20172  1  0  0  0
 21173  1  0  0  0
 22174  1  0  0  0
 25175  1  0  0  0
 25176  1  0  0  0
 26177  1  0  0  0
 26178  1  0  0  0
 27179  1  0  0  0
 27180  1  0  0  0
 28181  1  0  0  0
 30182  1  0  0  0
 30183  1  0  0  0
 31184  1  0  0  0
 32185  1  0  0  0
 33186  1  0  0  0
 36187  1  0  0  0
 36188  1  0  0  0
 37189  1  0  0  0
 37190  1  0  0  0
 38191  1  0  0  0
 38192  1  0  0  0
 39193  1  0  0  0
 39194  1  0  0  0
 40195  1  0  0  0
 40196  1  0  0  0
 40197  1  0  0  0
 41198  1  0  0  0
 42199  1  0  0  0
 45200  1  0  0  0
 45201  1  0  0  0
 46202  1  0  0  0
 46203  1  0  0  0
 49204  1  0  0  0
 51205  1  0  0  0
 54206  1  0  0  0
 54207  1  0  0  0
 55208  1  0  0  0
 55209  1  0  0  0
 56210  1  0  0  0
 56211  1  0  0  0
 57212  1  0  0  0
 58213  1  0  0  0
 61214  1  0  0  0
 61215  1  0  0  0
 62216  1  0  0  0
 62217  1  0  0  0
 64218  1  0  0  0
 67219  1  0  0  0
 70220  1  0  0  0
 70221  1  0  0  0
 71222  1  0  0  0
 71223  1  0  0  0
 72224  1  0  0  0
 72225  1  0  0  0
 73226  1  0  0  0
 74227  1  0  0  0
 77228  1  0  0  0
 77229  1  0  0  0
 78230  1  0  0  0
 78231  1  0  0  0
 79232  1  0  0  0
 79233  1  0  0  0
 80234  1  0  0  0
 80235  1  0  0  0
 81236  1  0  0  0
 81237  1  0  0  0
 81238  1  0  0  0
 82239  1  0  0  0
 83240  1  0  0  0
 83241  1  0  0  0
 86242  1  0  0  0
 87243  1  0  0  0
 90244  1  0  0  0
 90245  1  0  0  0
 91246  1  0  0  0
 92247  1  0  0  0
 93248  1  0  0  0
 96249  1  0  0  0
 97250  1  0  0  0
 98251  1  0  0  0
 98252  1  0  0  0
 98253  1  0  0  0
 99254  1  0  0  0
100255  1  0  0  0
103256  1  0  0  0
103257  1  0  0  0
104258  1  0  0  0
104259  1  0  0  0
105260  1  0  0  0
105261  1  0  0  0
106262  1  0  0  0
106263  1  0  0  0
107264  1  0  0  0
107265  1  0  0  0
107266  1  0  0  0
108267  1  0  0  0
109268  1  0  0  0
112269  1  0  0  0
112270  1  0  0  0
113271  1  0  0  0
113272  1  0  0  0
114273  1  0  0  0
114274  1  0  0  0
115275  1  0  0  0
115276  1  0  0  0
116277  1  0  0  0
116278  1  0  0  0
116279  1  0  0  0
117280  1  0  0  0
118281  1  0  0  0
121282  1  0  0  0
121283  1  0  0  0
122284  1  0  0  0
122285  1  0  0  0
123286  1  0  0  0
123287  1  0  0  0
124288  1  0  0  0
124289  1  0  0  0
125290  1  0  0  0
125291  1  0  0  0
125292  1  0  0  0
126293  1  0  0  0
127294  1  0  0  0
130295  1  0  0  0
130296  1  0  0  0
130297  1  0  0  0
131298  1  0  0  0
132299  1  0  0  0
135300  1  0  0  0
135301  1  0  0  0
136302  1  0  0  0
136303  1  0  0  0
137304  1  0  0  0
137305  1  0  0  0
138306  1  0  0  0
138307  1  0  0  0
139308  1  0  0  0
139309  1  0  0  0
139310  1  0  0  0
140311  1  0  0  0
141312  1  0  0  0
144313  1  0  0  0
145314  1  0  0  0
146315  1  0  0  0
146316  1  0  0  0
146317  1  0  0  0
147318  1  0  0  0
M  END
$$$$
