### 
### Created by X-TOOL on Mon Sep 10 21:13:09 2018
### 

@<TRIPOS>MOLECULE
3uvu_ligand
  316   317     1     0     0
SMALL
GAST_HUCK


@<TRIPOS>ATOM
      1 N          46.1840   49.0450   39.9510 N.4       1 SER         0.2396
      2 CA         45.2730   49.8140   40.7900 C.3       1 SER         0.0885
      3 C          44.4970   50.8380   39.9680 C.2       1 SER         0.2290
      4 O          45.0560   51.8390   39.5180 O.2       1 SER        -0.3906
      5 CB         46.0410   50.5140   41.9130 C.3       1 SER         0.1041
      6 OG         45.2380   51.4960   42.5440 O.3       1 SER        -0.3870
      7 N          43.2080   50.5810   39.7760 N.am      1 ALA        -0.2612
      8 CA         42.3540   51.4800   39.0080 C.3       1 ALA         0.1283
      9 C          41.8960   52.6620   39.8550 C.2       1 ALA         0.2036
     10 O          41.1550   53.5250   39.3850 O.2       1 ALA        -0.3944
     11 CB         41.1540   50.7260   38.4540 C.3       1 ALA        -0.0244
     12 N          42.3440   52.6960   41.1060 N.am      1 LYS        -0.2637
     13 CA         41.9750   53.7940   42.0390 C.3       1 LYS         0.1310
     14 C          42.4540   55.1330   41.5160 C.2       1 LYS         0.2039
     15 O          43.5870   55.2500   41.0750 O.2       1 LYS        -0.3944
     16 CB         42.6060   53.6310   43.4220 C.3       1 LYS        -0.0122
     17 CG         42.2470   52.3770   44.2120 C.3       1 LYS        -0.0440
     18 CD         40.7930   52.2570   44.5110 C.3       1 LYS        -0.0124
     19 CE         40.5270   50.8980   45.0870 C.3       1 LYS        -0.0354
     20 NZ         39.4170   50.8200   46.0520 N.4       1 LYS         0.2185
     21 N          41.5820   56.1270   41.5110 N.am      1 ARG        -0.2637
     22 CA         41.9600   57.4560   41.1950 C.3       1 ARG         0.1311
     23 C          41.8780   58.3810   42.4570 C.2       1 ARG         0.2039
     24 O          40.8190   58.5580   43.1010 O.2       1 ARG        -0.3944
     25 CB         41.1660   57.9470   40.0300 C.3       1 ARG        -0.0092
     26 CG         41.4760   57.2050   38.7520 C.3       1 ARG        -0.0156
     27 CD         40.2080   57.0770   37.9500 C.3       1 ARG         0.0627
     28 NE         39.6710   58.3840   37.6270 N.pl3     1 ARG        -0.2723
     29 CZ         38.4700   58.8800   37.9780 C.cat     1 ARG         0.2882
     30 NH1        37.5860   58.2030   38.7080 N.pl3     1 ARG        -0.2849
     31 NH2        38.1670   60.0890   37.5740 N.pl3     1 ARG        -0.2849
     32 N          43.0450   58.9420   42.7740 N.am      1 LYS        -0.2637
     33 CA         43.3180   59.5590   44.0340 C.3       1 LYS         0.1310
     34 C          43.4200   61.0440   43.9450 C.2       1 LYS         0.2039
     35 O          43.9410   61.6380   44.8950 O.2       1 LYS        -0.3944
     36 CB         44.6860   59.1090   44.5890 C.3       1 LYS        -0.0122
     37 CG         44.6220   58.5990   45.9850 C.3       1 LYS        -0.0440
     38 CD         45.8870   57.9240   46.4110 C.3       1 LYS        -0.0124
     39 CE         45.5960   56.6300   47.1450 C.3       1 LYS        -0.0354
     40 NZ         45.1130   56.8440   48.4550 N.4       1 LYS         0.2185
     41 N          43.0570   61.7650   42.9100 N.am      1 GLU        -0.2636
     42 CA         43.4890   63.1650   43.2850 C.3       1 GLU         0.1327
     43 C          42.4130   64.2030   43.2370 C.2       1 GLU         0.2065
     44 O          42.3730   64.9620   42.2880 O.2       1 GLU        -0.3942
     45 CB         44.6830   63.6090   42.4680 C.3       1 GLU        -0.0008
     46 CG         45.7010   64.2140   43.3650 C.3       1 GLU         0.0044
     47 CD         47.0610   63.5400   43.2140 C.2       1 GLU         0.0350
     48 OE1        47.5280   63.4160   42.0350 O.co2     1 GLU        -0.5690
     49 OE2        47.6310   63.1380   44.2840 O.co2     1 GLU        -0.5690
     50 N          41.4990   64.2090   44.2140 N.am      1 PRO        -0.2498
     51 CA         40.3070   64.9790   43.8610 C.3       1 PRO         0.1338
     52 C          40.5570   66.5110   43.8280 C.2       1 PRO         0.2041
     53 O          41.5300   66.9920   44.4250 O.2       1 PRO        -0.3944
     54 CB         39.3090   64.5750   44.9540 C.3       1 PRO        -0.0104
     55 CG         40.2010   64.2520   46.1660 C.3       1 PRO        -0.0281
     56 CD         41.4470   63.6520   45.5760 C.3       1 PRO         0.0369
     57 N          39.7050   67.2330   43.1070 N.am      1 GLU        -0.2636
     58 CA         39.5650   68.6790   43.1450 C.3       1 GLU         0.1327
     59 C          39.6060   69.1480   44.5950 C.2       1 GLU         0.2065
     60 O          38.8030   68.6800   45.4270 O.2       1 GLU        -0.3942
     61 CB         38.2060   69.0310   42.5600 C.3       1 GLU        -0.0008
     62 CG         37.8730   70.5720   42.3980 C.3       1 GLU         0.0044
     63 CD         36.5140   70.8230   41.5990 C.2       1 GLU         0.0350
     64 OE1        36.1680   69.9890   40.6850 O.co2     1 GLU        -0.5690
     65 OE2        35.8030   71.8480   41.8890 O.co2     1 GLU        -0.5690
     66 N          40.6140   69.9950   44.9340 N.am      1 PRO        -0.2498
     67 CA         40.7320   70.5160   46.2910 C.3       1 PRO         0.1338
     68 C          39.4430   71.2360   46.7690 C.2       1 PRO         0.2041
     69 O          38.7860   71.9480   45.9960 O.2       1 PRO        -0.3944
     70 CB         41.9430   71.4390   46.2240 C.3       1 PRO        -0.0104
     71 CG         42.2380   71.6160   44.7290 C.3       1 PRO        -0.0281
     72 CD         41.7300   70.4110   44.0660 C.3       1 PRO         0.0369
     73 N          39.0960   70.9930   48.0370 N.am      1 LYS        -0.2637
     74 CA         37.8380   71.4110   48.6230 C.3       1 LYS         0.1310
     75 C          38.0370   71.4650   50.1290 C.2       1 LYS         0.2037
     76 O          38.6760   70.5760   50.6980 O.2       1 LYS        -0.3944
     77 CB         36.8440   70.3010   48.3880 C.3       1 LYS        -0.0122
     78 CG         35.7070   70.5420   47.5280 C.3       1 LYS        -0.0440
     79 CD         34.7710   69.2800   47.8780 C.3       1 LYS        -0.0124
     80 CE         33.3340   69.3540   47.3130 C.3       1 LYS        -0.0354
     81 NZ         32.7150   70.7190   47.6410 N.4       1 LYS         0.2185
     82 N          37.4960   72.4850   50.7790 N.am      1 GLY        -0.2664
     83 CA         37.5710   72.5390   52.2010 C.3       1 GLY         0.1201
     84 C          36.6080   73.4870   52.8500 C.2       1 GLY         0.2008
     85 O          35.7620   74.0790   52.2190 O.2       1 GLY        -0.3947
     86 N          36.7480   73.6210   54.1390 N.am      1 SER        -0.2618
     87 CA         36.1690   74.7130   54.8480 C.3       1 SER         0.1539
     88 C          36.8020   76.0640   54.4400 C.2       1 SER         0.2063
     89 O          37.6860   76.1320   53.5970 O.2       1 SER        -0.3943
     90 CB         36.4370   74.4770   56.3240 C.3       1 SER         0.0843
     91 OG         35.2940   74.8480   57.0380 O.3       1 SER        -0.3903
     92 N          36.3530   77.1340   55.0680 N.am      1 THR        -0.2613
     93 CA         36.9710   78.4460   54.9880 C.3       1 THR         0.1565
     94 C          38.4250   78.3360   55.2860 C.2       1 THR         0.2065
     95 O          38.7730   77.7230   56.2760 O.2       1 THR        -0.3943
     96 CB         36.3890   79.2950   56.1730 C.3       1 THR         0.0924
     97 OG1        34.9420   79.2150   56.1250 O.3       1 THR        -0.3874
     98 CG2        36.8140   80.7190   56.1020 C.3       1 THR        -0.0346
     99 N          39.2720   78.8890   54.4340 N.am      1 LYS        -0.2637
    100 CA         40.7160   78.9930   54.7240 C.3       1 LYS         0.1310
    101 C          41.0210   80.0560   55.8170 C.2       1 LYS         0.2039
    102 O          41.7070   79.7680   56.7800 O.2       1 LYS        -0.3944
    103 CB         41.4970   79.3140   53.4380 C.3       1 LYS        -0.0122
    104 CG         41.4890   78.1640   52.4320 C.3       1 LYS        -0.0440
    105 CD         41.6320   78.7140   50.9980 C.3       1 LYS        -0.0124
    106 CE         41.7000   77.5690   49.8840 C.3       1 LYS        -0.0354
    107 NZ         43.1500   77.0520   49.7140 N.4       1 LYS         0.2185
    108 N          40.4670   81.2590   55.6510 N.am      1 LYS        -0.2637
    109 CA         40.7390   82.3980   56.5000 C.3       1 LYS         0.1310
    110 C          39.4430   83.1200   56.7520 C.2       1 LYS         0.2039
    111 O          38.5020   83.0660   55.9740 O.2       1 LYS        -0.3944
    112 CB         41.7330   83.3610   55.8290 C.3       1 LYS        -0.0122
    113 CG         43.1110   82.7810   55.6300 C.3       1 LYS        -0.0440
    114 CD         44.0890   83.8500   55.1880 C.3       1 LYS        -0.0124
    115 CE         45.4440   83.1990   54.8380 C.3       1 LYS        -0.0354
    116 NZ         46.2590   84.0720   53.8550 N.4       1 LYS         0.2185
    117 N          39.3800   83.8590   57.8370 N.am      1 LYS        -0.2637
    118 CA         38.0530   84.3930   58.2860 C.3       1 LYS         0.1310
    119 C          38.3020   85.6650   59.0570 C.2       1 LYS         0.2039
    120 O          39.0740   85.6610   60.0320 O.2       1 LYS        -0.3944
    121 CB         37.5020   83.3520   59.2650 C.3       1 LYS        -0.0122
    122 CG         36.0760   83.2470   59.3710 C.3       1 LYS        -0.0440
    123 CD         35.7510   81.8900   60.0420 C.3       1 LYS        -0.0124
    124 CE         36.4970   81.7010   61.3460 C.3       1 LYS        -0.0354
    125 NZ         35.6830   80.9930   62.3450 N.4       1 LYS         0.2185
    126 N          37.6870   86.7600   58.6320 N.am      1 ALA        -0.2640
    127 CA         37.7550   88.0220   59.4320 C.3       1 ALA         0.1282
    128 C          36.6820   87.9750   60.5460 C.2       1 ALA         0.2036
    129 O          35.6510   87.3350   60.3800 O.2       1 ALA        -0.3944
    130 CB         37.5740   89.2630   58.5340 C.3       1 ALA        -0.0244
    131 N          36.9540   88.6300   61.6720 N.am      1 LYS        -0.2637
    132 CA         35.9700   88.8150   62.7080 C.3       1 LYS         0.1309
    133 C          35.1960   90.1350   62.5010 C.2       1 LYS         0.2034
    134 O          35.7580   91.2450   62.4560 O.2       1 LYS        -0.3944
    135 CB         36.5800   88.6910   64.1040 C.3       1 LYS        -0.0122
    136 CG         35.5990   88.8890   65.2220 C.3       1 LYS        -0.0440
    137 CD         36.3470   88.6110   66.4640 C.3       1 LYS        -0.0124
    138 CE         35.7280   89.1880   67.7270 C.3       1 LYS        -0.0354
    139 NZ         34.5700   88.4630   68.0700 N.4       1 LYS         0.2185
    140 N          33.8830   89.9220   62.4980 N.am      1 THR        -0.2670
    141 CA         32.7650   90.7010   61.8990 C.3       1 THR         0.1198
    142 C          33.1080   91.5990   60.7690 C.2       1 THR         0.0626
    143 O          32.7550   91.2090   59.6800 O.co2     1 THR        -0.5665
    144 CB         31.7580   91.3000   62.9060 C.3       1 THR         0.0869
    145 OG1        32.0830   92.6700   63.1380 O.3       1 THR        -0.3880
    146 CG2        31.7590   90.5010   64.2800 C.3       1 THR        -0.0352
    147 OXT        33.6980   92.6090   61.0780 O.co2     1 THR        -0.5665
    148 H1         46.6821   48.3780   40.5194 H         1 SER         0.2016
    149 H2         46.8421   49.6685   39.5102 H         1 SER         0.2016
    150 H3         45.6578   48.5568   39.2433 H         1 SER         0.2016
    151 H4         44.5523   49.1175   41.2432 H         1 SER         0.1122
    152 H5         46.9342   50.9974   41.4905 H         1 SER         0.0640
    153 H6         46.3471   49.7663   42.6594 H         1 SER         0.0640
    154 H7         44.9739   52.1465   41.9041 H         1 SER         0.2099
    155 H8         42.8131   49.7501   40.1680 H         1 ALA         0.1884
    156 H9         42.9386   51.8700   38.1618 H         1 ALA         0.0797
    157 H10        40.5208   51.4170   37.8782 H         1 ALA         0.0277
    158 H11        40.5719   50.3016   39.2853 H         1 ALA         0.0277
    159 H12        41.5018   49.9144   37.7980 H         1 ALA         0.0277
    160 H13        42.9447   51.9644   41.4282 H         1 LYS         0.1883
    161 H14        40.8797   53.8076   42.1398 H         1 LYS         0.0800
    162 H15        42.3055   54.4994   44.0266 H         1 LYS         0.0312
    163 H16        43.6980   53.6365   43.2896 H         1 LYS         0.0312
    164 H17        42.7974   52.3963   45.1642 H         1 LYS         0.0269
    165 H18        42.5556   51.4976   43.6278 H         1 LYS         0.0269
    166 H19        40.2135   52.3855   43.5849 H         1 LYS         0.0317
    167 H20        40.5001   53.0297   45.2370 H         1 LYS         0.0317
    168 H21        41.4421   50.5617   45.5964 H         1 LYS         0.0813
    169 H22        40.2994   50.2164   44.2542 H         1 LYS         0.0813
    170 H23        39.3211   49.8709   46.3778 H         1 LYS         0.1994
    171 H24        38.5616   51.1096   45.6043 H         1 LYS         0.1994
    172 H25        39.6087   51.4260   46.8344 H         1 LYS         0.1994
    173 H26        40.6269   55.9353   41.7370 H         1 ARG         0.1883
    174 H27        43.0143   57.4371   40.8819 H         1 ARG         0.0800
    175 H28        41.3877   59.0138   39.8789 H         1 ARG         0.0313
    176 H29        40.0968   57.8233   40.2569 H         1 ARG         0.0313
    177 H30        41.8663   56.2045   38.9899 H         1 ARG         0.0301
    178 H31        42.2261   57.7630   38.1723 H         1 ARG         0.0301
    179 H32        39.4651   56.5164   38.5364 H         1 ARG         0.0689
    180 H33        40.4239   56.5350   37.0175 H         1 ARG         0.0689
    181 H34        40.2755   59.0017   37.0667 H         1 ARG         0.2642
    182 H35        36.6805   58.6313   38.9480 H         1 ARG         0.2615
    183 H36        37.8076   57.2510   39.0327 H         1 ARG         0.2615
    184 H37        38.8393   60.6266   37.0085 H         1 ARG         0.2615
    185 H38        37.2565   60.5018   37.8219 H         1 ARG         0.2615
    186 H39        43.7734   58.9304   42.0889 H         1 LYS         0.1883
    187 H40        42.5170   59.2841   44.7360 H         1 LYS         0.0800
    188 H41        45.3718   59.9687   44.5637 H         1 LYS         0.0312
    189 H42        45.0772   58.3087   43.9437 H         1 LYS         0.0312
    190 H43        43.7957   57.8766   46.0583 H         1 LYS         0.0269
    191 H44        44.4301   59.4456   46.6606 H         1 LYS         0.0269
    192 H45        46.4461   58.5970   47.0777 H         1 LYS         0.0317
    193 H46        46.4935   57.7029   45.5204 H         1 LYS         0.0317
    194 H47        46.5239   56.0421   47.2036 H         1 LYS         0.0813
    195 H48        44.8399   56.0664   46.5787 H         1 LYS         0.0813
    196 H49        44.9361   55.9556   48.8972 H         1 LYS         0.1994
    197 H50        44.2575   57.3756   48.4151 H         1 LYS         0.1994
    198 H51        45.8006   57.3534   48.9876 H         1 LYS         0.1994
    199 H52        42.6028   61.4609   42.0726 H         1 GLU         0.1883
    200 H53        43.8177   63.1111   44.3333 H         1 GLU         0.0801
    201 H54        44.3618   64.3528   41.7240 H         1 GLU         0.0330
    202 H55        45.1184   62.7399   41.9532 H         1 GLU         0.0330
    203 H56        45.3651   64.1085   44.4071 H         1 GLU         0.0433
    204 H57        45.8033   65.2812   43.1189 H         1 GLU         0.0433
    205 H58        39.9360   64.6696   42.8728 H         1 PRO         0.0802
    206 H59        38.7292   63.6917   44.6480 H         1 PRO         0.0313
    207 H60        38.6222   65.4032   45.1828 H         1 PRO         0.0313
    208 H61        39.7030   63.5330   46.8331 H         1 PRO         0.0287
    209 H62        40.4398   65.1678   46.7266 H         1 PRO         0.0287
    210 H63        42.3350   63.9479   46.1538 H         1 PRO         0.0524
    211 H64        41.3770   62.5546   45.5474 H         1 PRO         0.0524
    212 H65        39.1050   66.7352   42.4807 H         1 GLU         0.1883
    213 H66        40.3693   69.1576   42.5670 H         1 GLU         0.0801
    214 H67        37.4386   68.5922   43.2145 H         1 GLU         0.0330
    215 H68        38.1441   68.5710   41.5627 H         1 GLU         0.0330
    216 H69        38.6971   71.0556   41.8530 H         1 GLU         0.0433
    217 H70        37.7820   71.0203   43.3983 H         1 GLU         0.0433
    218 H71        40.9359   69.6902   46.9885 H         1 PRO         0.0802
    219 H72        42.8037   70.9824   46.7346 H         1 PRO         0.0313
    220 H73        41.7135   72.4093   46.6885 H         1 PRO         0.0313
    221 H74        43.3209   71.7146   44.5631 H         1 PRO         0.0287
    222 H75        41.7250   72.5089   44.3422 H         1 PRO         0.0287
    223 H76        41.3757   70.6394   43.0500 H         1 PRO         0.0524
    224 H77        42.5042   69.6311   44.0177 H         1 PRO         0.0524
    225 H78        39.7419   70.4939   48.6147 H         1 LYS         0.1883
    226 H79        37.4939   72.3722   48.2134 H         1 LYS         0.0800
    227 H80        36.4468   70.0117   49.3721 H         1 LYS         0.0312
    228 H81        37.4011   69.4572   47.9550 H         1 LYS         0.0312
    229 H82        35.9983   70.5449   46.4673 H         1 LYS         0.0269
    230 H83        35.2102   71.4920   47.7745 H         1 LYS         0.0269
    231 H84        34.7031   69.1991   48.9729 H         1 LYS         0.0317
    232 H85        35.2506   68.3769   47.4726 H         1 LYS         0.0317
    233 H86        32.7230   68.5583   47.7642 H         1 LYS         0.0813
    234 H87        33.3635   69.2195   46.2217 H         1 LYS         0.0813
    235 H88        31.7786   70.7611   47.2702 H         1 LYS         0.1994
    236 H89        33.2733   71.4493   47.2274 H         1 LYS         0.1994
    237 H90        32.6863   70.8434   48.6409 H         1 LYS         0.1994
    238 H91        37.0363   73.2149   50.2731 H         1 GLY         0.1881
    239 H92        38.5905   72.8455   52.4777 H         1 GLY         0.0763
    240 H93        37.3726   71.5301   52.5919 H         1 GLY         0.0763
    241 H94        37.2763   72.9386   54.6442 H         1 SER         0.1884
    242 H95        35.0862   74.7457   54.6572 H         1 SER         0.0823
    243 H96        37.2936   75.0856   56.6493 H         1 SER         0.0606
    244 H97        36.6560   73.4131   56.4977 H         1 SER         0.0606
    245 H98        35.4420   74.7074   57.9658 H         1 SER         0.2097
    246 H99        35.5353   77.0354   55.6351 H         1 THR         0.1884
    247 H100       36.7897   78.9141   54.0092 H         1 THR         0.0826
    248 H101       36.7455   78.8699   57.1228 H         1 THR         0.0639
    249 H102       34.5740   79.7247   56.8372 H         1 THR         0.2101
    250 H103       36.3837   81.2727   56.9494 H         1 THR         0.0257
    251 H104       36.4609   81.1604   55.1584 H         1 THR         0.0257
    252 H105       37.9116   80.7767   56.1458 H         1 THR         0.0257
    253 H106       38.9241   79.2473   53.5676 H         1 LYS         0.1883
    254 H107       41.0560   78.0163   55.0988 H         1 LYS         0.0800
    255 H108       42.5400   79.5366   53.7076 H         1 LYS         0.0312
    256 H109       41.0442   80.1974   52.9641 H         1 LYS         0.0312
    257 H110       40.5412   77.6124   52.5173 H         1 LYS         0.0269
    258 H111       42.3283   77.4863   52.6472 H         1 LYS         0.0269
    259 H112       42.5553   79.3094   50.9431 H         1 LYS         0.0317
    260 H113       40.7667   79.3584   50.7835 H         1 LYS         0.0317
    261 H114       41.3481   77.9774   48.9252 H         1 LYS         0.0813
    262 H115       41.0523   76.7329   50.1863 H         1 LYS         0.0813
    263 H116       43.1696   76.3324   49.0084 H         1 LYS         0.1994
    264 H117       43.4765   76.6733   50.5892 H         1 LYS         0.1994
    265 H118       43.7476   77.8137   49.4336 H         1 LYS         0.1994
    266 H119       39.8251   81.3801   54.8939 H         1 LYS         0.1883
    267 H120       41.1614   82.0494   57.4539 H         1 LYS         0.0800
    268 H121       41.8233   84.2586   56.4584 H         1 LYS         0.0312
    269 H122       41.3309   83.6424   54.8446 H         1 LYS         0.0312
    270 H123       43.0637   81.9960   54.8609 H         1 LYS         0.0269
    271 H124       43.4585   82.3449   56.5782 H         1 LYS         0.0269
    272 H125       44.2310   84.5757   56.0024 H         1 LYS         0.0317
    273 H126       43.6912   84.3664   54.3019 H         1 LYS         0.0317
    274 H127       45.2598   82.2181   54.3755 H         1 LYS         0.0813
    275 H128       46.0250   83.0653   55.7624 H         1 LYS         0.0813
    276 H129       47.1350   83.6177   53.6492 H         1 LYS         0.1994
    277 H130       46.4372   84.9717   54.2731 H         1 LYS         0.1994
    278 H131       45.7360   84.1954   53.0022 H         1 LYS         0.1994
    279 H132       40.2089   84.0631   58.3579 H         1 LYS         0.1883
    280 H133       37.3710   84.5625   57.4397 H         1 LYS         0.0800
    281 H134       37.8915   83.5975   60.2640 H         1 LYS         0.0312
    282 H135       37.8846   82.3688   58.9536 H         1 LYS         0.0312
    283 H136       35.6221   83.2878   58.3698 H         1 LYS         0.0269
    284 H137       35.6845   84.0715   59.9850 H         1 LYS         0.0269
    285 H138       36.0307   81.0789   59.3536 H         1 LYS         0.0317
    286 H139       34.6705   81.8443   60.2428 H         1 LYS         0.0317
    287 H140       36.7709   82.6886   61.7456 H         1 LYS         0.0813
    288 H141       37.4094   81.1178   61.1526 H         1 LYS         0.0813
    289 H142       36.2127   80.8871   63.1960 H         1 LYS         0.1994
    290 H143       35.4317   80.0836   61.9903 H         1 LYS         0.1994
    291 H144       34.8466   81.5230   62.5337 H         1 LYS         0.1994
    292 H145       37.1755   86.7421   57.7729 H         1 ALA         0.1883
    293 H146       38.7466   88.0834   59.9042 H         1 ALA         0.0797
    294 H147       37.6288   90.1726   59.1502 H         1 ALA         0.0277
    295 H148       36.5941   89.2158   58.0364 H         1 ALA         0.0277
    296 H149       38.3700   89.2857   57.7751 H         1 ALA         0.0277
    297 H150       37.8712   89.0060   61.8034 H         1 LYS         0.1883
    298 H151       35.2398   87.9982   62.6097 H         1 LYS         0.0800
    299 H152       37.3730   89.4469   64.2027 H         1 LYS         0.0312
    300 H153       37.0168   87.6862   64.2019 H         1 LYS         0.0312
    301 H154       34.7543   88.1920   65.1190 H         1 LYS         0.0269
    302 H155       35.2233   89.9228   65.2239 H         1 LYS         0.0269
    303 H156       37.3575   89.0319   66.3558 H         1 LYS         0.0317
    304 H157       36.4153   87.5198   66.5848 H         1 LYS         0.0317
    305 H158       35.4607   90.2408   67.5536 H         1 LYS         0.0813
    306 H159       36.4545   89.1250   68.5505 H         1 LYS         0.0813
    307 H160       34.1661   88.8517   68.9078 H         1 LYS         0.1994
    308 H161       34.8130   87.4980   68.2306 H         1 LYS         0.1994
    309 H162       33.9022   88.5205   67.3171 H         1 LYS         0.1994
    310 H163       33.5974   89.0950   62.9822 H         1 THR         0.1876
    311 H164       32.1734   89.9159   61.4054 H         1 THR         0.0752
    312 H165       30.7496   91.2417   62.4703 H         1 THR         0.0632
    313 H166       32.0373   93.1483   62.3185 H         1 THR         0.2100
    314 H167       31.0319   90.9556   64.9690 H         1 THR         0.0256
    315 H168       32.7631   90.5419   64.7273 H         1 THR         0.0256
    316 H169       31.4826   89.4526   64.0947 H         1 THR         0.0256
@<TRIPOS>BOND
     1    1    2 1  
     2    2    3 1  
     3    2    5 1  
     4    3    4 2  
     5    3    7 am 
     6    5    6 1  
     7    7    8 1  
     8    8    9 1  
     9    8   11 1  
    10    9   10 2  
    11    9   12 am 
    12   12   13 1  
    13   13   14 1  
    14   13   16 1  
    15   14   15 2  
    16   14   21 am 
    17   16   17 1  
    18   17   18 1  
    19   18   19 1  
    20   19   20 1  
    21   21   22 1  
    22   22   23 1  
    23   22   25 1  
    24   23   24 2  
    25   23   32 am 
    26   25   26 1  
    27   26   27 1  
    28   27   28 1  
    29   28   29 ar 
    30   29   30 ar 
    31   29   31 ar 
    32   32   33 1  
    33   33   34 1  
    34   33   36 1  
    35   34   35 2  
    36   34   41 am 
    37   36   37 1  
    38   37   38 1  
    39   38   39 1  
    40   39   40 1  
    41   41   42 1  
    42   42   43 1  
    43   42   45 1  
    44   43   44 2  
    45   43   50 am 
    46   45   46 1  
    47   46   47 1  
    48   47   48 ar 
    49   47   49 ar 
    50   50   51 1  
    51   50   56 1  
    52   51   52 1  
    53   51   54 1  
    54   52   53 2  
    55   52   57 am 
    56   54   55 1  
    57   55   56 1  
    58   57   58 1  
    59   58   59 1  
    60   58   61 1  
    61   59   60 2  
    62   59   66 am 
    63   61   62 1  
    64   62   63 1  
    65   63   64 ar 
    66   63   65 ar 
    67   66   67 1  
    68   66   72 1  
    69   67   68 1  
    70   67   70 1  
    71   68   69 2  
    72   68   73 am 
    73   70   71 1  
    74   71   72 1  
    75   73   74 1  
    76   74   75 1  
    77   74   77 1  
    78   75   76 2  
    79   75   82 am 
    80   77   78 1  
    81   78   79 1  
    82   79   80 1  
    83   80   81 1  
    84   82   83 1  
    85   83   84 1  
    86   84   85 2  
    87   84   86 am 
    88   86   87 1  
    89   87   88 1  
    90   87   90 1  
    91   88   89 2  
    92   88   92 am 
    93   90   91 1  
    94   92   93 1  
    95   93   94 1  
    96   93   96 1  
    97   94   95 2  
    98   94   99 am 
    99   96   97 1  
   100   96   98 1  
   101   99  100 1  
   102  100  101 1  
   103  100  103 1  
   104  101  102 2  
   105  101  108 am 
   106  103  104 1  
   107  104  105 1  
   108  105  106 1  
   109  106  107 1  
   110  108  109 1  
   111  109  110 1  
   112  109  112 1  
   113  110  111 2  
   114  110  117 am 
   115  112  113 1  
   116  113  114 1  
   117  114  115 1  
   118  115  116 1  
   119  117  118 1  
   120  118  119 1  
   121  118  121 1  
   122  119  120 2  
   123  119  126 am 
   124  121  122 1  
   125  122  123 1  
   126  123  124 1  
   127  124  125 1  
   128  126  127 1  
   129  127  128 1  
   130  127  130 1  
   131  128  129 2  
   132  128  131 am 
   133  131  132 1  
   134  132  133 1  
   135  132  135 1  
   136  133  134 2  
   137  133  140 am 
   138  135  136 1  
   139  136  137 1  
   140  137  138 1  
   141  138  139 1  
   142  140  141 1  
   143  141  142 1  
   144  141  144 1  
   145  142  143 ar 
   146  142  147 ar 
   147  144  145 1  
   148  144  146 1  
   149    1  148 1  
   150    1  149 1  
   151    1  150 1  
   152    2  151 1  
   153    5  152 1  
   154    5  153 1  
   155    6  154 1  
   156    7  155 1  
   157    8  156 1  
   158   11  157 1  
   159   11  158 1  
   160   11  159 1  
   161   12  160 1  
   162   13  161 1  
   163   16  162 1  
   164   16  163 1  
   165   17  164 1  
   166   17  165 1  
   167   18  166 1  
   168   18  167 1  
   169   19  168 1  
   170   19  169 1  
   171   20  170 1  
   172   20  171 1  
   173   20  172 1  
   174   21  173 1  
   175   22  174 1  
   176   25  175 1  
   177   25  176 1  
   178   26  177 1  
   179   26  178 1  
   180   27  179 1  
   181   27  180 1  
   182   28  181 1  
   183   30  182 1  
   184   30  183 1  
   185   31  184 1  
   186   31  185 1  
   187   32  186 1  
   188   33  187 1  
   189   36  188 1  
   190   36  189 1  
   191   37  190 1  
   192   37  191 1  
   193   38  192 1  
   194   38  193 1  
   195   39  194 1  
   196   39  195 1  
   197   40  196 1  
   198   40  197 1  
   199   40  198 1  
   200   41  199 1  
   201   42  200 1  
   202   45  201 1  
   203   45  202 1  
   204   46  203 1  
   205   46  204 1  
   206   51  205 1  
   207   54  206 1  
   208   54  207 1  
   209   55  208 1  
   210   55  209 1  
   211   56  210 1  
   212   56  211 1  
   213   57  212 1  
   214   58  213 1  
   215   61  214 1  
   216   61  215 1  
   217   62  216 1  
   218   62  217 1  
   219   67  218 1  
   220   70  219 1  
   221   70  220 1  
   222   71  221 1  
   223   71  222 1  
   224   72  223 1  
   225   72  224 1  
   226   73  225 1  
   227   74  226 1  
   228   77  227 1  
   229   77  228 1  
   230   78  229 1  
   231   78  230 1  
   232   79  231 1  
   233   79  232 1  
   234   80  233 1  
   235   80  234 1  
   236   81  235 1  
   237   81  236 1  
   238   81  237 1  
   239   82  238 1  
   240   83  239 1  
   241   83  240 1  
   242   86  241 1  
   243   87  242 1  
   244   90  243 1  
   245   90  244 1  
   246   91  245 1  
   247   92  246 1  
   248   93  247 1  
   249   96  248 1  
   250   97  249 1  
   251   98  250 1  
   252   98  251 1  
   253   98  252 1  
   254   99  253 1  
   255  100  254 1  
   256  103  255 1  
   257  103  256 1  
   258  104  257 1  
   259  104  258 1  
   260  105  259 1  
   261  105  260 1  
   262  106  261 1  
   263  106  262 1  
   264  107  263 1  
   265  107  264 1  
   266  107  265 1  
   267  108  266 1  
   268  109  267 1  
   269  112  268 1  
   270  112  269 1  
   271  113  270 1  
   272  113  271 1  
   273  114  272 1  
   274  114  273 1  
   275  115  274 1  
   276  115  275 1  
   277  116  276 1  
   278  116  277 1  
   279  116  278 1  
   280  117  279 1  
   281  118  280 1  
   282  121  281 1  
   283  121  282 1  
   284  122  283 1  
   285  122  284 1  
   286  123  285 1  
   287  123  286 1  
   288  124  287 1  
   289  124  288 1  
   290  125  289 1  
   291  125  290 1  
   292  125  291 1  
   293  126  292 1  
   294  127  293 1  
   295  130  294 1  
   296  130  295 1  
   297  130  296 1  
   298  131  297 1  
   299  132  298 1  
   300  135  299 1  
   301  135  300 1  
   302  136  301 1  
   303  136  302 1  
   304  137  303 1  
   305  137  304 1  
   306  138  305 1  
   307  138  306 1  
   308  139  307 1  
   309  139  308 1  
   310  139  309 1  
   311  140  310 1  
   312  141  311 1  
   313  144  312 1  
   314  145  313 1  
   315  146  314 1  
   316  146  315 1  
   317  146  316 1  
@<TRIPOS>SUBSTRUCTURE
     1 SER         1

