4o6e_ligand
  -I-interpret- 

 56 59  0  0  0  0  0  0  0  0999 V2000
   14.3980   11.4050   12.8610 C   0  0  0  0  0
   14.3830   10.0830   12.4440 C   0  0  0  0  0
   13.3230    9.2370   12.7760 C   0  0  0  0  0
   13.3580    7.7780   12.3740 C   0  0  0  0  0
   16.2560    5.7090   15.8260 C   0  0  0  0  0
   18.4820    4.9640   15.0140 C   0  0  0  0  0
   20.6540    5.4400   13.5220 C   0  0  0  0  0
   18.4370    5.8990   13.9950 C   0  0  0  0  0
   23.3220    6.8230   11.3060 C   0  0  0  0  0
   12.3140    9.7050   13.6110 C   0  0  0  0  0
   12.3260   11.0310   14.0390 C   0  0  0  0  0
   13.3770   11.8780   13.6830 C   0  0  0  0  0
   13.3900    7.5410   10.8630 C   0  0  0  0  0
   12.1680    8.0070   10.3020 O   0  0  0  0  0
   14.6230    7.2840   12.9230 N   0  0  0  0  0
   14.7660    6.6570   14.1130 C   0  0  0  0  0
   13.7840    6.3850   14.8090 O   0  0  0  0  0
   16.0280    6.3160   14.4940 N   0  0  0  0  0
   17.2910    4.5910   15.8510 C   0  0  0  0  0
   19.6680    4.2650   15.2390 C   0  0  0  0  0
   20.7330    4.5340   14.4960 N   0  0  0  0  0
   19.5400    6.1230   13.2780 N   0  0  0  0  0
   17.2030    6.7010   13.6610 C   0  0  0  0  0
   21.7980    5.6960   12.8020 N   0  0  0  0  0
   21.8300    6.5590   11.6180 C   0  0  0  0  0
   23.4110    7.6330   10.0050 C   0  0  0  0  0
   22.7350    6.8990    8.9720 O   0  0  0  0  0
   21.3240    6.6820    9.1490 C   0  0  0  0  0
   21.1120    5.8650   10.4370 C   0  0  0  0  0
   15.7150   12.4350   12.3690 Cl  0  0  0  0  0
   13.3920   13.1650   14.1040 F   0  0  0  0  0
   15.2108    9.6984   11.8482 H   0  0  0  0  0
   12.4567    7.2845   12.7375 H   0  0  0  0  0
   15.3089    5.2701   16.1397 H   0  0  0  0  0
   16.6305    6.5011   16.4745 H   0  0  0  0  0
   23.8517    5.8771   11.1926 H   0  0  0  0  0
   23.7804    7.3798   12.1233 H   0  0  0  0  0
   11.5151    9.0356   13.9301 H   0  0  0  0  0
   11.5102   11.4090   14.6552 H   0  0  0  0  0
   13.5098    6.4773   10.6575 H   0  0  0  0  0
   14.2290    8.0789   10.4216 H   0  0  0  0  0
   12.1774    7.8629    9.3529 H   0  0  0  0  0
   15.4638    7.4241   12.3628 H   0  0  0  0  0
   16.8433    3.6826   15.4480 H   0  0  0  0  0
   17.6152    4.4291   16.8790 H   0  0  0  0  0
   19.7189    3.5047   16.0184 H   0  0  0  0  0
   16.9515    6.5117   12.6174 H   0  0  0  0  0
   17.4223    7.7511   13.8543 H   0  0  0  0  0
   22.6691    5.2626   13.1082 H   0  0  0  0  0
   21.3099    7.5015   11.7891 H   0  0  0  0  0
   24.4545    7.7895    9.7318 H   0  0  0  0  0
   22.9437    8.6087   10.1384 H   0  0  0  0  0
   20.9213    6.1391    8.2939 H   0  0  0  0  0
   20.8076    7.6388    9.2265 H   0  0  0  0  0
   20.0454    5.7983   10.6513 H   0  0  0  0  0
   21.5225    4.8643   10.3020 H   0  0  0  0  0
  2  1  4  0  0  0
  1 12  4  0  0  0
  1 30  1  0  0  0
  3  2  4  0  0  0
  4  3  1  0  0  0
  3 10  4  0  0  0
  4 13  1  0  0  0
 15  4  1  0  0  0
 18  5  1  0  0  0
 19  5  1  0  0  0
  8  6  4  0  0  0
  6 19  1  0  0  0
 20  6  4  0  0  0
  7 21  4  0  0  0
  7 22  4  0  0  0
 24  7  1  0  0  0
 22  8  4  0  0  0
  8 23  1  0  0  0
 25  9  1  0  0  0
  9 26  1  0  0  0
 10 11  4  0  0  0
 11 12  4  0  0  0
 12 31  1  0  0  0
 13 14  1  0  0  0
 16 15  1  0  0  0
 16 17  2  0  0  0
 18 16  1  0  0  0
 23 18  1  0  0  0
 21 20  4  0  0  0
 24 25  1  0  0  0
 25 29  1  0  0  0
 26 27  1  0  0  0
 27 28  1  0  0  0
 28 29  1  0  0  0
  2 32  1  0  0  0
  4 33  1  0  0  0
  5 34  1  0  0  0
  5 35  1  0  0  0
  9 36  1  0  0  0
  9 37  1  0  0  0
 10 38  1  0  0  0
 11 39  1  0  0  0
 13 40  1  0  0  0
 13 41  1  0  0  0
 14 42  1  0  0  0
 15 43  1  0  0  0
 19 44  1  0  0  0
 19 45  1  0  0  0
 20 46  1  0  0  0
 23 47  1  0  0  0
 23 48  1  0  0  0
 24 49  1  0  0  0
 25 50  1  0  0  0
 26 51  1  0  0  0
 26 52  1  0  0  0
 28 53  1  0  0  0
 28 54  1  0  0  0
 29 55  1  0  0  0
 29 56  1  0  0  0
M  END
$$$$
