2xp2_ligand
  -I-interpret- 

 53 56  0  0  0  0  0  0  0  0999 V2000
   32.9370   46.3310    6.6220 Cl  0  0  0  0  0
   33.4020   46.0180    8.2730 C   0  0  0  0  0
   34.2220   47.0020    8.9000 C   0  0  0  0  0
   34.6560   46.8470   10.2410 C   0  0  0  0  0
   34.2850   45.7030   10.9980 C   0  0  0  0  0
   34.7220   45.6010   12.2650 F   0  0  0  0  0
   32.9950   44.8250    9.0120 C   0  0  0  0  0
   33.4550   44.6800   10.4050 C   0  0  0  0  0
   33.0420   43.3000   11.4140 Cl  0  0  0  0  0
   32.0950   43.7500    8.3080 C   0  0  0  0  0
   32.7790   42.3700    8.2830 C   0  0  0  0  0
   30.7900   43.5410    8.9500 O   0  0  0  0  0
   29.7900   44.5100    9.1260 C   0  0  0  0  0
   29.6840   45.7470    8.3920 C   0  0  0  0  0
   28.7610   44.2670   10.0990 C   0  0  0  0  0
   28.7980   43.0760   10.8500 N   0  0  0  0  0
   27.7320   45.1150   10.3500 N   0  0  0  0  0
   27.6600   46.2780    9.6400 C   0  0  0  0  0
   28.6090   46.6610    8.6410 C   0  0  0  0  0
   28.4980   47.9680    7.8660 C   0  0  0  0  0
   29.5440   48.6380    7.0900 C   0  0  0  0  0
   27.3800   48.7930    7.7370 C   0  0  0  0  0
   27.8290   49.8540    6.9230 N   0  0  0  0  0
   29.0630   49.7200    6.5830 N   0  0  0  0  0
   27.0170   51.0170    6.4770 C   0  0  0  0  0
   26.8190   52.0170    7.6370 C   0  0  0  0  0
   25.9750   53.2180    7.1460 C   0  0  0  0  0
   24.6730   52.7900    6.5550 N   0  3  0  0  0
   24.8360   51.7910    5.4600 C   0  0  0  0  0
   25.6480   50.5560    5.9130 C   0  0  0  0  0
   34.5200   47.8878    8.3392 H   0  0  0  0  0
   35.2817   47.6145   10.6966 H   0  0  0  0  0
   31.9459   44.1561    7.3075 H   0  0  0  0  0
   32.8946   42.0047    9.3034 H   0  0  0  0  0
   32.1655   41.6721    7.7132 H   0  0  0  0  0
   33.7592   42.4602    7.8148 H   0  0  0  0  0
   30.4321   45.9899    7.6374 H   0  0  0  0  0
   29.5478   42.4011   10.6992 H   0  0  0  0  0
   28.0750   42.8884   11.5447 H   0  0  0  0  0
   26.8307   46.9547    9.8463 H   0  0  0  0  0
   30.5651   48.2788    6.9621 H   0  0  0  0  0
   26.3883   48.6504    8.1663 H   0  0  0  0  0
   27.5587   51.5202    5.6761 H   0  0  0  0  0
   27.7908   52.3723    7.9797 H   0  0  0  0  0
   26.3018   51.5218    8.4588 H   0  0  0  0  0
   26.5426   53.7377    6.3741 H   0  0  0  0  0
   25.7639   53.8566    8.0037 H   0  0  0  0  0
   24.2228   53.6157    6.1601 H   0  0  0  0  0
   24.1219   52.3552    7.2950 H   0  0  0  0  0
   25.3741   52.2693    4.6416 H   0  0  0  0  0
   23.8445   51.4532    5.1585 H   0  0  0  0  0
   25.0968   50.0224    6.6873 H   0  0  0  0  0
   25.8095   49.8947    5.0617 H   0  0  0  0  0
  1  2  1  0  0  0
  2  3  4  0  0  0
  2  7  4  0  0  0
  3  4  4  0  0  0
  4  5  4  0  0  0
  5  6  1  0  0  0
  5  8  4  0  0  0
  7  8  4  0  0  0
  7 10  1  0  0  0
  8  9  1  0  0  0
 10 11  1  0  0  0
 10 12  1  0  0  0
 12 13  1  0  0  0
 13 14  4  0  0  0
 13 15  4  0  0  0
 14 19  4  0  0  0
 15 16  1  0  0  0
 15 17  4  0  0  0
 17 18  4  0  0  0
 18 19  4  0  0  0
 19 20  1  0  0  0
 20 21  4  0  0  0
 20 22  4  0  0  0
 21 24  4  0  0  0
 22 23  4  0  0  0
 23 24  4  0  0  0
 23 25  1  0  0  0
 25 26  1  0  0  0
 25 30  1  0  0  0
 26 27  1  0  0  0
 27 28  1  0  0  0
 28 29  1  0  0  0
 29 30  1  0  0  0
  3 31  1  0  0  0
  4 32  1  0  0  0
 10 33  1  0  0  0
 11 34  1  0  0  0
 11 35  1  0  0  0
 11 36  1  0  0  0
 14 37  1  0  0  0
 16 38  1  0  0  0
 16 39  1  0  0  0
 18 40  1  0  0  0
 21 41  1  0  0  0
 22 42  1  0  0  0
 25 43  1  0  0  0
 26 44  1  0  0  0
 26 45  1  0  0  0
 27 46  1  0  0  0
 27 47  1  0  0  0
 28 48  1  0  0  0
 28 49  1  0  0  0
 29 50  1  0  0  0
 29 51  1  0  0  0
 30 52  1  0  0  0
 30 53  1  0  0  0
M  END
$$$$
