5oci_ligand
  -I-interpret- 

 61 65  0  0  0  0  0  0  0  0999 V2000
   66.6840   34.1930   23.6990 C   0  0  0  0  0
   65.5130   33.8560   24.4300 C   0  0  0  0  0
   65.5760   33.2100   25.6460 C   0  0  0  0  0
   64.3100   34.2050   23.9200 O   0  0  0  0  0
   68.0220   33.3020   25.4770 C   0  0  0  0  0
   66.8430   32.9430   26.1860 C   0  0  0  0  0
   69.1230   32.9340   26.3620 C   0  0  0  0  0
   70.5960   33.2140   26.1430 C   0  0  0  0  0
   71.2560   32.5520   24.9630 C   0  0  0  0  0
   71.6630   33.3440   23.8870 C   0  0  0  0  0
   72.7120   31.4120   22.8800 C   0  0  0  0  0
   71.5980   31.2090   25.0220 C   0  0  0  0  0
   72.6570   29.1930   24.0440 C   0  0  0  0  0
   68.2730   37.9130   25.2540 C   0  0  0  0  0
   67.4530   37.2510   24.3420 C   0  0  0  0  0
   69.3420   36.8510   22.8680 C   0  0  0  0  0
   70.5180   38.6870   25.9200 N   0  0  0  0  0
   69.9100   39.0290   27.2350 C   0  0  0  0  0
   70.8360   39.9420   28.0580 C   0  0  0  0  0
   72.7470   39.1540   26.7600 C   0  0  0  0  0
   71.8790   38.1170   26.0210 C   0  0  0  0  0
   67.9540   33.8790   24.2060 C   0  0  0  0  0
   66.5390   34.8760   22.3910 C   0  0  0  0  0
   65.8330   34.3380   21.5410 O   0  0  0  0  0
   67.2300   32.4350   27.3930 N   0  0  0  0  0
   68.6240   32.4460   27.4610 N   0  0  0  0  0
   72.3030   30.6380   23.9600 C   0  0  0  0  0
   72.3730   32.7580   22.8380 C   0  0  0  0  0
   67.9650   36.7250   23.1430 C   0  0  0  0  0
   69.6500   37.9990   25.0090 C   0  0  0  0  0
   70.1480   37.5150   23.7830 C   0  0  0  0  0
   67.1310   36.0840   22.1910 N   0  0  0  0  0
   66.9450   36.7400   20.8890 C   0  0  0  0  0
   72.1450   39.3590   28.0530 O   0  0  0  0  0
   64.6682   32.9153   26.1725 H   0  0  0  0  0
   63.6150   33.9157   24.5158 H   0  0  0  0  0
   71.1051   32.8228   27.0239 H   0  0  0  0  0
   70.6686   34.2859   25.9590 H   0  0  0  0  0
   71.4287   34.4083   23.8667 H   0  0  0  0  0
   73.2937   30.9662   22.0732 H   0  0  0  0  0
   71.3199   30.6065   25.8867 H   0  0  0  0  0
   72.2432   28.6682   23.1829 H   0  0  0  0  0
   73.7417   29.0857   24.0496 H   0  0  0  0  0
   72.2442   28.7718   24.9607 H   0  0  0  0  0
   67.8462   38.3607   26.1515 H   0  0  0  0  0
   66.3916   37.1386   24.5632 H   0  0  0  0  0
   69.7660   36.4349   21.9541 H   0  0  0  0  0
   69.7469   38.1067   27.7925 H   0  0  0  0  0
   68.9720   39.5551   27.0575 H   0  0  0  0  0
   70.4666   40.0330   29.0795 H   0  0  0  0  0
   70.8655   40.9411   27.6232 H   0  0  0  0  0
   72.7915   40.0891   26.2017 H   0  0  0  0  0
   73.7718   38.7973   26.8629 H   0  0  0  0  0
   72.2849   37.9091   25.0310 H   0  0  0  0  0
   71.8622   37.1713   26.5628 H   0  0  0  0  0
   68.8566   34.0783   23.6284 H   0  0  0  0  0
   72.6639   33.3620   21.9785 H   0  0  0  0  0
   71.2008   37.6669   23.5450 H   0  0  0  0  0
   67.3388   36.0984   20.1008 H   0  0  0  0  0
   65.8824   36.9147   20.7201 H   0  0  0  0  0
   67.4763   37.6917   20.8839 H   0  0  0  0  0
  1  2  4  0  0  0
  1 22  4  0  0  0
 23  1  1  0  0  0
  2  3  4  0  0  0
  2  4  1  0  0  0
  3  6  4  0  0  0
  5  6  4  0  0  0
  5  7  4  0  0  0
 22  5  4  0  0  0
  6 25  4  0  0  0
  7  8  1  0  0  0
  7 26  4  0  0  0
  8  9  1  0  0  0
  9 10  4  0  0  0
  9 12  4  0  0  0
 10 28  4  0  0  0
 27 11  4  0  0  0
 28 11  4  0  0  0
 12 27  4  0  0  0
 27 13  1  0  0  0
 15 14  4  0  0  0
 14 30  4  0  0  0
 29 15  4  0  0  0
 29 16  4  0  0  0
 16 31  4  0  0  0
 17 18  1  0  0  0
 17 21  1  0  0  0
 30 17  1  0  0  0
 18 19  1  0  0  0
 19 34  1  0  0  0
 21 20  1  0  0  0
 20 34  1  0  0  0
 23 24  2  0  0  0
 32 23  1  0  0  0
 26 25  4  0  0  0
 29 32  1  0  0  0
 30 31  4  0  0  0
 32 33  1  0  0  0
  3 35  1  0  0  0
  4 36  1  0  0  0
  8 37  1  0  0  0
  8 38  1  0  0  0
 10 39  1  0  0  0
 11 40  1  0  0  0
 12 41  1  0  0  0
 13 42  1  0  0  0
 13 43  1  0  0  0
 13 44  1  0  0  0
 14 45  1  0  0  0
 15 46  1  0  0  0
 16 47  1  0  0  0
 18 48  1  0  0  0
 18 49  1  0  0  0
 19 50  1  0  0  0
 19 51  1  0  0  0
 20 52  1  0  0  0
 20 53  1  0  0  0
 21 54  1  0  0  0
 21 55  1  0  0  0
 22 56  1  0  0  0
 28 57  1  0  0  0
 31 58  1  0  0  0
 33 59  1  0  0  0
 33 60  1  0  0  0
 33 61  1  0  0  0
M  END
$$$$
