6ovc_ligand
  -I-interpret- 

 62 66  0  0  0  0  0  0  0  0999 V2000
  -11.7940   16.2940   13.3180 N   0  0  0  0  0
  -11.0540   16.7630   12.1870 C   0  0  0  0  0
  -11.6790   17.3870   11.1060 C   0  0  0  0  0
  -10.9170   17.9150   10.0530 C   0  0  0  0  0
  -11.5980   18.5980    8.9590 C   0  0  0  0  0
   -9.5170   17.8120   10.0880 C   0  0  0  0  0
   -9.6540   16.6020   12.1590 C   0  0  0  0  0
  -14.4630   18.9230   14.3030 C   0  0  0  0  0
  -12.6730   18.6160   15.4860 C   0  0  0  0  0
   -7.0160   14.2380   16.4220 C   0  0  0  0  0
   -7.7290   14.7890   15.3600 C   0  0  0  0  0
   -9.6070   13.3750   15.8930 C   0  0  0  0  0
   -6.7380   12.6360   18.5800 Cl  0  0  0  0  0
  -11.1760   12.7040   15.5580 Cl  0  0  0  0  0
  -13.1510   16.8110   13.6440 C   0  0  0  0  0
   -9.0130   15.8510   13.1230 O   0  0  0  0  0
   -8.8880   17.1680   11.1500 C   0  0  0  0  0
   -9.8530   14.9740   13.9340 C   0  0  0  0  0
  -10.9880   15.8650   14.4880 C   0  0  0  0  0
  -11.7110   18.1100    7.8400 O   0  0  0  0  0
  -13.0590   18.3200   14.0040 C   0  0  0  0  0
  -14.1920   18.6690   15.8140 C   0  0  0  0  0
   -8.9110   12.8670   16.9880 C   0  0  0  0  0
   -7.6140   13.2890   17.2420 C   0  0  0  0  0
   -9.0400   14.3770   15.0850 C   0  0  0  0  0
  -11.9870   20.8910   10.3870 S   0  0  0  0  0
  -11.1200   20.3200   11.3530 O   0  0  0  0  0
  -11.5420   22.1230    9.8320 O   0  0  0  0  0
  -12.2100   19.8090    9.1280 N   0  0  0  0  0
  -13.6060   21.1150   11.1250 C   0  0  0  0  0
  -13.7330   22.0830   12.3020 C   0  0  0  0  0
  -14.8280   22.9460   12.3640 C   0  0  0  0  0
  -14.9910   23.8070   13.4450 C   0  0  0  0  0
  -14.0630   23.8100   14.4800 C   0  0  0  0  0
  -12.9670   22.9550   14.4280 C   0  0  0  0  0
  -12.8010   22.0990   13.3440 C   0  0  0  0  0
  -12.7659   17.4645   11.0799 H   0  0  0  0  0
   -8.9207   18.2377    9.2810 H   0  0  0  0  0
  -15.3582   18.5339   13.8180 H   0  0  0  0  0
  -14.7405   19.9122   13.9389 H   0  0  0  0  0
  -12.0115   19.4436   15.7420 H   0  0  0  0  0
  -11.9999   17.9581   16.0357 H   0  0  0  0  0
   -5.9890   14.5512   16.6098 H   0  0  0  0  0
   -7.2616   15.5500   14.7351 H   0  0  0  0  0
  -13.5553   16.2594   14.4927 H   0  0  0  0  0
  -13.8051   16.6829   12.7815 H   0  0  0  0  0
   -7.8003   17.1088   11.1886 H   0  0  0  0  0
  -10.2459   14.1432   13.3479 H   0  0  0  0  0
  -11.6001   15.3176   15.2047 H   0  0  0  0  0
  -10.5843   16.7257   15.0212 H   0  0  0  0  0
  -12.4226   18.6714   13.1918 H   0  0  0  0  0
  -14.6808   17.8499   16.3416 H   0  0  0  0  0
  -14.5782   19.3473   16.5749 H   0  0  0  0  0
   -9.3855   12.1381   17.6450 H   0  0  0  0  0
  -12.8768   20.0842    8.4069 H   0  0  0  0  0
  -13.8786   20.1381   11.5243 H   0  0  0  0  0
  -14.2269   21.5381   10.3353 H   0  0  0  0  0
  -15.5622   22.9456   11.5584 H   0  0  0  0  0
  -15.8476   24.4801   13.4802 H   0  0  0  0  0
  -14.1938   24.4802   15.3296 H   0  0  0  0  0
  -12.2373   22.9557   15.2377 H   0  0  0  0  0
  -11.9372   21.4353   13.3067 H   0  0  0  0  0
  2  1  1  0  0  0
  1 15  1  0  0  0
  1 19  1  0  0  0
  3  2  4  0  0  0
  2  7  4  0  0  0
  4  3  4  0  0  0
  5  4  1  0  0  0
  4  6  4  0  0  0
  5 20  2  0  0  0
 29  5  1  0  0  0
  6 17  4  0  0  0
  7 16  1  0  0  0
 17  7  4  0  0  0
 21  8  1  0  0  0
  8 22  1  0  0  0
 21  9  1  0  0  0
  9 22  1  0  0  0
 11 10  4  0  0  0
 10 24  4  0  0  0
 25 11  4  0  0  0
 12 14  1  0  0  0
 12 23  4  0  0  0
 25 12  4  0  0  0
 24 13  1  0  0  0
 15 21  1  0  0  0
 16 18  1  0  0  0
 19 18  1  0  0  0
 18 25  1  0  0  0
 23 24  4  0  0  0
 26 27  2  0  0  0
 26 28  2  0  0  0
 26 29  1  0  0  0
 26 30  1  0  0  0
 30 31  1  0  0  0
 31 32  4  0  0  0
 31 36  4  0  0  0
 32 33  4  0  0  0
 33 34  4  0  0  0
 34 35  4  0  0  0
 35 36  4  0  0  0
  3 37  1  0  0  0
  6 38  1  0  0  0
  8 39  1  0  0  0
  8 40  1  0  0  0
  9 41  1  0  0  0
  9 42  1  0  0  0
 10 43  1  0  0  0
 11 44  1  0  0  0
 15 45  1  0  0  0
 15 46  1  0  0  0
 17 47  1  0  0  0
 18 48  1  0  0  0
 19 49  1  0  0  0
 19 50  1  0  0  0
 21 51  1  0  0  0
 22 52  1  0  0  0
 22 53  1  0  0  0
 23 54  1  0  0  0
 29 55  1  0  0  0
 30 56  1  0  0  0
 30 57  1  0  0  0
 32 58  1  0  0  0
 33 59  1  0  0  0
 34 60  1  0  0  0
 35 61  1  0  0  0
 36 62  1  0  0  0
M  END
$$$$
