4o0b_ligand
  -I-interpret- 

 59 63  0  0  0  0  0  0  0  0999 V2000
    6.6790   -9.8740  -23.3700 C   0  0  0  0  0
   -1.2750  -10.9170  -26.3500 O   0  0  0  0  0
    5.3350   -9.6570  -23.3290 C   0  0  0  0  0
    5.6090  -11.7560  -24.0460 C   0  0  0  0  0
    6.8660  -11.2280  -23.8170 C   0  0  0  0  0
    8.0490  -12.0920  -24.0490 C   0  0  0  0  0
    7.8190  -13.5160  -24.5000 C   0  0  0  0  0
   -0.8330  -11.3240  -25.2810 C   0  0  0  0  0
   -1.5720  -12.1630  -24.5250 N   0  0  0  0  0
   -1.1120  -12.8330  -23.2940 C   0  0  0  0  0
    0.3370  -13.2160  -23.5090 C   0  0  0  0  0
    1.1460  -12.0390  -24.0020 C   0  0  0  0  0
    2.4830  -11.9360  -23.6290 C   0  0  0  0  0
    0.5520  -11.0140  -24.7990 C   0  0  0  0  0
    1.3100   -9.8570  -25.1430 C   0  0  0  0  0
    0.6770   -8.6590  -25.8390 C   0  0  0  0  0
    1.1070   -8.3970  -27.2980 C   0  0  0  0  0
    0.6430   -6.9670  -27.5890 C   0  0  0  0  0
    0.4050   -6.2930  -26.2500 C   0  0  0  0  0
    0.8900   -7.2630  -25.1960 C   0  0  0  0  0
    2.6580   -9.7960  -24.7640 C   0  0  0  0  0
    3.2390  -10.8340  -24.0320 C   0  0  0  0  0
    4.6520  -10.7890  -23.7330 N   0  0  0  0  0
    5.3550  -13.1290  -24.5950 C   0  0  0  0  0
    6.5480  -13.7570  -25.3290 C   0  0  0  0  0
    6.3110  -15.2570  -25.4870 C   0  0  0  0  0
    6.7000  -13.1340  -26.7210 C   0  0  0  0  0
    9.1940  -11.6800  -23.9090 O   0  0  0  0  0
    7.7270   -8.8460  -23.0310 C   0  0  0  0  0
    4.8646   -8.7231  -23.0213 H   0  0  0  0  0
    7.7137  -14.1129  -23.5941 H   0  0  0  0  0
    8.6600  -13.7751  -25.1431 H   0  0  0  0  0
   -2.5274  -12.3491  -24.8300 H   0  0  0  0  0
   -1.7166  -13.7164  -23.0884 H   0  0  0  0  0
   -1.2107  -12.1690  -22.4352 H   0  0  0  0  0
    0.3804  -14.0063  -24.2584 H   0  0  0  0  0
    0.7531  -13.5505  -22.5587 H   0  0  0  0  0
    2.9403  -12.7169  -23.0214 H   0  0  0  0  0
   -0.3512   -9.0089  -25.7475 H   0  0  0  0  0
    0.6652   -9.1162  -27.9876 H   0  0  0  0  0
    2.1828   -8.5106  -27.4316 H   0  0  0  0  0
   -0.2701   -6.9727  -28.1843 H   0  0  0  0  0
    1.3967   -6.4274  -28.1625 H   0  0  0  0  0
   -0.6502   -6.0576  -26.1111 H   0  0  0  0  0
    0.9397   -5.3452  -26.1870 H   0  0  0  0  0
    1.9312   -7.0892  -24.9242 H   0  0  0  0  0
    0.3480   -7.1552  -24.2564 H   0  0  0  0  0
    3.2586   -8.9303  -25.0432 H   0  0  0  0  0
    4.5484  -13.0358  -25.3222 H   0  0  0  0  0
    5.1300  -13.7738  -23.7455 H   0  0  0  0  0
    7.1642  -15.7068  -25.9948 H   0  0  0  0  0
    6.1918  -15.7103  -24.5029 H   0  0  0  0  0
    5.4084  -15.4209  -26.0757 H   0  0  0  0  0
    6.8644  -12.0611  -26.6215 H   0  0  0  0  0
    7.5506  -13.5876  -27.2297 H   0  0  0  0  0
    5.7927  -13.3118  -27.2983 H   0  0  0  0  0
    7.6262   -7.9918  -23.7006 H   0  0  0  0  0
    7.5930   -8.5188  -21.9999 H   0  0  0  0  0
    8.7172   -9.2863  -23.1481 H   0  0  0  0  0
  3  1  4  0  0  0
  5  1  4  0  0  0
  1 29  1  0  0  0
  8  2  2  0  0  0
 23  3  4  0  0  0
  4  5  4  0  0  0
 23  4  4  0  0  0
  4 24  1  0  0  0
  5  6  1  0  0  0
  6  7  1  0  0  0
  6 28  2  0  0  0
  7 25  1  0  0  0
  8  9  1  0  0  0
 14  8  1  0  0  0
 10  9  1  0  0  0
 11 10  1  0  0  0
 12 11  1  0  0  0
 13 12  4  0  0  0
 12 14  4  0  0  0
 22 13  4  0  0  0
 15 14  4  0  0  0
 15 16  1  0  0  0
 21 15  4  0  0  0
 16 17  1  0  0  0
 16 20  1  0  0  0
 17 18  1  0  0  0
 19 18  1  0  0  0
 20 19  1  0  0  0
 22 21  4  0  0  0
 22 23  1  0  0  0
 24 25  1  0  0  0
 25 26  1  0  0  0
 25 27  1  0  0  0
  3 30  1  0  0  0
  7 31  1  0  0  0
  7 32  1  0  0  0
  9 33  1  0  0  0
 10 34  1  0  0  0
 10 35  1  0  0  0
 11 36  1  0  0  0
 11 37  1  0  0  0
 13 38  1  0  0  0
 16 39  1  0  0  0
 17 40  1  0  0  0
 17 41  1  0  0  0
 18 42  1  0  0  0
 18 43  1  0  0  0
 19 44  1  0  0  0
 19 45  1  0  0  0
 20 46  1  0  0  0
 20 47  1  0  0  0
 21 48  1  0  0  0
 24 49  1  0  0  0
 24 50  1  0  0  0
 26 51  1  0  0  0
 26 52  1  0  0  0
 26 53  1  0  0  0
 27 54  1  0  0  0
 27 55  1  0  0  0
 27 56  1  0  0  0
 29 57  1  0  0  0
 29 58  1  0  0  0
 29 59  1  0  0  0
M  END
$$$$
