5jzn_ligand
  -I-interpret- 

 84 88  0  0  0  0  0  0  0  0999 V2000
   25.0550  134.0460  -31.3030 C   0  0  0  0  0
   25.8650  132.8150  -31.2160 C   0  0  0  0  0
   27.1890  132.9620  -31.0610 N   0  0  0  0  0
   27.7820  134.1730  -30.9830 C   0  0  0  0  0
   27.0360  135.3020  -31.0730 N   0  0  0  0  0
   25.7060  135.2670  -31.2290 C   0  0  0  0  0
   29.1320  134.2780  -30.8300 N   0  0  0  0  0
   30.0110  133.2340  -30.7540 C   0  0  0  0  0
   29.7330  132.0320  -30.1140 C   0  0  0  0  0
   30.6780  131.0140  -30.0680 C   0  0  0  0  0
   31.9400  131.1440  -30.6430 C   0  0  0  0  0
   32.2800  132.3390  -31.2710 C   0  0  0  0  0
   31.3600  133.3840  -31.3510 C   0  0  0  0  0
   31.6800  134.5620  -31.9740 O   0  0  0  0  0
   32.2580  134.5330  -33.2770 C   0  0  0  0  0
   32.8600  130.0710  -30.5280 N   0  0  0  0  0
   32.2430  128.7780  -30.8780 C   0  0  0  0  0
   33.1760  127.6460  -30.4610 C   0  0  0  0  0
   34.5620  127.7910  -31.0860 C   0  0  0  0  0
   35.0860  129.2200  -30.9370 C   0  0  0  0  0
   34.0590  130.2660  -31.3550 C   0  0  0  0  0
   35.5260  126.9090  -30.4080 N   0  3  0  0  0
   36.7870  126.8800  -31.1680 C   0  0  0  0  0
   37.8240  126.1440  -30.3250 C   0  0  0  0  0
   37.3650  124.7780  -30.0080 N   0  3  0  0  0
   36.0300  124.7840  -29.3760 C   0  0  0  0  0
   35.0250  125.5310  -30.2540 C   0  0  0  0  0
   38.3310  124.1560  -29.0910 C   0  0  0  0  0
   25.2560  131.6030  -31.2820 N   0  0  0  0  0
   25.8450  130.3740  -31.1900 C   0  0  0  0  0
   25.1050  129.2410  -30.5550 C   0  0  0  0  0
   25.7260  127.9970  -30.4880 C   0  0  0  0  0
   27.0150  127.8010  -30.9770 C   0  0  0  0  0
   27.7130  128.8500  -31.5600 C   0  0  0  0  0
   27.1350  130.1160  -31.6660 C   0  0  0  0  0
   23.6210  129.4060  -29.9790 S   0  0  0  0  0
   23.5970  129.7170  -28.3260 C   0  0  0  0  0
   24.3580  130.9880  -27.9580 C   0  0  0  0  0
   24.1290  128.5270  -27.5280 C   0  0  0  0  0
   22.8940  128.1920  -30.2540 O   0  0  0  0  0
   22.9580  130.5060  -30.6240 O   0  0  0  0  0
   23.2770  133.9300  -31.5220 Cl  0  0  0  0  0
   25.1383  136.1950  -31.2974 H   0  0  0  0  0
   29.5209  135.2188  -30.7666 H   0  0  0  0  0
   28.7614  131.8859  -29.6421 H   0  0  0  0  0
   30.4228  130.0816  -29.5645 H   0  0  0  0  0
   33.2733  132.4588  -31.7037 H   0  0  0  0  0
   33.1980  133.9822  -33.2439 H   0  0  0  0  0
   31.5716  134.0417  -33.9667 H   0  0  0  0  0
   32.4447  135.5530  -33.6130 H   0  0  0  0  0
   32.0732  128.7337  -31.9538 H   0  0  0  0  0
   31.2900  128.6757  -30.3589 H   0  0  0  0  0
   32.7445  126.7046  -30.8010 H   0  0  0  0  0
   33.2852  127.6749  -29.3769 H   0  0  0  0  0
   34.4639  127.5293  -32.1396 H   0  0  0  0  0
   35.9571  129.3275  -31.5833 H   0  0  0  0  0
   35.3227  129.3831  -29.8856 H   0  0  0  0  0
   34.4597  131.2694  -31.2112 H   0  0  0  0  0
   33.8133  130.1552  -32.4111 H   0  0  0  0  0
   35.6743  127.2896  -29.4734 H   0  0  0  0  0
   37.1237  127.8947  -31.3805 H   0  0  0  0  0
   36.6428  126.3697  -32.1203 H   0  0  0  0  0
   37.9729  126.6905  -29.3937 H   0  0  0  0  0
   38.7551  126.0808  -30.8882 H   0  0  0  0  0
   37.2980  124.2508  -30.8786 H   0  0  0  0  0
   36.0976  125.2850  -28.4103 H   0  0  0  0  0
   35.6935  123.7550  -29.2495 H   0  0  0  0  0
   34.9268  125.0460  -31.2252 H   0  0  0  0  0
   34.0365  125.5296  -29.7947 H   0  0  0  0  0
   39.3099  124.1164  -29.5687 H   0  0  0  0  0
   38.3949  124.7468  -28.1772 H   0  0  0  0  0
   38.0019  123.1453  -28.8495 H   0  0  0  0  0
   24.2448  131.6113  -31.4153 H   0  0  0  0  0
   25.1915  127.1578  -30.0429 H   0  0  0  0  0
   27.4790  126.8176  -30.9016 H   0  0  0  0  0
   28.7216  128.6834  -31.9384 H   0  0  0  0  0
   27.7020  130.9227  -32.1306 H   0  0  0  0  0
   22.5520  129.8758  -28.0596 H   0  0  0  0  0
   25.3989  130.8887  -28.2659 H   0  0  0  0  0
   23.9070  131.8401  -28.4666 H   0  0  0  0  0
   24.3096  131.1396  -26.8797 H   0  0  0  0  0
   23.5091  127.6524  -27.7255 H   0  0  0  0  0
   25.1566  128.3207  -27.8273 H   0  0  0  0  0
   24.0993  128.7622  -26.4641 H   0  0  0  0  0
  1  2  4  0  0  0
  1  6  4  0  0  0
  1 42  1  0  0  0
  2  3  4  0  0  0
  2 29  1  0  0  0
  3  4  4  0  0  0
  4  5  4  0  0  0
  4  7  1  0  0  0
  5  6  4  0  0  0
  7  8  1  0  0  0
  8  9  4  0  0  0
  8 13  4  0  0  0
  9 10  4  0  0  0
 10 11  4  0  0  0
 11 12  4  0  0  0
 11 16  1  0  0  0
 12 13  4  0  0  0
 13 14  1  0  0  0
 14 15  1  0  0  0
 16 17  1  0  0  0
 16 21  1  0  0  0
 17 18  1  0  0  0
 18 19  1  0  0  0
 19 20  1  0  0  0
 19 22  1  0  0  0
 20 21  1  0  0  0
 22 23  1  0  0  0
 22 27  1  0  0  0
 23 24  1  0  0  0
 24 25  1  0  0  0
 25 26  1  0  0  0
 25 28  1  0  0  0
 26 27  1  0  0  0
 29 30  1  0  0  0
 30 31  4  0  0  0
 30 35  4  0  0  0
 31 32  4  0  0  0
 31 36  1  0  0  0
 32 33  4  0  0  0
 33 34  4  0  0  0
 34 35  4  0  0  0
 36 37  1  0  0  0
 36 40  2  0  0  0
 36 41  2  0  0  0
 37 38  1  0  0  0
 37 39  1  0  0  0
  6 43  1  0  0  0
  7 44  1  0  0  0
  9 45  1  0  0  0
 10 46  1  0  0  0
 12 47  1  0  0  0
 15 48  1  0  0  0
 15 49  1  0  0  0
 15 50  1  0  0  0
 17 51  1  0  0  0
 17 52  1  0  0  0
 18 53  1  0  0  0
 18 54  1  0  0  0
 19 55  1  0  0  0
 20 56  1  0  0  0
 20 57  1  0  0  0
 21 58  1  0  0  0
 21 59  1  0  0  0
 22 60  1  0  0  0
 23 61  1  0  0  0
 23 62  1  0  0  0
 24 63  1  0  0  0
 24 64  1  0  0  0
 25 65  1  0  0  0
 26 66  1  0  0  0
 26 67  1  0  0  0
 27 68  1  0  0  0
 27 69  1  0  0  0
 28 70  1  0  0  0
 28 71  1  0  0  0
 28 72  1  0  0  0
 29 73  1  0  0  0
 32 74  1  0  0  0
 33 75  1  0  0  0
 34 76  1  0  0  0
 35 77  1  0  0  0
 37 78  1  0  0  0
 38 79  1  0  0  0
 38 80  1  0  0  0
 38 81  1  0  0  0
 39 82  1  0  0  0
 39 83  1  0  0  0
 39 84  1  0  0  0
M  END
$$$$
