1jao_ligand
  -I-interpret- 

 43 43  0  0  0  0  0  0  0  0999 V2000
   28.1410   59.3310   50.4100 C   0  0  0  0  0
   27.9380   60.4170   49.8620 O   0  0  0  0  0
   27.0550   58.6650   51.2520 C   0  0  0  0  0
   25.8220   58.4370   50.3520 C   0  0  0  0  0
   25.8180   57.1130   49.5940 C   0  0  0  0  0
   26.5800   56.0320   50.0170 C   0  0  0  0  0
   26.5160   54.8120   49.3740 C   0  0  0  0  0
   25.6920   54.6650   48.2970 C   0  0  0  0  0
   24.9260   55.7290   47.8470 C   0  0  0  0  0
   24.9970   56.9420   48.4960 C   0  0  0  0  0
   26.7860   59.5460   52.4960 C   0  0  0  0  0
   25.4920   58.9180   53.6320 S   0  0  0  0  0
   29.3000   58.6810   50.3180 N   0  0  0  0  0
   30.4080   59.2270   49.5530 C   0  0  0  0  0
   30.4740   58.6420   48.1610 C   0  0  0  0  0
   30.2400   57.4560   47.9690 O   0  0  0  0  0
   31.6840   59.0130   50.2740 C   0  0  0  0  0
   32.1720   58.3430   45.3570 C   0  0  0  0  0
   32.1630   57.0380   45.6440 N   0  0  0  0  0
   32.7810   58.7980   44.3830 O   0  0  0  0  0
   30.9500   59.0920   45.8270 C   0  0  0  0  0
   30.8880   59.4780   47.2170 N   0  0  0  0  0
   27.3532   57.6869   51.6294 H   0  0  0  0  0
   25.8259   59.2296   49.6038 H   0  0  0  0  0
   24.9502   58.4293   51.0062 H   0  0  0  0  0
   27.2425   56.1491   50.8746 H   0  0  0  0  0
   27.1185   53.9738   49.7238 H   0  0  0  0  0
   25.6355   53.7037   47.7864 H   0  0  0  0  0
   24.2711   55.6066   46.9843 H   0  0  0  0  0
   24.3970   57.7787   48.1382 H   0  0  0  0  0
   26.4372   60.5105   52.1269 H   0  0  0  0  0
   27.7149   59.5754   53.0655 H   0  0  0  0  0
   25.3559   59.7580   54.6542 H   0  0  0  0  0
   29.4115   57.7850   50.7925 H   0  0  0  0  0
   30.2397   60.2984   49.4440 H   0  0  0  0  0
   31.8818   57.9438   50.3503 H   0  0  0  0  0
   32.4941   59.4956   49.7273 H   0  0  0  0  0
   31.6118   59.4427   51.2731 H   0  0  0  0  0
   32.6701   56.3817   45.0503 H   0  0  0  0  0
   31.6490   56.6981   46.4568 H   0  0  0  0  0
   30.1150   58.4074   45.6784 H   0  0  0  0  0
   30.9488   60.0265   45.2660 H   0  0  0  0  0
   31.1709   60.4216   47.4814 H   0  0  0  0  0
  1  3  1  0  0  0
  1  2  2  0  0  0
  3 11  1  0  0  0
  3  4  1  0  0  0
  4  5  1  0  0  0
  5 10  4  0  0  0
  5  6  4  0  0  0
  6  7  4  0  0  0
  7  8  4  0  0  0
  9  8  4  0  0  0
 10  9  4  0  0  0
 11 12  1  0  0  0
 15 14  1  0  0  0
 14 17  1  0  0  0
 14 13  1  0  0  0
 15 16  2  0  0  0
 21 18  1  0  0  0
 18 20  2  0  0  0
 18 19  1  0  0  0
 22 21  1  0  0  0
 13  1  1  0  0  0
 22 15  1  0  0  0
  3 23  1  0  0  0
  4 24  1  0  0  0
  4 25  1  0  0  0
  6 26  1  0  0  0
  7 27  1  0  0  0
  8 28  1  0  0  0
  9 29  1  0  0  0
 10 30  1  0  0  0
 11 31  1  0  0  0
 11 32  1  0  0  0
 12 33  1  0  0  0
 13 34  1  0  0  0
 14 35  1  0  0  0
 17 36  1  0  0  0
 17 37  1  0  0  0
 17 38  1  0  0  0
 19 39  1  0  0  0
 19 40  1  0  0  0
 21 41  1  0  0  0
 21 42  1  0  0  0
 22 43  1  0  0  0
M  END
$$$$
