2cen_ligand
  -I-interpret- 

 96100  0  0  0  0  0  0  0  0999 V2000
   14.3070   22.9110    5.6430 C   0  0  0  0  0
   14.5790   21.3770    5.3860 C   0  0  0  0  0
   13.6330   20.5620    5.4030 O   0  0  0  0  0
   15.8330   20.9260    5.1890 N   0  0  0  0  0
   16.1290   19.4960    4.9900 C   0  0  0  0  0
   16.0890   18.9950    3.5740 C   0  0  0  0  0
   15.2500   19.4110    2.4890 C   0  0  0  0  0
   15.4250   18.7590    1.2180 C   0  0  0  0  0
   16.4120   17.7250    1.0620 C   0  0  0  0  0
   17.2390   17.3220    2.1630 C   0  0  0  0  0
   17.0540   17.9780    3.4120 C   0  0  0  0  0
   17.7990   17.7320    4.7040 C   0  0  0  0  0
   17.5230   19.0220    5.5170 C   0  0  0  0  0
   18.5730   19.9140    5.1680 O   0  0  0  0  0
   14.1110   23.1820    7.1760 C   0  0  0  0  0
   14.9730   22.3470    8.1180 C   0  0  0  0  0
   14.3750   21.2800    8.8770 C   0  0  0  0  0
   15.1730   20.4770    9.7450 C   0  0  0  0  0
   16.5770   20.7350    9.8590 C   0  0  0  0  0
   17.1780   21.7980    9.1060 C   0  0  0  0  0
   16.3810   22.6040    8.2360 C   0  0  0  0  0
   15.4120   23.7170    5.2220 O   0  0  0  0  0
   13.0310   22.9480    4.7450 C   0  0  0  0  0
   12.0780   23.9550    4.3850 N   0  3  0  0  0
   11.4140   24.7110    5.3210 N   0  0  0  0  0
   11.5480   23.4280    3.1080 C   0  0  0  0  0
   10.5400   24.4360    6.3090 C   0  0  0  0  0
   10.3620   23.2950    6.7660 O   0  0  0  0  0
    9.7620   25.6600    6.8290 C   0  0  0  0  0
    9.6900   25.9050    8.3760 C   0  0  0  0  0
    8.9260   27.2100    8.7310 C   0  0  0  0  0
   11.0770   26.0020    9.0310 C   0  0  0  0  0
    8.3920   25.5860    6.2930 N   0  0  0  0  0
    7.8210   26.4840    5.4740 C   0  0  0  0  0
    8.4670   27.4840    5.1070 O   0  0  0  0  0
    6.5440   26.2540    5.0890 O   0  0  0  0  0
   10.0340   23.4700    2.9970 C   0  0  0  0  0
    9.4220   24.4510    2.1580 C   0  0  0  0  0
    7.9990   24.5180    2.0510 C   0  0  0  0  0
    7.1660   23.6030    2.7910 C   0  0  0  0  0
    9.2150   22.5500    3.7300 C   0  0  0  0  0
    7.7910   22.6170    3.6320 C   0  0  0  0  0
    5.8550   27.1580    4.2320 C   0  0  0  0  0
    8.9130   24.7670    9.0460 C   0  0  0  0  0
    3.4210   22.8550    3.3400 C   0  0  0  0  0
    4.8410   22.7860    3.4320 C   0  0  0  0  0
    5.6770   23.6820    2.6840 C   0  0  0  0  0
    5.0560   24.6540    1.8370 C   0  0  0  0  0
    3.6370   24.7180    1.7470 N   0  0  0  0  0
    2.8160   23.8240    2.4950 C   0  0  0  0  0
   16.6023   21.5957    5.1772 H   0  0  0  0  0
   15.3061   19.0824    5.5730 H   0  0  0  0  0
   14.5044   20.1949    2.6220 H   0  0  0  0  0
   14.8062   19.0505    0.3693 H   0  0  0  0  0
   16.5337   17.2403    0.0933 H   0  0  0  0  0
   17.9863   16.5371    2.0462 H   0  0  0  0  0
   18.8625   17.5493    4.5500 H   0  0  0  0  0
   17.4669   16.8299    5.2178 H   0  0  0  0  0
   17.4980   18.9257    6.6024 H   0  0  0  0  0
   18.4598   20.7409    5.6423 H   0  0  0  0  0
   13.0755   22.9275    7.4020 H   0  0  0  0  0
   14.3945   24.2213    7.3419 H   0  0  0  0  0
   13.3064   21.0845    8.7880 H   0  0  0  0  0
   14.7162   19.6707   10.3189 H   0  0  0  0  0
   17.1905   20.1222   10.5195 H   0  0  0  0  0
   18.2467   21.9916    9.1979 H   0  0  0  0  0
   16.8398   23.4106    7.6642 H   0  0  0  0  0
   15.5671   23.5808    4.2845 H   0  0  0  0  0
   12.3823   22.3261    5.3619 H   0  0  0  0  0
   13.5137   22.8295    3.7749 H   0  0  0  0  0
   12.4087   24.9111    4.2547 H   0  0  0  0  0
   11.6321   25.7050    5.2523 H   0  0  0  0  0
   11.8460   22.3815    3.0438 H   0  0  0  0  0
   11.9462   24.0561    2.3111 H   0  0  0  0  0
   10.3444   26.5112    6.4763 H   0  0  0  0  0
    9.4331   28.0613    8.2769 H   0  0  0  0  0
    7.9065   27.1475    8.3506 H   0  0  0  0  0
    8.9042   27.3337    9.8137 H   0  0  0  0  0
   11.6210   25.0719    8.8663 H   0  0  0  0  0
   11.6294   26.8308    8.5882 H   0  0  0  0  0
   10.9608   26.1718   10.1014 H   0  0  0  0  0
    7.8275   24.7822    6.5681 H   0  0  0  0  0
   10.0426   25.1504    1.5978 H   0  0  0  0  0
    7.5397   25.2664    1.4052 H   0  0  0  0  0
    9.6804   21.7961    4.3649 H   0  0  0  0  0
    7.1751   21.9175    4.1973 H   0  0  0  0  0
    5.8012   28.1375    4.7071 H   0  0  0  0  0
    6.3911   27.2404    3.2865 H   0  0  0  0  0
    4.8471   26.7859    4.0485 H   0  0  0  0  0
    7.9026   24.7298    8.6389 H   0  0  0  0  0
    9.4188   23.8208    8.8534 H   0  0  0  0  0
    8.8669   24.9437   10.1206 H   0  0  0  0  0
    2.8012   22.1673    3.9154 H   0  0  0  0  0
    5.3004   22.0405    4.0811 H   0  0  0  0  0
    5.6701   25.3458    1.2604 H   0  0  0  0  0
    1.7303   23.8835    2.4191 H   0  0  0  0  0
  1  2  1  0  0  0
  1 15  1  0  0  0
  1 22  1  0  0  0
 23  1  1  0  0  0
  2  3  2  0  0  0
  2  4  1  0  0  0
  4  5  1  0  0  0
  5  6  1  0  0  0
  5 13  1  0  0  0
  6  7  4  0  0  0
  6 11  4  0  0  0
  7  8  4  0  0  0
  8  9  4  0  0  0
 10  9  4  0  0  0
 11 10  4  0  0  0
 12 11  1  0  0  0
 13 12  1  0  0  0
 13 14  1  0  0  0
 15 16  1  0  0  0
 16 17  4  0  0  0
 16 21  4  0  0  0
 17 18  4  0  0  0
 18 19  4  0  0  0
 20 19  4  0  0  0
 21 20  4  0  0  0
 24 23  1  0  0  0
 24 25  1  0  0  0
 26 24  1  0  0  0
 25 27  1  0  0  0
 37 26  1  0  0  0
 27 28  2  0  0  0
 27 29  1  0  0  0
 29 30  1  0  0  0
 29 33  1  0  0  0
 30 31  1  0  0  0
 30 32  1  0  0  0
 30 44  1  0  0  0
 33 34  1  0  0  0
 34 35  2  0  0  0
 34 36  1  0  0  0
 36 43  1  0  0  0
 38 37  4  0  0  0
 41 37  4  0  0  0
 39 38  4  0  0  0
 40 39  4  0  0  0
 40 42  4  0  0  0
 47 40  1  0  0  0
 42 41  4  0  0  0
 46 45  4  0  0  0
 45 50  4  0  0  0
 46 47  4  0  0  0
 47 48  4  0  0  0
 48 49  4  0  0  0
 49 50  4  0  0  0
  4 51  1  0  0  0
  5 52  1  0  0  0
  7 53  1  0  0  0
  8 54  1  0  0  0
  9 55  1  0  0  0
 10 56  1  0  0  0
 12 57  1  0  0  0
 12 58  1  0  0  0
 13 59  1  0  0  0
 14 60  1  0  0  0
 15 61  1  0  0  0
 15 62  1  0  0  0
 17 63  1  0  0  0
 18 64  1  0  0  0
 19 65  1  0  0  0
 20 66  1  0  0  0
 21 67  1  0  0  0
 22 68  1  0  0  0
 23 69  1  0  0  0
 23 70  1  0  0  0
 24 71  1  0  0  0
 25 72  1  0  0  0
 26 73  1  0  0  0
 26 74  1  0  0  0
 29 75  1  0  0  0
 31 76  1  0  0  0
 31 77  1  0  0  0
 31 78  1  0  0  0
 32 79  1  0  0  0
 32 80  1  0  0  0
 32 81  1  0  0  0
 33 82  1  0  0  0
 38 83  1  0  0  0
 39 84  1  0  0  0
 41 85  1  0  0  0
 42 86  1  0  0  0
 43 87  1  0  0  0
 43 88  1  0  0  0
 43 89  1  0  0  0
 44 90  1  0  0  0
 44 91  1  0  0  0
 44 92  1  0  0  0
 45 93  1  0  0  0
 46 94  1  0  0  0
 48 95  1  0  0  0
 50 96  1  0  0  0
M  END
$$$$
