4o1d_ligand
  -I-interpret- 

 58 60  0  0  0  0  0  0  0  0999 V2000
   15.4820    3.3830   -8.8060 C   0  0  0  0  0
   16.1690    3.7910   -9.9350 C   0  0  0  0  0
   17.4870    4.1940   -9.8420 C   0  0  0  0  0
   18.1180    4.1880   -8.6110 C   0  0  0  0  0
   17.4400    3.7920   -7.4730 C   0  0  0  0  0
   16.1060    3.3830   -7.5570 C   0  0  0  0  0
   15.3830    2.9510   -6.3310 C   0  0  0  0  0
   15.5850    1.8230   -5.9110 O   0  0  0  0  0
   14.5110    3.7780   -5.6960 N   0  0  0  0  0
   14.2990    5.1320   -6.1700 C   0  0  0  0  0
   15.0490    5.9300   -5.0990 C   0  0  0  0  0
   13.7920    3.4050   -4.4570 C   0  0  0  0  0
   14.1930    4.3510   -3.3090 C   0  0  0  0  0
   14.2980    5.8090   -3.7750 C   0  0  0  0  0
   15.1010    6.6450   -2.7710 C   0  0  0  0  0
   14.3110    6.9270   -1.5050 C   0  0  0  0  0
   15.2720    7.4000   -0.4130 C   0  0  0  0  0
   15.3060    8.9270   -0.3170 C   0  0  0  0  0
   15.5560    9.2100    1.0870 N   0  0  0  0  0
   14.8330   10.0590    1.8480 C   0  0  0  0  0
   13.8410   10.6320    1.4140 O   0  0  0  0  0
   15.2140   10.1260    3.2650 C   0  0  0  0  0
   14.4910   10.8160    4.1690 C   0  0  0  0  0
   14.8260   10.7200    5.6010 C   0  0  0  0  0
   15.9660   10.0300    6.0680 C   0  0  0  0  0
   16.1690    9.9240    7.3960 C   0  0  0  0  0
   15.3330   10.4360    8.2810 C   0  0  0  0  0
   14.1780   11.0890    7.8720 N   0  0  0  0  0
   13.9130   11.2290    6.5280 C   0  0  0  0  0
   14.4449    3.0588   -8.8921 H   0  0  0  0  0
   15.6679    3.7946  -10.9030 H   0  0  0  0  0
   18.0265    4.5148  -10.7332 H   0  0  0  0  0
   19.1602    4.4986   -8.5375 H   0  0  0  0  0
   17.9469    3.7988   -6.5081 H   0  0  0  0  0
   13.2492    5.4063   -6.2735 H   0  0  0  0  0
   14.6558    5.3075   -7.1849 H   0  0  0  0  0
   15.1084    6.9775   -5.3943 H   0  0  0  0  0
   16.0593    5.5367   -4.9867 H   0  0  0  0  0
   14.0524    2.3819   -4.1858 H   0  0  0  0  0
   12.7184    3.4841   -4.6281 H   0  0  0  0  0
   15.1697    4.0409   -2.9375 H   0  0  0  0  0
   13.4254    4.2945   -2.5372 H   0  0  0  0  0
   13.2716    6.1622   -3.8740 H   0  0  0  0  0
   15.3455    7.5983   -3.2397 H   0  0  0  0  0
   15.9943    6.0836   -2.4974 H   0  0  0  0  0
   13.8026    6.0195   -1.1793 H   0  0  0  0  0
   13.5676    7.6998   -1.7002 H   0  0  0  0  0
   16.2737    7.0476   -0.6589 H   0  0  0  0  0
   14.9309    7.0019    0.5426 H   0  0  0  0  0
   14.3728    9.3743   -0.6594 H   0  0  0  0  0
   16.0760    9.3552   -0.9588 H   0  0  0  0  0
   16.3384    8.7298    1.5316 H   0  0  0  0  0
   16.1100    9.6009    3.5959 H   0  0  0  0  0
   13.6613   11.4429    3.8422 H   0  0  0  0  0
   16.6720    9.5892    5.3642 H   0  0  0  0  0
   17.0542    9.3972    7.7523 H   0  0  0  0  0
   15.5523   10.3449    9.3448 H   0  0  0  0  0
   13.0046   11.7294    6.1924 H   0  0  0  0  0
  1  2  4  0  0  0
  1  6  4  0  0  0
  2  3  4  0  0  0
  3  4  4  0  0  0
  4  5  4  0  0  0
  5  6  4  0  0  0
  6  7  1  0  0  0
  7  8  2  0  0  0
  7  9  1  0  0  0
  9 10  1  0  0  0
  9 12  1  0  0  0
 10 11  1  0  0  0
 11 14  1  0  0  0
 12 13  1  0  0  0
 13 14  1  0  0  0
 14 15  1  0  0  0
 15 16  1  0  0  0
 16 17  1  0  0  0
 17 18  1  0  0  0
 18 19  1  0  0  0
 19 20  1  0  0  0
 20 21  2  0  0  0
 20 22  1  0  0  0
 22 23  2  0  0  0
 23 24  1  0  0  0
 24 25  4  0  0  0
 24 29  4  0  0  0
 25 26  4  0  0  0
 26 27  4  0  0  0
 27 28  4  0  0  0
 28 29  4  0  0  0
  1 30  1  0  0  0
  2 31  1  0  0  0
  3 32  1  0  0  0
  4 33  1  0  0  0
  5 34  1  0  0  0
 10 35  1  0  0  0
 10 36  1  0  0  0
 11 37  1  0  0  0
 11 38  1  0  0  0
 12 39  1  0  0  0
 12 40  1  0  0  0
 13 41  1  0  0  0
 13 42  1  0  0  0
 14 43  1  0  0  0
 15 44  1  0  0  0
 15 45  1  0  0  0
 16 46  1  0  0  0
 16 47  1  0  0  0
 17 48  1  0  0  0
 17 49  1  0  0  0
 18 50  1  0  0  0
 18 51  1  0  0  0
 19 52  1  0  0  0
 22 53  1  0  0  0
 23 54  1  0  0  0
 25 55  1  0  0  0
 26 56  1  0  0  0
 27 57  1  0  0  0
 29 58  1  0  0  0
M  END
$$$$
