6ey7_ligand
  -I-interpret- 

 30 30  0  0  0  0  0  0  0  0999 V2000
  -26.2470  -47.0240   59.2870 C   0  0  0  0  0
  -26.5880  -48.1020   60.0970 C   0  0  0  0  0
  -29.4760  -48.3080   58.2890 C   0  0  0  0  0
  -25.0680  -47.2690   61.7830 C   0  0  0  0  0
  -25.9840  -48.2120   61.3460 C   0  0  0  0  0
  -30.7950  -47.6460   55.8230 O   0  0  0  0  0
  -27.6000  -49.1250   59.6370 C   0  0  0  0  0
  -24.7660  -46.2210   60.9490 C   0  0  0  0  0
  -30.8960  -47.7720   58.2370 C   0  0  0  0  0
  -31.4690  -47.4700   56.8320 C   0  0  0  0  0
  -25.3320  -46.0720   59.7080 C   0  0  0  0  0
  -33.3210  -46.6710   55.5430 O   0  0  0  0  0
  -32.8990  -46.9370   56.7490 C   0  0  0  0  0
  -33.5960  -46.7630   57.7430 O   0  0  0  0  0
  -28.8280  -48.4890   57.2660 O   0  0  0  0  0
  -28.9620  -48.5810   59.5090 N   0  0  0  0  0
  -29.6800  -48.3980   60.7650 C   0  0  0  0  0
  -23.8710  -45.2860   61.3730 F   0  0  0  0  0
  -26.7075  -46.9262   58.3039 H   0  0  0  0  0
  -24.5994  -47.3568   62.7632 H   0  0  0  0  0
  -26.2358  -49.0539   61.9909 H   0  0  0  0  0
  -27.6308  -49.9170   60.3852 H   0  0  0  0  0
  -27.2909  -49.4738   58.6517 H   0  0  0  0  0
  -30.8787  -46.8196   58.7669 H   0  0  0  0  0
  -31.5288  -48.5524   58.6596 H   0  0  0  0  0
  -25.0691  -45.2278   59.0705 H   0  0  0  0  0
  -32.6284  -46.8755   54.9105 H   0  0  0  0  0
  -29.7760  -49.3589   61.2705 H   0  0  0  0  0
  -29.1277  -47.7054   61.4002 H   0  0  0  0  0
  -30.6711  -47.9934   60.5598 H   0  0  0  0  0
  2  1  4  0  0  0
  1 11  4  0  0  0
  2  5  4  0  0  0
  7  2  1  0  0  0
  9  3  1  0  0  0
  3 15  2  0  0  0
  3 16  1  0  0  0
  5  4  4  0  0  0
  4  8  4  0  0  0
 10  6  2  0  0  0
 16  7  1  0  0  0
 11  8  4  0  0  0
  8 18  1  0  0  0
  9 10  1  0  0  0
 10 13  1  0  0  0
 13 12  1  0  0  0
 13 14  2  0  0  0
 16 17  1  0  0  0
  1 19  1  0  0  0
  4 20  1  0  0  0
  5 21  1  0  0  0
  7 22  1  0  0  0
  7 23  1  0  0  0
  9 24  1  0  0  0
  9 25  1  0  0  0
 11 26  1  0  0  0
 12 27  1  0  0  0
 17 28  1  0  0  0
 17 29  1  0  0  0
 17 30  1  0  0  0
M  END
$$$$
