1my3_ligand
  -I-interpret- 

 24 24  0  0  0  0  0  0  0  0999 V2000
   77.8470   26.6500   42.1250 N   0  0  0  0  0
   77.9740   25.3570   41.5650 C   0  0  0  0  0
   78.0710   24.3480   42.2090 O   0  0  0  0  0
   78.0000   25.3390   40.1590 N   0  0  0  0  0
   77.8840   26.4050   39.3130 C   0  0  0  0  0
   77.9230   26.2990   38.1100 O   0  0  0  0  0
   77.7360   27.7220   40.0320 C   0  0  0  0  0
   77.5100   29.3100   39.0370 Br  0  0  0  0  0
   77.7090   27.7390   41.3740 C   0  0  0  0  0
   77.7560   26.8160   43.5640 C   0  0  0  0  0
   76.4560   26.2790   44.1030 C   0  0  0  0  0
   75.3760   27.2970   43.8490 N   0  3  0  0  0
   76.4670   25.9140   45.5810 C   0  0  0  0  0
   75.6340   26.4200   46.2980 O   0  0  0  0  0
   77.4260   25.1350   45.9250 O   0  0  0  0  0
   78.1191   24.4255   39.7210 H   0  0  0  0  0
   77.5664   28.6965   41.8750 H   0  0  0  0  0
   77.8098   27.8805   43.7919 H   0  0  0  0  0
   78.5746   26.2647   44.0267 H   0  0  0  0  0
   76.2750   25.3413   43.5775 H   0  0  0  0  0
   74.4885   26.9464   44.2093 H   0  0  0  0  0
   75.6150   28.1693   44.3205 H   0  0  0  0  0
   75.2955   27.4624   42.8457 H   0  0  0  0  0
   77.9300   24.8867   45.1466 H   0  0  0  0  0
  1  2  1  0  0  0
  1  9  1  0  0  0
  1 10  1  0  0  0
  2  3  2  0  0  0
  2  4  1  0  0  0
  4  5  1  0  0  0
  5  6  2  0  0  0
  5  7  1  0  0  0
  7  8  1  0  0  0
  7  9  2  0  0  0
 10 11  1  0  0  0
 11 12  1  0  0  0
 11 13  1  0  0  0
 13 14  2  0  0  0
 13 15  1  0  0  0
  4 16  1  0  0  0
  9 17  1  0  0  0
 10 18  1  0  0  0
 10 19  1  0  0  0
 11 20  1  0  0  0
 12 21  1  0  0  0
 12 22  1  0  0  0
 12 23  1  0  0  0
 15 24  1  0  0  0
M  END
$$$$
