6h75_ligand
  -I-interpret- 

 40 40  0  0  0  0  0  0  0  0999 V2000
    7.9920   -9.5890  -11.2830 C   0  0  0  0  0
    9.2630   -9.2870  -12.0490 C   0  0  0  0  0
   10.3630   -8.7780  -11.1320 C   0  0  0  0  0
   11.5430   -8.2260  -11.9920 C   0  0  0  0  0
   11.0100   -7.1430  -12.9410 C   0  0  0  0  0
    9.9120   -7.8250  -13.7930 C   0  0  0  0  0
    9.2750   -6.8600  -14.7860 C   0  0  0  0  0
    8.1270   -7.5410  -15.5750 C   0  0  0  0  0
    7.4480   -6.6390  -16.6270 C   0  0  0  0  0
   12.5910   -5.4340  -13.6820 C   0  0  0  0  0
   13.6560   -5.0380  -14.6700 C   0  0  0  0  0
   12.0610   -6.6310  -13.8010 N   0  0  0  0  0
    7.6100  -10.7870  -11.1860 O   0  0  0  0  0
    7.3720   -8.6120  -10.7640 O   0  0  0  0  0
    9.7130  -10.4310  -12.6950 O   0  0  0  0  0
   12.5440   -7.6630  -11.1290 O   0  0  0  0  0
    8.8580   -8.3160  -12.9700 O   0  0  0  0  0
    8.6750   -5.7330  -14.1180 O   0  0  0  0  0
    8.6270   -8.7520  -16.1750 O   0  0  0  0  0
    8.3880   -6.1130  -17.5460 O   0  0  0  0  0
   12.2670   -4.6610  -12.7780 O   0  0  0  0  0
   10.7210   -9.5950  -10.5055 H   0  0  0  0  0
    9.9700   -7.9814  -10.5003 H   0  0  0  0  0
   11.9852   -9.0354  -12.5728 H   0  0  0  0  0
   10.6222   -6.2935  -12.3788 H   0  0  0  0  0
   10.4111   -8.6361  -14.3232 H   0  0  0  0  0
   10.0813   -6.5433  -15.4476 H   0  0  0  0  0
    7.3380   -7.7644  -14.8569 H   0  0  0  0  0
    6.9686   -5.8075  -16.1103 H   0  0  0  0  0
    6.7242   -7.2383  -17.1793 H   0  0  0  0  0
   13.3448   -4.1351  -15.1953 H   0  0  0  0  0
   14.5892   -4.8480  -14.1397 H   0  0  0  0  0
   13.8023   -5.8453  -15.3876 H   0  0  0  0  0
   12.4098   -7.2373  -14.5434 H   0  0  0  0  0
    7.8383   -7.7967  -10.9625 H   0  0  0  0  0
    9.9843  -11.0802  -12.0419 H   0  0  0  0  0
   12.8744   -8.3432  -10.5376 H   0  0  0  0  0
    9.3449   -5.2699  -13.6097 H   0  0  0  0  0
    7.9214   -9.1797  -16.6657 H   0  0  0  0  0
    7.9338   -5.5584  -18.1845 H   0  0  0  0  0
  2  1  1  0  0  0
  1 13  2  0  0  0
  1 14  1  0  0  0
  3  2  1  0  0  0
  2 15  1  0  0  0
 17  2  1  0  0  0
  4  3  1  0  0  0
  5  4  1  0  0  0
  4 16  1  0  0  0
  5  6  1  0  0  0
 12  5  1  0  0  0
  6  7  1  0  0  0
  6 17  1  0  0  0
  7  8  1  0  0  0
  7 18  1  0  0  0
  8  9  1  0  0  0
  8 19  1  0  0  0
  9 20  1  0  0  0
 10 11  1  0  0  0
 10 12  1  0  0  0
 10 21  2  0  0  0
  3 22  1  0  0  0
  3 23  1  0  0  0
  4 24  1  0  0  0
  5 25  1  0  0  0
  6 26  1  0  0  0
  7 27  1  0  0  0
  8 28  1  0  0  0
  9 29  1  0  0  0
  9 30  1  0  0  0
 11 31  1  0  0  0
 11 32  1  0  0  0
 11 33  1  0  0  0
 12 34  1  0  0  0
 14 35  1  0  0  0
 15 36  1  0  0  0
 16 37  1  0  0  0
 18 38  1  0  0  0
 19 39  1  0  0  0
 20 40  1  0  0  0
M  END
$$$$
