2wpb_ligand
  -I-interpret- 

 36 35  0  0  0  0  0  0  0  0999 V2000
    4.5120  -12.6610   27.5690 C   0  0  0  0  0
    4.6290  -11.4100   28.4740 C   0  0  0  0  0
    4.4550  -11.6820   29.9860 C   0  0  0  0  0
    4.1590  -10.4850   30.8390 N   0  0  0  0  0
    4.3540   -9.1070   30.2970 C   0  0  0  0  0
    5.3390   -8.2580   31.1160 C   0  0  0  0  0
    6.7620   -8.8290   31.0350 C   0  0  0  0  0
    3.6600  -10.7050   32.0760 C   0  0  0  0  0
    3.4760  -11.8310   32.5260 O   0  0  0  0  0
    3.3580   -9.5030   32.9890 C   0  0  0  0  0
    3.7640   -9.7730   34.3670 O   0  0  0  0  0
    1.8770   -9.0980   32.8830 C   0  0  0  0  0
    1.7160   -8.5080   31.5990 O   0  0  0  0  0
    1.4980   -8.0660   33.9490 C   0  0  0  0  0
    2.2510   -6.8610   33.7640 O   0  0  0  0  0
    5.2793  -13.3830   27.8484 H   0  0  0  0  0
    3.5264  -13.1088   27.6960 H   0  0  0  0  0
    4.6482  -12.3687   26.5278 H   0  0  0  0  0
    3.8271  -10.7323   28.1809 H   0  0  0  0  0
    5.6359  -11.0153   28.3382 H   0  0  0  0  0
    5.4070  -12.0803   30.3370 H   0  0  0  0  0
    3.5955  -12.3457   30.0808 H   0  0  0  0  0
    3.3871   -8.6046   30.3254 H   0  0  0  0  0
    4.7646   -9.2059   29.2921 H   0  0  0  0  0
    5.0203   -8.2628   32.1584 H   0  0  0  0  0
    5.3461   -7.2456   30.7120 H   0  0  0  0  0
    6.7671   -9.8457   31.4280 H   0  0  0  0  0
    7.0898   -8.8382   29.9955 H   0  0  0  0  0
    7.4358   -8.2070   31.6242 H   0  0  0  0  0
    3.9492   -8.6527   32.6491 H   0  0  0  0  0
    3.5649   -9.0093   34.9135 H   0  0  0  0  0
    1.2409   -9.9710   33.0287 H   0  0  0  0  0
    0.8021   -8.2372   31.4848 H   0  0  0  0  0
    1.7179   -8.4754   34.9350 H   0  0  0  0  0
    0.4355   -7.8386   33.8625 H   0  0  0  0  0
    2.0037   -6.2238   34.4381 H   0  0  0  0  0
  1  2  1  0  0  0
  2  3  1  0  0  0
  3  4  1  0  0  0
  4  5  1  0  0  0
  4  8  1  0  0  0
  5  6  1  0  0  0
  6  7  1  0  0  0
  8  9  2  0  0  0
  8 10  1  0  0  0
 10 11  1  0  0  0
 10 12  1  0  0  0
 12 13  1  0  0  0
 12 14  1  0  0  0
 14 15  1  0  0  0
  1 16  1  0  0  0
  1 17  1  0  0  0
  1 18  1  0  0  0
  2 19  1  0  0  0
  2 20  1  0  0  0
  3 21  1  0  0  0
  3 22  1  0  0  0
  5 23  1  0  0  0
  5 24  1  0  0  0
  6 25  1  0  0  0
  6 26  1  0  0  0
  7 27  1  0  0  0
  7 28  1  0  0  0
  7 29  1  0  0  0
 10 30  1  0  0  0
 11 31  1  0  0  0
 12 32  1  0  0  0
 13 33  1  0  0  0
 14 34  1  0  0  0
 14 35  1  0  0  0
 15 36  1  0  0  0
M  END
$$$$
