3f0r_ligand
  -I-interpret- 

 44 44  0  0  0  0  0  0  0  0999 V2000
   47.2150   -0.4040   12.0720 O   0  0  0  0  0
   45.6310    0.8080   10.2230 O   0  0  0  0  0
   40.5610   -0.6150    5.5460 O   0  0  0  0  0
   45.9190   -0.8560   11.7090 N   0  0  0  0  0
   35.7150   -4.9800    4.8270 N   0  0  0  0  0
   38.6440   -1.9690    5.9650 C   0  0  0  0  0
   38.7160   -2.6310    4.6490 C   0  0  0  0  0
   37.7700   -3.6090    4.2770 C   0  0  0  0  0
   36.6930   -3.9870    5.1960 C   0  0  0  0  0
   36.6250   -3.3290    6.5080 C   0  0  0  0  0
   37.5670   -2.3530    6.8840 C   0  0  0  0  0
   39.6640   -0.9180    6.3470 C   0  0  0  0  0
   39.6050   -0.2170    7.7210 C   0  0  0  0  0
   41.0080    0.0870    8.2430 C   0  0  0  0  0
   41.6780   -0.6290    9.1860 C   0  0  0  0  0
   43.0330   -0.1350    9.5320 C   0  0  0  0  0
   43.8460   -0.7270   10.4550 C   0  0  0  0  0
   45.1820   -0.2010   10.7770 C   0  0  0  0  0
   38.8170    1.0970    7.6160 C   0  0  0  0  0
   41.0750   -1.8740    9.8600 C   0  0  0  0  0
   35.7630   -5.6520    3.5110 C   0  0  0  0  0
   34.6150   -5.3640    5.7550 C   0  0  0  0  0
   47.5807   -0.9879   12.7405 H   0  0  0  0  0
   45.5351   -1.6881   12.1569 H   0  0  0  0  0
   39.5112   -2.3608    3.9542 H   0  0  0  0  0
   37.8406   -4.0866    3.2997 H   0  0  0  0  0
   35.8306   -3.6016    7.2028 H   0  0  0  0  0
   37.4958   -1.8799    7.8634 H   0  0  0  0  0
   39.1057   -0.8929    8.4152 H   0  0  0  0  0
   41.5174    0.9542    7.8228 H   0  0  0  0  0
   43.4014    0.7533    9.0189 H   0  0  0  0  0
   43.4935   -1.6200   10.9712 H   0  0  0  0  0
   39.3071    1.7569    6.9001 H   0  0  0  0  0
   37.8019    0.8846    7.2805 H   0  0  0  0  0
   38.7847    1.5789    8.5932 H   0  0  0  0  0
   40.1566   -1.5966   10.3774 H   0  0  0  0  0
   40.8536   -2.6249    9.1015 H   0  0  0  0  0
   41.7892   -2.2794   10.5768 H   0  0  0  0  0
   35.6754   -4.9067    2.7205 H   0  0  0  0  0
   36.7102   -6.1818    3.4093 H   0  0  0  0  0
   34.9387   -6.3613    3.4364 H   0  0  0  0  0
   35.0408   -5.7607    6.6766 H   0  0  0  0  0
   34.0093   -4.4865    5.9813 H   0  0  0  0  0
   33.9928   -6.1248    5.2837 H   0  0  0  0  0
  4  1  1  0  0  0
 18  2  2  0  0  0
 12  3  2  0  0  0
 18  4  1  0  0  0
  9  5  1  0  0  0
  5 21  1  0  0  0
  5 22  1  0  0  0
  6  7  4  0  0  0
  6 11  4  0  0  0
 12  6  1  0  0  0
  7  8  4  0  0  0
  8  9  4  0  0  0
 10  9  4  0  0  0
 11 10  4  0  0  0
 13 12  1  0  0  0
 14 13  1  0  0  0
 13 19  1  0  0  0
 15 14  2  0  0  0
 16 15  1  0  0  0
 15 20  1  0  0  0
 17 16  2  0  0  0
 17 18  1  0  0  0
  1 23  1  0  0  0
  4 24  1  0  0  0
  7 25  1  0  0  0
  8 26  1  0  0  0
 10 27  1  0  0  0
 11 28  1  0  0  0
 13 29  1  0  0  0
 14 30  1  0  0  0
 16 31  1  0  0  0
 17 32  1  0  0  0
 19 33  1  0  0  0
 19 34  1  0  0  0
 19 35  1  0  0  0
 20 36  1  0  0  0
 20 37  1  0  0  0
 20 38  1  0  0  0
 21 39  1  0  0  0
 21 40  1  0  0  0
 21 41  1  0  0  0
 22 42  1  0  0  0
 22 43  1  0  0  0
 22 44  1  0  0  0
M  END
$$$$
