4uw1_ligand
  -I-interpret- 

 35 37  0  0  0  0  0  0  0  0999 V2000
   18.7530  -18.8210  -20.6940 O   0  0  0  0  0
   19.3210  -18.2030  -21.5910 C   0  0  0  0  0
   18.6350  -17.6880  -22.7860 C   0  0  0  0  0
   17.2650  -17.8910  -22.9420 C   0  0  0  0  0
   16.6120  -17.4100  -24.0640 C   0  0  0  0  0
   17.3090  -16.7230  -25.0420 C   0  0  0  0  0
   20.6700  -17.9500  -21.5280 N   0  0  0  0  0
   21.4040  -17.2650  -22.4820 C   0  0  0  0  0
   20.7760  -16.7930  -23.5860 C   0  0  0  0  0
   19.3640  -16.9930  -23.7680 C   0  0  0  0  0
   18.6710  -16.5180  -24.8950 C   0  0  0  0  0
   19.4450  -15.8550  -25.8070 O   0  0  0  0  0
   18.7990  -15.3440  -26.9700 C   0  0  0  0  0
   22.8420  -17.0850  -22.2190 C   0  0  0  0  0
   23.2820  -16.5410  -21.0170 C   0  0  0  0  0
   24.6330  -16.3740  -20.7730 C   0  0  0  0  0
   25.5810  -16.7420  -21.7140 C   0  0  0  0  0
   25.1410  -17.2840  -22.9110 C   0  0  0  0  0
   23.7920  -17.4550  -23.1640 C   0  0  0  0  0
   27.0540  -16.5580  -21.4420 C   0  0  0  0  0
   16.7056  -18.4305  -22.1777 H   0  0  0  0  0
   15.5404  -17.5738  -24.1778 H   0  0  0  0  0
   16.7895  -16.3454  -25.9227 H   0  0  0  0  0
   21.2320  -17.3437  -24.4087 H   0  0  0  0  0
   20.8853  -15.7109  -23.5134 H   0  0  0  0  0
   18.3428  -16.1661  -27.5215 H   0  0  0  0  0
   18.0287  -14.6323  -26.6731 H   0  0  0  0  0
   19.5332  -14.8441  -27.6018 H   0  0  0  0  0
   22.5556  -16.2437  -20.2606 H   0  0  0  0  0
   24.9574  -15.9457  -19.8246 H   0  0  0  0  0
   25.8698  -17.5804  -23.6654 H   0  0  0  0  0
   23.4708  -17.8839  -24.1132 H   0  0  0  0  0
   27.2613  -15.5018  -21.2701 H   0  0  0  0  0
   27.3337  -17.1329  -20.5592 H   0  0  0  0  0
   27.6271  -16.9069  -22.3010 H   0  0  0  0  0
  1  2  2  0  0  0
  2  3  1  0  0  0
  2  7  1  0  0  0
  3  4  4  0  0  0
  3 10  4  0  0  0
  4  5  4  0  0  0
  5  6  4  0  0  0
  6 11  4  0  0  0
  7  8  2  0  0  0
  8  9  1  0  0  0
  8 14  1  0  0  0
  9 10  1  0  0  0
 10 11  4  0  0  0
 11 12  1  0  0  0
 12 13  1  0  0  0
 14 15  4  0  0  0
 14 19  4  0  0  0
 15 16  4  0  0  0
 16 17  4  0  0  0
 17 18  4  0  0  0
 17 20  1  0  0  0
 18 19  4  0  0  0
  4 21  1  0  0  0
  5 22  1  0  0  0
  6 23  1  0  0  0
  9 24  1  0  0  0
  9 25  1  0  0  0
 13 26  1  0  0  0
 13 27  1  0  0  0
 13 28  1  0  0  0
 15 29  1  0  0  0
 16 30  1  0  0  0
 18 31  1  0  0  0
 19 32  1  0  0  0
 20 33  1  0  0  0
 20 34  1  0  0  0
 20 35  1  0  0  0
M  END
$$$$
