5wio_ligand
  -I-interpret- 

 22 23  0  0  0  0  0  0  0  0999 V2000
   39.0490   14.7380    3.5800 O   0  0  0  0  0
   38.2010   14.0430    4.1990 C   0  0  0  0  0
   38.3710   13.7840    5.4190 O   0  0  0  0  0
   36.9770   13.5220    3.4770 C   0  0  0  0  0
   35.7890   13.3350    4.1670 C   0  0  0  0  0
   37.0450   13.2390    2.1450 N   0  0  0  0  0
   35.9470   12.7690    1.4890 C   0  0  0  0  0
   34.7610   12.5790    2.1780 C   0  0  0  0  0
   34.6930   12.8630    3.5120 C   0  0  0  0  0
   33.4750   12.6660    4.2120 N   0  0  0  0  0
   33.3450   12.1580    5.5110 C   0  0  0  0  0
   31.9880   12.1190    5.8200 C   0  0  0  0  0
   31.2720   12.6030    4.7100 C   0  0  0  0  0
   32.1900   12.9380    3.7220 C   0  0  0  0  0
   38.7714   14.8411    2.6668 H   0  0  0  0  0
   35.7328   13.5653    5.2309 H   0  0  0  0  0
   36.0022   12.5431    0.4241 H   0  0  0  0  0
   33.8815   12.2027    1.6555 H   0  0  0  0  0
   34.1611   11.8483    6.1638 H   0  0  0  0  0
   31.5555   11.7734    6.7589 H   0  0  0  0  0
   30.1886   12.6984    4.6377 H   0  0  0  0  0
   31.9524   13.3418    2.7378 H   0  0  0  0  0
  1  2  1  0  0  0
  2  3  2  0  0  0
  2  4  1  0  0  0
  4  5  4  0  0  0
  4  6  4  0  0  0
  5  9  4  0  0  0
  6  7  4  0  0  0
  7  8  4  0  0  0
  8  9  4  0  0  0
  9 10  1  0  0  0
 10 11  4  0  0  0
 10 14  4  0  0  0
 11 12  4  0  0  0
 12 13  4  0  0  0
 13 14  4  0  0  0
  1 15  1  0  0  0
  5 16  1  0  0  0
  7 17  1  0  0  0
  8 18  1  0  0  0
 11 19  1  0  0  0
 12 20  1  0  0  0
 13 21  1  0  0  0
 14 22  1  0  0  0
M  END
$$$$
