2uwl_ligand
  -I-interpret- 

 50 52  0  0  0  0  0  0  0  0999 V2000
   13.7720    7.5130   26.1530 Cl  0  0  0  0  0
   12.0760    7.7700   26.1550 C   0  0  0  0  0
   11.2160    7.3640   27.1950 C   0  0  0  0  0
    9.8780    7.6550   26.8610 C   0  0  0  0  0
    9.7590    8.2890   25.6240 C   0  0  0  0  0
    8.4660    8.7370   25.0060 C   0  0  0  0  0
    6.6090    9.3300   23.2520 S   0  0  0  0  0
    6.6720   10.6700   22.7810 O   0  0  0  0  0
    5.7930    9.0340   24.3880 O   0  0  0  0  0
    6.1810    8.3880   22.0080 N   0  0  0  0  0
    6.0500    6.9380   22.1510 C   0  0  0  0  0
    4.7340    6.3310   21.6280 C   0  0  0  0  0
    5.1160    4.8570   21.4380 C   0  0  0  0  0
    7.0590    6.1230   21.3770 C   0  0  0  0  0
    8.1980    6.4750   21.1190 O   0  0  0  0  0
    6.5060    4.9530   21.0050 N   0  0  0  0  0
    7.2920    3.9520   20.2640 C   0  0  0  0  0
    7.0800    2.5250   20.7880 C   0  0  0  0  0
    7.0330    3.9740   18.7690 C   0  0  0  0  0
    5.9960    4.4980   18.3700 O   0  0  0  0  0
    7.9590    3.4120   17.9470 N   0  0  0  0  0
    9.2200    2.7930   18.4080 C   0  0  0  0  0
    9.9530    1.9090   17.3900 C   0  0  0  0  0
    9.8980    2.5590   16.1310 O   0  0  0  0  0
    8.5550    2.5620   15.6480 C   0  0  0  0  0
    7.6690    3.4660   16.5110 C   0  0  0  0  0
   11.2650    8.5120   24.8510 S   0  0  0  0  0
    8.2190    8.8190   23.6890 C   0  0  0  0  0
   11.5389    6.8930   28.1234 H   0  0  0  0  0
    9.0289    7.4113   27.4995 H   0  0  0  0  0
    7.6602    9.0194   25.6836 H   0  0  0  0  0
    5.9978    8.8163   21.1006 H   0  0  0  0  0
    6.1601    6.8723   23.2334 H   0  0  0  0  0
    4.3729    6.8046   20.7150 H   0  0  0  0  0
    3.8927    6.4750   22.3059 H   0  0  0  0  0
    4.4781    4.3359   20.7241 H   0  0  0  0  0
    4.9868    4.2594   22.3404 H   0  0  0  0  0
    8.3284    4.2417   20.4370 H   0  0  0  0  0
    7.3784    2.4758   21.8352 H   0  0  0  0  0
    6.0272    2.2582   20.6959 H   0  0  0  0  0
    7.6844    1.8312   20.2037 H   0  0  0  0  0
    8.9528    2.1415   19.2400 H   0  0  0  0  0
    9.8963    3.6160   18.6389 H   0  0  0  0  0
    9.4797    0.9289   17.3304 H   0  0  0  0  0
   10.9892    1.7615   17.6943 H   0  0  0  0  0
    8.1646    1.5451   15.6882 H   0  0  0  0  0
    8.5501    2.9380   14.6249 H   0  0  0  0  0
    7.8497    4.4912   16.1879 H   0  0  0  0  0
    6.6423    3.1241   16.3804 H   0  0  0  0  0
    8.9754    8.5817   22.9410 H   0  0  0  0  0
  2  1  1  0  0  0
  2  3  4  0  0  0
 27  2  4  0  0  0
  4  3  4  0  0  0
  5  4  4  0  0  0
  6  5  1  0  0  0
  5 27  4  0  0  0
 28  6  2  0  0  0
  7  8  2  0  0  0
  7  9  2  0  0  0
  7 10  1  0  0  0
  7 28  1  0  0  0
 10 11  1  0  0  0
 11 12  1  0  0  0
 11 14  1  0  0  0
 12 13  1  0  0  0
 13 16  1  0  0  0
 14 15  2  0  0  0
 14 16  1  0  0  0
 16 17  1  0  0  0
 17 18  1  0  0  0
 17 19  1  0  0  0
 19 20  2  0  0  0
 19 21  1  0  0  0
 21 22  1  0  0  0
 21 26  1  0  0  0
 22 23  1  0  0  0
 23 24  1  0  0  0
 24 25  1  0  0  0
 25 26  1  0  0  0
  3 29  1  0  0  0
  4 30  1  0  0  0
  6 31  1  0  0  0
 10 32  1  0  0  0
 11 33  1  0  0  0
 12 34  1  0  0  0
 12 35  1  0  0  0
 13 36  1  0  0  0
 13 37  1  0  0  0
 17 38  1  0  0  0
 18 39  1  0  0  0
 18 40  1  0  0  0
 18 41  1  0  0  0
 22 42  1  0  0  0
 22 43  1  0  0  0
 23 44  1  0  0  0
 23 45  1  0  0  0
 25 46  1  0  0  0
 25 47  1  0  0  0
 26 48  1  0  0  0
 26 49  1  0  0  0
 28 50  1  0  0  0
M  END
$$$$
