2wf5_ligand
  -I-interpret- 

 29 29  0  0  0  0  0  0  0  0999 V2000
   12.6590   -5.7030   12.5910 C   0  0  0  0  0
   11.5390   -6.5360   12.0530 C   0  0  0  0  0
   12.8670   -4.5760   11.7340 O   0  0  0  0  0
   13.8610   -6.4490   12.5540 O   0  0  0  0  0
   11.4000   -7.8880   12.7620 C   0  0  0  0  0
   10.3180   -5.8300   12.1620 O   0  0  0  0  0
   12.7800   -8.5850   12.7700 C   0  0  0  0  0
   10.4130   -8.6660   12.1240 O   0  0  0  0  0
   13.8330   -7.6290   13.3250 C   0  0  0  0  0
   12.7230   -9.7570   13.5800 O   0  0  0  0  0
   15.2530   -8.2710   13.3620 C   0  0  0  0  0
   15.6480   -8.4260   12.0380 O   0  0  0  0  0
   16.9780   -9.2600   11.6540 P   0  0  0  0  0
   17.1640   -8.8820   10.1920 O   0  0  0  0  0
   18.0740   -8.7340   12.5330 O   0  0  0  0  0
   16.7130  -10.7150   11.8900 O   0  0  0  0  0
   12.4054   -5.3974   13.6061 H   0  0  0  0  0
   11.7772   -6.7380   11.0087 H   0  0  0  0  0
   12.0754   -4.0331   11.7234 H   0  0  0  0  0
   11.0789   -7.7509   13.7946 H   0  0  0  0  0
   10.3994   -4.9820   11.7194 H   0  0  0  0  0
   13.0471   -8.8655   11.7511 H   0  0  0  0  0
    9.5758   -8.1965   12.1422 H   0  0  0  0  0
   13.5536   -7.3960   14.3525 H   0  0  0  0  0
   12.0601  -10.3558   13.2283 H   0  0  0  0  0
   15.2354   -9.2300   13.8799 H   0  0  0  0  0
   15.9538   -7.6394   13.9080 H   0  0  0  0  0
   17.3286   -7.9386   10.1250 H   0  0  0  0  0
   18.2102   -7.8016   12.3494 H   0  0  0  0  0
  1  2  1  0  0  0
  1  3  1  0  0  0
  1  4  1  0  0  0
  2  5  1  0  0  0
  2  6  1  0  0  0
  4  9  1  0  0  0
  5  7  1  0  0  0
  5  8  1  0  0  0
  7  9  1  0  0  0
  7 10  1  0  0  0
  9 11  1  0  0  0
 11 12  1  0  0  0
 12 13  1  0  0  0
 13 14  1  0  0  0
 13 15  1  0  0  0
 13 16  2  0  0  0
  1 17  1  0  0  0
  2 18  1  0  0  0
  3 19  1  0  0  0
  5 20  1  0  0  0
  6 21  1  0  0  0
  7 22  1  0  0  0
  8 23  1  0  0  0
  9 24  1  0  0  0
 10 25  1  0  0  0
 11 26  1  0  0  0
 11 27  1  0  0  0
 14 28  1  0  0  0
 15 29  1  0  0  0
M  END
$$$$
