### 
### Created by X-TOOL on Mon Sep 10 21:13:09 2018
### 

@<TRIPOS>MOLECULE
4e3j_ligand
   29    30     1     0     0
SMALL
GAST_HUCK


@<TRIPOS>ATOM
      1 B03        26.0310    5.0940   16.2120 B         1 0N4         1.0000
      2 O04        26.1850    5.9040   17.4140 O.3       1 0N4        -0.8710
      3 O05        24.9950    4.0830   16.4540 O.3       1 0N4        -0.8710
      4 C06        25.7080    6.0270   14.9760 C.3       1 0N4        -0.2500
      5 N07        24.5610    6.9110   15.1320 N.am      1 0N4        -0.3987
      6 S08        23.9410    7.7430   13.9000 S.o2      1 0N4         0.0436
      7 O09        23.0800    8.7320   14.4500 O.2       1 0N4        -0.1521
      8 O10        24.9260    8.4090   13.1270 O.2       1 0N4        -0.1521
      9 C11        22.9660    6.7580   12.8230 C.ar      1 0N4         0.1092
     10 C12        23.4480    6.3290   11.5750 C.ar      1 0N4        -0.0303
     11 C13        22.6160    5.5650   10.7060 C.ar      1 0N4        -0.0421
     12 C14        21.3230    5.2330   11.1020 C.ar      1 0N4         0.0405
     13 C15        20.5090    4.5020   10.2580 C.2       1 0N4         0.1858
     14 N16        20.6800    4.3510    8.8920 N.pl3     1 0N4        -0.1508
     15 N17        19.6490    3.6200    8.4430 N.2       1 0N4        -0.0637
     16 N18        18.8280    3.3160    9.5500 N.2       1 0N4        -0.1384
     17 N19        19.3910    3.8690   10.6450 N.2       1 0N4        -0.2072
     18 C20        20.8240    5.6810   12.3430 C.ar      1 0N4        -0.0421
     19 C21        21.6470    6.4470   13.1990 C.ar      1 0N4        -0.0303
     20 H          26.4437    5.3408   18.1471 H         1 0N4        -0.1290
     21 H          24.8858    3.5437   15.6674 H         1 0N4        -0.1290
     22 H          25.4749    5.3643   14.1426 H         1 0N4        -0.1900
     23 H          26.5770    6.6710   14.8410 H         1 0N4        -0.1900
     24 H          24.1353    7.0066   16.0540 H         1 0N4         0.1257
     25 H          24.4634    6.5818   11.2699 H         1 0N4         0.0647
     26 H          22.9905    5.2417    9.7348 H         1 0N4         0.0663
     27 H          21.4462    4.7254    8.3324 H         1 0N4         0.2707
     28 H          19.8045    5.4365   12.6414 H         1 0N4         0.0663
     29 H          21.2579    6.7983   14.1547 H         1 0N4         0.0647
@<TRIPOS>BOND
     1    1    2 1  
     2    1    3 1  
     3    1    4 1  
     4    4    5 1  
     5    5    6 am 
     6    6    7 2  
     7    6    8 2  
     8    6    9 1  
     9    9   10 ar 
    10    9   19 ar 
    11   10   11 ar 
    12   11   12 ar 
    13   12   13 1  
    14   12   18 ar 
    15   13   14 1  
    16   13   17 2  
    17   14   15 1  
    18   15   16 2  
    19   16   17 1  
    20   18   19 ar 
    21    2   20 1  
    22    3   21 1  
    23    4   22 1  
    24    4   23 1  
    25    5   24 1  
    26   10   25 1  
    27   11   26 1  
    28   14   27 1  
    29   18   28 1  
    30   19   29 1  
@<TRIPOS>SUBSTRUCTURE
     1 0N4         1

