4e3j_ligand
  -I-interpret- 

 28 29  0  0  0  0  0  0  0  0999 V2000
   26.0310    5.0940   16.2120 B   0  0  0  0  0
   26.1850    5.9040   17.4140 O   0  0  0  0  0
   24.9950    4.0830   16.4540 O   0  0  0  0  0
   25.7080    6.0270   14.9760 C   0  0  0  0  0
   24.5610    6.9110   15.1320 N   0  0  0  0  0
   23.9410    7.7430   13.9000 S   0  0  0  0  0
   23.0800    8.7320   14.4500 O   0  0  0  0  0
   24.9260    8.4090   13.1270 O   0  0  0  0  0
   22.9660    6.7580   12.8230 C   0  0  0  0  0
   23.4480    6.3290   11.5750 C   0  0  0  0  0
   22.6160    5.5650   10.7060 C   0  0  0  0  0
   21.3230    5.2330   11.1020 C   0  0  0  0  0
   20.5090    4.5020   10.2580 C   0  0  0  0  0
   20.6800    4.3510    8.8920 N   0  0  0  0  0
   19.6490    3.6200    8.4430 N   0  0  0  0  0
   18.8280    3.3160    9.5500 N   0  0  0  0  0
   19.3910    3.8690   10.6450 N   0  0  0  0  0
   20.8240    5.6810   12.3430 C   0  0  0  0  0
   21.6470    6.4470   13.1990 C   0  0  0  0  0
   26.3808    5.3329   18.1604 H   0  0  0  0  0
   25.2423    3.5481   17.2118 H   0  0  0  0  0
   25.4749    5.3643   14.1426 H   0  0  0  0  0
   26.5770    6.6710   14.8410 H   0  0  0  0  0
   24.1353    7.0066   16.0540 H   0  0  0  0  0
   24.4634    6.5818   11.2699 H   0  0  0  0  0
   22.9905    5.2417    9.7348 H   0  0  0  0  0
   19.8045    5.4365   12.6414 H   0  0  0  0  0
   21.2579    6.7983   14.1547 H   0  0  0  0  0
  1  2  1  0  0  0
  1  3  1  0  0  0
  1  4  1  0  0  0
  4  5  1  0  0  0
  5  6  1  0  0  0
  6  7  2  0  0  0
  6  8  2  0  0  0
  6  9  1  0  0  0
  9 10  4  0  0  0
  9 19  4  0  0  0
 10 11  4  0  0  0
 11 12  4  0  0  0
 12 13  1  0  0  0
 12 18  4  0  0  0
 13 14  4  0  0  0
 13 17  4  0  0  0
 14 15  4  0  0  0
 15 16  4  0  0  0
 16 17  4  0  0  0
 18 19  4  0  0  0
  2 20  1  0  0  0
  3 21  1  0  0  0
  4 22  1  0  0  0
  4 23  1  0  0  0
  5 24  1  0  0  0
 10 25  1  0  0  0
 11 26  1  0  0  0
 18 27  1  0  0  0
 19 28  1  0  0  0
M  END
$$$$
