3t4h_ligand
  -I-interpret- 

 34 34  0  0  0  0  0  0  0  0999 V2000
   -4.1580    1.3920   -0.8140 C   0  0  0  0  0
   -3.2520    0.3820    1.1900 N   0  0  0  0  0
   -4.4760    2.3710   -1.5030 O   0  0  0  0  0
   -3.7560    1.6610    0.6620 C   0  0  0  0  0
   -2.5490    2.6300    0.6760 C   0  0  0  0  0
   -2.8990   -1.2870    2.8840 C   0  0  0  0  0
   -3.4690    0.0420    2.4750 C   0  0  0  0  0
   -4.0980    0.7110    3.2780 O   0  0  0  0  0
   -3.0490   -1.6930    4.0630 O   0  0  0  0  0
   -2.3020   -1.9900    2.0410 O   0  0  0  0  0
   -1.6770    2.9870    2.2780 S   0  0  0  0  0
   -2.7150    4.0820    3.2620 C   0  0  0  0  0
   -2.2250    4.2980    4.5690 C   0  0  0  0  0
   -1.1060    3.6620    5.1100 C   0  0  0  0  0
   -0.7140    3.9290    6.4330 C   0  0  0  0  0
   -1.4410    4.8210    7.2370 C   0  0  0  0  0
   -2.5620    5.4530    6.6850 C   0  0  0  0  0
   -2.9330    5.1740    5.3790 C   0  0  0  0  0
   -3.3610    6.3270    7.3040 N   0  0  0  0  0
   -3.1520    6.6820    8.5050 O   0  0  0  0  0
   -4.4630    6.8510    6.5510 O   0  0  0  0  0
   -4.1060    0.2190   -1.2520 O   0  0  0  0  0
   -2.7354   -0.2503    0.5787 H   0  0  0  0  0
   -4.5951    2.0651    1.2284 H   0  0  0  0  0
   -2.9624    3.5901    0.3671 H   0  0  0  0  0
   -1.7970    2.1429    0.0552 H   0  0  0  0  0
   -3.5257   -1.0315    4.5698 H   0  0  0  0  0
   -3.6941    3.6117    3.3526 H   0  0  0  0  0
   -2.7421    5.0482    2.7582 H   0  0  0  0  0
   -0.5354    2.9572    4.5052 H   0  0  0  0  0
    0.1682    3.4358    6.8411 H   0  0  0  0  0
   -1.1401    5.0169    8.2662 H   0  0  0  0  0
   -3.8177    5.6631    4.9714 H   0  0  0  0  0
   -3.8382   -0.3735   -0.5457 H   0  0  0  0  0
  1  3  2  0  0  0
  1  4  1  0  0  0
  1 22  1  0  0  0
  4  2  1  0  0  0
  2  7  1  0  0  0
  4  5  1  0  0  0
  5 11  1  0  0  0
  7  6  1  0  0  0
  6  9  1  0  0  0
  6 10  2  0  0  0
  7  8  2  0  0  0
 11 12  1  0  0  0
 12 13  1  0  0  0
 13 14  4  0  0  0
 13 18  4  0  0  0
 14 15  4  0  0  0
 15 16  4  0  0  0
 16 17  4  0  0  0
 17 18  4  0  0  0
 17 19  1  0  0  0
 19 20  2  0  0  0
 19 21  2  0  0  0
  2 23  1  0  0  0
  4 24  1  0  0  0
  5 25  1  0  0  0
  5 26  1  0  0  0
  9 27  1  0  0  0
 12 28  1  0  0  0
 12 29  1  0  0  0
 14 30  1  0  0  0
 15 31  1  0  0  0
 16 32  1  0  0  0
 18 33  1  0  0  0
 22 34  1  0  0  0
M  END
$$$$
