3uug_ligand
  -I-interpret- 

 23 23  0  0  0  0  0  0  0  0999 V2000
  -62.8200   16.1970    6.1490 C   0  0  0  0  0
  -64.2200   15.6490    5.9100 C   0  0  0  0  0
  -64.5700   14.7360    7.0740 C   0  0  0  0  0
  -63.5230   13.6300    7.1620 C   0  0  0  0  0
  -62.1090   14.2140    7.1560 C   0  0  0  0  0
  -61.0850   13.0860    7.0590 C   0  0  0  0  0
  -65.1710   16.6810    5.8090 O   0  0  0  0  0
  -65.8660   14.2150    6.8740 O   0  0  0  0  0
  -63.6900   12.8910    8.3540 O   0  0  0  0  0
  -61.9360   15.1020    6.0660 O   0  0  0  0  0
  -60.2460   13.1330    6.1450 O   0  0  0  0  0
  -62.4940   17.1280    5.1500 O   0  0  0  0  0
  -61.1340   12.1640    7.9030 O   0  0  0  0  0
  -62.7569   16.6919    7.1181 H   0  0  0  0  0
  -64.2350   15.1027    4.9669 H   0  0  0  0  0
  -64.5679   15.2835    8.0165 H   0  0  0  0  0
  -63.6557   12.9832    6.2948 H   0  0  0  0  0
  -61.9620   14.7666    8.0839 H   0  0  0  0  0
  -64.9437   17.2531    5.0724 H   0  0  0  0  0
  -66.4960   14.9377    6.8238 H   0  0  0  0  0
  -64.5735   12.5161    8.3756 H   0  0  0  0  0
  -63.0938   17.8757    5.2029 H   0  0  0  0  0
  -61.8563   12.3286    8.5135 H   0  0  0  0  0
  1  2  1  0  0  0
  1 10  1  0  0  0
  1 12  1  0  0  0
  2  3  1  0  0  0
  2  7  1  0  0  0
  3  4  1  0  0  0
  3  8  1  0  0  0
  4  5  1  0  0  0
  4  9  1  0  0  0
  5  6  1  0  0  0
  5 10  1  0  0  0
  6 11  2  0  0  0
  6 13  1  0  0  0
  1 14  1  0  0  0
  2 15  1  0  0  0
  3 16  1  0  0  0
  4 17  1  0  0  0
  5 18  1  0  0  0
  7 19  1  0  0  0
  8 20  1  0  0  0
  9 21  1  0  0  0
 12 22  1  0  0  0
 13 23  1  0  0  0
M  END
$$$$
