6bfd_ligand
  -I-interpret- 

 68 70  0  0  0  0  0  0  0  0999 V2000
   27.2020   58.8350   90.7800 C   0  0  0  0  0
   24.0170   55.9420   89.3820 N   0  0  0  0  0
   25.8430   58.6360   90.5820 C   0  0  0  0  0
   25.5440   57.7200   89.5760 C   0  0  0  0  0
   24.1440   57.3110   89.3230 C   0  0  0  0  0
   23.2170   58.0960   89.1870 O   0  0  0  0  0
   28.2160   58.2100   90.1740 N   0  0  0  0  0
   27.8980   57.3150   89.2270 C   0  0  0  0  0
   26.5660   57.0780   88.8930 C   0  0  0  0  0
   28.9900   56.6620   88.6380 N   0  0  0  0  0
   28.7310   55.5570   87.6980 C   0  0  0  0  0
   28.8750   56.1330   86.3030 C   0  0  0  0  0
   29.8350   54.5300   87.8480 C   0  0  0  0  0
   29.7420   53.6840   89.0880 C   0  0  0  0  0
   27.8750   59.9260   92.0210 S   0  0  0  0  0
   28.7820   59.1890   92.9030 O   0  0  0  0  0
   28.5270   60.9880   91.2390 O   0  0  0  0  0
   26.5200   60.6410   92.7690 C   0  0  0  0  0
   22.8250   55.2280   88.9870 C   0  0  0  0  0
   22.2480   54.4250   90.1620 C   0  0  0  0  0
   21.0980   53.6670   89.7580 O   0  0  0  0  0
   21.8520   55.2820   91.3670 C   0  0  0  0  0
   20.8030   56.3280   91.0450 C   0  0  0  0  0
   20.0900   56.5190   92.3640 C   0  0  0  0  0
   20.2820   55.2350   93.1350 C   0  0  0  0  0
   21.2750   54.4320   92.4080 N   0  3  0  0  0
   23.1250   54.3270   87.7660 C   0  0  0  0  0
   23.9220   54.9880   86.6800 C   0  0  0  0  0
   25.0350   54.3290   86.1830 C   0  0  0  0  0
   25.7820   54.8820   85.1610 C   0  0  0  0  0
   25.4370   56.1230   84.6320 C   0  0  0  0  0
   24.3300   56.7850   85.1380 C   0  0  0  0  0
   23.5690   56.2220   86.1510 C   0  0  0  0  0
   24.8104   55.4001   89.7244 H   0  0  0  0  0
   25.0773   59.1509   91.1623 H   0  0  0  0  0
   26.3256   56.3827   88.0887 H   0  0  0  0  0
   29.9451   56.9462   88.8559 H   0  0  0  0  0
   27.7514   55.1140   87.8776 H   0  0  0  0  0
   28.1521   56.9374   86.1670 H   0  0  0  0  0
   29.8843   56.5244   86.1753 H   0  0  0  0  0
   28.6918   55.3499   85.5673 H   0  0  0  0  0
   30.7740   55.0802   87.9089 H   0  0  0  0  0
   29.7576   53.8542   86.9963 H   0  0  0  0  0
   29.7858   54.3255   89.9681 H   0  0  0  0  0
   28.7997   53.1362   89.0827 H   0  0  0  0  0
   30.5733   52.9793   89.1087 H   0  0  0  0  0
   25.9178   59.8664   93.2438 H   0  0  0  0  0
   26.8562   61.3540   93.5218 H   0  0  0  0  0
   25.9227   61.1581   92.0180 H   0  0  0  0  0
   22.0641   55.9507   88.6923 H   0  0  0  0  0
   23.0602   53.7665   90.4700 H   0  0  0  0  0
   20.7591   53.1763   90.5103 H   0  0  0  0  0
   22.7674   55.7808   91.6853 H   0  0  0  0  0
   20.1312   56.0175   90.2448 H   0  0  0  0  0
   21.2348   57.2529   90.6625 H   0  0  0  0  0
   19.0319   56.7321   92.2120 H   0  0  0  0  0
   20.4953   57.3705   92.9106 H   0  0  0  0  0
   19.3393   54.6941   93.2182 H   0  0  0  0  0
   20.6267   55.4446   94.1476 H   0  0  0  0  0
   22.0021   54.1035   93.0435 H   0  0  0  0  0
   20.8348   53.6103   91.9939 H   0  0  0  0  0
   22.1642   54.0512   87.3314 H   0  0  0  0  0
   23.7183   53.4878   88.1290 H   0  0  0  0  0
   25.3238   53.3652   86.6024 H   0  0  0  0  0
   26.6448   54.3448   84.7672 H   0  0  0  0  0
   26.0290   56.5670   83.8317 H   0  0  0  0  0
   24.0543   57.7595   84.7351 H   0  0  0  0  0
   22.6937   56.7482   86.5320 H   0  0  0  0  0
  3  1  4  0  0  0
  1  7  4  0  0  0
  1 15  1  0  0  0
  5  2  1  0  0  0
  2 19  1  0  0  0
  4  3  4  0  0  0
  4  5  1  0  0  0
  4  9  4  0  0  0
  5  6  2  0  0  0
  7  8  4  0  0  0
  8  9  4  0  0  0
  8 10  1  0  0  0
 10 11  1  0  0  0
 11 12  1  0  0  0
 11 13  1  0  0  0
 13 14  1  0  0  0
 15 16  2  0  0  0
 15 17  2  0  0  0
 15 18  1  0  0  0
 19 20  1  0  0  0
 19 27  1  0  0  0
 20 21  1  0  0  0
 20 22  1  0  0  0
 22 23  1  0  0  0
 22 26  1  0  0  0
 23 24  1  0  0  0
 24 25  1  0  0  0
 25 26  1  0  0  0
 27 28  1  0  0  0
 28 29  4  0  0  0
 28 33  4  0  0  0
 29 30  4  0  0  0
 30 31  4  0  0  0
 31 32  4  0  0  0
 32 33  4  0  0  0
  2 34  1  0  0  0
  3 35  1  0  0  0
  9 36  1  0  0  0
 10 37  1  0  0  0
 11 38  1  0  0  0
 12 39  1  0  0  0
 12 40  1  0  0  0
 12 41  1  0  0  0
 13 42  1  0  0  0
 13 43  1  0  0  0
 14 44  1  0  0  0
 14 45  1  0  0  0
 14 46  1  0  0  0
 18 47  1  0  0  0
 18 48  1  0  0  0
 18 49  1  0  0  0
 19 50  1  0  0  0
 20 51  1  0  0  0
 21 52  1  0  0  0
 22 53  1  0  0  0
 23 54  1  0  0  0
 23 55  1  0  0  0
 24 56  1  0  0  0
 24 57  1  0  0  0
 25 58  1  0  0  0
 25 59  1  0  0  0
 26 60  1  0  0  0
 26 61  1  0  0  0
 27 62  1  0  0  0
 27 63  1  0  0  0
 29 64  1  0  0  0
 30 65  1  0  0  0
 31 66  1  0  0  0
 32 67  1  0  0  0
 33 68  1  0  0  0
M  END
$$$$
