### 
### Created by X-TOOL on Mon Sep 10 21:13:11 2018
### 

@<TRIPOS>MOLECULE
3ask_ligand
  180   179     1     0     0
SMALL
GAST_HUCK


@<TRIPOS>ATOM
      1 N          30.3870  -28.0800   69.2470 N.4       1 ALA         0.2377
      2 CA         31.8340  -27.9180   69.3490 C.3       1 ALA         0.0621
      3 C          32.2350  -26.8510   68.3630 C.2       1 ALA         0.2264
      4 O          32.1680  -27.0580   67.1500 O.2       1 ALA        -0.3907
      5 CB         32.5350  -29.2190   69.0310 C.3       1 ALA        -0.0040
      6 N          32.6480  -25.7010   68.8770 N.am      1 ARG        -0.2610
      7 CA         32.7440  -24.5200   68.0320 C.3       1 ARG         0.1312
      8 C          34.0820  -24.3850   67.2890 C.2       1 ARG         0.2040
      9 O          35.1090  -24.0570   67.8940 O.2       1 ARG        -0.3944
     10 CB         32.4240  -23.2730   68.8580 C.3       1 ARG        -0.0092
     11 CG         31.3910  -22.3640   68.2100 C.3       1 ARG        -0.0156
     12 CD         30.5600  -21.6290   69.2530 C.3       1 ARG         0.0627
     13 NE         31.3870  -20.9190   70.2260 N.pl3     1 ARG        -0.2723
     14 CZ         32.1000  -19.8390   69.9400 C.cat     1 ARG         0.2882
     15 NH1        32.0910  -19.3520   68.7070 N.pl3     1 ARG        -0.2849
     16 NH2        32.8210  -19.2470   70.8830 N.pl3     1 ARG        -0.2849
     17 N          34.0580  -24.6410   65.9770 N.am      1 THR        -0.2613
     18 CA         35.2530  -24.5130   65.1340 C.3       1 THR         0.1565
     19 C          35.4110  -23.0980   64.5860 C.2       1 THR         0.2065
     20 O          34.4300  -22.4500   64.2240 O.2       1 THR        -0.3943
     21 CB         35.2410  -25.4880   63.9210 C.3       1 THR         0.0924
     22 OG1        34.2630  -25.0640   62.9610 O.3       1 THR        -0.3874
     23 CG2        34.9520  -26.9250   64.3530 C.3       1 THR        -0.0346
     24 N          36.6480  -22.6200   64.5110 N.am      1 LYS        -0.2637
     25 CA         36.9030  -21.3170   63.9070 C.3       1 LYS         0.1310
     26 C          36.5610  -21.3340   62.4160 C.2       1 LYS         0.2039
     27 O          36.5520  -20.2930   61.7730 O.2       1 LYS        -0.3944
     28 CB         38.3470  -20.8650   64.1390 C.3       1 LYS        -0.0122
     29 CG         38.6320  -19.4140   63.7660 C.3       1 LYS        -0.0440
     30 CD         37.6790  -18.4620   64.4690 C.3       1 LYS        -0.0124
     31 CE         37.9680  -17.0160   64.0960 C.3       1 LYS        -0.0354
     32 NZ         39.3540  -16.6140   64.4630 N.4       1 LYS         0.2185
     33 N          36.2770  -22.5090   61.8630 N.am      1 GLN        -0.2636
     34 CA         35.6540  -22.5490   60.5490 C.3       1 GLN         0.1330
     35 C          34.2040  -22.1300   60.6830 C.2       1 GLN         0.2041
     36 O          33.6930  -21.3540   59.8830 O.2       1 GLN        -0.3944
     37 CB         35.6620  -23.9440   59.9330 C.3       1 GLN         0.0045
     38 CG         34.5080  -24.0950   58.9170 C.3       1 GLN         0.0412
     39 CD         34.2740  -25.5180   58.4330 C.2       1 GLN         0.1737
     40 OE1        33.8280  -25.7200   57.3070 O.2       1 GLN        -0.3973
     41 NE2        34.5670  -26.5080   59.2800 N.am      1 GLN        -0.3009
     42 N          33.5410  -22.6800   61.6890 N.am      1 THR        -0.2613
     43 CA         32.1330  -22.4090   61.9200 C.3       1 THR         0.1565
     44 C          31.9130  -20.9410   62.1880 C.2       1 THR         0.2065
     45 O          31.1750  -20.2750   61.4680 O.2       1 THR        -0.3943
     46 CB         31.6090  -23.1910   63.1310 C.3       1 THR         0.0924
     47 OG1        31.1830  -24.4920   62.7100 O.3       1 THR        -0.3874
     48 CG2        30.4420  -22.4500   63.7860 C.3       1 THR        -0.0346
     49 N          32.5620  -20.4350   63.2290 N.am      1 ALA        -0.2639
     50 CA         32.3160  -19.0720   63.6770 C.3       1 ALA         0.1282
     51 C          32.8180  -18.0080   62.6980 C.2       1 ALA         0.2036
     52 O          32.4740  -16.8350   62.8290 O.2       1 ALA        -0.3944
     53 CB         32.9010  -18.8530   65.0620 C.3       1 ALA        -0.0244
     54 N          33.6170  -18.4190   61.7150 N.am      1 ARG        -0.2637
     55 CA         34.1570  -17.4880   60.7300 C.3       1 ARG         0.1311
     56 C          33.0220  -16.7020   60.0740 C.2       1 ARG         0.2039
     57 O          33.2680  -15.7960   59.2820 O.2       1 ARG        -0.3944
     58 CB         35.0030  -18.2320   59.6860 C.3       1 ARG        -0.0092
     59 CG         35.9840  -17.3590   58.8990 C.3       1 ARG        -0.0156
     60 CD         36.7280  -18.1610   57.8190 C.3       1 ARG         0.0627
     61 NE         37.1630  -17.3080   56.7080 N.pl3     1 ARG        -0.2723
     62 CZ         38.0840  -17.6560   55.8160 C.cat     1 ARG         0.2882
     63 NH1        38.6740  -18.8410   55.8960 N.pl3     1 ARG        -0.2849
     64 NH2        38.4170  -16.8180   54.8450 N.pl3     1 ARG        -0.2849
     65 N          31.7820  -17.0680   60.4040 N.am      1 M3L        -0.2637
     66 CA         30.5930  -16.2770   60.0670 C.3       1 M3L         0.1309
     67 CB         29.6610  -16.9150   58.9960 C.3       1 M3L        -0.0122
     68 CG         30.3020  -17.5510   57.7310 C.3       1 M3L        -0.0440
     69 CD         29.4570  -17.8410   56.4450 C.3       1 M3L        -0.0123
     70 CE         30.2210  -18.0760   55.1080 C.3       1 M3L        -0.0309
     71 NZ         29.5890  -18.8880   54.0290 N.4       1 M3L         0.2369
     72 C          29.8210  -15.8690   61.3430 C.2       1 M3L         0.2034
     73 O          29.0200  -16.6010   61.8380 O.2       1 M3L        -0.3944
     74 CM1        30.2950  -18.7050   52.7800 C.3       1 M3L        -0.0418
     75 CM2        29.7610  -20.2390   54.5250 C.3       1 M3L        -0.0418
     76 CM3        28.1790  -18.8610   53.6730 C.3       1 M3L        -0.0418
     77 N          30.1370  -14.6680   61.8440 N.am      1 SER        -0.2672
     78 CA         29.5140  -14.0590   63.0340 C.3       1 SER         0.1173
     79 C          28.0360  -14.4380   63.2110 C.2       1 SER         0.0623
     80 O          27.6920  -15.4569   63.8675 O.co2     1 SER        -0.5665
     81 CB         29.6780  -12.5230   62.9800 C.3       1 SER         0.0789
     82 OG         29.1740  -11.8630   64.1380 O.3       1 SER        -0.3910
     83 H          29.9307  -27.1940   69.4644 H         1 ALA         0.2015
     84 H          30.1440  -28.3651   68.2983 H         1 ALA         0.2015
     85 H          30.0786  -28.7937   69.9073 H         1 ALA         0.2015
     86 H          32.1175  -27.6322   70.3619 H         1 ALA         0.1095
     87 H          32.2611  -29.5417   68.0265 H         1 ALA         0.0310
     88 H          33.6136  -29.0717   69.0852 H         1 ALA         0.0310
     89 H          32.2339  -29.9783   69.7527 H         1 ALA         0.0310
     90 H          32.8984  -25.6439   69.8641 H         1 ARG         0.1884
     91 H          32.0036  -24.6339   67.2402 H         1 ARG         0.0800
     92 H          33.3465  -22.7011   68.9582 H         1 ARG         0.0313
     93 H          32.0138  -23.6078   69.8108 H         1 ARG         0.0313
     94 H          30.7223  -22.9774   67.6061 H         1 ARG         0.0301
     95 H          31.9142  -21.6253   67.6029 H         1 ARG         0.0301
     96 H          29.9653  -22.3671   69.7912 H         1 ARG         0.0689
     97 H          29.9429  -20.8944   68.7356 H         1 ARG         0.0689
     98 H          31.4174  -21.2754   71.1812 H         1 ARG         0.2642
     99 H          31.5367  -19.8083   67.9825 H         1 ARG         0.2615
    100 H          32.6384  -18.5210   68.4829 H         1 ARG         0.2615
    101 H          32.8277  -19.6228   71.8312 H         1 ARG         0.2615
    102 H          33.3687  -18.4160   70.6599 H         1 ARG         0.2615
    103 H          33.1806  -24.9349   65.5477 H         1 THR         0.1884
    104 H          36.0875  -24.7615   65.7898 H         1 THR         0.0826
    105 H          36.2329  -25.4669   63.4695 H         1 THR         0.0639
    106 H          34.4791  -24.1803   62.6547 H         1 THR         0.2101
    107 H          35.7213  -27.2548   65.0512 H         1 THR         0.0257
    108 H          33.9768  -26.9681   64.8380 H         1 THR         0.0257
    109 H          34.9525  -27.5735   63.4769 H         1 THR         0.0257
    110 H          37.4256  -23.1683   64.8786 H         1 LYS         0.1883
    111 H          36.2531  -20.5905   64.3948 H         1 LYS         0.0800
    112 H          38.9783  -21.4848   63.5023 H         1 LYS         0.0312
    113 H          38.5402  -20.9604   65.2075 H         1 LYS         0.0312
    114 H          38.5013  -19.3017   62.6897 H         1 LYS         0.0269
    115 H          39.6500  -19.1721   64.0714 H         1 LYS         0.0269
    116 H          37.8068  -18.5750   65.5456 H         1 LYS         0.0317
    117 H          36.6605  -18.7023   64.1640 H         1 LYS         0.0317
    118 H          37.2717  -16.3773   64.6394 H         1 LYS         0.0813
    119 H          37.8568  -16.9128   63.0166 H         1 LYS         0.0813
    120 H          39.5063  -15.6412   64.1969 H         1 LYS         0.1994
    121 H          39.4810  -16.7162   65.4699 H         1 LYS         0.1994
    122 H          40.0207  -17.2102   63.9727 H         1 LYS         0.1994
    123 H          36.4941  -23.3753   62.3558 H         1 GLN         0.1883
    124 H          36.2267  -21.8807   59.9059 H         1 GLN         0.0801
    125 H          35.5341  -24.6813   60.7256 H         1 GLN         0.0337
    126 H          36.6098  -24.0973   59.4170 H         1 GLN         0.0337
    127 H          34.7736  -23.5008   58.0427 H         1 GLN         0.0504
    128 H          33.5958  -23.7761   59.4213 H         1 GLN         0.0504
    129 H          34.4220  -27.4781   59.0003 H         1 GLN         0.1814
    130 H          34.9358  -26.2940   60.2066 H         1 GLN         0.1814
    131 H          34.0336  -23.3123   62.3199 H         1 THR         0.1884
    132 H          31.5974  -22.7166   61.0219 H         1 THR         0.0826
    133 H          32.4113  -23.2869   63.8625 H         1 THR         0.0639
    134 H          31.9256  -24.9607   62.3222 H         1 THR         0.2101
    135 H          30.7775  -21.4673   64.1175 H         1 THR         0.0257
    136 H          29.6346  -22.3348   63.0628 H         1 THR         0.0257
    137 H          30.0853  -23.0217   64.6428 H         1 THR         0.0257
    138 H          33.2441  -21.0103   63.7231 H         1 ALA         0.1883
    139 H          31.2334  -18.9529   63.7210 H         1 ALA         0.0797
    140 H          32.4380  -19.5461   65.7644 H         1 ALA         0.0277
    141 H          33.9765  -19.0279   65.0326 H         1 ALA         0.0277
    142 H          32.7068  -17.8284   65.3792 H         1 ALA         0.0277
    143 H          33.8571  -19.4081   61.6492 H         1 ARG         0.1883
    144 H          34.8122  -16.7787   61.2358 H         1 ARG         0.0800
    145 H          34.3063  -18.6517   58.9604 H         1 ARG         0.0313
    146 H          35.6016  -18.9618   60.2311 H         1 ARG         0.0313
    147 H          36.7208  -16.9600   59.5961 H         1 ARG         0.0301
    148 H          35.4181  -16.5678   58.4073 H         1 ARG         0.0301
    149 H          36.0482  -18.9162   57.4246 H         1 ARG         0.0689
    150 H          37.6121  -18.6084   58.2733 H         1 ARG         0.0689
    151 H          36.7308  -16.3889   56.6142 H         1 ARG         0.2642
    152 H          38.4209  -19.4873   56.6434 H         1 ARG         0.2615
    153 H          39.3808  -19.1061   55.2101 H         1 ARG         0.2615
    154 H          37.9661  -15.9052   54.7821 H         1 ARG         0.2615
    155 H          39.1242  -17.0857   54.1605 H         1 ARG         0.2615
    156 H          31.6543  -17.9409   60.9159 H         1 M3L         0.1883
    157 H          30.9715  -15.3759   59.5845 H         1 M3L         0.0800
    158 H          29.0542  -16.0905   58.6217 H         1 M3L         0.0312
    159 H          29.1656  -17.7402   59.5075 H         1 M3L         0.0312
    160 H          30.6143  -18.5400   58.0662 H         1 M3L         0.0269
    161 H          31.0274  -16.8061   57.4038 H         1 M3L         0.0269
    162 H          28.8585  -16.9445   56.2831 H         1 M3L         0.0317
    163 H          28.9327  -18.7750   56.6472 H         1 M3L         0.0317
    164 H          31.1080  -18.6413   55.3938 H         1 M3L         0.0815
    165 H          30.3306  -17.0815   54.6754 H         1 M3L         0.0815
    166 H          30.2639  -17.6528   52.4973 H         1 M3L         0.0778
    167 H          31.3316  -19.0196   52.9006 H         1 M3L         0.0778
    168 H          29.8197  -19.3052   52.0041 H         1 M3L         0.0778
    169 H          30.8239  -20.4468   54.6485 H         1 M3L         0.0778
    170 H          29.2559  -20.3390   55.4857 H         1 M3L         0.0778
    171 H          29.3321  -20.9436   53.8125 H         1 M3L         0.0778
    172 H          27.5820  -19.1567   54.5357 H         1 M3L         0.0778
    173 H          27.9022  -17.8523   53.3665 H         1 M3L         0.0778
    174 H          27.9998  -19.5539   52.8509 H         1 M3L         0.0778
    175 H          30.8633  -14.1342   61.3666 H         1 SER         0.1876
    176 H          30.0336  -14.4593   63.9046 H         1 SER         0.0749
    177 O          27.1476  -13.7137   62.6878 O.co2     1 SER        -0.5665
    178 H          29.1128  -12.1607   62.1213 H         1 SER         0.0599
    179 H          30.7444  -12.3070   62.9148 H         1 SER         0.0599
    180 H          28.2373  -12.0519   64.2304 H         1 SER         0.2096
@<TRIPOS>BOND
     1    1    2 1  
     2    2    3 1  
     3    2    5 1  
     4    3    4 2  
     5    3    6 am 
     6    6    7 1  
     7    7    8 1  
     8    7   10 1  
     9    8    9 2  
    10    8   17 am 
    11   10   11 1  
    12   11   12 1  
    13   12   13 1  
    14   13   14 ar 
    15   14   15 ar 
    16   14   16 ar 
    17   17   18 1  
    18   18   19 1  
    19   18   21 1  
    20   19   20 2  
    21   19   24 am 
    22   21   22 1  
    23   21   23 1  
    24   24   25 1  
    25   25   26 1  
    26   25   28 1  
    27   26   27 2  
    28   26   33 am 
    29   28   29 1  
    30   29   30 1  
    31   30   31 1  
    32   31   32 1  
    33   33   34 1  
    34   34   35 1  
    35   34   37 1  
    36   35   36 2  
    37   35   42 am 
    38   37   38 1  
    39   38   39 1  
    40   39   40 2  
    41   39   41 am 
    42   42   43 1  
    43   43   44 1  
    44   43   46 1  
    45   44   45 2  
    46   44   49 am 
    47   46   47 1  
    48   46   48 1  
    49   49   50 1  
    50   50   51 1  
    51   50   53 1  
    52   51   52 2  
    53   51   54 am 
    54   54   55 1  
    55   55   56 1  
    56   55   58 1  
    57   56   57 2  
    58   56   65 am 
    59   58   59 1  
    60   59   60 1  
    61   60   61 1  
    62   61   62 ar 
    63   62   63 ar 
    64   62   64 ar 
    65   65   66 1  
    66   66   67 1  
    67   66   72 1  
    68   67   68 1  
    69   68   69 1  
    70   69   70 1  
    71   70   71 1  
    72   71   74 1  
    73   71   75 1  
    74   71   76 1  
    75   72   73 2  
    76   72   77 am 
    77   77   78 1  
    78   78   79 1  
    79   78   81 1  
    80   79   80 ar 
    81   81   82 1  
    82    1   83 1  
    83    1   84 1  
    84    1   85 1  
    85    2   86 1  
    86    5   87 1  
    87    5   88 1  
    88    5   89 1  
    89    6   90 1  
    90    7   91 1  
    91   10   92 1  
    92   10   93 1  
    93   11   94 1  
    94   11   95 1  
    95   12   96 1  
    96   12   97 1  
    97   13   98 1  
    98   15   99 1  
    99   15  100 1  
   100   16  101 1  
   101   16  102 1  
   102   17  103 1  
   103   18  104 1  
   104   21  105 1  
   105   22  106 1  
   106   23  107 1  
   107   23  108 1  
   108   23  109 1  
   109   24  110 1  
   110   25  111 1  
   111   28  112 1  
   112   28  113 1  
   113   29  114 1  
   114   29  115 1  
   115   30  116 1  
   116   30  117 1  
   117   31  118 1  
   118   31  119 1  
   119   32  120 1  
   120   32  121 1  
   121   32  122 1  
   122   33  123 1  
   123   34  124 1  
   124   37  125 1  
   125   37  126 1  
   126   38  127 1  
   127   38  128 1  
   128   41  129 1  
   129   41  130 1  
   130   42  131 1  
   131   43  132 1  
   132   46  133 1  
   133   47  134 1  
   134   48  135 1  
   135   48  136 1  
   136   48  137 1  
   137   49  138 1  
   138   50  139 1  
   139   53  140 1  
   140   53  141 1  
   141   53  142 1  
   142   54  143 1  
   143   55  144 1  
   144   58  145 1  
   145   58  146 1  
   146   59  147 1  
   147   59  148 1  
   148   60  149 1  
   149   60  150 1  
   150   61  151 1  
   151   63  152 1  
   152   63  153 1  
   153   64  154 1  
   154   64  155 1  
   155   65  156 1  
   156   66  157 1  
   157   67  158 1  
   158   67  159 1  
   159   68  160 1  
   160   68  161 1  
   161   69  162 1  
   162   69  163 1  
   163   70  164 1  
   164   70  165 1  
   165   74  166 1  
   166   74  167 1  
   167   74  168 1  
   168   75  169 1  
   169   75  170 1  
   170   75  171 1  
   171   76  172 1  
   172   76  173 1  
   173   76  174 1  
   174   77  175 1  
   175   78  176 1  
   176   79  177 ar 
   177   81  178 1  
   178   81  179 1  
   179   82  180 1  
@<TRIPOS>SUBSTRUCTURE
     1 ALA         1

