3ask_ligand
  -I-interpret- 

179178  0  0  0  0  0  0  0  0999 V2000
   30.3870  -28.0800   69.2470 N   0  3  0  0  0
   31.8340  -27.9180   69.3490 C   0  0  0  0  0
   32.2350  -26.8510   68.3630 C   0  0  0  0  0
   32.1680  -27.0580   67.1500 O   0  0  0  0  0
   32.5350  -29.2190   69.0310 C   0  0  0  0  0
   32.6480  -25.7010   68.8770 N   0  0  0  0  0
   32.7440  -24.5200   68.0320 C   0  0  0  0  0
   34.0820  -24.3850   67.2890 C   0  0  0  0  0
   35.1090  -24.0570   67.8940 O   0  0  0  0  0
   32.4240  -23.2730   68.8580 C   0  0  0  0  0
   31.3910  -22.3640   68.2100 C   0  0  0  0  0
   30.5600  -21.6290   69.2530 C   0  0  0  0  0
   31.3870  -20.9190   70.2260 N   0  0  0  0  0
   32.1000  -19.8390   69.9400 C   0  0  0  0  0
   32.0910  -19.3520   68.7070 N   0  0  0  0  0
   32.8210  -19.2470   70.8830 N   0  0  0  0  0
   34.0580  -24.6410   65.9770 N   0  0  0  0  0
   35.2530  -24.5130   65.1340 C   0  0  0  0  0
   35.4110  -23.0980   64.5860 C   0  0  0  0  0
   34.4300  -22.4500   64.2240 O   0  0  0  0  0
   35.2410  -25.4880   63.9210 C   0  0  0  0  0
   34.2630  -25.0640   62.9610 O   0  0  0  0  0
   34.9520  -26.9250   64.3530 C   0  0  0  0  0
   36.6480  -22.6200   64.5110 N   0  0  0  0  0
   36.9030  -21.3170   63.9070 C   0  0  0  0  0
   36.5610  -21.3340   62.4160 C   0  0  0  0  0
   36.5520  -20.2930   61.7730 O   0  0  0  0  0
   38.3470  -20.8650   64.1390 C   0  0  0  0  0
   38.6320  -19.4140   63.7660 C   0  0  0  0  0
   37.6790  -18.4620   64.4690 C   0  0  0  0  0
   37.9680  -17.0160   64.0960 C   0  0  0  0  0
   39.3540  -16.6140   64.4630 N   0  3  0  0  0
   36.2770  -22.5090   61.8630 N   0  0  0  0  0
   35.6540  -22.5490   60.5490 C   0  0  0  0  0
   34.2040  -22.1300   60.6830 C   0  0  0  0  0
   33.6930  -21.3540   59.8830 O   0  0  0  0  0
   35.6620  -23.9440   59.9330 C   0  0  0  0  0
   34.5080  -24.0950   58.9170 C   0  0  0  0  0
   34.2740  -25.5180   58.4330 C   0  0  0  0  0
   33.8280  -25.7200   57.3070 O   0  0  0  0  0
   34.5670  -26.5080   59.2800 N   0  0  0  0  0
   33.5410  -22.6800   61.6890 N   0  0  0  0  0
   32.1330  -22.4090   61.9200 C   0  0  0  0  0
   31.9130  -20.9410   62.1880 C   0  0  0  0  0
   31.1750  -20.2750   61.4680 O   0  0  0  0  0
   31.6090  -23.1910   63.1310 C   0  0  0  0  0
   31.1830  -24.4920   62.7100 O   0  0  0  0  0
   30.4420  -22.4500   63.7860 C   0  0  0  0  0
   32.5620  -20.4350   63.2290 N   0  0  0  0  0
   32.3160  -19.0720   63.6770 C   0  0  0  0  0
   32.8180  -18.0080   62.6980 C   0  0  0  0  0
   32.4740  -16.8350   62.8290 O   0  0  0  0  0
   32.9010  -18.8530   65.0620 C   0  0  0  0  0
   33.6170  -18.4190   61.7150 N   0  0  0  0  0
   34.1570  -17.4880   60.7300 C   0  0  0  0  0
   33.0220  -16.7020   60.0740 C   0  0  0  0  0
   33.2680  -15.7960   59.2820 O   0  0  0  0  0
   35.0030  -18.2320   59.6860 C   0  0  0  0  0
   35.9840  -17.3590   58.8990 C   0  0  0  0  0
   36.7280  -18.1610   57.8190 C   0  0  0  0  0
   37.1630  -17.3080   56.7080 N   0  0  0  0  0
   38.0840  -17.6560   55.8160 C   0  0  0  0  0
   38.6740  -18.8410   55.8960 N   0  0  0  0  0
   38.4170  -16.8180   54.8450 N   0  0  0  0  0
   31.7820  -17.0680   60.4040 N   0  0  0  0  0
   30.5930  -16.2770   60.0670 C   0  0  0  0  0
   29.6610  -16.9150   58.9960 C   0  0  0  0  0
   30.3020  -17.5510   57.7310 C   0  0  0  0  0
   29.4570  -17.8410   56.4450 C   0  0  0  0  0
   30.2210  -18.0760   55.1080 C   0  0  0  0  0
   29.5890  -18.8880   54.0290 N   0  3  0  0  0
   29.8210  -15.8690   61.3430 C   0  0  0  0  0
   29.0200  -16.6010   61.8380 O   0  0  0  0  0
   30.2950  -18.7050   52.7800 C   0  0  0  0  0
   29.7610  -20.2390   54.5250 C   0  0  0  0  0
   28.1790  -18.8610   53.6730 C   0  0  0  0  0
   30.1370  -14.6680   61.8440 N   0  0  0  0  0
   29.5140  -14.0590   63.0340 C   0  0  0  0  0
   28.0360  -14.4380   63.2110 C   0  0  0  0  0
   27.6920  -15.4569   63.8675 O   0  0  0  0  0
   29.6780  -12.5230   62.9800 C   0  0  0  0  0
   29.1740  -11.8630   64.1380 O   0  0  0  0  0
   27.1476  -13.7137   62.6878 O   0  0  0  0  0
   29.9307  -27.1940   69.4644 H   0  0  0  0  0
   30.1440  -28.3651   68.2983 H   0  0  0  0  0
   30.0786  -28.7937   69.9073 H   0  0  0  0  0
   32.1175  -27.6322   70.3619 H   0  0  0  0  0
   32.2611  -29.5417   68.0265 H   0  0  0  0  0
   33.6136  -29.0717   69.0852 H   0  0  0  0  0
   32.2339  -29.9783   69.7527 H   0  0  0  0  0
   32.8984  -25.6439   69.8641 H   0  0  0  0  0
   32.0036  -24.6339   67.2402 H   0  0  0  0  0
   33.3465  -22.7011   68.9582 H   0  0  0  0  0
   32.0138  -23.6078   69.8108 H   0  0  0  0  0
   30.7223  -22.9774   67.6061 H   0  0  0  0  0
   31.9142  -21.6253   67.6029 H   0  0  0  0  0
   29.9653  -22.3671   69.7912 H   0  0  0  0  0
   29.9429  -20.8944   68.7356 H   0  0  0  0  0
   31.4174  -21.2754   71.1812 H   0  0  0  0  0
   31.5367  -19.8083   67.9825 H   0  0  0  0  0
   33.3692  -18.4163   70.6598 H   0  0  0  0  0
   32.8272  -19.6225   71.8314 H   0  0  0  0  0
   33.1806  -24.9349   65.5477 H   0  0  0  0  0
   36.0875  -24.7615   65.7898 H   0  0  0  0  0
   36.2329  -25.4669   63.4695 H   0  0  0  0  0
   34.2626  -25.6706   62.2170 H   0  0  0  0  0
   35.7213  -27.2548   65.0512 H   0  0  0  0  0
   33.9768  -26.9681   64.8380 H   0  0  0  0  0
   34.9525  -27.5735   63.4769 H   0  0  0  0  0
   37.4256  -23.1683   64.8786 H   0  0  0  0  0
   36.2531  -20.5905   64.3948 H   0  0  0  0  0
   38.9783  -21.4848   63.5023 H   0  0  0  0  0
   38.5402  -20.9604   65.2075 H   0  0  0  0  0
   38.5013  -19.3017   62.6897 H   0  0  0  0  0
   39.6500  -19.1721   64.0714 H   0  0  0  0  0
   37.8068  -18.5750   65.5456 H   0  0  0  0  0
   36.6605  -18.7023   64.1640 H   0  0  0  0  0
   37.2717  -16.3773   64.6394 H   0  0  0  0  0
   37.8568  -16.9128   63.0166 H   0  0  0  0  0
   39.5063  -15.6412   64.1969 H   0  0  0  0  0
   39.4810  -16.7162   65.4699 H   0  0  0  0  0
   40.0207  -17.2102   63.9727 H   0  0  0  0  0
   36.4941  -23.3753   62.3558 H   0  0  0  0  0
   36.2267  -21.8807   59.9059 H   0  0  0  0  0
   35.5341  -24.6813   60.7256 H   0  0  0  0  0
   36.6098  -24.0973   59.4170 H   0  0  0  0  0
   34.7736  -23.5008   58.0427 H   0  0  0  0  0
   33.5958  -23.7761   59.4213 H   0  0  0  0  0
   34.4220  -27.4781   59.0003 H   0  0  0  0  0
   34.9358  -26.2940   60.2066 H   0  0  0  0  0
   34.0336  -23.3123   62.3199 H   0  0  0  0  0
   31.5974  -22.7166   61.0219 H   0  0  0  0  0
   32.4113  -23.2869   63.8625 H   0  0  0  0  0
   30.8551  -24.9811   63.4682 H   0  0  0  0  0
   30.7775  -21.4673   64.1175 H   0  0  0  0  0
   29.6346  -22.3348   63.0628 H   0  0  0  0  0
   30.0853  -23.0217   64.6428 H   0  0  0  0  0
   33.2441  -21.0103   63.7231 H   0  0  0  0  0
   31.2334  -18.9529   63.7210 H   0  0  0  0  0
   32.4380  -19.5461   65.7644 H   0  0  0  0  0
   33.9765  -19.0279   65.0326 H   0  0  0  0  0
   32.7068  -17.8284   65.3792 H   0  0  0  0  0
   33.8571  -19.4081   61.6492 H   0  0  0  0  0
   34.8122  -16.7787   61.2358 H   0  0  0  0  0
   34.3063  -18.6517   58.9604 H   0  0  0  0  0
   35.6016  -18.9618   60.2311 H   0  0  0  0  0
   36.7208  -16.9600   59.5961 H   0  0  0  0  0
   35.4181  -16.5678   58.4073 H   0  0  0  0  0
   36.0482  -18.9162   57.4246 H   0  0  0  0  0
   37.6121  -18.6084   58.2733 H   0  0  0  0  0
   36.7308  -16.3889   56.6142 H   0  0  0  0  0
   39.3822  -19.1054   55.2112 H   0  0  0  0  0
   38.4196  -19.4880   56.6424 H   0  0  0  0  0
   37.9661  -15.9052   54.7821 H   0  0  0  0  0
   31.6543  -17.9409   60.9159 H   0  0  0  0  0
   30.9715  -15.3759   59.5845 H   0  0  0  0  0
   29.0542  -16.0905   58.6217 H   0  0  0  0  0
   29.1656  -17.7402   59.5075 H   0  0  0  0  0
   30.6143  -18.5400   58.0662 H   0  0  0  0  0
   31.0274  -16.8061   57.4038 H   0  0  0  0  0
   28.8585  -16.9445   56.2831 H   0  0  0  0  0
   28.9327  -18.7750   56.6472 H   0  0  0  0  0
   31.1080  -18.6413   55.3938 H   0  0  0  0  0
   30.3306  -17.0815   54.6754 H   0  0  0  0  0
   30.2639  -17.6528   52.4973 H   0  0  0  0  0
   31.3316  -19.0196   52.9006 H   0  0  0  0  0
   29.8197  -19.3052   52.0041 H   0  0  0  0  0
   30.8239  -20.4468   54.6485 H   0  0  0  0  0
   29.2559  -20.3390   55.4857 H   0  0  0  0  0
   29.3321  -20.9436   53.8125 H   0  0  0  0  0
   27.5820  -19.1567   54.5357 H   0  0  0  0  0
   27.9022  -17.8523   53.3665 H   0  0  0  0  0
   27.9998  -19.5539   52.8509 H   0  0  0  0  0
   30.8633  -14.1342   61.3666 H   0  0  0  0  0
   30.0336  -14.4593   63.9046 H   0  0  0  0  0
   29.1128  -12.1607   62.1213 H   0  0  0  0  0
   30.7444  -12.3070   62.9148 H   0  0  0  0  0
   29.3032  -10.9161   64.0469 H   0  0  0  0  0
   27.5638  -12.9827   62.2252 H   0  0  0  0  0
  1  2  1  0  0  0
  2  3  1  0  0  0
  2  5  1  0  0  0
  3  4  2  0  0  0
  3  6  1  0  0  0
  6  7  1  0  0  0
  7  8  1  0  0  0
  7 10  1  0  0  0
  8  9  2  0  0  0
  8 17  1  0  0  0
 10 11  1  0  0  0
 11 12  1  0  0  0
 12 13  1  0  0  0
 13 14  1  0  0  0
 14 15  2  0  0  0
 14 16  1  0  0  0
 17 18  1  0  0  0
 18 19  1  0  0  0
 18 21  1  0  0  0
 19 20  2  0  0  0
 19 24  1  0  0  0
 21 22  1  0  0  0
 21 23  1  0  0  0
 24 25  1  0  0  0
 25 26  1  0  0  0
 25 28  1  0  0  0
 26 27  2  0  0  0
 26 33  1  0  0  0
 28 29  1  0  0  0
 29 30  1  0  0  0
 30 31  1  0  0  0
 31 32  1  0  0  0
 33 34  1  0  0  0
 34 35  1  0  0  0
 34 37  1  0  0  0
 35 36  2  0  0  0
 35 42  1  0  0  0
 37 38  1  0  0  0
 38 39  1  0  0  0
 39 40  2  0  0  0
 39 41  1  0  0  0
 42 43  1  0  0  0
 43 44  1  0  0  0
 43 46  1  0  0  0
 44 45  2  0  0  0
 44 49  1  0  0  0
 46 47  1  0  0  0
 46 48  1  0  0  0
 49 50  1  0  0  0
 50 51  1  0  0  0
 50 53  1  0  0  0
 51 52  2  0  0  0
 51 54  1  0  0  0
 54 55  1  0  0  0
 55 56  1  0  0  0
 55 58  1  0  0  0
 56 57  2  0  0  0
 56 65  1  0  0  0
 58 59  1  0  0  0
 59 60  1  0  0  0
 60 61  1  0  0  0
 61 62  1  0  0  0
 62 63  1  0  0  0
 62 64  2  0  0  0
 65 66  1  0  0  0
 66 67  1  0  0  0
 66 72  1  0  0  0
 67 68  1  0  0  0
 68 69  1  0  0  0
 69 70  1  0  0  0
 70 71  1  0  0  0
 71 74  1  0  0  0
 71 75  1  0  0  0
 71 76  1  0  0  0
 72 73  2  0  0  0
 72 77  1  0  0  0
 77 78  1  0  0  0
 78 79  1  0  0  0
 78 81  1  0  0  0
 79 80  2  0  0  0
 81 82  1  0  0  0
 79 83  1  0  0  0
  1 84  1  0  0  0
  1 85  1  0  0  0
  1 86  1  0  0  0
  2 87  1  0  0  0
  5 88  1  0  0  0
  5 89  1  0  0  0
  5 90  1  0  0  0
  6 91  1  0  0  0
  7 92  1  0  0  0
 10 93  1  0  0  0
 10 94  1  0  0  0
 11 95  1  0  0  0
 11 96  1  0  0  0
 12 97  1  0  0  0
 12 98  1  0  0  0
 13 99  1  0  0  0
 15100  1  0  0  0
 16101  1  0  0  0
 16102  1  0  0  0
 17103  1  0  0  0
 18104  1  0  0  0
 21105  1  0  0  0
 22106  1  0  0  0
 23107  1  0  0  0
 23108  1  0  0  0
 23109  1  0  0  0
 24110  1  0  0  0
 25111  1  0  0  0
 28112  1  0  0  0
 28113  1  0  0  0
 29114  1  0  0  0
 29115  1  0  0  0
 30116  1  0  0  0
 30117  1  0  0  0
 31118  1  0  0  0
 31119  1  0  0  0
 32120  1  0  0  0
 32121  1  0  0  0
 32122  1  0  0  0
 33123  1  0  0  0
 34124  1  0  0  0
 37125  1  0  0  0
 37126  1  0  0  0
 38127  1  0  0  0
 38128  1  0  0  0
 41129  1  0  0  0
 41130  1  0  0  0
 42131  1  0  0  0
 43132  1  0  0  0
 46133  1  0  0  0
 47134  1  0  0  0
 48135  1  0  0  0
 48136  1  0  0  0
 48137  1  0  0  0
 49138  1  0  0  0
 50139  1  0  0  0
 53140  1  0  0  0
 53141  1  0  0  0
 53142  1  0  0  0
 54143  1  0  0  0
 55144  1  0  0  0
 58145  1  0  0  0
 58146  1  0  0  0
 59147  1  0  0  0
 59148  1  0  0  0
 60149  1  0  0  0
 60150  1  0  0  0
 61151  1  0  0  0
 63152  1  0  0  0
 63153  1  0  0  0
 64154  1  0  0  0
 65155  1  0  0  0
 66156  1  0  0  0
 67157  1  0  0  0
 67158  1  0  0  0
 68159  1  0  0  0
 68160  1  0  0  0
 69161  1  0  0  0
 69162  1  0  0  0
 70163  1  0  0  0
 70164  1  0  0  0
 74165  1  0  0  0
 74166  1  0  0  0
 74167  1  0  0  0
 75168  1  0  0  0
 75169  1  0  0  0
 75170  1  0  0  0
 76171  1  0  0  0
 76172  1  0  0  0
 76173  1  0  0  0
 77174  1  0  0  0
 78175  1  0  0  0
 81176  1  0  0  0
 81177  1  0  0  0
 82178  1  0  0  0
 83179  1  0  0  0
M  END
$$$$
