3w2p_ligand
  -I-interpret- 

 68 71  0  0  0  0  0  0  0  0999 V2000
  146.5290   24.7500   50.2060 C   0  0  0  0  0
  147.7900   25.2830   50.3750 C   0  0  0  0  0
  148.0040   26.6420   50.3920 C   0  0  0  0  0
  146.9420   27.4940   50.2150 C   0  0  0  0  0
  145.6670   26.9730   50.0390 C   0  0  0  0  0
  145.4530   25.5960   50.0330 C   0  0  0  0  0
  147.2810   28.8440   50.2580 O   0  0  0  0  0
  146.3570   29.8140   49.8900 C   0  0  0  0  0
  149.5950   27.2700   50.6370 Cl  0  0  0  0  0
  146.0680   30.8190   50.7800 C   0  0  0  0  0
  145.1700   31.8040   50.4360 C   0  0  0  0  0
  144.5740   31.7810   49.1950 C   0  0  0  0  0
  144.8730   30.7730   48.3000 C   0  0  0  0  0
  145.7730   29.7910   48.6470 C   0  0  0  0  0
  144.2400   30.7360   46.9430 C   0  0  0  0  0
  143.9020   29.4770   46.5120 F   0  0  0  0  0
  145.0850   31.2220   45.9920 F   0  0  0  0  0
  143.1050   31.4930   46.8770 F   0  0  0  0  0
  147.7610   20.9810   53.4790 N   0  0  0  0  0
  147.6180   22.3040   53.4810 C   0  0  0  0  0
  147.2300   23.0940   52.4790 N   0  0  0  0  0
  146.9230   22.5500   51.2910 C   0  0  0  0  0
  147.4520   20.4260   52.2930 C   0  0  0  0  0
  147.0290   21.1740   51.2090 C   0  0  0  0  0
  146.8250   20.2780   50.1850 N   0  0  0  0  0
  147.0870   18.9960   50.6020 C   0  0  0  0  0
  147.4780   19.0530   51.9210 C   0  0  0  0  0
  146.4090   20.6230   48.8210 C   0  0  0  0  0
  145.2170   19.8550   48.3060 C   0  0  0  0  0
  144.0870   20.3480   49.0240 N   0  0  0  0  0
  143.4550   19.5260   49.9110 C   0  0  0  0  0
  142.3150   20.2540   50.5470 C   0  0  0  0  0
  143.7450   18.3540   50.1450 O   0  0  0  0  0
  146.5190   23.3390   50.2010 N   0  0  0  0  0
  141.0470   19.5800   50.0640 C   0  0  0  0  0
  140.4300   20.2940   48.8810 C   0  0  0  0  0
  139.1550   19.6570   48.5670 N   0  3  0  0  0
  138.0750   20.5940   48.8800 C   0  0  0  0  0
  139.1450   19.4210   47.1290 C   0  0  0  0  0
  148.6387   24.6102   50.4982 H   0  0  0  0  0
  144.8231   27.6495   49.9039 H   0  0  0  0  0
  144.4498   25.1931   49.8936 H   0  0  0  0  0
  146.5492   30.8368   51.7579 H   0  0  0  0  0
  144.9318   32.5987   51.1430 H   0  0  0  0  0
  143.8642   32.5606   48.9184 H   0  0  0  0  0
  146.0208   28.9997   47.9395 H   0  0  0  0  0
  147.8471   22.8058   54.4211 H   0  0  0  0  0
  147.0008   18.0938   49.9965 H   0  0  0  0  0
  147.7535   18.2110   52.5559 H   0  0  0  0  0
  147.2461   20.3822   48.1658 H   0  0  0  0  0
  146.1241   21.6750   48.8350 H   0  0  0  0  0
  145.3434   18.7832   48.4591 H   0  0  0  0  0
  145.0926   19.9952   47.2322 H   0  0  0  0  0
  143.7562   21.3015   48.8763 H   0  0  0  0  0
  142.3244   21.3085   50.2713 H   0  0  0  0  0
  142.3865   20.2153   51.6340 H   0  0  0  0  0
  146.1998   22.8641   49.3566 H   0  0  0  0  0
  140.3252   19.5938   50.8806 H   0  0  0  0  0
  141.3010   18.5670   49.7520 H   0  0  0  0  0
  141.0972   20.2333   48.0212 H   0  0  0  0  0
  140.2706   21.3447   49.1232 H   0  0  0  0  0
  139.0332   18.7924   49.0942 H   0  0  0  0  0
  138.1123   20.8487   49.9392 H   0  0  0  0  0
  138.1957   21.4980   48.2831 H   0  0  0  0  0
  137.1156   20.1306   48.6500 H   0  0  0  0  0
  139.2424   20.3720   46.6053 H   0  0  0  0  0
  139.9787   18.7712   46.8629 H   0  0  0  0  0
  138.2064   18.9439   46.8469 H   0  0  0  0  0
  1  2  4  0  0  0
  1  6  4  0  0  0
 34  1  1  0  0  0
  2  3  4  0  0  0
  3  4  4  0  0  0
  3  9  1  0  0  0
  5  4  4  0  0  0
  4  7  1  0  0  0
  6  5  4  0  0  0
  7  8  1  0  0  0
  8 10  4  0  0  0
  8 14  4  0  0  0
 10 11  4  0  0  0
 11 12  4  0  0  0
 13 12  4  0  0  0
 14 13  4  0  0  0
 13 15  1  0  0  0
 15 16  1  0  0  0
 15 17  1  0  0  0
 15 18  1  0  0  0
 20 19  4  0  0  0
 19 23  4  0  0  0
 21 20  4  0  0  0
 22 21  4  0  0  0
 22 24  4  0  0  0
 22 34  1  0  0  0
 23 24  4  0  0  0
 23 27  4  0  0  0
 24 25  4  0  0  0
 25 26  4  0  0  0
 25 28  1  0  0  0
 26 27  4  0  0  0
 28 29  1  0  0  0
 29 30  1  0  0  0
 30 31  1  0  0  0
 31 32  1  0  0  0
 31 33  2  0  0  0
 32 35  1  0  0  0
 35 36  1  0  0  0
 36 37  1  0  0  0
 37 38  1  0  0  0
 37 39  1  0  0  0
  2 40  1  0  0  0
  5 41  1  0  0  0
  6 42  1  0  0  0
 10 43  1  0  0  0
 11 44  1  0  0  0
 12 45  1  0  0  0
 14 46  1  0  0  0
 20 47  1  0  0  0
 26 48  1  0  0  0
 27 49  1  0  0  0
 28 50  1  0  0  0
 28 51  1  0  0  0
 29 52  1  0  0  0
 29 53  1  0  0  0
 30 54  1  0  0  0
 32 55  1  0  0  0
 32 56  1  0  0  0
 34 57  1  0  0  0
 35 58  1  0  0  0
 35 59  1  0  0  0
 36 60  1  0  0  0
 36 61  1  0  0  0
 37 62  1  0  0  0
 38 63  1  0  0  0
 38 64  1  0  0  0
 38 65  1  0  0  0
 39 66  1  0  0  0
 39 67  1  0  0  0
 39 68  1  0  0  0
M  END
$$$$
