2ghg_ligand
  -I-interpret- 

 62 67  0  0  0  0  0  0  0  0999 V2000
   -1.5120    8.8540  -19.4980 C   0  0  0  0  0
   -0.5240    7.9510  -19.4040 C   0  0  0  0  0
    0.6660    8.4330  -20.1190 C   0  0  0  0  0
    0.4120    9.6370  -20.6520 C   0  0  0  0  0
   -0.9730    9.9680  -20.2880 N   0  0  0  0  0
   -2.8710    8.7330  -18.9380 C   0  0  0  0  0
   -4.0650    9.6030  -19.2120 C   0  0  0  0  0
   -4.2370   10.8150  -20.0870 C   0  0  0  0  0
   -5.4970   11.2360  -19.9790 N   0  0  0  0  0
   -6.2450   10.4450  -19.0990 C   0  0  0  0  0
   -5.3760    9.3890  -18.5870 C   0  0  0  0  0
   -3.3670   11.3160  -20.7840 O   0  0  0  0  0
   -7.6270   10.4360  -18.6100 C   0  0  0  0  0
   -8.1090    9.4740  -17.6950 C   0  0  0  0  0
   -7.2810    8.4480  -17.1950 C   0  0  0  0  0
   -5.9370    8.4230  -17.6440 C   0  0  0  0  0
   -7.8010    7.4050  -16.2130 C   0  0  0  0  0
   -9.1680    7.2990  -15.8500 C   0  0  0  0  0
   -9.6210    6.3530  -14.9690 N   0  0  0  0  0
   -8.7520    5.4710  -14.4030 C   0  0  0  0  0
   -7.3730    5.4890  -14.6950 C   0  0  0  0  0
   -6.9190    6.4760  -15.6100 C   0  0  0  0  0
   -6.5510    4.5370  -14.0640 O   0  0  0  0  0
   -5.8870    3.5940  -14.9070 C   0  0  0  0  0
   -6.6830    2.2860  -14.9220 C   0  0  0  0  0
   -5.7890    1.0860  -15.2840 C   0  0  0  0  0
   -7.7910    2.4220  -15.8700 N   0  3  0  0  0
   -5.6500    0.1630  -14.0850 C   0  0  0  0  0
   -6.7010   -0.4440  -13.3830 C   0  0  0  0  0
   -6.2030   -1.2000  -12.3760 N   0  0  0  0  0
   -4.8170   -1.1340  -12.3590 C   0  0  0  0  0
   -4.4260   -0.2710  -13.4460 C   0  0  0  0  0
   -3.8460   -1.7180  -11.5450 C   0  0  0  0  0
   -2.4660   -1.4600  -11.7800 C   0  0  0  0  0
   -2.0750   -0.6060  -12.8510 C   0  0  0  0  0
   -3.0700   -0.0110  -13.6790 C   0  0  0  0  0
   -0.5937    7.0003  -18.8754 H   0  0  0  0  0
    1.6100    7.8946  -20.2031 H   0  0  0  0  0
    1.0970   10.2489  -21.2389 H   0  0  0  0  0
   -2.6854    8.9566  -17.8875 H   0  0  0  0  0
   -3.1948    7.7888  -19.3759 H   0  0  0  0  0
   -3.0528    9.2190  -19.3386 H   0  0  0  0  0
   -5.8727   12.0414  -20.4796 H   0  0  0  0  0
   -8.3120   11.2047  -18.9679 H   0  0  0  0  0
   -9.1472    9.5260  -17.3671 H   0  0  0  0  0
   -5.2835    7.6377  -17.2641 H   0  0  0  0  0
   -9.8835    7.9951  -16.2877 H   0  0  0  0  0
   -9.1342    4.7283  -13.7027 H   0  0  0  0  0
   -5.8580    6.5196  -15.8557 H   0  0  0  0  0
   -4.8825    3.4071  -14.5273 H   0  0  0  0  0
   -5.8182    3.9925  -15.9192 H   0  0  0  0  0
   -7.0765    2.0942  -13.9238 H   0  0  0  0  0
   -4.8028    1.4477  -15.5750 H   0  0  0  0  0
   -6.2420    0.5368  -16.1094 H   0  0  0  0  0
   -8.3292    1.5557  -15.8887 H   0  0  0  0  0
   -8.3935    3.1918  -15.5788 H   0  0  0  0  0
   -7.4193    2.6129  -16.8005 H   0  0  0  0  0
   -7.7598   -0.3252  -13.6132 H   0  0  0  0  0
   -4.1449   -2.3735  -10.7270 H   0  0  0  0  0
   -1.7093   -1.9154  -11.1412 H   0  0  0  0  0
   -1.0191   -0.4086  -13.0362 H   0  0  0  0  0
   -2.7751    0.6480  -14.4956 H   0  0  0  0  0
  1  2  4  0  0  0
  1  5  4  0  0  0
  1  6  1  0  0  0
  2  3  4  0  0  0
  3  4  4  0  0  0
  4  5  4  0  0  0
  6  7  1  0  0  0
  7  8  1  0  0  0
  7 11  1  0  0  0
  8  9  1  0  0  0
  8 12  2  0  0  0
  9 10  1  0  0  0
 10 11  4  0  0  0
 10 13  4  0  0  0
 11 16  4  0  0  0
 13 14  4  0  0  0
 14 15  4  0  0  0
 15 16  4  0  0  0
 15 17  1  0  0  0
 17 18  4  0  0  0
 17 22  4  0  0  0
 18 19  4  0  0  0
 19 20  4  0  0  0
 20 21  4  0  0  0
 21 22  4  0  0  0
 21 23  1  0  0  0
 23 24  1  0  0  0
 24 25  1  0  0  0
 25 26  1  0  0  0
 25 27  1  0  0  0
 26 28  1  0  0  0
 28 29  4  0  0  0
 28 32  4  0  0  0
 29 30  4  0  0  0
 30 31  4  0  0  0
 31 32  4  0  0  0
 31 33  4  0  0  0
 32 36  4  0  0  0
 33 34  4  0  0  0
 34 35  4  0  0  0
 35 36  4  0  0  0
  2 37  1  0  0  0
  3 38  1  0  0  0
  4 39  1  0  0  0
  6 40  1  0  0  0
  6 41  1  0  0  0
  7 42  1  0  0  0
  9 43  1  0  0  0
 13 44  1  0  0  0
 14 45  1  0  0  0
 16 46  1  0  0  0
 18 47  1  0  0  0
 20 48  1  0  0  0
 22 49  1  0  0  0
 24 50  1  0  0  0
 24 51  1  0  0  0
 25 52  1  0  0  0
 26 53  1  0  0  0
 26 54  1  0  0  0
 27 55  1  0  0  0
 27 56  1  0  0  0
 27 57  1  0  0  0
 29 58  1  0  0  0
 33 59  1  0  0  0
 34 60  1  0  0  0
 35 61  1  0  0  0
 36 62  1  0  0  0
M  END
$$$$
