4f7v_ligand
  -I-interpret- 

 73 77  0  0  0  0  0  0  0  0999 V2000
    4.8650   18.0140   14.1490 C   0  0  0  0  0
    4.3070   16.6700   14.3720 O   0  0  0  0  0
    6.3880   17.7970   14.0330 C   0  0  0  0  0
    7.0400   18.9450   14.4410 O   0  0  0  0  0
    6.6070   16.5900   15.0380 C   0  0  0  0  0
    6.6230   16.8970   16.3840 O   0  0  0  0  0
    5.3350   15.7290   14.7260 C   0  0  0  0  0
    5.5290   14.8920   13.5340 N   0  0  0  0  0
    6.6840   14.6430   12.7270 C   0  0  0  0  0
    6.4130   13.8340   11.7010 N   0  0  0  0  0
    5.0490   13.5690   11.8130 C   0  0  0  0  0
    4.1980   12.8200   11.0380 C   0  0  0  0  0
    4.6900   12.1930    9.9070 N   0  0  0  0  0
    2.8720   12.7040   11.4030 N   0  0  0  0  0
    2.4390   13.3860   12.5120 C   0  0  0  0  0
    3.1610   14.1300   13.3290 N   0  0  0  0  0
    4.4800   14.2100   12.9380 C   0  0  0  0  0
    4.2910   18.7470   12.9340 C   0  0  0  0  0
    2.5290   18.9000   13.0100 S   0  0  0  0  0
    2.1330   19.8880   11.7090 C   0  0  0  0  0
    3.6600   21.7340   11.9890 N   0  0  0  0  0
    2.2440   21.3750   12.0300 C   0  0  0  0  0
    4.2180   22.0940   10.7810 C   0  0  0  0  0
    5.6770   22.4600   10.8410 C   0  0  0  0  0
    5.9470   23.5050    9.8720 N   0  0  0  0  0
    5.3090   24.7380    9.8610 C   0  0  0  0  0
    4.4360   25.0620   10.6610 O   0  0  0  0  0
    7.2010   27.8920    5.5980 N   0  0  0  0  0
    8.3690   27.4930    5.1340 C   0  0  0  0  0
    8.9900   28.1250    4.0570 N   0  0  0  0  0
    9.0800   26.4530    5.5860 N   0  0  0  0  0
    8.6870   25.6620    6.6780 C   0  0  0  0  0
    9.4280   24.7580    6.9980 O   0  0  0  0  0
    6.9550   25.3240    8.2750 N   0  0  0  0  0
    5.7890   25.6290    8.7570 C   0  0  0  0  0
    4.9290   26.8010    8.3590 C   0  0  0  0  0
    4.8260   27.8030    9.5200 C   0  0  0  0  0
    3.5970   26.2740    7.8390 C   0  0  0  0  0
    5.5440   27.5280    7.2160 N   0  0  0  0  0
    6.7180   27.1380    6.6820 C   0  0  0  0  0
    7.4170   26.0640    7.2250 C   0  0  0  0  0
    3.5550   22.1320    9.7510 O   0  0  0  0  0
    2.0120   17.6140   12.7370 O   0  0  0  0  0
    2.3170   19.6050   14.2370 O   0  0  0  0  0
    4.5970   18.6745   14.9736 H   0  0  0  0  0
    6.7642   17.5873   13.0317 H   0  0  0  0  0
    6.8797   19.6459   13.8049 H   0  0  0  0  0
    7.5870   16.1365   14.8896 H   0  0  0  0  0
    7.4003   17.4246   16.5815 H   0  0  0  0  0
    5.1066   15.0957   15.5833 H   0  0  0  0  0
    7.6692   15.0645   12.9268 H   0  0  0  0  0
    5.6742   12.2900    9.6575 H   0  0  0  0  0
    4.0685   11.6337    9.3228 H   0  0  0  0  0
    1.3774   13.3041   12.7450 H   0  0  0  0  0
    4.5418   18.1714   12.0430 H   0  0  0  0  0
    4.7164   19.7503   12.9130 H   0  0  0  0  0
    1.0961   19.6837   11.4420 H   0  0  0  0  0
    2.8337   19.6703   10.9030 H   0  0  0  0  0
    4.2248   21.7185   12.8382 H   0  0  0  0  0
    1.8286   21.5821   13.0162 H   0  0  0  0  0
    1.6825   21.9627   11.3037 H   0  0  0  0  0
    6.2836   21.5837   10.6124 H   0  0  0  0  0
    5.9239   22.8160   11.8412 H   0  0  0  0  0
    6.6488   23.3228    9.1546 H   0  0  0  0  0
    6.6904   28.6819    5.2034 H   0  0  0  0  0
    9.8834   27.7779    3.7080 H   0  0  0  0  0
    4.3810   27.3107   10.3847 H   0  0  0  0  0
    5.8223   28.1622    9.7777 H   0  0  0  0  0
    4.2019   28.6441    9.2180 H   0  0  0  0  0
    3.7736   25.6329    6.9753 H   0  0  0  0  0
    3.1032   25.7008    8.6237 H   0  0  0  0  0
    2.9648   27.1127    7.5474 H   0  0  0  0  0
    6.7197   26.9017    7.2393 H   0  0  0  0  0
  1  2  1  0  0  0
  1  3  1  0  0  0
 18  1  1  0  0  0
  2  7  1  0  0  0
  3  4  1  0  0  0
  3  5  1  0  0  0
  5  6  1  0  0  0
  5  7  1  0  0  0
  7  8  1  0  0  0
  8  9  4  0  0  0
  8 17  4  0  0  0
  9 10  4  0  0  0
 11 10  4  0  0  0
 11 12  4  0  0  0
 17 11  4  0  0  0
 12 13  1  0  0  0
 12 14  4  0  0  0
 15 14  4  0  0  0
 16 15  4  0  0  0
 17 16  4  0  0  0
 19 18  1  0  0  0
 20 19  1  0  0  0
 19 43  2  0  0  0
 19 44  2  0  0  0
 22 20  1  0  0  0
 21 22  1  0  0  0
 23 21  1  0  0  0
 24 23  1  0  0  0
 23 42  2  0  0  0
 25 24  1  0  0  0
 26 25  1  0  0  0
 26 27  2  0  0  0
 35 26  1  0  0  0
 29 28  1  0  0  0
 28 40  1  0  0  0
 29 30  2  0  0  0
 31 29  4  0  0  0
 32 31  1  0  0  0
 32 33  2  0  0  0
 41 32  1  0  0  0
 34 35  2  0  0  0
 34 41  1  0  0  0
 35 36  1  0  0  0
 36 37  1  0  0  0
 36 38  1  0  0  0
 36 39  1  0  0  0
 39 40  2  0  0  0
 40 41  1  0  0  0
  1 45  1  0  0  0
  3 46  1  0  0  0
  4 47  1  0  0  0
  5 48  1  0  0  0
  6 49  1  0  0  0
  7 50  1  0  0  0
  9 51  1  0  0  0
 13 52  1  0  0  0
 13 53  1  0  0  0
 15 54  1  0  0  0
 18 55  1  0  0  0
 18 56  1  0  0  0
 20 57  1  0  0  0
 20 58  1  0  0  0
 21 59  1  0  0  0
 22 60  1  0  0  0
 22 61  1  0  0  0
 24 62  1  0  0  0
 24 63  1  0  0  0
 25 64  1  0  0  0
 28 65  1  0  0  0
 30 66  1  0  0  0
 37 67  1  0  0  0
 37 68  1  0  0  0
 37 69  1  0  0  0
 38 70  1  0  0  0
 38 71  1  0  0  0
 38 72  1  0  0  0
 41 73  1  0  0  0
M  END
$$$$
