2zif_ligand
  -I-interpret- 

 51 53  0  0  0  0  0  0  0  0999 V2000
   20.8660   24.8210   74.5340 N   0  3  0  0  0
   19.5740   25.3540   74.9840 C   0  0  0  0  0
   18.9710   24.5510   76.1480 C   0  0  0  0  0
   17.8670   24.8870   76.5870 O   0  0  0  0  0
   19.6340   23.6070   76.5930 O   0  0  0  0  0
   18.5250   25.3690   73.8410 C   0  0  0  0  0
   17.4130   26.3820   73.1220 C   0  0  0  0  0
   16.5250   25.9000   71.5850 S   0  0  0  0  0
   17.8460   25.7190   70.3450 C   0  0  0  0  0
   15.5520   27.3490   71.1220 C   0  0  0  0  0
   14.3400   27.6230   72.0270 C   0  0  0  0  0
   13.6610   28.7960   71.6280 O   0  0  0  0  0
   13.2810   26.5040   72.0860 C   0  0  0  0  0
   13.2050   25.8890   73.3660 O   0  0  0  0  0
   12.0230   27.1670   71.5290 C   0  0  0  0  0
   10.8520   26.8110   72.2670 O   0  0  0  0  0
   12.2790   28.6460   71.8320 C   0  0  0  0  0
   11.6400   29.6250   70.9350 N   0  0  0  0  0
   11.2300   29.6480   69.6440 C   0  0  0  0  0
   10.7800   30.8450   69.2470 N   0  0  0  0  0
   10.8990   31.6840   70.3580 C   0  0  0  0  0
   10.6470   33.0130   70.6820 C   0  0  0  0  0
   10.1360   33.8840   69.7740 N   0  0  0  0  0
   10.9100   33.4980   71.9460 N   0  0  0  0  0
   11.4190   32.6720   72.8860 C   0  0  0  0  0
   11.6930   31.3730   72.6540 N   0  0  0  0  0
   11.4330   30.9070   71.4040 C   0  0  0  0  0
   21.5251   24.8282   75.3124 H   0  0  0  0  0
   20.7408   23.8648   74.2018 H   0  0  0  0  0
   21.2264   25.4010   73.7763 H   0  0  0  0  0
   19.7924   26.3691   75.3156 H   0  0  0  0  0
   20.4541   23.5327   76.0995 H   0  0  0  0  0
   17.8002   24.7188   74.3309 H   0  0  0  0  0
   19.2398   25.3674   73.0181 H   0  0  0  0  0
   18.0054   27.2456   72.8199 H   0  0  0  0  0
   16.6198   26.4663   73.8649 H   0  0  0  0  0
   18.3712   26.6677   70.2344 H   0  0  0  0  0
   18.5464   24.9504   70.6717 H   0  0  0  0  0
   17.4084   25.4309   69.3892 H   0  0  0  0  0
   15.1651   27.1649   70.1198 H   0  0  0  0  0
   16.2110   28.2134   71.2031 H   0  0  0  0  0
   14.7900   27.7106   73.0159 H   0  0  0  0  0
   13.5111   25.6243   71.4849 H   0  0  0  0  0
   12.5342   25.2024   73.3506 H   0  0  0  0  0
   11.8573   26.8940   70.4868 H   0  0  0  0  0
   10.0883   27.2485   71.8837 H   0  0  0  0  0
   11.8794   28.8493   72.8255 H   0  0  0  0  0
   11.2632   28.7758   68.9911 H   0  0  0  0  0
    9.9270   33.5690   68.8267 H   0  0  0  0  0
    9.9612   34.8532   70.0394 H   0  0  0  0  0
   11.6175   33.0752   73.8790 H   0  0  0  0  0
  1  2  1  0  0  0
  2  3  1  0  0  0
  2  6  1  0  0  0
  3  4  2  0  0  0
  3  5  1  0  0  0
  6  7  1  0  0  0
  7  8  1  0  0  0
  8  9  1  0  0  0
  8 10  1  0  0  0
 10 11  1  0  0  0
 11 12  1  0  0  0
 11 13  1  0  0  0
 12 17  1  0  0  0
 13 14  1  0  0  0
 13 15  1  0  0  0
 15 16  1  0  0  0
 15 17  1  0  0  0
 17 18  1  0  0  0
 18 19  4  0  0  0
 18 27  4  0  0  0
 19 20  4  0  0  0
 20 21  4  0  0  0
 21 22  4  0  0  0
 21 27  4  0  0  0
 22 23  1  0  0  0
 22 24  4  0  0  0
 24 25  4  0  0  0
 25 26  4  0  0  0
 26 27  4  0  0  0
  1 28  1  0  0  0
  1 29  1  0  0  0
  1 30  1  0  0  0
  2 31  1  0  0  0
  5 32  1  0  0  0
  6 33  1  0  0  0
  6 34  1  0  0  0
  7 35  1  0  0  0
  7 36  1  0  0  0
  9 37  1  0  0  0
  9 38  1  0  0  0
  9 39  1  0  0  0
 10 40  1  0  0  0
 10 41  1  0  0  0
 11 42  1  0  0  0
 13 43  1  0  0  0
 14 44  1  0  0  0
 15 45  1  0  0  0
 16 46  1  0  0  0
 17 47  1  0  0  0
 19 48  1  0  0  0
 23 49  1  0  0  0
 23 50  1  0  0  0
 25 51  1  0  0  0
M  END
$$$$
