5x5g_ligand
  -I-interpret- 

 41 41  0  0  0  0  0  0  0  0999 V2000
    7.1150   -1.8890   21.3510 C   0  0  0  0  0
    7.8930   -2.6320   21.9540 O   0  0  0  0  0
    5.8760   -1.9160   21.5210 N   0  0  0  0  0
    5.2160   -2.8720   22.3910 C   0  0  0  0  0
    4.1720   -3.5780   21.6030 C   0  0  0  0  0
    3.1170   -3.9920   22.2880 N   0  0  0  0  0
    4.3860   -3.7880   20.3930 O   0  0  0  0  0
    5.0460   -0.8590   21.0320 C   0  0  0  0  0
    4.7240    0.0060   22.2220 C   0  0  0  0  0
    3.9260   -0.8360   23.2160 C   0  0  0  0  0
    4.6810   -2.1130   23.6040 C   0  0  0  0  0
    5.9520    0.6740   22.7560 N   0  3  0  0  0
    7.8930    0.4110   24.1200 S   0  0  0  0  0
    6.4630    0.0620   23.8250 O   0  0  0  0  0
    8.5490   -0.4560   25.0390 O   0  0  0  0  0
    7.8040    1.6750   24.7780 O   0  0  0  0  0
    8.6670    0.4400   22.7120 O   0  0  0  0  0
    2.1830   -7.9990   20.4900 N   0  3  0  0  0
    2.9900   -7.1530   21.4080 C   0  0  0  0  0
    2.1610   -6.1580   22.2220 C   0  0  0  0  0
    2.2600   -4.8300   21.7060 O   0  0  0  0  0
    7.5261   -1.1756   20.6367 H   0  0  0  0  0
    5.8906   -3.6399   22.7696 H   0  0  0  0  0
    2.9630   -3.6747   23.2451 H   0  0  0  0  0
    4.1381   -1.2517   20.5741 H   0  0  0  0  0
    5.5543   -0.2868   20.2559 H   0  0  0  0  0
    4.0882    0.8492   21.9522 H   0  0  0  0  0
    2.9833   -1.1207   22.7487 H   0  0  0  0  0
    3.7626   -0.2443   24.1167 H   0  0  0  0  0
    5.5321   -1.8246   24.2209 H   0  0  0  0  0
    3.9848   -2.7675   24.1284 H   0  0  0  0  0
    5.6912    1.6191   23.0372 H   0  0  0  0  0
    6.6590    0.6523   22.0211 H   0  0  0  0  0
    8.2089    1.0294   22.1084 H   0  0  0  0  0
    2.8003   -8.6339   19.9838 H   0  0  0  0  0
    1.5084   -8.5389   21.0320 H   0  0  0  0  0
    1.6885   -7.4026   19.8265 H   0  0  0  0  0
    3.6800   -6.5745   20.7937 H   0  0  0  0  0
    3.4825   -7.8202   22.1154 H   0  0  0  0  0
    2.5394   -6.1553   23.2442 H   0  0  0  0  0
    1.1163   -6.4652   22.1737 H   0  0  0  0  0
  1  2  2  0  0  0
  3  1  1  0  0  0
  4  3  1  0  0  0
  3  8  1  0  0  0
  5  4  1  0  0  0
  4 11  1  0  0  0
  6  5  1  0  0  0
  5  7  2  0  0  0
 21  6  1  0  0  0
  8  9  1  0  0  0
 10  9  1  0  0  0
  9 12  1  0  0  0
 11 10  1  0  0  0
 12 14  1  0  0  0
 14 13  1  0  0  0
 13 15  2  0  0  0
 13 16  2  0  0  0
 13 17  1  0  0  0
 19 18  1  0  0  0
 20 19  1  0  0  0
 20 21  1  0  0  0
  1 22  1  0  0  0
  4 23  1  0  0  0
  6 24  1  0  0  0
  8 25  1  0  0  0
  8 26  1  0  0  0
  9 27  1  0  0  0
 10 28  1  0  0  0
 10 29  1  0  0  0
 11 30  1  0  0  0
 11 31  1  0  0  0
 12 32  1  0  0  0
 12 33  1  0  0  0
 17 34  1  0  0  0
 18 35  1  0  0  0
 18 36  1  0  0  0
 18 37  1  0  0  0
 19 38  1  0  0  0
 19 39  1  0  0  0
 20 40  1  0  0  0
 20 41  1  0  0  0
M  END
$$$$
