3tww_ligand
  -I-interpret- 

189190  0  0  0  0  0  0  0  0999 V2000
   10.7350  -12.9780    4.1480 N   0  3  0  0  0
   11.0580  -11.9260    3.1930 C   0  0  0  0  0
    9.8270  -11.0820    2.8700 C   0  0  0  0  0
    8.6910  -11.5090    3.0700 O   0  0  0  0  0
   11.6480  -12.5180    1.9090 C   0  0  0  0  0
   12.1200  -11.4860    0.9000 C   0  0  0  0  0
   13.2450  -10.6220    1.4350 C   0  0  0  0  0
   13.0280   -9.4810    1.8400 O   0  0  0  0  0
   14.4570  -11.1650    1.4370 N   0  0  0  0  0
   10.0680   -9.8790    2.3660 N   0  0  0  0  0
    8.9960   -8.9490    2.0490 C   0  0  0  0  0
    8.3040   -9.3940    0.7660 C   0  0  0  0  0
    8.9670   -9.7700   -0.1940 O   0  0  0  0  0
    9.5670   -7.5360    1.8940 C   0  0  0  0  0
    8.5200   -6.4570    1.8140 C   0  0  0  0  0
    9.1210   -5.0590    1.8560 C   0  0  0  0  0
    8.0570   -4.0820    1.6730 N   0  0  0  0  0
    7.7180   -3.5500    0.5040 C   0  0  0  0  0
    8.3900   -3.8740   -0.5880 N   0  0  0  0  0
    6.7130   -2.6850    0.4300 N   0  0  0  0  0
    6.9760   -9.3620    0.7470 N   0  0  0  0  0
    6.2460   -9.8410   -0.4200 C   0  0  0  0  0
    5.3880   -8.7620   -1.0700 C   0  0  0  0  0
    5.0590   -7.7600   -0.4440 O   0  0  0  0  0
    5.3720  -11.0300   -0.0440 C   0  0  0  0  0
    6.1470  -12.2400    0.3970 C   0  0  0  0  0
    5.4590  -13.5180   -0.0080 C   0  0  0  0  0
    4.5700  -14.0070    0.6930 O   0  0  0  0  0
    5.8550  -14.0660   -1.1560 N   0  0  0  0  0
    5.0280   -8.9830   -2.3330 N   0  0  0  0  0
    4.2220   -8.0240   -3.0780 C   0  0  0  0  0
    2.8360   -7.8510   -2.4720 C   0  0  0  0  0
    2.2450   -8.8040   -1.9580 O   0  0  0  0  0
    4.0740   -8.4660   -4.5400 C   0  0  0  0  0
    5.3340   -8.5370   -5.1750 O   0  0  0  0  0
    2.3090   -6.6240   -2.5390 N   0  0  0  0  0
    0.9270   -6.4070   -2.1210 C   0  0  0  0  0
   -0.0200   -7.0370   -3.1380 C   0  0  0  0  0
    0.3750   -7.3030   -4.2660 O   0  0  0  0  0
    0.7880   -4.8780   -2.1230 C   0  0  0  0  0
    1.8910   -4.3750   -2.9490 C   0  0  0  0  0
    2.9650   -5.3960   -3.0160 C   0  0  0  0  0
   -1.2530   -7.2940   -2.7320 N   0  0  0  0  0
   -2.2580   -7.7540   -3.6720 C   0  0  0  0  0
   -2.5170   -6.6740   -4.7010 C   0  0  0  0  0
   -2.7270   -5.5210   -4.3540 O   0  0  0  0  0
   -3.5520   -8.0910   -2.9230 C   0  0  0  0  0
   -3.4630   -9.4170   -2.1980 C   0  0  0  0  0
   -2.9860  -10.3760   -2.8290 O   0  0  0  0  0
   -3.8330   -9.5000   -1.0090 O   0  0  0  0  0
   -2.5090   -7.0460   -5.9720 N   0  0  0  0  0
   -2.8070   -6.0870   -7.0190 C   0  0  0  0  0
   -2.1250   -6.4600   -8.3080 C   0  0  0  0  0
   -1.5630   -7.5530   -8.4400 O   0  0  0  0  0
   -2.1960   -5.5590   -9.2750 N   0  0  0  0  0
   -1.4620   -5.7170  -10.5220 C   0  0  0  0  0
   -1.4550   -4.4080  -11.2700 C   0  0  0  0  0
   -2.3490   -3.5760  -11.0910 O   0  0  0  0  0
   -1.9800   -6.8720  -11.3990 C   0  0  0  0  0
   -3.3720   -6.7370  -11.9440 C   0  0  0  0  0
   -3.7520   -7.9300  -12.8240 C   0  0  0  0  0
   -3.5270   -9.0860  -12.4590 O   0  0  0  0  0
   -4.3190   -7.6500  -13.9900 N   0  0  0  0  0
   -0.4310   -4.2380  -12.0970 N   0  0  0  0  0
   -0.1640   -2.9580  -12.7520 C   0  0  0  0  0
   -1.1980   -2.6560  -13.8320 C   0  0  0  0  0
   -1.6650   -1.5260  -13.9460 O   0  0  0  0  0
    1.2380   -2.9660  -13.3670 C   0  0  0  0  0
    2.2060   -2.8610  -12.3470 O   0  0  0  0  0
   -1.5260   -3.6710  -14.6370 N   0  0  0  0  0
   -2.4600   -3.5000  -15.7490 C   0  0  0  0  0
   -3.7310   -4.3180  -15.5830 C   0  0  0  0  0
   -3.7010   -5.5010  -15.2180 O   0  0  0  0  0
   -1.7840   -3.8210  -17.0760 C   0  0  0  0  0
   -0.6210   -2.9500  -17.3620 C   0  0  0  0  0
   -0.7920   -1.5810  -17.5040 C   0  0  0  0  0
    0.6470   -3.4810  -17.4710 C   0  0  0  0  0
    0.2740   -0.7600  -17.7560 C   0  0  0  0  0
    1.7260   -2.6610  -17.7270 C   0  0  0  0  0
    1.5390   -1.2950  -17.8680 C   0  0  0  0  0
   -4.8550   -3.6790  -15.8630 N   0  0  0  0  0
   -6.1400   -4.3550  -15.7930 C   0  0  0  0  0
   -6.2310   -5.4860  -16.8150 C   0  0  0  0  0
   -6.8480   -6.5090  -16.5390 O   0  0  0  0  0
   -7.2960   -3.3640  -15.9620 C   0  0  0  0  0
   -7.5880   -2.5470  -14.7000 C   0  0  0  0  0
   -7.4290   -1.0510  -14.9990 C   0  0  0  0  0
   -8.6010   -0.5190  -15.6720 N   0  0  0  0  0
   -8.6130    0.5720  -16.4370 C   0  0  0  0  0
   -9.7490    0.9590  -16.9920 N   0  0  0  0  0
   -7.5020    1.2730  -16.6530 N   0  0  0  0  0
   -5.5960   -5.3000  -17.9720 N   0  0  0  0  0
   -5.6430   -6.2820  -19.0740 C   0  0  0  0  0
   -5.2810   -5.6060  -20.3990 C   0  0  0  0  0
   -3.9490   -5.1100  -20.3220 O   0  0  0  0  0
   -4.9050   -8.5350  -19.5410 N   0  0  0  0  0
   -4.6530   -7.4320  -18.8420 C   0  0  0  0  0
   -3.7040   -7.3070  -18.0710 O   0  0  0  0  0
   10.3446  -12.5605    4.9928 H   0  0  0  0  0
   10.0523  -13.6131    3.7345 H   0  0  0  0  0
   11.5827  -13.4943    4.3829 H   0  0  0  0  0
   11.8059  -11.2793    3.6517 H   0  0  0  0  0
   10.8565  -13.0943    1.4299 H   0  0  0  0  0
   12.5204  -13.1036    2.1988 H   0  0  0  0  0
   11.2778  -10.8345    0.6667 H   0  0  0  0  0
   12.4921  -12.0179    0.0244 H   0  0  0  0  0
   15.2542  -10.6317    1.7841 H   0  0  0  0  0
   14.5907  -12.1153    1.0914 H   0  0  0  0  0
   11.0336   -9.5980    2.1958 H   0  0  0  0  0
    8.2647   -8.9388    2.8572 H   0  0  0  0  0
   10.1256   -7.5141    0.9583 H   0  0  0  0  0
   10.1727   -7.3336    2.7773 H   0  0  0  0  0
    7.8586   -6.5652    2.6736 H   0  0  0  0  0
    7.9931   -6.5687    0.8664 H   0  0  0  0  0
    9.8600   -4.9518    1.0620 H   0  0  0  0  0
    9.6088   -4.8966    2.8171 H   0  0  0  0  0
    7.5365   -3.7859    2.4987 H   0  0  0  0  0
    9.1676   -4.5317   -0.5320 H   0  0  0  0  0
    6.4607   -2.2719   -0.4678 H   0  0  0  0  0
    6.1934   -2.4337    1.2710 H   0  0  0  0  0
    6.4651   -9.0007    1.5525 H   0  0  0  0  0
    6.9954  -10.1424   -1.1519 H   0  0  0  0  0
    4.8085  -11.3123   -0.9333 H   0  0  0  0  0
    4.7479  -10.7213    0.7946 H   0  0  0  0  0
    6.2257  -12.2210    1.4840 H   0  0  0  0  0
    7.1280  -12.2120   -0.0772 H   0  0  0  0  0
    5.4183  -14.9259   -1.4880 H   0  0  0  0  0
    6.5948  -13.6256   -1.7029 H   0  0  0  0  0
    5.3238   -9.8453   -2.7906 H   0  0  0  0  0
    4.7432   -7.0680   -3.0279 H   0  0  0  0  0
    3.4570   -7.7374   -5.0658 H   0  0  0  0  0
    3.6138   -9.4538   -4.5628 H   0  0  0  0  0
    5.2166   -8.8148   -6.0864 H   0  0  0  0  0
    0.6883   -6.8476   -1.1531 H   0  0  0  0  0
    0.8358   -4.4751   -1.1113 H   0  0  0  0  0
   -0.1780   -4.5691   -2.5223 H   0  0  0  0  0
    2.2868   -3.4601   -2.5081 H   0  0  0  0  0
    1.5256   -4.1659   -3.9544 H   0  0  0  0  0
    3.3724   -5.5057   -4.0210 H   0  0  0  0  0
    3.8326   -5.1271   -2.4135 H   0  0  0  0  0
   -1.4989   -7.1677   -1.7502 H   0  0  0  0  0
   -1.9008   -8.6511   -4.1777 H   0  0  0  0  0
   -4.3593   -8.1564   -3.6524 H   0  0  0  0  0
   -3.7290   -7.3106   -2.1829 H   0  0  0  0  0
   -4.1673   -8.6481   -0.7189 H   0  0  0  0  0
   -2.2921   -8.0123   -6.2162 H   0  0  0  0  0
   -2.4476   -5.1068   -6.7059 H   0  0  0  0  0
   -3.8842   -6.0766   -7.1853 H   0  0  0  0  0
   -2.7798   -4.7331   -9.1430 H   0  0  0  0  0
   -0.4393   -5.9944  -10.2664 H   0  0  0  0  0
   -1.9945   -7.7522  -10.7563 H   0  0  0  0  0
   -1.3212   -6.9073  -12.2667 H   0  0  0  0  0
   -3.4173   -5.8332  -12.5516 H   0  0  0  0  0
   -4.0669   -6.6931  -11.1054 H   0  0  0  0  0
   -4.5859   -8.4051  -14.6217 H   0  0  0  0  0
   -4.4881   -6.6796  -14.2549 H   0  0  0  0  0
    0.1900   -5.0258  -12.2818 H   0  0  0  0  0
   -0.2273   -2.1768  -11.9945 H   0  0  0  0  0
    1.3382   -2.1209  -14.0481 H   0  0  0  0  0
    1.3877   -3.8979  -13.9122 H   0  0  0  0  0
    3.0829   -2.8665  -12.7378 H   0  0  0  0  0
   -1.1140   -4.5893  -14.4714 H   0  0  0  0  0
   -2.7586   -2.4517  -15.7473 H   0  0  0  0  0
   -2.5172   -3.6645  -17.8673 H   0  0  0  0  0
   -1.4232   -4.8482  -17.0237 H   0  0  0  0  0
   -1.7901   -1.1524  -17.4136 H   0  0  0  0  0
    0.7973   -4.5543  -17.3542 H   0  0  0  0  0
    0.1227    0.3136  -17.8677 H   0  0  0  0  0
    2.7251   -3.0870  -17.8184 H   0  0  0  0  0
    2.3910   -0.6450  -18.0671 H   0  0  0  0  0
   -4.8194   -2.6959  -16.1324 H   0  0  0  0  0
   -6.2236   -4.7998  -14.8014 H   0  0  0  0  0
   -8.1913   -3.9408  -16.1939 H   0  0  0  0  0
   -7.0153   -2.6636  -16.7486 H   0  0  0  0  0
   -6.8873   -2.8336  -13.9158 H   0  0  0  0  0
   -8.6095   -2.7420  -14.3735 H   0  0  0  0  0
   -6.5650   -0.9175  -15.6500 H   0  0  0  0  0
   -7.3005   -0.5206  -14.0554 H   0  0  0  0  0
   -9.4819   -1.0185  -15.5498 H   0  0  0  0  0
  -10.6028    0.4242  -16.8324 H   0  0  0  0  0
   -7.5300    2.1039  -17.2440 H   0  0  0  0  0
   -6.6228    0.9792  -16.2275 H   0  0  0  0  0
   -5.0556   -4.4447  -18.1016 H   0  0  0  0  0
   -6.6575   -6.6790  -19.1094 H   0  0  0  0  0
   -5.9682   -4.7816  -20.5891 H   0  0  0  0  0
   -5.3560   -6.3290  -21.2113 H   0  0  0  0  0
   -3.7184   -4.6853  -21.1515 H   0  0  0  0  0
   -4.2914   -9.3452  -19.4541 H   0  0  0  0  0
   -5.7119   -8.5708  -20.1640 H   0  0  0  0  0
  1  2  1  0  0  0
  2  3  1  0  0  0
  2  5  1  0  0  0
  3  4  2  0  0  0
  3 10  1  0  0  0
  5  6  1  0  0  0
  6  7  1  0  0  0
  7  8  2  0  0  0
  7  9  1  0  0  0
 10 11  1  0  0  0
 11 12  1  0  0  0
 11 14  1  0  0  0
 12 13  2  0  0  0
 12 21  1  0  0  0
 14 15  1  0  0  0
 15 16  1  0  0  0
 16 17  1  0  0  0
 17 18  1  0  0  0
 18 19  2  0  0  0
 18 20  1  0  0  0
 21 22  1  0  0  0
 22 23  1  0  0  0
 22 25  1  0  0  0
 23 24  2  0  0  0
 23 30  1  0  0  0
 25 26  1  0  0  0
 26 27  1  0  0  0
 27 28  2  0  0  0
 27 29  1  0  0  0
 30 31  1  0  0  0
 31 32  1  0  0  0
 31 34  1  0  0  0
 32 33  2  0  0  0
 32 36  1  0  0  0
 34 35  1  0  0  0
 36 37  1  0  0  0
 36 42  1  0  0  0
 37 38  1  0  0  0
 37 40  1  0  0  0
 38 39  2  0  0  0
 38 43  1  0  0  0
 40 41  1  0  0  0
 41 42  1  0  0  0
 43 44  1  0  0  0
 44 45  1  0  0  0
 44 47  1  0  0  0
 45 46  2  0  0  0
 45 51  1  0  0  0
 47 48  1  0  0  0
 48 49  2  0  0  0
 48 50  1  0  0  0
 51 52  1  0  0  0
 52 53  1  0  0  0
 53 54  2  0  0  0
 53 55  1  0  0  0
 55 56  1  0  0  0
 56 57  1  0  0  0
 56 59  1  0  0  0
 57 58  2  0  0  0
 57 64  1  0  0  0
 59 60  1  0  0  0
 60 61  1  0  0  0
 61 62  2  0  0  0
 61 63  1  0  0  0
 64 65  1  0  0  0
 65 66  1  0  0  0
 65 68  1  0  0  0
 66 67  2  0  0  0
 66 70  1  0  0  0
 68 69  1  0  0  0
 70 71  1  0  0  0
 71 72  1  0  0  0
 71 74  1  0  0  0
 72 73  2  0  0  0
 72 81  1  0  0  0
 74 75  1  0  0  0
 75 76  4  0  0  0
 75 77  4  0  0  0
 76 78  4  0  0  0
 77 79  4  0  0  0
 78 80  4  0  0  0
 79 80  4  0  0  0
 81 82  1  0  0  0
 82 83  1  0  0  0
 82 85  1  0  0  0
 83 84  2  0  0  0
 83 92  1  0  0  0
 85 86  1  0  0  0
 86 87  1  0  0  0
 87 88  1  0  0  0
 88 89  1  0  0  0
 89 90  2  0  0  0
 89 91  1  0  0  0
 92 93  1  0  0  0
 93 94  1  0  0  0
 93 97  1  0  0  0
 94 95  1  0  0  0
 97 96  1  0  0  0
 97 98  2  0  0  0
  1 99  1  0  0  0
  1100  1  0  0  0
  1101  1  0  0  0
  2102  1  0  0  0
  5103  1  0  0  0
  5104  1  0  0  0
  6105  1  0  0  0
  6106  1  0  0  0
  9107  1  0  0  0
  9108  1  0  0  0
 10109  1  0  0  0
 11110  1  0  0  0
 14111  1  0  0  0
 14112  1  0  0  0
 15113  1  0  0  0
 15114  1  0  0  0
 16115  1  0  0  0
 16116  1  0  0  0
 17117  1  0  0  0
 19118  1  0  0  0
 20119  1  0  0  0
 20120  1  0  0  0
 21121  1  0  0  0
 22122  1  0  0  0
 25123  1  0  0  0
 25124  1  0  0  0
 26125  1  0  0  0
 26126  1  0  0  0
 29127  1  0  0  0
 29128  1  0  0  0
 30129  1  0  0  0
 31130  1  0  0  0
 34131  1  0  0  0
 34132  1  0  0  0
 35133  1  0  0  0
 37134  1  0  0  0
 40135  1  0  0  0
 40136  1  0  0  0
 41137  1  0  0  0
 41138  1  0  0  0
 42139  1  0  0  0
 42140  1  0  0  0
 43141  1  0  0  0
 44142  1  0  0  0
 47143  1  0  0  0
 47144  1  0  0  0
 50145  1  0  0  0
 51146  1  0  0  0
 52147  1  0  0  0
 52148  1  0  0  0
 55149  1  0  0  0
 56150  1  0  0  0
 59151  1  0  0  0
 59152  1  0  0  0
 60153  1  0  0  0
 60154  1  0  0  0
 63155  1  0  0  0
 63156  1  0  0  0
 64157  1  0  0  0
 65158  1  0  0  0
 68159  1  0  0  0
 68160  1  0  0  0
 69161  1  0  0  0
 70162  1  0  0  0
 71163  1  0  0  0
 74164  1  0  0  0
 74165  1  0  0  0
 76166  1  0  0  0
 77167  1  0  0  0
 78168  1  0  0  0
 79169  1  0  0  0
 80170  1  0  0  0
 81171  1  0  0  0
 82172  1  0  0  0
 85173  1  0  0  0
 85174  1  0  0  0
 86175  1  0  0  0
 86176  1  0  0  0
 87177  1  0  0  0
 87178  1  0  0  0
 88179  1  0  0  0
 90180  1  0  0  0
 91181  1  0  0  0
 91182  1  0  0  0
 92183  1  0  0  0
 93184  1  0  0  0
 94185  1  0  0  0
 94186  1  0  0  0
 95187  1  0  0  0
 96188  1  0  0  0
 96189  1  0  0  0
M  END
$$$$
