### 
### Created by X-TOOL on Mon Sep 10 21:13:07 2018
### 

@<TRIPOS>MOLECULE
3tww_ligand
  190   191     1     0     0
SMALL
GAST_HUCK


@<TRIPOS>ATOM
      1 N          10.7350  -12.9780    4.1480 N.4       1 GLN         0.2380
      2 CA         11.0580  -11.9260    3.1930 C.3       1 GLN         0.0671
      3 C           9.8270  -11.0820    2.8700 C.2       1 GLN         0.2269
      4 O           8.6910  -11.5090    3.0700 O.2       1 GLN        -0.3907
      5 CB         11.6480  -12.5180    1.9090 C.3       1 GLN         0.0247
      6 CG         12.1200  -11.4860    0.9000 C.3       1 GLN         0.0443
      7 CD         13.2450  -10.6220    1.4350 C.2       1 GLN         0.1738
      8 OE1        13.0280   -9.4810    1.8400 O.2       1 GLN        -0.3973
      9 NE2        14.4570  -11.1650    1.4370 N.am      1 GLN        -0.3009
     10 N          10.0680   -9.8790    2.3660 N.am      1 ARG        -0.2610
     11 CA          8.9960   -8.9490    2.0490 C.3       1 ARG         0.1312
     12 C           8.3040   -9.3940    0.7660 C.2       1 ARG         0.2039
     13 O           8.9670   -9.7700   -0.1940 O.2       1 ARG        -0.3944
     14 CB          9.5670   -7.5360    1.8940 C.3       1 ARG        -0.0092
     15 CG          8.5200   -6.4570    1.8140 C.3       1 ARG        -0.0156
     16 CD          9.1210   -5.0590    1.8560 C.3       1 ARG         0.0627
     17 NE          8.0570   -4.0820    1.6730 N.pl3     1 ARG        -0.2723
     18 CZ          7.7180   -3.5500    0.5040 C.cat     1 ARG         0.2882
     19 NH1         8.3900   -3.8740   -0.5880 N.pl3     1 ARG        -0.2849
     20 NH2         6.7130   -2.6850    0.4300 N.pl3     1 ARG        -0.2849
     21 N           6.9760   -9.3620    0.7470 N.am      1 GLN        -0.2636
     22 CA          6.2460   -9.8410   -0.4200 C.3       1 GLN         0.1330
     23 C           5.3880   -8.7620   -1.0700 C.2       1 GLN         0.2041
     24 O           5.0590   -7.7600   -0.4440 O.2       1 GLN        -0.3944
     25 CB          5.3720  -11.0300   -0.0440 C.3       1 GLN         0.0045
     26 CG          6.1470  -12.2400    0.3970 C.3       1 GLN         0.0412
     27 CD          5.4590  -13.5180   -0.0080 C.2       1 GLN         0.1737
     28 OE1         4.5700  -14.0070    0.6930 O.2       1 GLN        -0.3973
     29 NE2         5.8550  -14.0660   -1.1560 N.am      1 GLN        -0.3009
     30 N           5.0280   -8.9830   -2.3330 N.am      1 SER        -0.2616
     31 CA          4.2220   -8.0240   -3.0780 C.3       1 SER         0.1541
     32 C           2.8360   -7.8510   -2.4720 C.2       1 SER         0.2087
     33 O           2.2450   -8.8040   -1.9580 O.2       1 SER        -0.3941
     34 CB          4.0740   -8.4660   -4.5400 C.3       1 SER         0.0843
     35 OG          5.3340   -8.5370   -5.1750 O.3       1 SER        -0.3903
     36 N           2.3090   -6.6240   -2.5390 N.am      1 PRO        -0.2498
     37 CA          0.9270   -6.4070   -2.1210 C.3       1 PRO         0.1338
     38 C          -0.0200   -7.0370   -3.1380 C.2       1 PRO         0.2042
     39 O           0.3750   -7.3030   -4.2660 O.2       1 PRO        -0.3944
     40 CB          0.7880   -4.8780   -2.1230 C.3       1 PRO        -0.0104
     41 CG          1.8910   -4.3750   -2.9490 C.3       1 PRO        -0.0281
     42 CD          2.9650   -5.3960   -3.0160 C.3       1 PRO         0.0369
     43 N          -1.2530   -7.2940   -2.7320 N.am      1 ASP        -0.2622
     44 CA         -2.2580   -7.7540   -3.6720 C.3       1 ASP         0.1423
     45 C          -2.5170   -6.6740   -4.7010 C.2       1 ASP         0.2054
     46 O          -2.7270   -5.5210   -4.3540 O.2       1 ASP        -0.3943
     47 CB         -3.5520   -8.0910   -2.9230 C.3       1 ASP         0.0406
     48 CG         -3.4630   -9.4170   -2.1980 C.2       1 ASP         0.0393
     49 OD1        -2.9860  -10.3760   -2.8290 O.co2     1 ASP        -0.5688
     50 OD2        -3.8330   -9.5000   -1.0090 O.co2     1 ASP        -0.5688
     51 N          -2.5090   -7.0460   -5.9720 N.am      1 GLY        -0.2663
     52 CA         -2.8070   -6.0870   -7.0190 C.3       1 GLY         0.1201
     53 C          -2.1250   -6.4600   -8.3080 C.2       1 GLY         0.2007
     54 O          -1.5630   -7.5530   -8.4400 O.2       1 GLY        -0.3947
     55 N          -2.1960   -5.5590   -9.2750 N.am      1 GLN        -0.2638
     56 CA         -1.4620   -5.7170  -10.5220 C.3       1 GLN         0.1330
     57 C          -1.4550   -4.4080  -11.2700 C.2       1 GLN         0.2041
     58 O          -2.3490   -3.5760  -11.0910 O.2       1 GLN        -0.3944
     59 CB         -1.9800   -6.8720  -11.3990 C.3       1 GLN         0.0045
     60 CG         -3.3720   -6.7370  -11.9440 C.3       1 GLN         0.0412
     61 CD         -3.7520   -7.9300  -12.8240 C.2       1 GLN         0.1737
     62 OE1        -3.5270   -9.0860  -12.4590 O.2       1 GLN        -0.3973
     63 NE2        -4.3190   -7.6500  -13.9900 N.am      1 GLN        -0.3009
     64 N          -0.4310   -4.2380  -12.0970 N.am      1 SER        -0.2616
     65 CA         -0.1640   -2.9580  -12.7520 C.3       1 SER         0.1539
     66 C          -1.1980   -2.6560  -13.8320 C.2       1 SER         0.2063
     67 O          -1.6650   -1.5260  -13.9460 O.2       1 SER        -0.3943
     68 CB          1.2380   -2.9660  -13.3670 C.3       1 SER         0.0843
     69 OG          2.2060   -2.8610  -12.3470 O.3       1 SER        -0.3903
     70 N          -1.5260   -3.6710  -14.6370 N.am      1 PHE        -0.2619
     71 CA         -2.4600   -3.5000  -15.7490 C.3       1 PHE         0.1404
     72 C          -3.7310   -4.3180  -15.5830 C.2       1 PHE         0.2060
     73 O          -3.7010   -5.5010  -15.2180 O.2       1 PHE        -0.3942
     74 CB         -1.7840   -3.8210  -17.0760 C.3       1 PHE         0.0214
     75 CG         -0.6210   -2.9500  -17.3620 C.ar      1 PHE        -0.0386
     76 CD1        -0.7920   -1.5810  -17.5040 C.ar      1 PHE        -0.0601
     77 CD2         0.6470   -3.4810  -17.4710 C.ar      1 PHE        -0.0601
     78 CE1         0.2740   -0.7600  -17.7560 C.ar      1 PHE        -0.0686
     79 CE2         1.7260   -2.6610  -17.7270 C.ar      1 PHE        -0.0686
     80 CZ          1.5390   -1.2950  -17.8680 C.ar      1 PHE        -0.0687
     81 N          -4.8550   -3.6790  -15.8630 N.am      1 ARG        -0.2636
     82 CA         -6.1400   -4.3550  -15.7930 C.3       1 ARG         0.1311
     83 C          -6.2310   -5.4860  -16.8150 C.2       1 ARG         0.2040
     84 O          -6.8480   -6.5090  -16.5390 O.2       1 ARG        -0.3944
     85 CB         -7.2960   -3.3640  -15.9620 C.3       1 ARG        -0.0092
     86 CG         -7.5880   -2.5470  -14.7000 C.3       1 ARG        -0.0156
     87 CD         -7.4290   -1.0510  -14.9990 C.3       1 ARG         0.0627
     88 NE         -8.6010   -0.5190  -15.6720 N.pl3     1 ARG        -0.2723
     89 CZ         -8.6130    0.5720  -16.4370 C.cat     1 ARG         0.2882
     90 NH1        -9.7490    0.9590  -16.9920 N.pl3     1 ARG        -0.2849
     91 NH2        -7.5020    1.2730  -16.6530 N.pl3     1 ARG        -0.2849
     92 N          -5.5960   -5.3000  -17.9720 N.am      1 SET        -0.2616
     93 CA         -5.6430   -6.2820  -19.0740 C.3       1 SET         0.1536
     94 CB         -5.2810   -5.6060  -20.3990 C.3       1 SET         0.0843
     95 OG         -3.9490   -5.1100  -20.3220 O.3       1 SET        -0.3903
     96 NT         -4.9050   -8.5350  -19.5410 N.am      1 SET        -0.2989
     97 C          -4.6530   -7.4320  -18.8420 C.2       1 SET         0.2015
     98 O          -3.7040   -7.3070  -18.0710 O.2       1 SET        -0.3947
     99 H          10.3446  -12.5605    4.9928 H         1 GLN         0.2015
    100 H          10.0523  -13.6131    3.7345 H         1 GLN         0.2015
    101 H          11.5827  -13.4943    4.3829 H         1 GLN         0.2015
    102 H          11.8059  -11.2793    3.6517 H         1 GLN         0.1100
    103 H          10.8565  -13.0943    1.4299 H         1 GLN         0.0370
    104 H          12.5204  -13.1036    2.1988 H         1 GLN         0.0370
    105 H          11.2778  -10.8345    0.6667 H         1 GLN         0.0506
    106 H          12.4921  -12.0179    0.0244 H         1 GLN         0.0506
    107 H          15.2542  -10.6317    1.7841 H         1 GLN         0.1814
    108 H          14.5907  -12.1153    1.0914 H         1 GLN         0.1814
    109 H          11.0336   -9.5980    2.1958 H         1 ARG         0.1884
    110 H           8.2647   -8.9388    2.8572 H         1 ARG         0.0800
    111 H          10.1256   -7.5141    0.9583 H         1 ARG         0.0313
    112 H          10.1727   -7.3336    2.7773 H         1 ARG         0.0313
    113 H           7.8586   -6.5652    2.6736 H         1 ARG         0.0301
    114 H           7.9931   -6.5687    0.8664 H         1 ARG         0.0301
    115 H           9.8600   -4.9518    1.0620 H         1 ARG         0.0689
    116 H           9.6088   -4.8966    2.8171 H         1 ARG         0.0689
    117 H           7.5365   -3.7859    2.4987 H         1 ARG         0.2642
    118 H           9.1676   -4.5317   -0.5320 H         1 ARG         0.2615
    119 H           8.1307   -3.4662   -1.4862 H         1 ARG         0.2615
    120 H           6.1988   -2.4273    1.2724 H         1 ARG         0.2615
    121 H           6.4553   -2.2783   -0.4692 H         1 ARG         0.2615
    122 H           6.4651   -9.0007    1.5525 H         1 GLN         0.1883
    123 H           6.9954  -10.1424   -1.1519 H         1 GLN         0.0801
    124 H           4.8085  -11.3123   -0.9333 H         1 GLN         0.0337
    125 H           4.7479  -10.7213    0.7946 H         1 GLN         0.0337
    126 H           6.2257  -12.2210    1.4840 H         1 GLN         0.0504
    127 H           7.1280  -12.2120   -0.0772 H         1 GLN         0.0504
    128 H           5.4183  -14.9259   -1.4880 H         1 GLN         0.1814
    129 H           6.5948  -13.6256   -1.7029 H         1 GLN         0.1814
    130 H           5.3238   -9.8453   -2.7906 H         1 SER         0.1884
    131 H           4.7432   -7.0680   -3.0279 H         1 SER         0.0823
    132 H           3.4570   -7.7374   -5.0658 H         1 SER         0.0606
    133 H           3.6138   -9.4538   -4.5628 H         1 SER         0.0606
    134 H           5.2166   -8.8148   -6.0864 H         1 SER         0.2097
    135 H           0.6883   -6.8476   -1.1531 H         1 PRO         0.0802
    136 H           0.8358   -4.4751   -1.1113 H         1 PRO         0.0313
    137 H          -0.1780   -4.5691   -2.5223 H         1 PRO         0.0313
    138 H           2.2868   -3.4601   -2.5081 H         1 PRO         0.0287
    139 H           1.5256   -4.1659   -3.9544 H         1 PRO         0.0287
    140 H           3.3724   -5.5057   -4.0210 H         1 PRO         0.0524
    141 H           3.8326   -5.1271   -2.4135 H         1 PRO         0.0524
    142 H          -1.4989   -7.1677   -1.7502 H         1 ASP         0.1884
    143 H          -1.9008   -8.6511   -4.1777 H         1 ASP         0.0819
    144 H          -4.3593   -8.1564   -3.6524 H         1 ASP         0.0478
    145 H          -3.7290   -7.3106   -2.1829 H         1 ASP         0.0478
    146 H          -2.2921   -8.0123   -6.2162 H         1 GLY         0.1881
    147 H          -2.4476   -5.1068   -6.7059 H         1 GLY         0.0763
    148 H          -3.8842   -6.0766   -7.1853 H         1 GLY         0.0763
    149 H          -2.7798   -4.7331   -9.1430 H         1 GLN         0.1883
    150 H          -0.4393   -5.9944  -10.2664 H         1 GLN         0.0801
    151 H          -1.9945   -7.7522  -10.7563 H         1 GLN         0.0337
    152 H          -1.3212   -6.9073  -12.2667 H         1 GLN         0.0337
    153 H          -3.4173   -5.8332  -12.5516 H         1 GLN         0.0504
    154 H          -4.0669   -6.6931  -11.1054 H         1 GLN         0.0504
    155 H          -4.5859   -8.4051  -14.6217 H         1 GLN         0.1814
    156 H          -4.4881   -6.6796  -14.2549 H         1 GLN         0.1814
    157 H           0.1900   -5.0258  -12.2818 H         1 SER         0.1884
    158 H          -0.2273   -2.1768  -11.9945 H         1 SER         0.0823
    159 H           1.3382   -2.1209  -14.0481 H         1 SER         0.0606
    160 H           1.3877   -3.8979  -13.9122 H         1 SER         0.0606
    161 H           3.0829   -2.8665  -12.7378 H         1 SER         0.2097
    162 H          -1.1140   -4.5893  -14.4714 H         1 PHE         0.1885
    163 H          -2.7586   -2.4517  -15.7473 H         1 PHE         0.0823
    164 H          -2.5172   -3.6645  -17.8673 H         1 PHE         0.0474
    165 H          -1.4232   -4.8482  -17.0237 H         1 PHE         0.0474
    166 H          -1.7901   -1.1524  -17.4136 H         1 PHE         0.0557
    167 H           0.7973   -4.5543  -17.3542 H         1 PHE         0.0557
    168 H           0.1227    0.3136  -17.8677 H         1 PHE         0.0599
    169 H           2.7251   -3.0870  -17.8184 H         1 PHE         0.0599
    170 H           2.3910   -0.6450  -18.0671 H         1 PHE         0.0559
    171 H          -4.8194   -2.6959  -16.1324 H         1 ARG         0.1883
    172 H          -6.2236   -4.7998  -14.8014 H         1 ARG         0.0800
    173 H          -8.1913   -3.9408  -16.1939 H         1 ARG         0.0313
    174 H          -7.0153   -2.6636  -16.7486 H         1 ARG         0.0313
    175 H          -6.8873   -2.8336  -13.9158 H         1 ARG         0.0301
    176 H          -8.6095   -2.7420  -14.3735 H         1 ARG         0.0301
    177 H          -6.5650   -0.9175  -15.6500 H         1 ARG         0.0689
    178 H          -7.3005   -0.5206  -14.0554 H         1 ARG         0.0689
    179 H          -9.4819   -1.0185  -15.5498 H         1 ARG         0.2642
    180 H         -10.6028    0.4242  -16.8324 H         1 ARG         0.2615
    181 H          -9.7716    1.7924  -17.5797 H         1 ARG         0.2615
    182 H          -6.6222    0.9775  -16.2299 H         1 ARG         0.2615
    183 H          -7.5306    2.1056  -17.2416 H         1 ARG         0.2615
    184 H          -5.0556   -4.4447  -18.1016 H         1 SET         0.1884
    185 H          -6.6575   -6.6790  -19.1094 H         1 SET         0.0823
    186 H          -5.9682   -4.7816  -20.5891 H         1 SET         0.0606
    187 H          -5.3560   -6.3290  -21.2113 H         1 SET         0.0606
    188 H          -3.8869   -4.4727  -19.6068 H         1 SET         0.2097
    189 H          -4.2914   -9.3452  -19.4541 H         1 SET         0.1815
    190 H          -5.7119   -8.5708  -20.1640 H         1 SET         0.1815
@<TRIPOS>BOND
     1    1    2 1  
     2    2    3 1  
     3    2    5 1  
     4    3    4 2  
     5    3   10 am 
     6    5    6 1  
     7    6    7 1  
     8    7    8 2  
     9    7    9 am 
    10   10   11 1  
    11   11   12 1  
    12   11   14 1  
    13   12   13 2  
    14   12   21 am 
    15   14   15 1  
    16   15   16 1  
    17   16   17 1  
    18   17   18 ar 
    19   18   19 ar 
    20   18   20 ar 
    21   21   22 1  
    22   22   23 1  
    23   22   25 1  
    24   23   24 2  
    25   23   30 am 
    26   25   26 1  
    27   26   27 1  
    28   27   28 2  
    29   27   29 am 
    30   30   31 1  
    31   31   32 1  
    32   31   34 1  
    33   32   33 2  
    34   32   36 am 
    35   34   35 1  
    36   36   37 1  
    37   36   42 1  
    38   37   38 1  
    39   37   40 1  
    40   38   39 2  
    41   38   43 am 
    42   40   41 1  
    43   41   42 1  
    44   43   44 1  
    45   44   45 1  
    46   44   47 1  
    47   45   46 2  
    48   45   51 am 
    49   47   48 1  
    50   48   49 ar 
    51   48   50 ar 
    52   51   52 1  
    53   52   53 1  
    54   53   54 2  
    55   53   55 am 
    56   55   56 1  
    57   56   57 1  
    58   56   59 1  
    59   57   58 2  
    60   57   64 am 
    61   59   60 1  
    62   60   61 1  
    63   61   62 2  
    64   61   63 am 
    65   64   65 1  
    66   65   66 1  
    67   65   68 1  
    68   66   67 2  
    69   66   70 am 
    70   68   69 1  
    71   70   71 1  
    72   71   72 1  
    73   71   74 1  
    74   72   73 2  
    75   72   81 am 
    76   74   75 1  
    77   75   76 ar 
    78   75   77 ar 
    79   76   78 ar 
    80   77   79 ar 
    81   78   80 ar 
    82   79   80 ar 
    83   81   82 1  
    84   82   83 1  
    85   82   85 1  
    86   83   84 2  
    87   83   92 am 
    88   85   86 1  
    89   86   87 1  
    90   87   88 1  
    91   88   89 ar 
    92   89   90 ar 
    93   89   91 ar 
    94   92   93 1  
    95   93   94 1  
    96   93   97 1  
    97   94   95 1  
    98   97   96 am 
    99   97   98 2  
   100    1   99 1  
   101    1  100 1  
   102    1  101 1  
   103    2  102 1  
   104    5  103 1  
   105    5  104 1  
   106    6  105 1  
   107    6  106 1  
   108    9  107 1  
   109    9  108 1  
   110   10  109 1  
   111   11  110 1  
   112   14  111 1  
   113   14  112 1  
   114   15  113 1  
   115   15  114 1  
   116   16  115 1  
   117   16  116 1  
   118   17  117 1  
   119   19  118 1  
   120   19  119 1  
   121   20  120 1  
   122   20  121 1  
   123   21  122 1  
   124   22  123 1  
   125   25  124 1  
   126   25  125 1  
   127   26  126 1  
   128   26  127 1  
   129   29  128 1  
   130   29  129 1  
   131   30  130 1  
   132   31  131 1  
   133   34  132 1  
   134   34  133 1  
   135   35  134 1  
   136   37  135 1  
   137   40  136 1  
   138   40  137 1  
   139   41  138 1  
   140   41  139 1  
   141   42  140 1  
   142   42  141 1  
   143   43  142 1  
   144   44  143 1  
   145   47  144 1  
   146   47  145 1  
   147   51  146 1  
   148   52  147 1  
   149   52  148 1  
   150   55  149 1  
   151   56  150 1  
   152   59  151 1  
   153   59  152 1  
   154   60  153 1  
   155   60  154 1  
   156   63  155 1  
   157   63  156 1  
   158   64  157 1  
   159   65  158 1  
   160   68  159 1  
   161   68  160 1  
   162   69  161 1  
   163   70  162 1  
   164   71  163 1  
   165   74  164 1  
   166   74  165 1  
   167   76  166 1  
   168   77  167 1  
   169   78  168 1  
   170   79  169 1  
   171   80  170 1  
   172   81  171 1  
   173   82  172 1  
   174   85  173 1  
   175   85  174 1  
   176   86  175 1  
   177   86  176 1  
   178   87  177 1  
   179   87  178 1  
   180   88  179 1  
   181   90  180 1  
   182   90  181 1  
   183   91  182 1  
   184   91  183 1  
   185   92  184 1  
   186   93  185 1  
   187   94  186 1  
   188   94  187 1  
   189   95  188 1  
   190   96  189 1  
   191   96  190 1  
@<TRIPOS>SUBSTRUCTURE
     1 GLN         1

