### 
### Created by X-TOOL on Mon Sep 10 21:13:14 2018
### 

@<TRIPOS>MOLECULE
4h4d_ligand
   26    25     1     0     0
SMALL
GAST_HUCK


@<TRIPOS>ATOM
      1 O13       -25.8170    1.0630  -18.5820 O.co2     1 10E        -0.5891
      2 P12       -26.1890    0.8560  -17.1130 P.3       1 10E         0.2070
      3 O14       -27.4030    1.7270  -16.7010 O.co2     1 10E        -0.5891
      4 O15       -25.0090    0.8920  -16.1150 O.co2     1 10E        -0.5891
      5 O11       -26.7750   -0.6190  -17.0720 O.3       1 10E        -0.1547
      6 P8        -26.3140   -2.0800  -16.7740 P.3       1 10E         0.3288
      7 O9        -27.3730   -3.0020  -17.2600 O.co2     1 10E        -0.5555
      8 O10       -24.9240   -2.3000  -17.2350 O.co2     1 10E        -0.5555
      9 O7        -26.1610   -2.1630  -15.1820 O.3       1 10E        -0.2411
     10 C6        -27.3310   -2.1640  -14.2180 C.3       1 10E         0.0918
     11 C5        -27.8940   -0.8160  -14.2020 C.2       1 10E        -0.0734
     12 C3        -29.1350   -0.4530  -14.5040 C.2       1 10E        -0.0375
     13 C4        -30.2280   -1.3440  -14.7410 C.3       1 10E        -0.0353
     14 C1        -29.5280    1.0130  -14.3640 C.3       1 10E        -0.0108
     15 N2        -29.8360    1.2310  -12.9420 N.4       1 10E         0.2298
     16 H1        -26.9859   -2.4379  -13.2101 H         1 10E         0.0696
     17 H2        -28.0921   -2.8839  -14.5532 H         1 10E         0.0696
     18 H3        -27.2168   -0.0154  -13.9081 H         1 10E         0.0270
     19 H4        -31.1330   -0.7617  -14.9688 H         1 10E         0.0377
     20 H5        -30.4025   -1.9569  -13.8444 H         1 10E         0.0377
     21 H6        -29.9894   -1.9988  -15.5921 H         1 10E         0.0377
     22 H7        -30.4122    1.2297  -14.9815 H         1 10E         0.0962
     23 H8        -28.6954    1.6607  -14.6757 H         1 10E         0.0962
     24 H9        -30.1028    2.1926  -12.7996 H         1 10E         0.2007
     25 H10       -29.0215    1.0224  -12.3860 H         1 10E         0.2007
     26 H11       -30.5947    0.6275  -12.6662 H         1 10E         0.2007
@<TRIPOS>BOND
     1    1    2 ar 
     2    2    3 ar 
     3    2    4 ar 
     4    2    5 1  
     5    5    6 1  
     6    6    7 ar 
     7    6    8 ar 
     8    6    9 1  
     9    9   10 1  
    10   10   11 1  
    11   11   12 2  
    12   12   13 1  
    13   12   14 1  
    14   14   15 1  
    15   10   16 1  
    16   10   17 1  
    17   11   18 1  
    18   13   19 1  
    19   13   20 1  
    20   13   21 1  
    21   14   22 1  
    22   14   23 1  
    23   15   24 1  
    24   15   25 1  
    25   15   26 1  
@<TRIPOS>SUBSTRUCTURE
     1 10E         1

