4h4d_ligand
  -I-interpret- 

 29 28  0  0  0  0  0  0  0  0999 V2000
  -25.8170    1.0630  -18.5820 O   0  0  0  0  0
  -26.1890    0.8560  -17.1130 P   0  0  0  0  0
  -27.4030    1.7270  -16.7010 O   0  0  0  0  0
  -25.0090    0.8920  -16.1150 O   0  0  0  0  0
  -26.7750   -0.6190  -17.0720 O   0  0  0  0  0
  -26.3140   -2.0800  -16.7740 P   0  0  0  0  0
  -27.3730   -3.0020  -17.2600 O   0  0  0  0  0
  -24.9240   -2.3000  -17.2350 O   0  0  0  0  0
  -26.1610   -2.1630  -15.1820 O   0  0  0  0  0
  -27.3310   -2.1640  -14.2180 C   0  0  0  0  0
  -27.8940   -0.8160  -14.2020 C   0  0  0  0  0
  -29.1350   -0.4530  -14.5040 C   0  0  0  0  0
  -30.2280   -1.3440  -14.7410 C   0  0  0  0  0
  -29.5280    1.0130  -14.3640 C   0  0  0  0  0
  -29.8360    1.2310  -12.9420 N   0  3  0  0  0
  -27.6075    1.5718  -15.7760 H   0  0  0  0  0
  -25.3401    0.7535  -15.2246 H   0  0  0  0  0
  -28.2178   -2.7437  -16.8841 H   0  0  0  0  0
  -26.9996   -2.4487  -13.2194 H   0  0  0  0  0
  -28.0836   -2.8858  -14.5354 H   0  0  0  0  0
  -27.2162   -0.0147  -13.9078 H   0  0  0  0  0
  -29.9903   -1.9922  -15.5845 H   0  0  0  0  0
  -30.3998   -1.9507  -13.8519 H   0  0  0  0  0
  -31.1241   -0.7658  -14.9666 H   0  0  0  0  0
  -30.3895    1.2468  -14.9895 H   0  0  0  0  0
  -28.7193    1.6661  -14.6920 H   0  0  0  0  0
  -30.1058    2.2042  -12.7991 H   0  0  0  0  0
  -30.6038    0.6198  -12.6641 H   0  0  0  0  0
  -29.0112    1.0196  -12.3804 H   0  0  0  0  0
  1  2  2  0  0  0
  2  3  1  0  0  0
  2  4  1  0  0  0
  2  5  1  0  0  0
  5  6  1  0  0  0
  6  7  1  0  0  0
  6  8  2  0  0  0
  6  9  1  0  0  0
  9 10  1  0  0  0
 10 11  1  0  0  0
 11 12  2  0  0  0
 12 13  1  0  0  0
 12 14  1  0  0  0
 14 15  1  0  0  0
  3 16  1  0  0  0
  4 17  1  0  0  0
  7 18  1  0  0  0
 10 19  1  0  0  0
 10 20  1  0  0  0
 11 21  1  0  0  0
 13 22  1  0  0  0
 13 23  1  0  0  0
 13 24  1  0  0  0
 14 25  1  0  0  0
 14 26  1  0  0  0
 15 27  1  0  0  0
 15 28  1  0  0  0
 15 29  1  0  0  0
M  END
$$$$
