3dzt_ligand
  -I-interpret- 

 59 58  0  0  0  0  0  0  0  0999 V2000
  -13.0790   -6.9900    7.9600 O   0  0  0  0  0
  -14.0190   -6.4500    7.4600 C   0  0  0  0  0
  -15.0830   -6.4600    8.0280 O   0  0  0  0  0
  -13.9440   -5.8000    6.1130 C   0  0  0  0  0
  -15.1170   -4.8730    6.0520 C   0  0  0  0  0
  -14.7270   -3.4100    5.9870 C   0  0  0  0  0
  -15.7920   -2.6210    5.2360 C   0  0  0  0  0
  -15.8080   -2.8660    3.9390 O   0  0  0  0  0
  -15.7480   -1.1500    5.6010 C   0  0  0  0  0
  -16.6260   -0.2690    4.7520 C   0  0  0  0  0
  -15.8880    0.8510    4.1260 C   0  0  0  0  0
  -16.6250    1.4750    3.0650 C   0  0  0  0  0
  -15.8940    2.2060    2.2510 C   0  0  0  0  0
  -16.7830    2.7270    1.2520 C   0  0  0  0  0
  -16.3950    3.3460    0.1750 C   0  0  0  0  0
  -14.9660    3.6510   -0.0440 C   0  0  0  0  0
  -14.7720    5.1300   -0.1320 C   0  0  0  0  0
  -14.2290    5.8410   -1.0840 C   0  0  0  0  0
  -13.6560    5.3030   -2.3450 C   0  0  0  0  0
  -12.2150    4.9220   -2.1890 C   0  0  0  0  0
  -12.2130    3.4540   -1.9330 C   0  0  0  0  0
  -11.0200    2.6650   -2.3850 C   0  0  0  0  0
   -9.8160    2.8450   -1.5390 C   0  0  0  0  0
  -15.7307   -5.9874    7.5001 H   0  0  0  0  0
  -13.9750   -6.5374    5.3109 H   0  0  0  0  0
  -13.0040   -5.2647    5.9791 H   0  0  0  0  0
  -15.6972   -5.0177    6.9633 H   0  0  0  0  0
  -15.6718   -5.1053    5.1430 H   0  0  0  0  0
  -13.7749   -3.3151    5.4649 H   0  0  0  0  0
  -14.6366   -3.0172    6.9997 H   0  0  0  0  0
  -16.7632   -2.9827    5.5736 H   0  0  0  0  0
  -15.8357   -3.8146    3.7940 H   0  0  0  0  0
  -14.7214   -0.8152    5.4524 H   0  0  0  0  0
  -16.1075   -1.0650    6.6265 H   0  0  0  0  0
  -17.3923    0.1583    5.3987 H   0  0  0  0  0
  -17.0386   -0.8834    3.9518 H   0  0  0  0  0
  -14.9669    0.4501    3.7030 H   0  0  0  0  0
  -15.7057    1.6026    4.8941 H   0  0  0  0  0
  -17.3505    2.1428    3.5296 H   0  0  0  0  0
  -17.0650    0.6758    2.4686 H   0  0  0  0  0
  -15.1055    1.6076    1.7946 H   0  0  0  0  0
  -15.4017    3.0143    2.7918 H   0  0  0  0  0
  -17.8541    2.5955    1.4055 H   0  0  0  0  0
  -17.1310    3.6422   -0.5724 H   0  0  0  0  0
  -14.6372    3.1883   -0.9745 H   0  0  0  0  0
  -14.3821    3.2598    0.7892 H   0  0  0  0  0
  -15.1369    5.6988    0.7232 H   0  0  0  0  0
  -14.1932    6.9210   -0.9411 H   0  0  0  0  0
  -13.7229    6.0786   -3.1080 H   0  0  0  0  0
  -14.2169    4.4099   -2.6205 H   0  0  0  0  0
  -11.7448    5.4692   -1.3719 H   0  0  0  0  0
  -11.6386    5.1715   -3.0799 H   0  0  0  0  0
  -13.0547    3.0590   -2.5019 H   0  0  0  0  0
  -12.2368    3.3485   -0.8484 H   0  0  0  0  0
  -10.7647    3.0132   -3.3858 H   0  0  0  0  0
  -11.2937    1.6111   -2.3346 H   0  0  0  0  0
   -9.5252    3.8955   -1.5420 H   0  0  0  0  0
  -10.0398    2.5315   -0.5193 H   0  0  0  0  0
   -9.0009    2.2399   -1.9359 H   0  0  0  0  0
  1  2  2  0  0  0
  2  3  1  0  0  0
  2  4  1  0  0  0
  4  5  1  0  0  0
  5  6  1  0  0  0
  6  7  1  0  0  0
  7  8  1  0  0  0
  7  9  1  0  0  0
  9 10  1  0  0  0
 10 11  1  0  0  0
 11 12  1  0  0  0
 12 13  1  0  0  0
 13 14  1  0  0  0
 14 15  2  0  0  0
 15 16  1  0  0  0
 16 17  1  0  0  0
 17 18  2  0  0  0
 18 19  1  0  0  0
 19 20  1  0  0  0
 20 21  1  0  0  0
 21 22  1  0  0  0
 22 23  1  0  0  0
  3 24  1  0  0  0
  4 25  1  0  0  0
  4 26  1  0  0  0
  5 27  1  0  0  0
  5 28  1  0  0  0
  6 29  1  0  0  0
  6 30  1  0  0  0
  7 31  1  0  0  0
  8 32  1  0  0  0
  9 33  1  0  0  0
  9 34  1  0  0  0
 10 35  1  0  0  0
 10 36  1  0  0  0
 11 37  1  0  0  0
 11 38  1  0  0  0
 12 39  1  0  0  0
 12 40  1  0  0  0
 13 41  1  0  0  0
 13 42  1  0  0  0
 14 43  1  0  0  0
 15 44  1  0  0  0
 16 45  1  0  0  0
 16 46  1  0  0  0
 17 47  1  0  0  0
 18 48  1  0  0  0
 19 49  1  0  0  0
 19 50  1  0  0  0
 20 51  1  0  0  0
 20 52  1  0  0  0
 21 53  1  0  0  0
 21 54  1  0  0  0
 22 55  1  0  0  0
 22 56  1  0  0  0
 23 57  1  0  0  0
 23 58  1  0  0  0
 23 59  1  0  0  0
M  END
$$$$
